MODEL 1
REMARK VINA RESULT:     -13.3      0.000      0.000
REMARK SMILES Cn1ccc(-c2n[nH]c(=O)n2-c2ccc(C(=O)NCCCCNC(=O)c3ccc(-c4c5nc(c(-c6ccc(S(=O)(=O)[O-])cc6)c6ccc([nH]6)c(-c6ccc(S(=O)(=O)[O-])cc6)c6nc(c(-c7ccc(S(=O)(=O)[O-])cc7)c7ccc4[nH]7)C=C6)C=C5)cc3)cc2)n1
REMARK SMILES IDX 21 1 20 2 19 3 18 4 16 5 17 6 15 8 12 9 13 10 87 11 14 12
REMARK SMILES IDX 86 13 11 14 6 15 7 16 8 17 9 18 10 20 5 21 1 22 2 23 3 24
REMARK SMILES IDX 88 25 4 26 22 27 23 28 24 29 25 31 26 32 27 33 85 34 28 35
REMARK SMILES IDX 84 36 29 37 30 38 31 39 78 40 32 41 83 42 77 43 79 44 33 45
REMARK SMILES IDX 82 46 76 47 75 48 34 50 64 51 45 52 63 53 46 54 49 55 62 56
REMARK SMILES IDX 80 57 47 58 48 59 61 61 81 62 50 63 35 64 36 65 44 66 37 67
REMARK SMILES IDX 43 68 38 69 39 70 40 71 41 72 42 73 65 74 66 75 74 76 67 77
REMARK SMILES IDX 73 78 68 79 69 80 70 81 71 82 72 83 51 84 52 85 60 86 53 87
REMARK SMILES IDX 59 88 54 89 55 90 56 91 57 92 58 93
REMARK H PARENT 18 7 8 19 23 30 79 49 49 60
REMARK Flexibility Score: inf
ROOT
ATOM      1  C   UNL A   1      35.839  21.848  24.655  1.00  0.00     0.023 C 
ENDROOT
BRANCH   1   2
ATOM      2  C   UNL A   1      35.157  20.892  25.646  1.00  0.00     0.023 C 
BRANCH   2   3
ATOM      3  C   UNL A   1      33.638  20.739  25.466  1.00  0.00     0.116 C 
BRANCH   3   4
ATOM      4  N   UNL A   1      32.925  21.273  26.611  1.00  0.00    -0.352 N 
ATOM      5  C   UNL A   1      32.584  22.547  26.998  1.00  0.00     0.251 C 
ATOM      6  O   UNL A   1      32.020  22.669  28.087  1.00  0.00    -0.269 OA
ATOM      7  H   UNL A   1      32.621  20.580  27.240  1.00  0.00     0.163 HD
BRANCH   5   8
ATOM      8  C   UNL A   1      32.819  23.767  26.170  1.00  0.00     0.039 A 
ATOM      9  C   UNL A   1      33.153  25.965  24.432  1.00  0.00     0.052 A 
ATOM     10  C   UNL A   1      31.934  25.292  24.472  1.00  0.00     0.028 A 
ATOM     11  C   UNL A   1      34.171  25.588  25.312  1.00  0.00     0.028 A 
ATOM     12  C   UNL A   1      31.783  24.180  25.312  1.00  0.00     0.016 A 
ATOM     13  C   UNL A   1      33.983  24.532  26.205  1.00  0.00     0.016 A 
BRANCH   9  14
ATOM     14  N   UNL A   1      33.359  27.063  23.588  1.00  0.00    -0.242 N 
ATOM     15  C   UNL A   1      33.011  28.366  23.800  1.00  0.00     0.189 A 
ATOM     16  N   UNL A   1      32.944  29.101  22.721  1.00  0.00    -0.150 NA
ATOM     17  N   UNL A   1      33.306  28.235  21.722  1.00  0.00    -0.226 N 
ATOM     18  C   UNL A   1      33.565  26.961  22.234  1.00  0.00     0.348 A 
ATOM     19  H   UNL A   1      33.376  28.480  20.772  1.00  0.00     0.195 HD
ATOM     20  O   UNL A   1      33.813  25.979  21.549  1.00  0.00    -0.246 OA
BRANCH  15  21
ATOM     21  C   UNL A   1      32.787  28.924  25.123  1.00  0.00     0.130 A 
ATOM     22  C   UNL A   1      33.784  31.058  27.719  1.00  0.00     0.173 C 
ATOM     23  N   UNL A   1      33.121  30.096  26.868  1.00  0.00    -0.275 N 
ATOM     24  C   UNL A   1      31.892  29.538  27.063  1.00  0.00     0.109 A 
ATOM     25  N   UNL A   1      33.707  29.700  25.724  1.00  0.00    -0.170 NA
ATOM     26  C   UNL A   1      31.630  28.800  25.934  1.00  0.00     0.054 A 
ENDBRANCH  15  21
ENDBRANCH   9  14
ENDBRANCH   5   8
ENDBRANCH   3   4
ENDBRANCH   2   3
ENDBRANCH   1   2
BRANCH   1  27
ATOM     27  C   UNL A   1      37.351  21.689  24.562  1.00  0.00     0.116 C 
BRANCH  27  28
ATOM     28  N   UNL A   1      37.813  20.336  24.903  1.00  0.00    -0.352 N 
ATOM     29  C   UNL A   1      39.007  19.962  25.512  1.00  0.00     0.251 C 
ATOM     30  H   UNL A   1      37.200  19.601  24.671  1.00  0.00     0.163 HD
ATOM     31  O   UNL A   1      39.452  18.834  25.401  1.00  0.00    -0.269 OA
BRANCH  29  32
ATOM     32  C   UNL A   1      39.692  20.973  26.336  1.00  0.00     0.039 A 
ATOM     33  C   UNL A   1      40.739  20.682  27.218  1.00  0.00     0.014 A 
ATOM     34  C   UNL A   1      39.271  22.278  26.133  1.00  0.00     0.014 A 
ATOM     35  C   UNL A   1      41.390  21.745  27.846  1.00  0.00     0.010 A 
ATOM     36  C   UNL A   1      40.083  23.299  26.512  1.00  0.00     0.010 A 
ATOM     37  C   UNL A   1      41.046  23.052  27.478  1.00  0.00    -0.014 A 
BRANCH  37  38
ATOM     38  C   UNL A   1      41.644  24.245  28.054  1.00  0.00     0.031 A 
ATOM     39  C   UNL A   1      40.771  25.448  28.070  1.00  0.00     0.074 A 
ATOM     40  C   UNL A   1      42.763  24.133  28.810  1.00  0.00     0.049 A 
ATOM     41  N   UNL A   1      40.954  26.562  27.449  1.00  0.00    -0.248 NA
ATOM     42  C   UNL A   1      39.468  25.360  28.753  1.00  0.00     0.031 C 
ATOM     43  C   UNL A   1      43.501  22.914  29.191  1.00  0.00     0.029 A 
ATOM     44  N   UNL A   1      43.393  25.081  29.541  1.00  0.00    -0.354 N 
ATOM     45  C   UNL A   1      39.898  27.394  27.815  1.00  0.00     0.074 A 
ATOM     46  C   UNL A   1      38.928  26.545  28.461  1.00  0.00     0.031 C 
ATOM     47  C   UNL A   1      44.277  23.169  30.269  1.00  0.00     0.029 A 
ATOM     48  C   UNL A   1      44.235  24.594  30.535  1.00  0.00     0.049 A 
ATOM     49  H   UNL A   1      43.264  26.044  29.383  1.00  0.00     0.167 HD
ATOM     50  C   UNL A   1      39.998  28.752  27.752  1.00  0.00     0.031 A 
ATOM     51  C   UNL A   1      44.811  25.315  31.532  1.00  0.00     0.031 A 
ATOM     52  C   UNL A   1      41.202  29.152  27.068  1.00  0.00     0.049 A 
ATOM     53  C   UNL A   1      44.753  26.739  31.103  1.00  0.00     0.074 A 
ATOM     54  C   UNL A   1      41.681  28.997  25.784  1.00  0.00     0.029 A 
ATOM     55  N   UNL A   1      42.295  29.438  27.854  1.00  0.00    -0.354 N 
ATOM     56  N   UNL A   1      45.375  27.190  30.046  1.00  0.00    -0.248 NA
ATOM     57  C   UNL A   1      43.608  27.527  31.533  1.00  0.00     0.031 C 
ATOM     58  C   UNL A   1      43.066  28.699  25.951  1.00  0.00     0.029 A 
ATOM     59  C   UNL A   1      43.372  28.784  27.313  1.00  0.00     0.049 A 
ATOM     60  H   UNL A   1      42.302  30.007  28.659  1.00  0.00     0.167 HD
ATOM     61  C   UNL A   1      44.469  28.047  29.434  1.00  0.00     0.074 A 
ATOM     62  C   UNL A   1      43.429  28.275  30.439  1.00  0.00     0.031 C 
ATOM     63  C   UNL A   1      44.482  28.255  28.082  1.00  0.00     0.031 A 
BRANCH  50  64
ATOM     64  C   UNL A   1      39.225  29.724  28.607  1.00  0.00    -0.014 A 
ATOM     65  C   UNL A   1      39.652  29.936  29.935  1.00  0.00     0.010 A 
ATOM     66  C   UNL A   1      37.962  30.235  28.253  1.00  0.00     0.010 A 
ATOM     67  C   UNL A   1      38.823  30.556  30.879  1.00  0.00     0.020 A 
ATOM     68  C   UNL A   1      37.143  30.893  29.177  1.00  0.00     0.020 A 
ATOM     69  C   UNL A   1      37.565  31.016  30.494  1.00  0.00     0.054 A 
BRANCH  69  70
ATOM     70  S   UNL A   1      36.458  31.705  31.747  1.00  0.00     0.124 S 
ATOM     71  O   UNL A   1      35.177  31.714  31.045  1.00  0.00    -0.237 OA
ATOM     72  O   UNL A   1      36.578  30.737  32.834  1.00  0.00    -0.237 OA
ATOM     73  O   UNL A   1      37.030  33.021  32.023  1.00  0.00    -0.744 OA
ENDBRANCH  69  70
ENDBRANCH  50  64
BRANCH  51  74
ATOM     74  C   UNL A   1      45.024  24.899  32.947  1.00  0.00    -0.014 A 
ATOM     75  C   UNL A   1      44.055  24.161  33.653  1.00  0.00     0.010 A 
ATOM     76  C   UNL A   1      46.313  24.987  33.515  1.00  0.00     0.010 A 
ATOM     77  C   UNL A   1      44.380  23.488  34.848  1.00  0.00     0.020 A 
ATOM     78  C   UNL A   1      46.644  24.323  34.704  1.00  0.00     0.020 A 
ATOM     79  C   UNL A   1      45.681  23.555  35.354  1.00  0.00     0.054 A 
BRANCH  79  80
ATOM     80  S   UNL A   1      46.145  22.536  36.789  1.00  0.00     0.124 S 
ATOM     81  O   UNL A   1      47.604  22.602  36.757  1.00  0.00    -0.237 OA
ATOM     82  O   UNL A   1      45.505  23.237  37.898  1.00  0.00    -0.237 OA
ATOM     83  O   UNL A   1      45.578  21.226  36.477  1.00  0.00    -0.744 OA
ENDBRANCH  79  80
ENDBRANCH  51  74
BRANCH  63  84
ATOM     84  C   UNL A   1      45.637  27.704  27.272  1.00  0.00    -0.014 A 
ATOM     85  C   UNL A   1      45.658  26.414  26.702  1.00  0.00     0.010 A 
ATOM     86  C   UNL A   1      46.646  28.611  26.903  1.00  0.00     0.010 A 
ATOM     87  C   UNL A   1      46.669  26.042  25.799  1.00  0.00     0.020 A 
ATOM     88  C   UNL A   1      47.643  28.253  25.994  1.00  0.00     0.020 A 
ATOM     89  C   UNL A   1      47.655  26.968  25.450  1.00  0.00     0.054 A 
BRANCH  89  90
ATOM     90  S   UNL A   1      48.932  26.512  24.240  1.00  0.00     0.124 S 
ATOM     91  O   UNL A   1      48.226  25.568  23.378  1.00  0.00    -0.237 OA
ATOM     92  O   UNL A   1      49.269  27.794  23.624  1.00  0.00    -0.237 OA
ATOM     93  O   UNL A   1      49.995  25.929  25.058  1.00  0.00    -0.744 OA
ENDBRANCH  89  90
ENDBRANCH  63  84
ENDBRANCH  37  38
ENDBRANCH  29  32
ENDBRANCH  27  28
ENDBRANCH   1  27
TORSDOF 16
ENDMDL
MODEL 2
REMARK VINA RESULT:     -13.2      3.935      8.700
REMARK SMILES Cn1ccc(-c2n[nH]c(=O)n2-c2ccc(C(=O)NCCCCNC(=O)c3ccc(-c4c5nc(c(-c6ccc(S(=O)(=O)[O-])cc6)c6ccc([nH]6)c(-c6ccc(S(=O)(=O)[O-])cc6)c6nc(c(-c7ccc(S(=O)(=O)[O-])cc7)c7ccc4[nH]7)C=C6)C=C5)cc3)cc2)n1
REMARK SMILES IDX 21 1 20 2 19 3 18 4 16 5 17 6 15 8 12 9 13 10 87 11 14 12
REMARK SMILES IDX 86 13 11 14 6 15 7 16 8 17 9 18 10 20 5 21 1 22 2 23 3 24
REMARK SMILES IDX 88 25 4 26 22 27 23 28 24 29 25 31 26 32 27 33 85 34 28 35
REMARK SMILES IDX 84 36 29 37 30 38 31 39 78 40 32 41 83 42 77 43 79 44 33 45
REMARK SMILES IDX 82 46 76 47 75 48 34 50 64 51 45 52 63 53 46 54 49 55 62 56
REMARK SMILES IDX 80 57 47 58 48 59 61 61 81 62 50 63 35 64 36 65 44 66 37 67
REMARK SMILES IDX 43 68 38 69 39 70 40 71 41 72 42 73 65 74 66 75 74 76 67 77
REMARK SMILES IDX 73 78 68 79 69 80 70 81 71 82 72 83 51 84 52 85 60 86 53 87
REMARK SMILES IDX 59 88 54 89 55 90 56 91 57 92 58 93
REMARK H PARENT 18 7 8 19 23 30 79 49 49 60
REMARK Flexibility Score: inf
ROOT
ATOM      1  C   UNL A   1      39.537  22.439  26.611  1.00  0.00     0.023 C 
ENDROOT
BRANCH   1   2
ATOM      2  C   UNL A   1      38.875  23.719  27.144  1.00  0.00     0.023 C 
BRANCH   2   3
ATOM      3  C   UNL A   1      37.823  24.345  26.214  1.00  0.00     0.116 C 
BRANCH   3   4
ATOM      4  N   UNL A   1      37.717  23.600  24.974  1.00  0.00    -0.352 N 
ATOM      5  C   UNL A   1      36.651  23.140  24.240  1.00  0.00     0.251 C 
ATOM      6  O   UNL A   1      36.909  22.465  23.241  1.00  0.00    -0.269 OA
ATOM      7  H   UNL A   1      38.590  23.378  24.576  1.00  0.00     0.163 HD
BRANCH   5   8
ATOM      8  C   UNL A   1      35.223  23.438  24.556  1.00  0.00     0.039 A 
ATOM      9  C   UNL A   1      32.554  23.890  25.354  1.00  0.00     0.052 A 
ATOM     10  C   UNL A   1      33.587  24.034  26.277  1.00  0.00     0.028 A 
ATOM     11  C   UNL A   1      32.862  23.597  24.023  1.00  0.00     0.028 A 
ATOM     12  C   UNL A   1      34.908  23.776  25.885  1.00  0.00     0.016 A 
ATOM     13  C   UNL A   1      34.188  23.424  23.623  1.00  0.00     0.016 A 
BRANCH   9  14
ATOM     14  N   UNL A   1      31.216  24.109  25.708  1.00  0.00    -0.242 N 
ATOM     15  C   UNL A   1      30.608  25.293  26.009  1.00  0.00     0.189 A 
ATOM     16  N   UNL A   1      29.495  25.184  26.684  1.00  0.00    -0.150 NA
ATOM     17  N   UNL A   1      29.331  23.830  26.813  1.00  0.00    -0.226 N 
ATOM     18  C   UNL A   1      30.390  23.139  26.219  1.00  0.00     0.348 A 
ATOM     19  H   UNL A   1      28.568  23.402  27.264  1.00  0.00     0.195 HD
ATOM     20  O   UNL A   1      30.542  21.927  26.274  1.00  0.00    -0.246 OA
BRANCH  15  21
ATOM     21  C   UNL A   1      31.114  26.582  25.568  1.00  0.00     0.130 A 
ATOM     22  C   UNL A   1      31.593  28.937  23.016  1.00  0.00     0.173 C 
ATOM     23  N   UNL A   1      31.571  28.195  24.257  1.00  0.00    -0.275 N 
ATOM     24  C   UNL A   1      31.917  28.654  25.493  1.00  0.00     0.109 A 
ATOM     25  N   UNL A   1      31.130  26.925  24.267  1.00  0.00    -0.170 NA
ATOM     26  C   UNL A   1      31.601  27.645  26.371  1.00  0.00     0.054 A 
ENDBRANCH  15  21
ENDBRANCH   9  14
ENDBRANCH   5   8
ENDBRANCH   3   4
ENDBRANCH   2   3
ENDBRANCH   1   2
BRANCH   1  27
ATOM     27  C   UNL A   1      40.874  22.103  27.259  1.00  0.00     0.116 C 
BRANCH  27  28
ATOM     28  N   UNL A   1      41.991  22.079  26.303  1.00  0.00    -0.352 N 
ATOM     29  C   UNL A   1      42.554  23.147  25.609  1.00  0.00     0.251 C 
ATOM     30  H   UNL A   1      42.393  21.197  26.133  1.00  0.00     0.163 HD
ATOM     31  O   UNL A   1      43.193  22.975  24.587  1.00  0.00    -0.269 OA
BRANCH  29  32
ATOM     32  C   UNL A   1      42.385  24.492  26.185  1.00  0.00     0.039 A 
ATOM     33  C   UNL A   1      41.547  25.473  25.644  1.00  0.00     0.014 A 
ATOM     34  C   UNL A   1      43.073  24.714  27.368  1.00  0.00     0.014 A 
ATOM     35  C   UNL A   1      41.375  26.662  26.354  1.00  0.00     0.010 A 
ATOM     36  C   UNL A   1      42.679  25.730  28.179  1.00  0.00     0.010 A 
ATOM     37  C   UNL A   1      41.952  26.772  27.626  1.00  0.00    -0.014 A 
BRANCH  37  38
ATOM     38  C   UNL A   1      41.851  27.953  28.467  1.00  0.00     0.031 A 
ATOM     39  C   UNL A   1      42.910  28.975  28.256  1.00  0.00     0.074 A 
ATOM     40  C   UNL A   1      40.691  28.214  29.117  1.00  0.00     0.049 A 
ATOM     41  N   UNL A   1      43.805  29.367  29.096  1.00  0.00    -0.248 NA
ATOM     42  C   UNL A   1      43.083  29.537  26.904  1.00  0.00     0.031 C 
ATOM     43  C   UNL A   1      39.423  27.460  29.080  1.00  0.00     0.029 A 
ATOM     44  N   UNL A   1      40.343  29.311  29.827  1.00  0.00    -0.354 N 
ATOM     45  C   UNL A   1      44.532  30.369  28.456  1.00  0.00     0.074 A 
ATOM     46  C   UNL A   1      44.169  30.297  27.064  1.00  0.00     0.031 C 
ATOM     47  C   UNL A   1      38.410  28.252  29.499  1.00  0.00     0.029 A 
ATOM     48  C   UNL A   1      38.975  29.488  30.004  1.00  0.00     0.049 A 
ATOM     49  H   UNL A   1      41.009  29.938  30.192  1.00  0.00     0.167 HD
ATOM     50  C   UNL A   1      45.213  31.320  29.156  1.00  0.00     0.031 A 
ATOM     51  C   UNL A   1      38.359  30.600  30.485  1.00  0.00     0.031 A 
ATOM     52  C   UNL A   1      45.252  31.002  30.562  1.00  0.00     0.049 A 
ATOM     53  C   UNL A   1      39.406  31.380  31.198  1.00  0.00     0.074 A 
ATOM     54  C   UNL A   1      45.798  29.978  31.306  1.00  0.00     0.029 A 
ATOM     55  N   UNL A   1      44.286  31.581  31.354  1.00  0.00    -0.354 N 
ATOM     56  N   UNL A   1      40.030  30.935  32.256  1.00  0.00    -0.248 NA
ATOM     57  C   UNL A   1      40.115  32.404  30.444  1.00  0.00     0.031 C 
ATOM     58  C   UNL A   1      44.805  29.677  32.285  1.00  0.00     0.029 A 
ATOM     59  C   UNL A   1      43.758  30.593  32.145  1.00  0.00     0.049 A 
ATOM     60  H   UNL A   1      44.023  32.531  31.352  1.00  0.00     0.167 HD
ATOM     61  C   UNL A   1      41.360  31.292  32.065  1.00  0.00     0.074 A 
ATOM     62  C   UNL A   1      41.336  32.263  30.970  1.00  0.00     0.031 C 
ATOM     63  C   UNL A   1      42.381  30.556  32.600  1.00  0.00     0.031 A 
BRANCH  50  64
ATOM     64  C   UNL A   1      45.530  32.708  28.660  1.00  0.00    -0.014 A 
ATOM     65  C   UNL A   1      46.865  33.160  28.737  1.00  0.00     0.010 A 
ATOM     66  C   UNL A   1      44.545  33.671  28.366  1.00  0.00     0.010 A 
ATOM     67  C   UNL A   1      47.185  34.517  28.606  1.00  0.00     0.020 A 
ATOM     68  C   UNL A   1      44.860  35.023  28.192  1.00  0.00     0.020 A 
ATOM     69  C   UNL A   1      46.174  35.442  28.351  1.00  0.00     0.054 A 
BRANCH  69  70
ATOM     70  S   UNL A   1      46.582  37.204  28.304  1.00  0.00     0.124 S 
ATOM     71  O   UNL A   1      47.979  37.200  28.732  1.00  0.00    -0.237 OA
ATOM     72  O   UNL A   1      46.350  37.539  26.902  1.00  0.00    -0.237 OA
ATOM     73  O   UNL A   1      45.639  37.799  29.247  1.00  0.00    -0.744 OA
ENDBRANCH  69  70
ENDBRANCH  50  64
BRANCH  51  74
ATOM     74  C   UNL A   1      37.070  31.192  30.030  1.00  0.00    -0.014 A 
ATOM     75  C   UNL A   1      36.124  31.692  30.945  1.00  0.00     0.010 A 
ATOM     76  C   UNL A   1      36.895  31.525  28.669  1.00  0.00     0.010 A 
ATOM     77  C   UNL A   1      35.080  32.540  30.522  1.00  0.00     0.020 A 
ATOM     78  C   UNL A   1      35.858  32.365  28.241  1.00  0.00     0.020 A 
ATOM     79  C   UNL A   1      34.968  32.890  29.174  1.00  0.00     0.054 A 
BRANCH  79  80
ATOM     80  S   UNL A   1      33.738  34.131  28.663  1.00  0.00     0.124 S 
ATOM     81  O   UNL A   1      34.572  35.154  28.037  1.00  0.00    -0.237 OA
ATOM     82  O   UNL A   1      32.881  33.373  27.756  1.00  0.00    -0.237 OA
ATOM     83  O   UNL A   1      33.109  34.528  29.921  1.00  0.00    -0.744 OA
ENDBRANCH  79  80
ENDBRANCH  51  74
BRANCH  63  84
ATOM     84  C   UNL A   1      42.049  29.457  33.587  1.00  0.00    -0.014 A 
ATOM     85  C   UNL A   1      41.846  28.108  33.230  1.00  0.00     0.010 A 
ATOM     86  C   UNL A   1      42.152  29.774  34.953  1.00  0.00     0.010 A 
ATOM     87  C   UNL A   1      41.739  27.110  34.214  1.00  0.00     0.020 A 
ATOM     88  C   UNL A   1      42.063  28.786  35.935  1.00  0.00     0.020 A 
ATOM     89  C   UNL A   1      41.850  27.458  35.563  1.00  0.00     0.054 A 
BRANCH  89  90
ATOM     90  S   UNL A   1      41.770  26.166  36.837  1.00  0.00     0.124 S 
ATOM     91  O   UNL A   1      40.432  26.352  37.391  1.00  0.00    -0.237 OA
ATOM     92  O   UNL A   1      41.967  24.938  36.068  1.00  0.00    -0.237 OA
ATOM     93  O   UNL A   1      42.867  26.501  37.743  1.00  0.00    -0.744 OA
ENDBRANCH  89  90
ENDBRANCH  63  84
ENDBRANCH  37  38
ENDBRANCH  29  32
ENDBRANCH  27  28
ENDBRANCH   1  27
TORSDOF 16
ENDMDL
MODEL 3
REMARK VINA RESULT:     -13.2      4.336     10.346
REMARK SMILES Cn1ccc(-c2n[nH]c(=O)n2-c2ccc(C(=O)NCCCCNC(=O)c3ccc(-c4c5nc(c(-c6ccc(S(=O)(=O)[O-])cc6)c6ccc([nH]6)c(-c6ccc(S(=O)(=O)[O-])cc6)c6nc(c(-c7ccc(S(=O)(=O)[O-])cc7)c7ccc4[nH]7)C=C6)C=C5)cc3)cc2)n1
REMARK SMILES IDX 21 1 20 2 19 3 18 4 16 5 17 6 15 8 12 9 13 10 87 11 14 12
REMARK SMILES IDX 86 13 11 14 6 15 7 16 8 17 9 18 10 20 5 21 1 22 2 23 3 24
REMARK SMILES IDX 88 25 4 26 22 27 23 28 24 29 25 31 26 32 27 33 85 34 28 35
REMARK SMILES IDX 84 36 29 37 30 38 31 39 78 40 32 41 83 42 77 43 79 44 33 45
REMARK SMILES IDX 82 46 76 47 75 48 34 50 64 51 45 52 63 53 46 54 49 55 62 56
REMARK SMILES IDX 80 57 47 58 48 59 61 61 81 62 50 63 35 64 36 65 44 66 37 67
REMARK SMILES IDX 43 68 38 69 39 70 40 71 41 72 42 73 65 74 66 75 74 76 67 77
REMARK SMILES IDX 73 78 68 79 69 80 70 81 71 82 72 83 51 84 52 85 60 86 53 87
REMARK SMILES IDX 59 88 54 89 55 90 56 91 57 92 58 93
REMARK H PARENT 18 7 8 19 23 30 79 49 49 60
REMARK Flexibility Score: inf
ROOT
ATOM      1  C   UNL A   1      31.228  31.822  26.373  1.00  0.00     0.023 C 
ENDROOT
BRANCH   1   2
ATOM      2  C   UNL A   1      31.403  30.363  25.922  1.00  0.00     0.023 C 
BRANCH   2   3
ATOM      3  C   UNL A   1      32.857  29.870  25.855  1.00  0.00     0.116 C 
BRANCH   3   4
ATOM      4  N   UNL A   1      33.284  29.699  24.479  1.00  0.00    -0.352 N 
ATOM      5  C   UNL A   1      33.608  28.599  23.722  1.00  0.00     0.251 C 
ATOM      6  O   UNL A   1      34.005  28.806  22.575  1.00  0.00    -0.269 OA
ATOM      7  H   UNL A   1      33.355  30.548  23.984  1.00  0.00     0.163 HD
BRANCH   5   8
ATOM      8  C   UNL A   1      33.473  27.188  24.192  1.00  0.00     0.039 A 
ATOM      9  C   UNL A   1      33.004  24.521  24.985  1.00  0.00     0.052 A 
ATOM     10  C   UNL A   1      32.623  24.943  23.713  1.00  0.00     0.028 A 
ATOM     11  C   UNL A   1      33.684  25.407  25.824  1.00  0.00     0.028 A 
ATOM     12  C   UNL A   1      32.827  26.277  23.335  1.00  0.00     0.016 A 
ATOM     13  C   UNL A   1      33.958  26.711  25.408  1.00  0.00     0.016 A 
BRANCH   9  14
ATOM     14  N   UNL A   1      32.794  23.205  25.416  1.00  0.00    -0.242 N 
ATOM     15  C   UNL A   1      33.573  22.109  25.186  1.00  0.00     0.189 A 
ATOM     16  N   UNL A   1      32.968  20.960  25.339  1.00  0.00    -0.150 NA
ATOM     17  N   UNL A   1      31.705  21.315  25.733  1.00  0.00    -0.226 N 
ATOM     18  C   UNL A   1      31.569  22.705  25.784  1.00  0.00     0.348 A 
ATOM     19  H   UNL A   1      30.989  20.676  25.952  1.00  0.00     0.195 HD
ATOM     20  O   UNL A   1      30.519  23.288  26.012  1.00  0.00    -0.246 OA
BRANCH  15  21
ATOM     21  C   UNL A   1      34.985  22.192  24.853  1.00  0.00     0.130 A 
ATOM     22  C   UNL A   1      38.336  21.595  25.692  1.00  0.00     0.173 C 
ATOM     23  N   UNL A   1      37.093  21.987  25.066  1.00  0.00    -0.275 N 
ATOM     24  C   UNL A   1      36.923  22.434  23.790  1.00  0.00     0.109 A 
ATOM     25  N   UNL A   1      35.940  21.880  25.749  1.00  0.00    -0.170 NA
ATOM     26  C   UNL A   1      35.565  22.545  23.607  1.00  0.00     0.054 A 
ENDBRANCH  15  21
ENDBRANCH   9  14
ENDBRANCH   5   8
ENDBRANCH   3   4
ENDBRANCH   2   3
ENDBRANCH   1   2
BRANCH   1  27
ATOM     27  C   UNL A   1      32.376  32.364  27.214  1.00  0.00     0.116 C 
BRANCH  27  28
ATOM     28  N   UNL A   1      32.291  33.814  27.442  1.00  0.00    -0.352 N 
ATOM     29  C   UNL A   1      32.947  34.574  28.407  1.00  0.00     0.251 C 
ATOM     30  H   UNL A   1      31.696  34.311  26.835  1.00  0.00     0.163 HD
ATOM     31  O   UNL A   1      32.527  35.664  28.751  1.00  0.00    -0.269 OA
BRANCH  29  32
ATOM     32  C   UNL A   1      34.195  34.028  28.965  1.00  0.00     0.039 A 
ATOM     33  C   UNL A   1      34.284  33.400  30.212  1.00  0.00     0.014 A 
ATOM     34  C   UNL A   1      35.298  34.114  28.129  1.00  0.00     0.014 A 
ATOM     35  C   UNL A   1      35.497  32.811  30.573  1.00  0.00     0.010 A 
ATOM     36  C   UNL A   1      36.363  33.301  28.357  1.00  0.00     0.010 A 
ATOM     37  C   UNL A   1      36.529  32.771  29.626  1.00  0.00    -0.014 A 
BRANCH  37  38
ATOM     38  C   UNL A   1      37.838  32.190  29.873  1.00  0.00     0.031 A 
ATOM     39  C   UNL A   1      38.024  30.807  29.362  1.00  0.00     0.074 A 
ATOM     40  C   UNL A   1      38.870  32.994  30.224  1.00  0.00     0.049 A 
ATOM     41  N   UNL A   1      38.247  29.737  30.047  1.00  0.00    -0.248 NA
ATOM     42  C   UNL A   1      37.808  30.553  27.926  1.00  0.00     0.031 C 
ATOM     43  C   UNL A   1      38.887  34.461  30.377  1.00  0.00     0.029 A 
ATOM     44  N   UNL A   1      40.180  32.685  30.363  1.00  0.00    -0.354 N 
ATOM     45  C   UNL A   1      38.398  28.704  29.125  1.00  0.00     0.074 A 
ATOM     46  C   UNL A   1      37.936  29.226  27.863  1.00  0.00     0.031 C 
ATOM     47  C   UNL A   1      40.160  34.912  30.312  1.00  0.00     0.029 A 
ATOM     48  C   UNL A   1      41.050  33.767  30.302  1.00  0.00     0.049 A 
ATOM     49  H   UNL A   1      40.494  31.760  30.496  1.00  0.00     0.167 HD
ATOM     50  C   UNL A   1      39.095  27.571  29.424  1.00  0.00     0.031 A 
ATOM     51  C   UNL A   1      42.404  33.712  30.200  1.00  0.00     0.031 A 
ATOM     52  C   UNL A   1      39.420  27.517  30.827  1.00  0.00     0.049 A 
ATOM     53  C   UNL A   1      42.798  32.340  30.622  1.00  0.00     0.074 A 
ATOM     54  C   UNL A   1      38.679  27.441  31.988  1.00  0.00     0.029 A 
ATOM     55  N   UNL A   1      40.662  27.982  31.193  1.00  0.00    -0.354 N 
ATOM     56  N   UNL A   1      42.596  31.881  31.828  1.00  0.00    -0.248 NA
ATOM     57  C   UNL A   1      42.928  31.327  29.585  1.00  0.00     0.031 C 
ATOM     58  C   UNL A   1      39.337  28.327  32.892  1.00  0.00     0.029 A 
ATOM     59  C   UNL A   1      40.488  28.817  32.267  1.00  0.00     0.049 A 
ATOM     60  H   UNL A   1      41.519  27.757  30.762  1.00  0.00     0.167 HD
ATOM     61  C   UNL A   1      42.149  30.577  31.647  1.00  0.00     0.074 A 
ATOM     62  C   UNL A   1      42.451  30.268  30.247  1.00  0.00     0.031 C 
ATOM     63  C   UNL A   1      41.314  29.976  32.547  1.00  0.00     0.031 A 
BRANCH  50  64
ATOM     64  C   UNL A   1      39.802  26.693  28.423  1.00  0.00    -0.014 A 
ATOM     65  C   UNL A   1      39.416  25.338  28.329  1.00  0.00     0.010 A 
ATOM     66  C   UNL A   1      40.989  27.066  27.764  1.00  0.00     0.010 A 
ATOM     67  C   UNL A   1      40.220  24.394  27.676  1.00  0.00     0.020 A 
ATOM     68  C   UNL A   1      41.777  26.139  27.074  1.00  0.00     0.020 A 
ATOM     69  C   UNL A   1      41.405  24.802  27.067  1.00  0.00     0.054 A 
BRANCH  69  70
ATOM     70  S   UNL A   1      42.492  23.555  26.333  1.00  0.00     0.124 S 
ATOM     71  O   UNL A   1      41.635  22.372  26.331  1.00  0.00    -0.237 OA
ATOM     72  O   UNL A   1      42.782  24.130  25.022  1.00  0.00    -0.237 OA
ATOM     73  O   UNL A   1      43.626  23.506  27.253  1.00  0.00    -0.744 OA
ENDBRANCH  69  70
ENDBRANCH  50  64
BRANCH  51  74
ATOM     74  C   UNL A   1      43.291  34.605  29.403  1.00  0.00    -0.014 A 
ATOM     75  C   UNL A   1      44.505  35.095  29.924  1.00  0.00     0.010 A 
ATOM     76  C   UNL A   1      43.077  34.747  28.015  1.00  0.00     0.010 A 
ATOM     77  C   UNL A   1      45.488  35.649  29.080  1.00  0.00     0.020 A 
ATOM     78  C   UNL A   1      44.049  35.299  27.170  1.00  0.00     0.020 A 
ATOM     79  C   UNL A   1      45.263  35.726  27.703  1.00  0.00     0.054 A 
BRANCH  79  80
ATOM     80  S   UNL A   1      46.604  36.266  26.597  1.00  0.00     0.124 S 
ATOM     81  O   UNL A   1      46.231  37.648  26.309  1.00  0.00    -0.237 OA
ATOM     82  O   UNL A   1      47.791  36.092  27.428  1.00  0.00    -0.237 OA
ATOM     83  O   UNL A   1      46.503  35.348  25.464  1.00  0.00    -0.744 OA
ENDBRANCH  79  80
ENDBRANCH  51  74
BRANCH  63  84
ATOM     84  C   UNL A   1      41.042  30.670  33.865  1.00  0.00    -0.014 A 
ATOM     85  C   UNL A   1      41.842  30.519  35.017  1.00  0.00     0.010 A 
ATOM     86  C   UNL A   1      40.057  31.672  33.867  1.00  0.00     0.010 A 
ATOM     87  C   UNL A   1      41.650  31.341  36.140  1.00  0.00     0.020 A 
ATOM     88  C   UNL A   1      39.872  32.504  34.973  1.00  0.00     0.020 A 
ATOM     89  C   UNL A   1      40.665  32.331  36.109  1.00  0.00     0.054 A 
BRANCH  89  90
ATOM     90  S   UNL A   1      40.450  33.435  37.535  1.00  0.00     0.124 S 
ATOM     91  O   UNL A   1      41.822  33.835  37.835  1.00  0.00    -0.237 OA
ATOM     92  O   UNL A   1      39.589  34.490  37.004  1.00  0.00    -0.237 OA
ATOM     93  O   UNL A   1      39.820  32.583  38.543  1.00  0.00    -0.744 OA
ENDBRANCH  89  90
ENDBRANCH  63  84
ENDBRANCH  37  38
ENDBRANCH  29  32
ENDBRANCH  27  28
ENDBRANCH   1  27
TORSDOF 16
ENDMDL
