MODEL 1
REMARK VINA RESULT:     -10.5      0.000      0.000
REMARK SMILES NC(=O)CC[N@@H+]1[C@@H](C(=O)NCCCCNC(=O)c2ccc(-c3c4nc(c(-c5ccc(S(=O)(=O)[O-])cc5)c5ccc([nH]5)c(-c5ccc(S(=O)(=O)[O-])cc5)c5nc(c(-c6ccc(S(=O)(=O)[O-])cc6)c6ccc3[nH]6)C=C5)C=C4)cc2)CC[C@@H]2CCCC[C@H]21
REMARK SMILES IDX 12 1 11 2 10 3 8 4 9 5 7 7 6 8 85 9 78 11 80 12 84 13 79 14
REMARK SMILES IDX 81 15 83 16 82 17 5 18 4 19 2 20 1 21 3 24 13 25 14 26 15 27
REMARK SMILES IDX 16 28 17 30 18 31 19 32 77 33 20 34 76 35 21 36 22 37 23 38
REMARK SMILES IDX 70 39 24 40 75 41 69 42 71 43 25 44 74 45 68 46 67 47 26 49
REMARK SMILES IDX 56 50 37 51 55 52 38 53 41 54 54 55 72 56 39 57 40 58 53 60
REMARK SMILES IDX 73 61 42 62 27 63 28 64 36 65 29 66 35 67 30 68 31 69 32 70
REMARK SMILES IDX 33 71 34 72 57 73 58 74 66 75 59 76 65 77 60 78 61 79 62 80
REMARK SMILES IDX 63 81 64 82 43 83 44 84 52 85 45 86 51 87 46 88 47 89 48 90
REMARK SMILES IDX 49 91 50 92
REMARK H PARENT 10 6 6 10 1 22 1 23 15 29 71 48 41 59
REMARK Flexibility Score: inf
ROOT
ATOM      1  C   UNL A   1      34.484  24.161  24.880  1.00  0.00     0.023 C 
ENDROOT
BRANCH   1   2
ATOM      2  C   UNL A   1      34.129  25.644  24.911  1.00  0.00     0.116 C 
BRANCH   2   3
ATOM      3  N   UNL A   1      33.378  26.000  26.098  1.00  0.00    -0.351 N 
ATOM      4  C   UNL A   1      32.176  26.632  26.210  1.00  0.00     0.278 C 
ATOM      5  O   UNL A   1      31.722  26.812  27.344  1.00  0.00    -0.268 OA
ATOM      6  H   UNL A   1      33.800  25.749  26.951  1.00  0.00     0.163 HD
BRANCH   4   7
ATOM      7  C   UNL A   1      31.393  27.129  24.970  1.00  0.00     0.274 C 
ATOM      8  N   UNL A   1      31.080  28.618  25.022  1.00  0.00    -0.322 N 
ATOM      9  C   UNL A   1      30.273  28.981  23.803  1.00  0.00     0.187 C 
ATOM     10  H   UNL A   1      30.516  28.874  25.832  1.00  0.00     0.349 HD
ATOM     11  C   UNL A   1      30.183  26.204  24.779  1.00  0.00     0.076 C 
ATOM     12  C   UNL A   1      28.970  28.130  23.767  1.00  0.00     0.048 C 
ATOM     13  C   UNL A   1      29.917  30.480  23.706  1.00  0.00     0.065 C 
ATOM     14  C   UNL A   1      29.308  26.645  23.628  1.00  0.00     0.016 C 
ATOM     15  C   UNL A   1      28.015  28.520  22.632  1.00  0.00     0.010 C 
ATOM     16  C   UNL A   1      28.940  30.824  22.584  1.00  0.00     0.006 C 
ATOM     17  C   UNL A   1      27.672  29.998  22.674  1.00  0.00     0.001 C 
BRANCH   8  18
ATOM     18  C   UNL A   1      32.382  29.354  25.125  1.00  0.00     0.273 C 
BRANCH  18  19
ATOM     19  C   UNL A   1      32.702  30.235  26.345  1.00  0.00     0.161 C 
BRANCH  19  20
ATOM     20  C   UNL A   1      33.896  29.859  27.191  1.00  0.00     0.223 C 
ATOM     21  N   UNL A   1      34.226  30.714  28.191  1.00  0.00    -0.369 N 
ATOM     22  H   UNL A   1      34.996  30.518  28.772  1.00  0.00     0.159 HD
ATOM     23  H   UNL A   1      33.696  31.531  28.334  1.00  0.00     0.159 HD
ATOM     24  O   UNL A   1      34.612  28.896  26.935  1.00  0.00    -0.275 OA
ENDBRANCH  19  20
ENDBRANCH  18  19
ENDBRANCH   8  18
ENDBRANCH   4   7
ENDBRANCH   2   3
ENDBRANCH   1   2
BRANCH   1  25
ATOM     25  C   UNL A   1      35.710  23.781  25.711  1.00  0.00     0.023 C 
BRANCH  25  26
ATOM     26  C   UNL A   1      37.038  23.809  24.962  1.00  0.00     0.116 C 
BRANCH  26  27
ATOM     27  N   UNL A   1      37.973  22.793  25.418  1.00  0.00    -0.352 N 
ATOM     28  C   UNL A   1      39.077  22.934  26.231  1.00  0.00     0.251 C 
ATOM     29  H   UNL A   1      37.792  21.878  25.104  1.00  0.00     0.163 HD
ATOM     30  O   UNL A   1      39.824  21.989  26.418  1.00  0.00    -0.269 OA
BRANCH  28  31
ATOM     31  C   UNL A   1      39.363  24.254  26.836  1.00  0.00     0.039 A 
ATOM     32  C   UNL A   1      38.930  24.504  28.140  1.00  0.00     0.014 A 
ATOM     33  C   UNL A   1      40.085  25.222  26.133  1.00  0.00     0.014 A 
ATOM     34  C   UNL A   1      39.286  25.700  28.766  1.00  0.00     0.010 A 
ATOM     35  C   UNL A   1      40.496  26.383  26.782  1.00  0.00     0.010 A 
ATOM     36  C   UNL A   1      40.105  26.632  28.107  1.00  0.00    -0.014 A 
BRANCH  36  37
ATOM     37  C   UNL A   1      40.569  27.867  28.786  1.00  0.00     0.031 A 
ATOM     38  C   UNL A   1      41.952  27.933  29.372  1.00  0.00     0.074 A 
ATOM     39  C   UNL A   1      39.722  28.907  28.935  1.00  0.00     0.049 A 
ATOM     40  N   UNL A   1      42.512  28.898  30.056  1.00  0.00    -0.248 NA
ATOM     41  C   UNL A   1      42.809  26.750  29.188  1.00  0.00     0.031 C 
ATOM     42  C   UNL A   1      38.341  28.951  28.449  1.00  0.00     0.029 A 
ATOM     43  N   UNL A   1      39.897  30.122  29.546  1.00  0.00    -0.354 N 
ATOM     44  C   UNL A   1      43.777  28.433  30.398  1.00  0.00     0.074 A 
ATOM     45  C   UNL A   1      43.884  27.084  29.887  1.00  0.00     0.031 C 
ATOM     46  C   UNL A   1      37.804  30.143  28.757  1.00  0.00     0.029 A 
ATOM     47  C   UNL A   1      38.786  30.931  29.496  1.00  0.00     0.049 A 
ATOM     48  H   UNL A   1      40.739  30.391  29.980  1.00  0.00     0.167 HD
ATOM     49  C   UNL A   1      44.768  29.077  31.061  1.00  0.00     0.031 A 
ATOM     50  C   UNL A   1      38.578  32.167  29.991  1.00  0.00     0.031 A 
ATOM     51  C   UNL A   1      44.664  30.423  31.558  1.00  0.00     0.049 A 
ATOM     52  C   UNL A   1      39.691  32.860  30.727  1.00  0.00     0.074 A 
ATOM     53  C   UNL A   1      45.631  31.181  32.195  1.00  0.00     0.029 A 
ATOM     54  N   UNL A   1      43.527  31.211  31.475  1.00  0.00    -0.354 N 
ATOM     55  N   UNL A   1      40.901  32.426  30.987  1.00  0.00    -0.248 NA
ATOM     56  C   UNL A   1      39.414  34.214  31.225  1.00  0.00     0.031 C 
ATOM     57  C   UNL A   1      45.064  32.415  32.535  1.00  0.00     0.029 A 
ATOM     58  C   UNL A   1      43.761  32.442  32.064  1.00  0.00     0.049 A 
ATOM     59  H   UNL A   1      42.679  30.937  31.057  1.00  0.00     0.167 HD
ATOM     60  C   UNL A   1      41.538  33.464  31.658  1.00  0.00     0.074 A 
ATOM     61  C   UNL A   1      40.584  34.551  31.752  1.00  0.00     0.031 C 
ATOM     62  C   UNL A   1      42.800  33.513  32.151  1.00  0.00     0.031 A 
BRANCH  49  63
ATOM     63  C   UNL A   1      46.051  28.324  31.288  1.00  0.00    -0.014 A 
ATOM     64  C   UNL A   1      47.078  28.337  30.326  1.00  0.00     0.010 A 
ATOM     65  C   UNL A   1      46.247  27.616  32.487  1.00  0.00     0.010 A 
ATOM     66  C   UNL A   1      48.257  27.619  30.539  1.00  0.00     0.020 A 
ATOM     67  C   UNL A   1      47.437  26.919  32.716  1.00  0.00     0.020 A 
ATOM     68  C   UNL A   1      48.427  26.909  31.732  1.00  0.00     0.054 A 
BRANCH  68  69
ATOM     69  S   UNL A   1      49.975  25.999  31.990  1.00  0.00     0.124 S 
ATOM     70  O   UNL A   1      50.540  25.982  30.642  1.00  0.00    -0.237 OA
ATOM     71  O   UNL A   1      50.683  26.835  32.955  1.00  0.00    -0.237 OA
ATOM     72  O   UNL A   1      49.534  24.702  32.497  1.00  0.00    -0.744 OA
ENDBRANCH  68  69
ENDBRANCH  49  63
BRANCH  50  73
ATOM     73  C   UNL A   1      37.264  32.837  29.789  1.00  0.00    -0.014 A 
ATOM     74  C   UNL A   1      36.311  32.857  30.822  1.00  0.00     0.010 A 
ATOM     75  C   UNL A   1      36.965  33.469  28.569  1.00  0.00     0.010 A 
ATOM     76  C   UNL A   1      35.077  33.486  30.634  1.00  0.00     0.020 A 
ATOM     77  C   UNL A   1      35.743  34.121  28.386  1.00  0.00     0.020 A 
ATOM     78  C   UNL A   1      34.800  34.115  29.417  1.00  0.00     0.054 A 
BRANCH  78  79
ATOM     79  S   UNL A   1      33.215  34.973  29.214  1.00  0.00     0.124 S 
ATOM     80  O   UNL A   1      32.545  34.142  28.219  1.00  0.00    -0.237 OA
ATOM     81  O   UNL A   1      32.652  34.924  30.562  1.00  0.00    -0.237 OA
ATOM     82  O   UNL A   1      33.603  36.305  28.759  1.00  0.00    -0.744 OA
ENDBRANCH  78  79
ENDBRANCH  50  73
BRANCH  62  83
ATOM     83  C   UNL A   1      43.236  34.794  32.809  1.00  0.00    -0.014 A 
ATOM     84  C   UNL A   1      43.800  35.841  32.060  1.00  0.00     0.010 A 
ATOM     85  C   UNL A   1      43.028  34.970  34.189  1.00  0.00     0.010 A 
ATOM     86  C   UNL A   1      44.175  37.034  32.686  1.00  0.00     0.020 A 
ATOM     87  C   UNL A   1      43.378  36.169  34.814  1.00  0.00     0.020 A 
ATOM     88  C   UNL A   1      43.962  37.189  34.059  1.00  0.00     0.054 A 
BRANCH  88  89
ATOM     89  S   UNL A   1      44.415  38.762  34.841  1.00  0.00     0.124 S 
ATOM     90  O   UNL A   1      45.846  38.839  34.564  1.00  0.00    -0.237 OA
ATOM     91  O   UNL A   1      43.584  39.728  34.126  1.00  0.00    -0.237 OA
ATOM     92  O   UNL A   1      44.061  38.566  36.245  1.00  0.00    -0.744 OA
ENDBRANCH  88  89
ENDBRANCH  62  83
ENDBRANCH  36  37
ENDBRANCH  28  31
ENDBRANCH  26  27
ENDBRANCH  25  26
ENDBRANCH   1  25
TORSDOF 17
ENDMDL
MODEL 2
REMARK VINA RESULT:     -10.1      1.399      2.519
REMARK SMILES NC(=O)CC[N@@H+]1[C@@H](C(=O)NCCCCNC(=O)c2ccc(-c3c4nc(c(-c5ccc(S(=O)(=O)[O-])cc5)c5ccc([nH]5)c(-c5ccc(S(=O)(=O)[O-])cc5)c5nc(c(-c6ccc(S(=O)(=O)[O-])cc6)c6ccc3[nH]6)C=C5)C=C4)cc2)CC[C@@H]2CCCC[C@H]21
REMARK SMILES IDX 12 1 11 2 10 3 8 4 9 5 7 7 6 8 85 9 78 11 80 12 84 13 79 14
REMARK SMILES IDX 81 15 83 16 82 17 5 18 4 19 2 20 1 21 3 24 13 25 14 26 15 27
REMARK SMILES IDX 16 28 17 30 18 31 19 32 77 33 20 34 76 35 21 36 22 37 23 38
REMARK SMILES IDX 70 39 24 40 75 41 69 42 71 43 25 44 74 45 68 46 67 47 26 49
REMARK SMILES IDX 56 50 37 51 55 52 38 53 41 54 54 55 72 56 39 57 40 58 53 60
REMARK SMILES IDX 73 61 42 62 27 63 28 64 36 65 29 66 35 67 30 68 31 69 32 70
REMARK SMILES IDX 33 71 34 72 57 73 58 74 66 75 59 76 65 77 60 78 61 79 62 80
REMARK SMILES IDX 63 81 64 82 43 83 44 84 52 85 45 86 51 87 46 88 47 89 48 90
REMARK SMILES IDX 49 91 50 92
REMARK H PARENT 10 6 6 10 1 22 1 23 15 29 71 48 41 59
REMARK Flexibility Score: inf
ROOT
ATOM      1  C   UNL A   1      34.856  22.507  24.088  1.00  0.00     0.023 C 
ENDROOT
BRANCH   1   2
ATOM      2  C   UNL A   1      33.567  23.251  23.755  1.00  0.00     0.116 C 
BRANCH   2   3
ATOM      3  N   UNL A   1      33.756  24.224  22.700  1.00  0.00    -0.351 N 
ATOM      4  C   UNL A   1      33.605  25.579  22.727  1.00  0.00     0.278 C 
ATOM      5  O   UNL A   1      33.845  26.208  21.692  1.00  0.00    -0.268 OA
ATOM      6  H   UNL A   1      34.034  23.852  21.831  1.00  0.00     0.163 HD
BRANCH   4   7
ATOM      7  C   UNL A   1      33.138  26.325  24.001  1.00  0.00     0.274 C 
ATOM      8  N   UNL A   1      32.564  27.704  23.705  1.00  0.00    -0.322 N 
ATOM      9  C   UNL A   1      32.195  28.359  25.009  1.00  0.00     0.187 C 
ATOM     10  H   UNL A   1      33.236  28.321  23.248  1.00  0.00     0.349 HD
ATOM     11  C   UNL A   1      34.290  26.291  25.013  1.00  0.00     0.076 C 
ATOM     12  C   UNL A   1      33.454  28.454  25.920  1.00  0.00     0.048 C 
ATOM     13  C   UNL A   1      31.560  29.758  24.855  1.00  0.00     0.065 C 
ATOM     14  C   UNL A   1      33.961  27.056  26.275  1.00  0.00     0.016 C 
ATOM     15  C   UNL A   1      33.211  29.228  27.223  1.00  0.00     0.010 C 
ATOM     16  C   UNL A   1      31.362  30.509  26.169  1.00  0.00     0.006 C 
ATOM     17  C   UNL A   1      32.656  30.615  26.953  1.00  0.00     0.001 C 
BRANCH   8  18
ATOM     18  C   UNL A   1      31.405  27.524  22.771  1.00  0.00     0.273 C 
BRANCH  18  19
ATOM     19  C   UNL A   1      30.022  27.100  23.294  1.00  0.00     0.161 C 
BRANCH  19  20
ATOM     20  C   UNL A   1      29.875  25.699  23.843  1.00  0.00     0.223 C 
ATOM     21  N   UNL A   1      29.498  25.592  25.141  1.00  0.00    -0.369 N 
ATOM     22  H   UNL A   1      29.388  24.702  25.550  1.00  0.00     0.159 HD
ATOM     23  H   UNL A   1      29.334  26.402  25.675  1.00  0.00     0.159 HD
ATOM     24  O   UNL A   1      30.187  24.702  23.201  1.00  0.00    -0.275 OA
ENDBRANCH  19  20
ENDBRANCH  18  19
ENDBRANCH   8  18
ENDBRANCH   4   7
ENDBRANCH   2   3
ENDBRANCH   1   2
BRANCH   1  25
ATOM     25  C   UNL A   1      36.132  23.332  23.915  1.00  0.00     0.023 C 
BRANCH  25  26
ATOM     26  C   UNL A   1      36.883  23.647  25.205  1.00  0.00     0.116 C 
BRANCH  26  27
ATOM     27  N   UNL A   1      37.935  22.689  25.502  1.00  0.00    -0.352 N 
ATOM     28  C   UNL A   1      39.131  22.890  26.155  1.00  0.00     0.251 C 
ATOM     29  H   UNL A   1      37.770  21.768  25.193  1.00  0.00     0.163 HD
ATOM     30  O   UNL A   1      39.956  21.994  26.214  1.00  0.00    -0.269 OA
BRANCH  28  31
ATOM     31  C   UNL A   1      39.415  24.217  26.747  1.00  0.00     0.039 A 
ATOM     32  C   UNL A   1      39.001  24.472  28.055  1.00  0.00     0.014 A 
ATOM     33  C   UNL A   1      40.117  25.187  26.025  1.00  0.00     0.014 A 
ATOM     34  C   UNL A   1      39.356  25.676  28.668  1.00  0.00     0.010 A 
ATOM     35  C   UNL A   1      40.528  26.355  26.660  1.00  0.00     0.010 A 
ATOM     36  C   UNL A   1      40.156  26.611  27.988  1.00  0.00    -0.014 A 
BRANCH  36  37
ATOM     37  C   UNL A   1      40.620  27.855  28.651  1.00  0.00     0.031 A 
ATOM     38  C   UNL A   1      42.013  27.938  29.210  1.00  0.00     0.074 A 
ATOM     39  C   UNL A   1      39.766  28.886  28.810  1.00  0.00     0.049 A 
ATOM     40  N   UNL A   1      42.576  28.913  29.878  1.00  0.00    -0.248 NA
ATOM     41  C   UNL A   1      42.879  26.764  29.017  1.00  0.00     0.031 C 
ATOM     42  C   UNL A   1      38.374  28.914  28.350  1.00  0.00     0.029 A 
ATOM     43  N   UNL A   1      39.939  30.107  29.411  1.00  0.00    -0.354 N 
ATOM     44  C   UNL A   1      43.852  28.463  30.199  1.00  0.00     0.074 A 
ATOM     45  C   UNL A   1      43.963  27.112  29.693  1.00  0.00     0.031 C 
ATOM     46  C   UNL A   1      37.831  30.101  28.662  1.00  0.00     0.029 A 
ATOM     47  C   UNL A   1      38.818  30.904  29.376  1.00  0.00     0.049 A 
ATOM     48  H   UNL A   1      40.786  30.387  29.827  1.00  0.00     0.167 HD
ATOM     49  C   UNL A   1      44.848  29.121  30.839  1.00  0.00     0.031 A 
ATOM     50  C   UNL A   1      38.607  32.141  29.869  1.00  0.00     0.031 A 
ATOM     51  C   UNL A   1      44.740  30.469  31.330  1.00  0.00     0.049 A 
ATOM     52  C   UNL A   1      39.727  32.850  30.579  1.00  0.00     0.074 A 
ATOM     53  C   UNL A   1      45.711  31.241  31.944  1.00  0.00     0.029 A 
ATOM     54  N   UNL A   1      43.593  31.245  31.263  1.00  0.00    -0.354 N 
ATOM     55  N   UNL A   1      40.946  32.430  30.818  1.00  0.00    -0.248 NA
ATOM     56  C   UNL A   1      39.445  34.204  31.074  1.00  0.00     0.031 C 
ATOM     57  C   UNL A   1      45.138  32.471  32.287  1.00  0.00     0.029 A 
ATOM     58  C   UNL A   1      43.825  32.482  31.841  1.00  0.00     0.049 A 
ATOM     59  H   UNL A   1      42.740  30.960  30.864  1.00  0.00     0.167 HD
ATOM     60  C   UNL A   1      41.585  33.479  31.471  1.00  0.00     0.074 A 
ATOM     61  C   UNL A   1      40.622  34.556  31.577  1.00  0.00     0.031 C 
ATOM     62  C   UNL A   1      42.855  33.543  31.940  1.00  0.00     0.031 A 
BRANCH  49  63
ATOM     63  C   UNL A   1      46.143  28.383  31.046  1.00  0.00    -0.014 A 
ATOM     64  C   UNL A   1      46.292  27.463  32.100  1.00  0.00     0.010 A 
ATOM     65  C   UNL A   1      47.217  28.589  30.161  1.00  0.00     0.010 A 
ATOM     66  C   UNL A   1      47.505  26.798  32.292  1.00  0.00     0.020 A 
ATOM     67  C   UNL A   1      48.423  27.905  30.334  1.00  0.00     0.020 A 
ATOM     68  C   UNL A   1      48.566  27.027  31.411  1.00  0.00     0.054 A 
BRANCH  68  69
ATOM     69  S   UNL A   1      50.125  26.137  31.675  1.00  0.00     0.124 S 
ATOM     70  O   UNL A   1      50.534  26.633  32.988  1.00  0.00    -0.237 OA
ATOM     71  O   UNL A   1      49.708  24.739  31.635  1.00  0.00    -0.237 OA
ATOM     72  O   UNL A   1      50.963  26.567  30.558  1.00  0.00    -0.744 OA
ENDBRANCH  68  69
ENDBRANCH  49  63
BRANCH  50  73
ATOM     73  C   UNL A   1      37.283  32.796  29.687  1.00  0.00    -0.014 A 
ATOM     74  C   UNL A   1      36.318  32.742  30.708  1.00  0.00     0.010 A 
ATOM     75  C   UNL A   1      36.985  33.488  28.500  1.00  0.00     0.010 A 
ATOM     76  C   UNL A   1      35.074  33.356  30.541  1.00  0.00     0.020 A 
ATOM     77  C   UNL A   1      35.752  34.125  28.338  1.00  0.00     0.020 A 
ATOM     78  C   UNL A   1      34.799  34.045  29.356  1.00  0.00     0.054 A 
BRANCH  78  79
ATOM     79  S   UNL A   1      33.199  34.883  29.181  1.00  0.00     0.124 S 
ATOM     80  O   UNL A   1      32.681  34.835  30.544  1.00  0.00    -0.237 OA
ATOM     81  O   UNL A   1      33.586  36.207  28.697  1.00  0.00    -0.237 OA
ATOM     82  O   UNL A   1      32.486  34.059  28.209  1.00  0.00    -0.744 OA
ENDBRANCH  78  79
ENDBRANCH  50  73
BRANCH  62  83
ATOM     83  C   UNL A   1      43.291  34.833  32.582  1.00  0.00    -0.014 A 
ATOM     84  C   UNL A   1      43.773  35.904  31.810  1.00  0.00     0.010 A 
ATOM     85  C   UNL A   1      43.163  34.992  33.974  1.00  0.00     0.010 A 
ATOM     86  C   UNL A   1      44.148  37.103  32.422  1.00  0.00     0.020 A 
ATOM     87  C   UNL A   1      43.513  36.197  34.587  1.00  0.00     0.020 A 
ATOM     88  C   UNL A   1      44.016  37.241  33.807  1.00  0.00     0.054 A 
BRANCH  88  89
ATOM     89  S   UNL A   1      44.466  38.822  34.575  1.00  0.00     0.124 S 
ATOM     90  O   UNL A   1      45.907  38.873  34.345  1.00  0.00    -0.237 OA
ATOM     91  O   UNL A   1      43.674  39.786  33.815  1.00  0.00    -0.237 OA
ATOM     92  O   UNL A   1      44.063  38.657  35.969  1.00  0.00    -0.744 OA
ENDBRANCH  88  89
ENDBRANCH  62  83
ENDBRANCH  36  37
ENDBRANCH  28  31
ENDBRANCH  26  27
ENDBRANCH  25  26
ENDBRANCH   1  25
TORSDOF 17
ENDMDL
MODEL 3
REMARK VINA RESULT:     -10.0      5.033      8.176
REMARK SMILES NC(=O)CC[N@@H+]1[C@@H](C(=O)NCCCCNC(=O)c2ccc(-c3c4nc(c(-c5ccc(S(=O)(=O)[O-])cc5)c5ccc([nH]5)c(-c5ccc(S(=O)(=O)[O-])cc5)c5nc(c(-c6ccc(S(=O)(=O)[O-])cc6)c6ccc3[nH]6)C=C5)C=C4)cc2)CC[C@@H]2CCCC[C@H]21
REMARK SMILES IDX 12 1 11 2 10 3 8 4 9 5 7 7 6 8 85 9 78 11 80 12 84 13 79 14
REMARK SMILES IDX 81 15 83 16 82 17 5 18 4 19 2 20 1 21 3 24 13 25 14 26 15 27
REMARK SMILES IDX 16 28 17 30 18 31 19 32 77 33 20 34 76 35 21 36 22 37 23 38
REMARK SMILES IDX 70 39 24 40 75 41 69 42 71 43 25 44 74 45 68 46 67 47 26 49
REMARK SMILES IDX 56 50 37 51 55 52 38 53 41 54 54 55 72 56 39 57 40 58 53 60
REMARK SMILES IDX 73 61 42 62 27 63 28 64 36 65 29 66 35 67 30 68 31 69 32 70
REMARK SMILES IDX 33 71 34 72 57 73 58 74 66 75 59 76 65 77 60 78 61 79 62 80
REMARK SMILES IDX 63 81 64 82 43 83 44 84 52 85 45 86 51 87 46 88 47 89 48 90
REMARK SMILES IDX 49 91 50 92
REMARK H PARENT 10 6 6 10 1 22 1 23 15 29 71 48 41 59
REMARK Flexibility Score: inf
ROOT
ATOM      1  C   UNL A   1      38.831  21.915  26.221  1.00  0.00     0.023 C 
ENDROOT
BRANCH   1   2
ATOM      2  C   UNL A   1      40.043  21.303  25.526  1.00  0.00     0.116 C 
BRANCH   2   3
ATOM      3  N   UNL A   1      40.734  20.352  26.372  1.00  0.00    -0.351 N 
ATOM      4  C   UNL A   1      41.836  20.524  27.156  1.00  0.00     0.278 C 
ATOM      5  O   UNL A   1      42.237  19.556  27.810  1.00  0.00    -0.268 OA
ATOM      6  H   UNL A   1      40.352  19.444  26.382  1.00  0.00     0.163 HD
BRANCH   4   7
ATOM      7  C   UNL A   1      42.584  21.878  27.230  1.00  0.00     0.274 C 
ATOM      8  N   UNL A   1      44.005  21.801  26.689  1.00  0.00    -0.322 N 
ATOM      9  C   UNL A   1      44.656  23.148  26.860  1.00  0.00     0.187 C 
ATOM     10  H   UNL A   1      44.585  21.132  27.195  1.00  0.00     0.349 HD
ATOM     11  C   UNL A   1      42.450  22.409  28.663  1.00  0.00     0.076 C 
ATOM     12  C   UNL A   1      44.645  23.547  28.364  1.00  0.00     0.048 C 
ATOM     13  C   UNL A   1      46.098  23.226  26.313  1.00  0.00     0.065 C 
ATOM     14  C   UNL A   1      43.207  23.701  28.864  1.00  0.00     0.016 C 
ATOM     15  C   UNL A   1      45.405  24.846  28.660  1.00  0.00     0.010 C 
ATOM     16  C   UNL A   1      46.832  24.521  26.654  1.00  0.00     0.006 C 
ATOM     17  C   UNL A   1      46.832  24.787  28.146  1.00  0.00     0.001 C 
BRANCH   8  18
ATOM     18  C   UNL A   1      43.926  21.346  25.263  1.00  0.00     0.273 C 
BRANCH  18  19
ATOM     19  C   UNL A   1      44.910  20.302  24.707  1.00  0.00     0.161 C 
BRANCH  19  20
ATOM     20  C   UNL A   1      44.880  18.916  25.309  1.00  0.00     0.223 C 
ATOM     21  N   UNL A   1      46.005  18.506  25.947  1.00  0.00    -0.369 N 
ATOM     22  H   UNL A   1      46.040  17.611  26.357  1.00  0.00     0.159 HD
ATOM     23  H   UNL A   1      46.786  19.103  25.999  1.00  0.00     0.159 HD
ATOM     24  O   UNL A   1      43.942  18.143  25.144  1.00  0.00    -0.275 OA
ENDBRANCH  19  20
ENDBRANCH  18  19
ENDBRANCH   8  18
ENDBRANCH   4   7
ENDBRANCH   2   3
ENDBRANCH   1   2
BRANCH   1  25
ATOM     25  C   UNL A   1      39.161  23.036  27.207  1.00  0.00     0.023 C 
BRANCH  25  26
ATOM     26  C   UNL A   1      39.100  24.448  26.631  1.00  0.00     0.116 C 
BRANCH  26  27
ATOM     27  N   UNL A   1      40.232  24.764  25.775  1.00  0.00    -0.352 N 
ATOM     28  C   UNL A   1      41.191  25.741  25.932  1.00  0.00     0.251 C 
ATOM     29  H   UNL A   1      40.326  24.203  24.971  1.00  0.00     0.163 HD
ATOM     30  O   UNL A   1      42.007  25.946  25.049  1.00  0.00    -0.269 OA
BRANCH  28  31
ATOM     31  C   UNL A   1      41.190  26.561  27.164  1.00  0.00     0.039 A 
ATOM     32  C   UNL A   1      42.000  27.697  27.216  1.00  0.00     0.014 A 
ATOM     33  C   UNL A   1      40.367  26.229  28.244  1.00  0.00     0.014 A 
ATOM     34  C   UNL A   1      41.931  28.543  28.325  1.00  0.00     0.010 A 
ATOM     35  C   UNL A   1      40.249  27.109  29.316  1.00  0.00     0.010 A 
ATOM     36  C   UNL A   1      41.026  28.276  29.366  1.00  0.00    -0.014 A 
BRANCH  36  37
ATOM     37  C   UNL A   1      40.870  29.209  30.510  1.00  0.00     0.031 A 
ATOM     38  C   UNL A   1      41.768  29.089  31.711  1.00  0.00     0.074 A 
ATOM     39  C   UNL A   1      39.877  30.121  30.498  1.00  0.00     0.049 A 
ATOM     40  N   UNL A   1      41.743  29.768  32.829  1.00  0.00    -0.248 NA
ATOM     41  C   UNL A   1      42.814  28.055  31.658  1.00  0.00     0.031 C 
ATOM     42  C   UNL A   1      38.912  30.311  29.411  1.00  0.00     0.029 A 
ATOM     43  N   UNL A   1      39.508  31.055  31.434  1.00  0.00    -0.354 N 
ATOM     44  C   UNL A   1      42.754  29.232  33.618  1.00  0.00     0.074 A 
ATOM     45  C   UNL A   1      43.343  28.143  32.869  1.00  0.00     0.031 C 
ATOM     46  C   UNL A   1      38.080  31.315  29.731  1.00  0.00     0.029 A 
ATOM     47  C   UNL A   1      38.425  31.815  31.058  1.00  0.00     0.049 A 
ATOM     48  H   UNL A   1      39.974  31.170  32.293  1.00  0.00     0.167 HD
ATOM     49  C   UNL A   1      43.170  29.623  34.847  1.00  0.00     0.031 A 
ATOM     50  C   UNL A   1      37.779  32.802  31.710  1.00  0.00     0.031 A 
ATOM     51  C   UNL A   1      42.592  30.714  35.586  1.00  0.00     0.049 A 
ATOM     52  C   UNL A   1      38.256  33.216  33.074  1.00  0.00     0.074 A 
ATOM     53  C   UNL A   1      42.978  31.221  36.814  1.00  0.00     0.029 A 
ATOM     54  N   UNL A   1      41.506  31.467  35.164  1.00  0.00    -0.354 N 
ATOM     55  N   UNL A   1      39.253  32.737  33.778  1.00  0.00    -0.248 NA
ATOM     56  C   UNL A   1      37.526  34.312  33.727  1.00  0.00     0.031 C 
ATOM     57  C   UNL A   1      42.097  32.254  37.156  1.00  0.00     0.029 A 
ATOM     58  C   UNL A   1      41.196  32.423  36.116  1.00  0.00     0.049 A 
ATOM     59  H   UNL A   1      41.027  31.341  34.314  1.00  0.00     0.167 HD
ATOM     60  C   UNL A   1      39.287  33.490  34.947  1.00  0.00     0.074 A 
ATOM     61  C   UNL A   1      38.219  34.464  34.849  1.00  0.00     0.031 C 
ATOM     62  C   UNL A   1      40.128  33.384  36.005  1.00  0.00     0.031 A 
BRANCH  49  63
ATOM     63  C   UNL A   1      44.306  28.857  35.469  1.00  0.00    -0.014 A 
ATOM     64  C   UNL A   1      44.063  27.739  36.289  1.00  0.00     0.010 A 
ATOM     65  C   UNL A   1      45.635  29.239  35.211  1.00  0.00     0.010 A 
ATOM     66  C   UNL A   1      45.125  27.047  36.875  1.00  0.00     0.020 A 
ATOM     67  C   UNL A   1      46.701  28.533  35.773  1.00  0.00     0.020 A 
ATOM     68  C   UNL A   1      46.439  27.452  36.619  1.00  0.00     0.054 A 
BRANCH  68  69
ATOM     69  S   UNL A   1      47.799  26.526  37.380  1.00  0.00     0.124 S 
ATOM     70  O   UNL A   1      48.621  27.600  37.933  1.00  0.00    -0.237 OA
ATOM     71  O   UNL A   1      47.112  25.693  38.363  1.00  0.00    -0.237 OA
ATOM     72  O   UNL A   1      48.394  25.800  36.260  1.00  0.00    -0.744 OA
ENDBRANCH  68  69
ENDBRANCH  49  63
BRANCH  50  73
ATOM     73  C   UNL A   1      36.620  33.481  31.068  1.00  0.00    -0.014 A 
ATOM     74  C   UNL A   1      35.484  33.815  31.825  1.00  0.00     0.010 A 
ATOM     75  C   UNL A   1      36.653  33.811  29.701  1.00  0.00     0.010 A 
ATOM     76  C   UNL A   1      34.395  34.454  31.225  1.00  0.00     0.020 A 
ATOM     77  C   UNL A   1      35.577  34.472  29.103  1.00  0.00     0.020 A 
ATOM     78  C   UNL A   1      34.449  34.779  29.867  1.00  0.00     0.054 A 
BRANCH  78  79
ATOM     79  S   UNL A   1      33.048  35.657  29.119  1.00  0.00     0.124 S 
ATOM     80  O   UNL A   1      32.493  34.642  28.231  1.00  0.00    -0.237 OA
ATOM     81  O   UNL A   1      32.230  35.997  30.282  1.00  0.00    -0.237 OA
ATOM     82  O   UNL A   1      33.675  36.797  28.456  1.00  0.00    -0.744 OA
ENDBRANCH  78  79
ENDBRANCH  50  73
BRANCH  62  83
ATOM     83  C   UNL A   1      39.950  34.367  37.130  1.00  0.00    -0.014 A 
ATOM     84  C   UNL A   1      40.553  35.635  37.091  1.00  0.00     0.010 A 
ATOM     85  C   UNL A   1      39.120  34.033  38.217  1.00  0.00     0.010 A 
ATOM     86  C   UNL A   1      40.355  36.544  38.135  1.00  0.00     0.020 A 
ATOM     87  C   UNL A   1      38.899  34.948  39.250  1.00  0.00     0.020 A 
ATOM     88  C   UNL A   1      39.529  36.194  39.208  1.00  0.00     0.054 A 
BRANCH  88  89
ATOM     89  S   UNL A   1      39.249  37.406  40.528  1.00  0.00     0.124 S 
ATOM     90  O   UNL A   1      40.565  38.026  40.655  1.00  0.00    -0.237 OA
ATOM     91  O   UNL A   1      38.204  38.259  39.966  1.00  0.00    -0.237 OA
ATOM     92  O   UNL A   1      38.832  36.589  41.665  1.00  0.00    -0.744 OA
ENDBRANCH  88  89
ENDBRANCH  62  83
ENDBRANCH  36  37
ENDBRANCH  28  31
ENDBRANCH  26  27
ENDBRANCH  25  26
ENDBRANCH   1  25
TORSDOF 17
ENDMDL
