MODEL 1
REMARK VINA RESULT:     -13.6      0.000      0.000
REMARK SMILES Cc1cc(C(=O)NCCCCNC(=O)c2ccc(-c3c4nc(c(-c5ccc(S(=O)(=O)[O-])cc5)c5ccc([nH]5)c(-c5ccc(S(=O)(=O)[O-])cc5)c5nc(c(-c6ccc(S(=O)(=O)[O-])cc6)c6ccc3[nH]6)C=C5)C=C4)cc2)ccc1NC(=O)c1ccc(=O)n(CCOc2ccccc2)n1
REMARK SMILES IDX 8 1 7 2 5 3 6 4 4 6 1 7 2 8 3 9 77 10 76 11 75 12 78 13
REMARK SMILES IDX 79 14 80 16 81 17 82 18 96 19 83 20 86 21 84 22 85 23 87 24
REMARK SMILES IDX 88 25 89 26 90 27 91 28 95 29 92 30 94 31 93 32 9 33 10 34
REMARK SMILES IDX 11 35 12 36 13 37 14 39 15 40 16 41 74 42 17 43 73 44 18 45
REMARK SMILES IDX 19 46 20 47 67 48 21 49 72 50 66 51 68 52 22 53 71 54 65 55
REMARK SMILES IDX 64 56 23 58 53 59 34 60 52 61 35 62 38 63 51 64 69 65 36 66
REMARK SMILES IDX 37 67 50 69 70 70 39 71 24 72 25 73 33 74 26 75 32 76 27 77
REMARK SMILES IDX 28 78 29 79 30 80 31 81 54 82 55 83 63 84 56 85 62 86 57 87
REMARK SMILES IDX 58 88 59 89 60 90 61 91 40 92 41 93 49 94 42 95 48 96 43 97
REMARK SMILES IDX 44 98 45 99 46 100 47 101
REMARK H PARENT 7 5 78 15 12 38 68 57 38 68
REMARK Flexibility Score: inf
ROOT
ATOM      1  C   UNL A   1      31.057  30.186  25.572  1.00  0.00     0.116 C 
ENDROOT
BRANCH   1   2
ATOM      2  N   UNL A   1      30.625  30.492  24.205  1.00  0.00    -0.352 N 
ATOM      3  C   UNL A   1      30.247  29.684  23.154  1.00  0.00     0.251 C 
ATOM      4  O   UNL A   1      29.695  30.188  22.177  1.00  0.00    -0.269 OA
ATOM      5  H   UNL A   1      30.600  31.453  23.998  1.00  0.00     0.163 HD
BRANCH   3   6
ATOM      6  C   UNL A   1      30.480  28.217  23.153  1.00  0.00     0.040 A 
ATOM      7  C   UNL A   1      32.988  25.764  21.679  1.00  0.00     0.046 C 
ATOM      8  C   UNL A   1      31.733  26.254  22.347  1.00  0.00    -0.027 A 
ATOM      9  C   UNL A   1      31.525  27.657  22.402  1.00  0.00     0.019 A 
ATOM     10  C   UNL A   1      30.817  25.413  22.996  1.00  0.00     0.044 A 
ATOM     11  C   UNL A   1      29.968  26.002  23.928  1.00  0.00     0.027 A 
ATOM     12  C   UNL A   1      29.784  27.378  24.001  1.00  0.00     0.016 A 
BRANCH  10  13
ATOM     13  N   UNL A   1      30.757  24.028  22.715  1.00  0.00    -0.320 N 
ATOM     14  C   UNL A   1      31.536  22.991  23.219  1.00  0.00     0.276 C 
ATOM     15  H   UNL A   1      30.064  23.759  22.070  1.00  0.00     0.170 HD
ATOM     16  O   UNL A   1      31.388  21.830  22.854  1.00  0.00    -0.267 OA
BRANCH  14  17
ATOM     17  C   UNL A   1      32.601  23.297  24.255  1.00  0.00     0.149 A 
ATOM     18  C   UNL A   1      32.161  24.165  25.368  1.00  0.00     0.042 A 
ATOM     19  N   UNL A   1      33.780  22.755  24.157  1.00  0.00    -0.164 NA
ATOM     20  C   UNL A   1      32.816  23.976  26.513  1.00  0.00     0.076 A 
ATOM     21  N   UNL A   1      34.550  22.801  25.319  1.00  0.00    -0.226 N 
ATOM     22  C   UNL A   1      33.957  23.031  26.554  1.00  0.00     0.266 A 
ATOM     23  O   UNL A   1      34.313  22.575  27.633  1.00  0.00    -0.268 OA
BRANCH  21  24
ATOM     24  C   UNL A   1      35.943  22.352  25.234  1.00  0.00     0.190 C 
BRANCH  24  25
ATOM     25  C   UNL A   1      36.036  20.855  24.880  1.00  0.00     0.253 C 
BRANCH  25  26
ATOM     26  O   UNL A   1      35.048  20.065  25.567  1.00  0.00    -0.492 OA
BRANCH  26  27
ATOM     27  C   UNL A   1      34.409  19.175  24.753  1.00  0.00     0.119 A 
ATOM     28  C   UNL A   1      33.103  19.403  24.331  1.00  0.00     0.046 A 
ATOM     29  C   UNL A   1      35.030  17.971  24.452  1.00  0.00     0.046 A 
ATOM     30  C   UNL A   1      32.473  18.466  23.505  1.00  0.00     0.004 A 
ATOM     31  C   UNL A   1      34.435  17.066  23.578  1.00  0.00     0.004 A 
ATOM     32  C   UNL A   1      33.156  17.319  23.094  1.00  0.00     0.000 A 
ENDBRANCH  26  27
ENDBRANCH  25  26
ENDBRANCH  24  25
ENDBRANCH  21  24
ENDBRANCH  14  17
ENDBRANCH  10  13
ENDBRANCH   3   6
ENDBRANCH   1   2
BRANCH   1  33
ATOM     33  C   UNL A   1      32.559  29.881  25.703  1.00  0.00     0.023 C 
BRANCH  33  34
ATOM     34  C   UNL A   1      33.190  30.186  27.061  1.00  0.00     0.023 C 
BRANCH  34  35
ATOM     35  C   UNL A   1      34.684  29.891  27.106  1.00  0.00     0.116 C 
BRANCH  35  36
ATOM     36  N   UNL A   1      35.507  31.043  27.456  1.00  0.00    -0.352 N 
ATOM     37  C   UNL A   1      36.721  31.055  28.130  1.00  0.00     0.251 C 
ATOM     38  H   UNL A   1      35.157  31.922  27.181  1.00  0.00     0.163 HD
ATOM     39  O   UNL A   1      37.191  32.072  28.606  1.00  0.00    -0.269 OA
BRANCH  37  40
ATOM     40  C   UNL A   1      37.492  29.792  28.141  1.00  0.00     0.039 A 
ATOM     41  C   UNL A   1      37.418  29.007  29.297  1.00  0.00     0.014 A 
ATOM     42  C   UNL A   1      38.483  29.579  27.190  1.00  0.00     0.014 A 
ATOM     43  C   UNL A   1      38.469  28.150  29.608  1.00  0.00     0.010 A 
ATOM     44  C   UNL A   1      39.579  28.829  27.558  1.00  0.00     0.010 A 
ATOM     45  C   UNL A   1      39.595  28.158  28.790  1.00  0.00    -0.014 A 
BRANCH  45  46
ATOM     46  C   UNL A   1      40.879  27.572  29.153  1.00  0.00     0.031 A 
ATOM     47  C   UNL A   1      41.176  26.174  28.768  1.00  0.00     0.074 A 
ATOM     48  C   UNL A   1      41.849  28.369  29.658  1.00  0.00     0.049 A 
ATOM     49  N   UNL A   1      42.155  25.470  29.231  1.00  0.00    -0.248 NA
ATOM     50  C   UNL A   1      40.324  25.425  27.847  1.00  0.00     0.031 C 
ATOM     51  C   UNL A   1      43.284  28.091  29.686  1.00  0.00     0.029 A 
ATOM     52  N   UNL A   1      41.717  29.514  30.447  1.00  0.00    -0.354 N 
ATOM     53  C   UNL A   1      42.261  24.347  28.440  1.00  0.00     0.074 A 
ATOM     54  C   UNL A   1      41.035  24.309  27.681  1.00  0.00     0.031 C 
ATOM     55  C   UNL A   1      43.842  28.821  30.664  1.00  0.00     0.029 A 
ATOM     56  C   UNL A   1      42.754  29.453  31.392  1.00  0.00     0.049 A 
ATOM     57  H   UNL A   1      41.037  30.220  30.358  1.00  0.00     0.167 HD
ATOM     58  C   UNL A   1      43.446  23.673  28.392  1.00  0.00     0.031 A 
ATOM     59  C   UNL A   1      42.554  29.348  32.740  1.00  0.00     0.031 A 
ATOM     60  C   UNL A   1      44.375  24.162  29.412  1.00  0.00     0.049 A 
ATOM     61  C   UNL A   1      43.203  28.116  33.334  1.00  0.00     0.074 A 
ATOM     62  C   UNL A   1      45.482  24.994  29.363  1.00  0.00     0.029 A 
ATOM     63  N   UNL A   1      44.034  24.039  30.755  1.00  0.00    -0.354 N 
ATOM     64  N   UNL A   1      43.590  27.090  32.628  1.00  0.00    -0.248 NA
ATOM     65  C   UNL A   1      43.440  27.926  34.763  1.00  0.00     0.031 C 
ATOM     66  C   UNL A   1      45.736  25.458  30.681  1.00  0.00     0.029 A 
ATOM     67  C   UNL A   1      44.810  24.877  31.531  1.00  0.00     0.049 A 
ATOM     68  H   UNL A   1      43.337  23.437  31.104  1.00  0.00     0.167 HD
ATOM     69  C   UNL A   1      44.117  26.133  33.451  1.00  0.00     0.074 A 
ATOM     70  C   UNL A   1      44.004  26.704  34.781  1.00  0.00     0.031 C 
ATOM     71  C   UNL A   1      44.600  24.950  32.971  1.00  0.00     0.031 A 
BRANCH  58  72
ATOM     72  C   UNL A   1      43.867  22.788  27.230  1.00  0.00    -0.014 A 
ATOM     73  C   UNL A   1      42.971  21.814  26.738  1.00  0.00     0.010 A 
ATOM     74  C   UNL A   1      45.146  22.788  26.641  1.00  0.00     0.010 A 
ATOM     75  C   UNL A   1      43.359  20.847  25.794  1.00  0.00     0.020 A 
ATOM     76  C   UNL A   1      45.556  21.817  25.714  1.00  0.00     0.020 A 
ATOM     77  C   UNL A   1      44.662  20.838  25.307  1.00  0.00     0.054 A 
BRANCH  77  78
ATOM     78  S   UNL A   1      45.179  19.542  24.154  1.00  0.00     0.124 S 
ATOM     79  O   UNL A   1      44.483  19.918  22.925  1.00  0.00    -0.237 OA
ATOM     80  O   UNL A   1      46.630  19.700  24.131  1.00  0.00    -0.237 OA
ATOM     81  O   UNL A   1      44.701  18.309  24.777  1.00  0.00    -0.744 OA
ENDBRANCH  77  78
ENDBRANCH  58  72
BRANCH  59  82
ATOM     82  C   UNL A   1      41.296  29.975  33.230  1.00  0.00    -0.014 A 
ATOM     83  C   UNL A   1      41.339  31.355  33.510  1.00  0.00     0.010 A 
ATOM     84  C   UNL A   1      40.051  29.374  32.974  1.00  0.00     0.010 A 
ATOM     85  C   UNL A   1      40.205  32.154  33.335  1.00  0.00     0.020 A 
ATOM     86  C   UNL A   1      38.908  30.173  32.811  1.00  0.00     0.020 A 
ATOM     87  C   UNL A   1      39.016  31.563  32.915  1.00  0.00     0.054 A 
BRANCH  87  88
ATOM     88  S   UNL A   1      37.696  32.650  32.294  1.00  0.00     0.124 S 
ATOM     89  O   UNL A   1      37.316  33.406  33.483  1.00  0.00    -0.237 OA
ATOM     90  O   UNL A   1      38.399  33.407  31.259  1.00  0.00    -0.237 OA
ATOM     91  O   UNL A   1      36.694  31.709  31.803  1.00  0.00    -0.744 OA
ENDBRANCH  87  88
ENDBRANCH  59  82
BRANCH  71  92
ATOM     92  C   UNL A   1      44.994  23.761  33.811  1.00  0.00    -0.014 A 
ATOM     93  C   UNL A   1      44.109  22.740  34.189  1.00  0.00     0.010 A 
ATOM     94  C   UNL A   1      46.363  23.575  34.125  1.00  0.00     0.010 A 
ATOM     95  C   UNL A   1      44.556  21.617  34.899  1.00  0.00     0.020 A 
ATOM     96  C   UNL A   1      46.826  22.439  34.792  1.00  0.00     0.020 A 
ATOM     97  C   UNL A   1      45.912  21.474  35.198  1.00  0.00     0.054 A 
BRANCH  97  98
ATOM     98  S   UNL A   1      46.492  19.988  36.054  1.00  0.00     0.124 S 
ATOM     99  O   UNL A   1      45.786  20.081  37.328  1.00  0.00    -0.237 OA
ATOM    100  O   UNL A   1      46.053  18.909  35.171  1.00  0.00    -0.237 OA
ATOM    101  O   UNL A   1      47.939  20.177  36.121  1.00  0.00    -0.744 OA
ENDBRANCH  97  98
ENDBRANCH  71  92
ENDBRANCH  45  46
ENDBRANCH  37  40
ENDBRANCH  35  36
ENDBRANCH  34  35
ENDBRANCH  33  34
ENDBRANCH   1  33
TORSDOF 20
ENDMDL
MODEL 2
REMARK VINA RESULT:     -13.2      2.573      3.882
REMARK SMILES Cc1cc(C(=O)NCCCCNC(=O)c2ccc(-c3c4nc(c(-c5ccc(S(=O)(=O)[O-])cc5)c5ccc([nH]5)c(-c5ccc(S(=O)(=O)[O-])cc5)c5nc(c(-c6ccc(S(=O)(=O)[O-])cc6)c6ccc3[nH]6)C=C5)C=C4)cc2)ccc1NC(=O)c1ccc(=O)n(CCOc2ccccc2)n1
REMARK SMILES IDX 8 1 7 2 5 3 6 4 4 6 1 7 2 8 3 9 77 10 76 11 75 12 78 13
REMARK SMILES IDX 79 14 80 16 81 17 82 18 96 19 83 20 86 21 84 22 85 23 87 24
REMARK SMILES IDX 88 25 89 26 90 27 91 28 95 29 92 30 94 31 93 32 9 33 10 34
REMARK SMILES IDX 11 35 12 36 13 37 14 39 15 40 16 41 74 42 17 43 73 44 18 45
REMARK SMILES IDX 19 46 20 47 67 48 21 49 72 50 66 51 68 52 22 53 71 54 65 55
REMARK SMILES IDX 64 56 23 58 53 59 34 60 52 61 35 62 38 63 51 64 69 65 36 66
REMARK SMILES IDX 37 67 50 69 70 70 39 71 24 72 25 73 33 74 26 75 32 76 27 77
REMARK SMILES IDX 28 78 29 79 30 80 31 81 54 82 55 83 63 84 56 85 62 86 57 87
REMARK SMILES IDX 58 88 59 89 60 90 61 91 40 92 41 93 49 94 42 95 48 96 43 97
REMARK SMILES IDX 44 98 45 99 46 100 47 101
REMARK H PARENT 7 5 78 15 12 38 68 57 38 68
REMARK Flexibility Score: inf
ROOT
ATOM      1  C   UNL A   1      34.710  29.257  27.538  1.00  0.00     0.116 C 
ENDROOT
BRANCH   1   2
ATOM      2  N   UNL A   1      33.322  28.936  27.881  1.00  0.00    -0.352 N 
ATOM      3  C   UNL A   1      32.300  28.363  27.154  1.00  0.00     0.251 C 
ATOM      4  O   UNL A   1      31.290  27.976  27.740  1.00  0.00    -0.269 OA
ATOM      5  H   UNL A   1      33.071  29.174  28.802  1.00  0.00     0.163 HD
BRANCH   3   6
ATOM      6  C   UNL A   1      32.371  28.189  25.681  1.00  0.00     0.040 A 
ATOM      7  C   UNL A   1      29.954  28.005  22.748  1.00  0.00     0.046 C 
ATOM      8  C   UNL A   1      31.245  27.887  23.510  1.00  0.00    -0.027 A 
ATOM      9  C   UNL A   1      31.200  28.104  24.912  1.00  0.00     0.019 A 
ATOM     10  C   UNL A   1      32.490  27.673  22.903  1.00  0.00     0.044 A 
ATOM     11  C   UNL A   1      33.620  28.021  23.637  1.00  0.00     0.027 A 
ATOM     12  C   UNL A   1      33.573  28.260  25.005  1.00  0.00     0.016 A 
BRANCH  10  13
ATOM     13  N   UNL A   1      32.595  27.125  21.602  1.00  0.00    -0.320 N 
ATOM     14  C   UNL A   1      32.818  25.808  21.216  1.00  0.00     0.276 C 
ATOM     15  H   UNL A   1      32.497  27.770  20.865  1.00  0.00     0.170 HD
ATOM     16  O   UNL A   1      32.918  25.484  20.037  1.00  0.00    -0.267 OA
BRANCH  14  17
ATOM     17  C   UNL A   1      32.936  24.731  22.278  1.00  0.00     0.149 A 
ATOM     18  C   UNL A   1      31.650  24.244  22.821  1.00  0.00     0.042 A 
ATOM     19  N   UNL A   1      34.105  24.261  22.601  1.00  0.00    -0.164 NA
ATOM     20  C   UNL A   1      31.674  22.987  23.264  1.00  0.00     0.076 A 
ATOM     21  N   UNL A   1      34.084  23.052  23.297  1.00  0.00    -0.226 N 
ATOM     22  C   UNL A   1      32.955  22.242  23.279  1.00  0.00     0.266 A 
ATOM     23  O   UNL A   1      32.931  21.020  23.319  1.00  0.00    -0.268 OA
BRANCH  21  24
ATOM     24  C   UNL A   1      35.354  22.547  23.828  1.00  0.00     0.190 C 
BRANCH  24  25
ATOM     25  C   UNL A   1      36.062  23.600  24.702  1.00  0.00     0.253 C 
BRANCH  25  26
ATOM     26  O   UNL A   1      35.780  23.432  26.103  1.00  0.00    -0.492 OA
BRANCH  26  27
ATOM     27  C   UNL A   1      34.451  23.517  26.399  1.00  0.00     0.119 A 
ATOM     28  C   UNL A   1      33.757  22.417  26.893  1.00  0.00     0.046 A 
ATOM     29  C   UNL A   1      33.763  24.680  26.081  1.00  0.00     0.046 A 
ATOM     30  C   UNL A   1      32.392  22.535  27.177  1.00  0.00     0.004 A 
ATOM     31  C   UNL A   1      32.422  24.825  26.422  1.00  0.00     0.004 A 
ATOM     32  C   UNL A   1      31.736  23.752  26.981  1.00  0.00     0.000 A 
ENDBRANCH  26  27
ENDBRANCH  25  26
ENDBRANCH  24  25
ENDBRANCH  21  24
ENDBRANCH  14  17
ENDBRANCH  10  13
ENDBRANCH   3   6
ENDBRANCH   1   2
BRANCH   1  33
ATOM     33  C   UNL A   1      34.977  30.759  27.338  1.00  0.00     0.023 C 
BRANCH  33  34
ATOM     34  C   UNL A   1      33.916  31.708  27.893  1.00  0.00     0.023 C 
BRANCH  34  35
ATOM     35  C   UNL A   1      34.486  33.048  28.340  1.00  0.00     0.116 C 
BRANCH  35  36
ATOM     36  N   UNL A   1      34.520  33.228  29.786  1.00  0.00    -0.352 N 
ATOM     37  C   UNL A   1      35.176  32.451  30.731  1.00  0.00     0.251 C 
ATOM     38  H   UNL A   1      34.013  33.997  30.137  1.00  0.00     0.163 HD
ATOM     39  O   UNL A   1      34.927  32.523  31.921  1.00  0.00    -0.269 OA
BRANCH  37  40
ATOM     40  C   UNL A   1      36.293  31.610  30.246  1.00  0.00     0.039 A 
ATOM     41  C   UNL A   1      36.341  30.286  30.698  1.00  0.00     0.014 A 
ATOM     42  C   UNL A   1      37.398  32.205  29.648  1.00  0.00     0.014 A 
ATOM     43  C   UNL A   1      37.565  29.627  30.750  1.00  0.00     0.010 A 
ATOM     44  C   UNL A   1      38.625  31.602  29.816  1.00  0.00     0.010 A 
ATOM     45  C   UNL A   1      38.715  30.337  30.416  1.00  0.00    -0.014 A 
BRANCH  45  46
ATOM     46  C   UNL A   1      40.070  29.898  30.722  1.00  0.00     0.031 A 
ATOM     47  C   UNL A   1      40.559  28.612  30.177  1.00  0.00     0.074 A 
ATOM     48  C   UNL A   1      40.920  30.756  31.332  1.00  0.00     0.049 A 
ATOM     49  N   UNL A   1      41.630  28.002  30.565  1.00  0.00    -0.248 NA
ATOM     50  C   UNL A   1      39.817  27.867  29.163  1.00  0.00     0.031 C 
ATOM     51  C   UNL A   1      42.380  30.682  31.344  1.00  0.00     0.029 A 
ATOM     52  N   UNL A   1      40.632  31.769  32.250  1.00  0.00    -0.354 N 
ATOM     53  C   UNL A   1      41.890  27.009  29.646  1.00  0.00     0.074 A 
ATOM     54  C   UNL A   1      40.678  26.890  28.873  1.00  0.00     0.031 C 
ATOM     55  C   UNL A   1      42.834  31.360  32.409  1.00  0.00     0.029 A 
ATOM     56  C   UNL A   1      41.671  31.741  33.194  1.00  0.00     0.049 A 
ATOM     57  H   UNL A   1      39.858  32.377  32.237  1.00  0.00     0.167 HD
ATOM     58  C   UNL A   1      43.158  26.519  29.533  1.00  0.00     0.031 A 
ATOM     59  C   UNL A   1      41.494  31.447  34.517  1.00  0.00     0.031 A 
ATOM     60  C   UNL A   1      44.013  27.007  30.616  1.00  0.00     0.049 A 
ATOM     61  C   UNL A   1      42.312  30.257  34.967  1.00  0.00     0.074 A 
ATOM     62  C   UNL A   1      44.992  27.986  30.680  1.00  0.00     0.029 A 
ATOM     63  N   UNL A   1      43.699  26.676  31.930  1.00  0.00    -0.354 N 
ATOM     64  N   UNL A   1      42.837  29.388  34.149  1.00  0.00    -0.248 NA
ATOM     65  C   UNL A   1      42.580  29.931  36.366  1.00  0.00     0.031 C 
ATOM     66  C   UNL A   1      45.184  28.320  32.048  1.00  0.00     0.029 A 
ATOM     67  C   UNL A   1      44.353  27.516  32.811  1.00  0.00     0.049 A 
ATOM     68  H   UNL A   1      43.096  25.945  32.196  1.00  0.00     0.167 HD
ATOM     69  C   UNL A   1      43.498  28.422  34.858  1.00  0.00     0.074 A 
ATOM     70  C   UNL A   1      43.311  28.808  36.246  1.00  0.00     0.031 C 
ATOM     71  C   UNL A   1      44.140  27.385  34.246  1.00  0.00     0.031 A 
BRANCH  58  72
ATOM     72  C   UNL A   1      43.695  25.848  28.279  1.00  0.00    -0.014 A 
ATOM     73  C   UNL A   1      43.833  24.443  28.248  1.00  0.00     0.010 A 
ATOM     74  C   UNL A   1      44.169  26.529  27.142  1.00  0.00     0.010 A 
ATOM     75  C   UNL A   1      44.489  23.777  27.197  1.00  0.00     0.020 A 
ATOM     76  C   UNL A   1      44.845  25.883  26.095  1.00  0.00     0.020 A 
ATOM     77  C   UNL A   1      45.017  24.507  26.137  1.00  0.00     0.054 A 
BRANCH  77  78
ATOM     78  S   UNL A   1      45.931  23.654  24.827  1.00  0.00     0.124 S 
ATOM     79  O   UNL A   1      46.863  24.683  24.371  1.00  0.00    -0.237 OA
ATOM     80  O   UNL A   1      46.531  22.531  25.541  1.00  0.00    -0.237 OA
ATOM     81  O   UNL A   1      44.896  23.291  23.860  1.00  0.00    -0.744 OA
ENDBRANCH  77  78
ENDBRANCH  58  72
BRANCH  59  82
ATOM     82  C   UNL A   1      40.161  31.828  35.062  1.00  0.00    -0.014 A 
ATOM     83  C   UNL A   1      39.205  30.800  35.182  1.00  0.00     0.010 A 
ATOM     84  C   UNL A   1      40.014  32.985  35.846  1.00  0.00     0.010 A 
ATOM     85  C   UNL A   1      38.249  30.832  36.201  1.00  0.00     0.020 A 
ATOM     86  C   UNL A   1      39.047  33.025  36.862  1.00  0.00     0.020 A 
ATOM     87  C   UNL A   1      38.227  31.913  37.079  1.00  0.00     0.054 A 
BRANCH  87  88
ATOM     88  S   UNL A   1      37.279  31.740  38.622  1.00  0.00     0.124 S 
ATOM     89  O   UNL A   1      38.254  32.110  39.642  1.00  0.00    -0.237 OA
ATOM     90  O   UNL A   1      36.190  32.692  38.409  1.00  0.00    -0.237 OA
ATOM     91  O   UNL A   1      36.885  30.334  38.613  1.00  0.00    -0.744 OA
ENDBRANCH  87  88
ENDBRANCH  59  82
BRANCH  71  92
ATOM     92  C   UNL A   1      44.702  26.171  34.943  1.00  0.00    -0.014 A 
ATOM     93  C   UNL A   1      46.069  25.973  35.193  1.00  0.00     0.010 A 
ATOM     94  C   UNL A   1      43.802  25.236  35.509  1.00  0.00     0.010 A 
ATOM     95  C   UNL A   1      46.521  24.864  35.922  1.00  0.00     0.020 A 
ATOM     96  C   UNL A   1      44.239  24.152  36.274  1.00  0.00     0.020 A 
ATOM     97  C   UNL A   1      45.603  23.958  36.456  1.00  0.00     0.054 A 
BRANCH  97  98
ATOM     98  S   UNL A   1      46.190  22.567  37.454  1.00  0.00     0.124 S 
ATOM     99  O   UNL A   1      45.567  22.840  38.745  1.00  0.00    -0.237 OA
ATOM    100  O   UNL A   1      45.668  21.405  36.738  1.00  0.00    -0.237 OA
ATOM    101  O   UNL A   1      47.644  22.710  37.415  1.00  0.00    -0.744 OA
ENDBRANCH  97  98
ENDBRANCH  71  92
ENDBRANCH  45  46
ENDBRANCH  37  40
ENDBRANCH  35  36
ENDBRANCH  34  35
ENDBRANCH  33  34
ENDBRANCH   1  33
TORSDOF 20
ENDMDL
MODEL 3
REMARK VINA RESULT:     -12.8      2.494      3.766
REMARK SMILES Cc1cc(C(=O)NCCCCNC(=O)c2ccc(-c3c4nc(c(-c5ccc(S(=O)(=O)[O-])cc5)c5ccc([nH]5)c(-c5ccc(S(=O)(=O)[O-])cc5)c5nc(c(-c6ccc(S(=O)(=O)[O-])cc6)c6ccc3[nH]6)C=C5)C=C4)cc2)ccc1NC(=O)c1ccc(=O)n(CCOc2ccccc2)n1
REMARK SMILES IDX 8 1 7 2 5 3 6 4 4 6 1 7 2 8 3 9 77 10 76 11 75 12 78 13
REMARK SMILES IDX 79 14 80 16 81 17 82 18 96 19 83 20 86 21 84 22 85 23 87 24
REMARK SMILES IDX 88 25 89 26 90 27 91 28 95 29 92 30 94 31 93 32 9 33 10 34
REMARK SMILES IDX 11 35 12 36 13 37 14 39 15 40 16 41 74 42 17 43 73 44 18 45
REMARK SMILES IDX 19 46 20 47 67 48 21 49 72 50 66 51 68 52 22 53 71 54 65 55
REMARK SMILES IDX 64 56 23 58 53 59 34 60 52 61 35 62 38 63 51 64 69 65 36 66
REMARK SMILES IDX 37 67 50 69 70 70 39 71 24 72 25 73 33 74 26 75 32 76 27 77
REMARK SMILES IDX 28 78 29 79 30 80 31 81 54 82 55 83 63 84 56 85 62 86 57 87
REMARK SMILES IDX 58 88 59 89 60 90 61 91 40 92 41 93 49 94 42 95 48 96 43 97
REMARK SMILES IDX 44 98 45 99 46 100 47 101
REMARK H PARENT 7 5 78 15 12 38 68 57 38 68
REMARK Flexibility Score: inf
ROOT
ATOM      1  C   UNL A   1      34.373  29.033  27.546  1.00  0.00     0.116 C 
ENDROOT
BRANCH   1   2
ATOM      2  N   UNL A   1      32.969  28.684  27.782  1.00  0.00    -0.352 N 
ATOM      3  C   UNL A   1      32.108  27.829  27.127  1.00  0.00     0.251 C 
ATOM      4  O   UNL A   1      31.043  27.524  27.662  1.00  0.00    -0.269 OA
ATOM      5  H   UNL A   1      32.564  29.146  28.550  1.00  0.00     0.163 HD
BRANCH   3   6
ATOM      6  C   UNL A   1      32.419  27.253  25.794  1.00  0.00     0.040 A 
ATOM      7  C   UNL A   1      30.797  27.078  22.356  1.00  0.00     0.046 C 
ATOM      8  C   UNL A   1      31.751  26.760  23.474  1.00  0.00    -0.027 A 
ATOM      9  C   UNL A   1      31.496  27.347  24.741  1.00  0.00     0.019 A 
ATOM     10  C   UNL A   1      32.918  26.001  23.307  1.00  0.00     0.044 A 
ATOM     11  C   UNL A   1      33.912  26.150  24.271  1.00  0.00     0.027 A 
ATOM     12  C   UNL A   1      33.670  26.749  25.501  1.00  0.00     0.016 A 
BRANCH  10  13
ATOM     13  N   UNL A   1      33.080  25.121  22.211  1.00  0.00    -0.320 N 
ATOM     14  C   UNL A   1      33.228  23.739  22.205  1.00  0.00     0.276 C 
ATOM     15  H   UNL A   1      33.089  25.550  21.325  1.00  0.00     0.170 HD
ATOM     16  O   UNL A   1      33.394  23.107  21.166  1.00  0.00    -0.267 OA
BRANCH  14  17
ATOM     17  C   UNL A   1      33.181  22.979  23.517  1.00  0.00     0.149 A 
ATOM     18  C   UNL A   1      31.826  22.771  24.072  1.00  0.00     0.042 A 
ATOM     19  N   UNL A   1      34.277  22.511  24.039  1.00  0.00    -0.164 NA
ATOM     20  C   UNL A   1      31.697  21.682  24.828  1.00  0.00     0.076 A 
ATOM     21  N   UNL A   1      34.095  21.540  25.023  1.00  0.00    -0.226 N 
ATOM     22  C   UNL A   1      32.890  20.858  25.133  1.00  0.00     0.266 A 
ATOM     23  O   UNL A   1      32.736  19.698  25.491  1.00  0.00    -0.268 OA
BRANCH  21  24
ATOM     24  C   UNL A   1      35.277  21.085  25.762  1.00  0.00     0.190 C 
BRANCH  24  25
ATOM     25  C   UNL A   1      36.504  20.948  24.839  1.00  0.00     0.253 C 
BRANCH  25  26
ATOM     26  O   UNL A   1      37.143  22.211  24.582  1.00  0.00    -0.492 OA
BRANCH  26  27
ATOM     27  C   UNL A   1      38.096  22.531  25.504  1.00  0.00     0.119 A 
ATOM     28  C   UNL A   1      39.038  21.593  25.913  1.00  0.00     0.046 A 
ATOM     29  C   UNL A   1      38.039  23.769  26.130  1.00  0.00     0.046 A 
ATOM     30  C   UNL A   1      39.996  21.950  26.869  1.00  0.00     0.004 A 
ATOM     31  C   UNL A   1      39.027  24.153  27.032  1.00  0.00     0.004 A 
ATOM     32  C   UNL A   1      40.015  23.244  27.396  1.00  0.00     0.000 A 
ENDBRANCH  26  27
ENDBRANCH  25  26
ENDBRANCH  24  25
ENDBRANCH  21  24
ENDBRANCH  14  17
ENDBRANCH  10  13
ENDBRANCH   3   6
ENDBRANCH   1   2
BRANCH   1  33
ATOM     33  C   UNL A   1      34.597  30.501  27.146  1.00  0.00     0.023 C 
BRANCH  33  34
ATOM     34  C   UNL A   1      33.677  31.525  27.809  1.00  0.00     0.023 C 
BRANCH  34  35
ATOM     35  C   UNL A   1      34.348  32.874  28.036  1.00  0.00     0.116 C 
BRANCH  35  36
ATOM     36  N   UNL A   1      34.487  33.240  29.441  1.00  0.00    -0.352 N 
ATOM     37  C   UNL A   1      35.193  32.574  30.434  1.00  0.00     0.251 C 
ATOM     38  H   UNL A   1      34.021  34.062  29.720  1.00  0.00     0.163 HD
ATOM     39  O   UNL A   1      35.029  32.808  31.618  1.00  0.00    -0.269 OA
BRANCH  37  40
ATOM     40  C   UNL A   1      36.257  31.646  29.990  1.00  0.00     0.039 A 
ATOM     41  C   UNL A   1      36.274  30.370  30.566  1.00  0.00     0.014 A 
ATOM     42  C   UNL A   1      37.357  32.136  29.296  1.00  0.00     0.014 A 
ATOM     43  C   UNL A   1      37.474  29.669  30.635  1.00  0.00     0.010 A 
ATOM     44  C   UNL A   1      38.567  31.501  29.475  1.00  0.00     0.010 A 
ATOM     45  C   UNL A   1      38.635  30.296  30.191  1.00  0.00    -0.014 A 
BRANCH  45  46
ATOM     46  C   UNL A   1      39.984  29.833  30.487  1.00  0.00     0.031 A 
ATOM     47  C   UNL A   1      40.439  28.528  29.955  1.00  0.00     0.074 A 
ATOM     48  C   UNL A   1      40.860  30.682  31.071  1.00  0.00     0.049 A 
ATOM     49  N   UNL A   1      41.501  27.902  30.339  1.00  0.00    -0.248 NA
ATOM     50  C   UNL A   1      39.668  27.784  28.962  1.00  0.00     0.031 C 
ATOM     51  C   UNL A   1      42.317  30.577  31.066  1.00  0.00     0.029 A 
ATOM     52  N   UNL A   1      40.605  31.715  31.977  1.00  0.00    -0.354 N 
ATOM     53  C   UNL A   1      41.728  26.889  29.432  1.00  0.00     0.074 A 
ATOM     54  C   UNL A   1      40.504  26.784  28.677  1.00  0.00     0.031 C 
ATOM     55  C   UNL A   1      42.800  31.262  32.115  1.00  0.00     0.029 A 
ATOM     56  C   UNL A   1      41.656  31.679  32.908  1.00  0.00     0.049 A 
ATOM     57  H   UNL A   1      39.844  32.339  31.965  1.00  0.00     0.167 HD
ATOM     58  C   UNL A   1      42.984  26.370  29.310  1.00  0.00     0.031 A 
ATOM     59  C   UNL A   1      41.490  31.409  34.238  1.00  0.00     0.031 A 
ATOM     60  C   UNL A   1      43.863  26.857  30.375  1.00  0.00     0.049 A 
ATOM     61  C   UNL A   1      42.289  30.209  34.696  1.00  0.00     0.074 A 
ATOM     62  C   UNL A   1      44.863  27.815  30.412  1.00  0.00     0.029 A 
ATOM     63  N   UNL A   1      43.559  26.553  31.698  1.00  0.00    -0.354 N 
ATOM     64  N   UNL A   1      42.784  29.316  33.885  1.00  0.00    -0.248 NA
ATOM     65  C   UNL A   1      42.568  29.899  36.096  1.00  0.00     0.031 C 
ATOM     66  C   UNL A   1      45.080  28.166  31.771  1.00  0.00     0.029 A 
ATOM     67  C   UNL A   1      44.242  27.392  32.557  1.00  0.00     0.049 A 
ATOM     68  H   UNL A   1      42.944  25.840  31.983  1.00  0.00     0.167 HD
ATOM     69  C   UNL A   1      43.433  28.348  34.601  1.00  0.00     0.074 A 
ATOM     70  C   UNL A   1      43.274  28.759  35.984  1.00  0.00     0.031 C 
ATOM     71  C   UNL A   1      44.046  27.288  33.997  1.00  0.00     0.031 A 
BRANCH  58  72
ATOM     72  C   UNL A   1      43.489  25.669  28.061  1.00  0.00    -0.014 A 
ATOM     73  C   UNL A   1      43.464  24.258  27.997  1.00  0.00     0.010 A 
ATOM     74  C   UNL A   1      44.087  26.315  26.961  1.00  0.00     0.010 A 
ATOM     75  C   UNL A   1      44.080  23.543  26.954  1.00  0.00     0.020 A 
ATOM     76  C   UNL A   1      44.725  25.617  25.924  1.00  0.00     0.020 A 
ATOM     77  C   UNL A   1      44.733  24.230  25.935  1.00  0.00     0.054 A 
BRANCH  77  78
ATOM     78  S   UNL A   1      45.593  23.304  24.639  1.00  0.00     0.124 S 
ATOM     79  O   UNL A   1      44.495  22.884  23.771  1.00  0.00    -0.237 OA
ATOM     80  O   UNL A   1      46.492  24.308  24.078  1.00  0.00    -0.237 OA
ATOM     81  O   UNL A   1      46.253  22.219  25.364  1.00  0.00    -0.744 OA
ENDBRANCH  77  78
ENDBRANCH  58  72
BRANCH  59  82
ATOM     82  C   UNL A   1      40.173  31.827  34.794  1.00  0.00    -0.014 A 
ATOM     83  C   UNL A   1      39.203  30.819  34.960  1.00  0.00     0.010 A 
ATOM     84  C   UNL A   1      40.058  33.009  35.546  1.00  0.00     0.010 A 
ATOM     85  C   UNL A   1      38.265  30.895  35.993  1.00  0.00     0.020 A 
ATOM     86  C   UNL A   1      39.108  33.093  36.577  1.00  0.00     0.020 A 
ATOM     87  C   UNL A   1      38.275  32.001  36.840  1.00  0.00     0.054 A 
BRANCH  87  88
ATOM     88  S   UNL A   1      37.351  31.887  38.403  1.00  0.00     0.124 S 
ATOM     89  O   UNL A   1      36.256  32.829  38.198  1.00  0.00    -0.237 OA
ATOM     90  O   UNL A   1      36.978  30.474  38.424  1.00  0.00    -0.237 OA
ATOM     91  O   UNL A   1      38.340  32.284  39.402  1.00  0.00    -0.744 OA
ENDBRANCH  87  88
ENDBRANCH  59  82
BRANCH  71  92
ATOM     92  C   UNL A   1      44.591  26.073  34.705  1.00  0.00    -0.014 A 
ATOM     93  C   UNL A   1      43.813  24.965  35.073  1.00  0.00     0.010 A 
ATOM     94  C   UNL A   1      45.991  25.966  34.889  1.00  0.00     0.010 A 
ATOM     95  C   UNL A   1      44.394  23.829  35.653  1.00  0.00     0.020 A 
ATOM     96  C   UNL A   1      46.586  24.821  35.425  1.00  0.00     0.020 A 
ATOM     97  C   UNL A   1      45.778  23.765  35.827  1.00  0.00     0.054 A 
BRANCH  97  98
ATOM     98  S   UNL A   1      46.528  22.266  36.512  1.00  0.00     0.124 S 
ATOM     99  O   UNL A   1      46.783  22.663  37.894  1.00  0.00    -0.237 OA
ATOM    100  O   UNL A   1      45.482  21.262  36.332  1.00  0.00    -0.237 OA
ATOM    101  O   UNL A   1      47.716  22.072  35.685  1.00  0.00    -0.744 OA
ENDBRANCH  97  98
ENDBRANCH  71  92
ENDBRANCH  45  46
ENDBRANCH  37  40
ENDBRANCH  35  36
ENDBRANCH  34  35
ENDBRANCH  33  34
ENDBRANCH   1  33
TORSDOF 20
ENDMDL
