MODEL 1
REMARK VINA RESULT:     -12.5      0.000      0.000
REMARK SMILES COc1ccc(/C=C(/Sc2nc(C)n[nH]2)C(=O)NCCCCNC(=O)c2ccc(-c3c4nc(c(-c5ccc(S(=O)(=O)[O-])cc5)c5ccc([nH]5)c(-c5ccc(S(=O)(=O)[O-])cc5)c5nc(c(-c6ccc(S(=O)(=O)[O-])cc6)c6ccc3[nH]6)C=C5)C=C4)cc2)cc1OC
REMARK SMILES IDX 21 1 20 2 19 3 18 4 16 5 17 6 8 8 7 9 6 10 3 11 4 12 87 13
REMARK SMILES IDX 5 14 86 15 2 16 1 17 88 18 89 19 9 20 10 21 11 22 15 23
REMARK SMILES IDX 12 24 14 25 13 27 22 28 23 29 24 30 25 32 26 33 27 34 85 35
REMARK SMILES IDX 28 36 84 37 29 38 30 39 31 40 78 41 32 42 83 43 77 44 79 45
REMARK SMILES IDX 33 46 82 47 76 48 75 49 34 51 64 52 45 53 63 54 46 55 49 56
REMARK SMILES IDX 62 57 80 58 47 59 48 60 61 62 81 63 50 64 35 65 36 66 44 67
REMARK SMILES IDX 37 68 43 69 38 70 39 71 40 72 41 73 42 74 65 75 66 76 74 77
REMARK SMILES IDX 67 78 73 79 68 80 69 81 70 82 71 83 72 84 51 85 52 86 60 87
REMARK SMILES IDX 53 88 59 89 54 90 55 91 56 92 57 93 58 94
REMARK H PARENT 18 7 15 26 23 31 79 50 49 61
REMARK Flexibility Score: inf
ROOT
ATOM      1  C   UNL A   1      37.004  22.449  24.241  1.00  0.00     0.023 C 
ENDROOT
BRANCH   1   2
ATOM      2  C   UNL A   1      35.620  21.784  24.162  1.00  0.00     0.023 C 
BRANCH   2   3
ATOM      3  C   UNL A   1      35.417  20.509  24.984  1.00  0.00     0.116 C 
BRANCH   3   4
ATOM      4  N   UNL A   1      34.085  20.345  25.541  1.00  0.00    -0.352 N 
ATOM      5  C   UNL A   1      32.930  19.797  25.053  1.00  0.00     0.258 C 
ATOM      6  O   UNL A   1      32.235  19.253  25.916  1.00  0.00    -0.269 OA
ATOM      7  H   UNL A   1      33.996  20.700  26.454  1.00  0.00     0.163 HD
BRANCH   5   8
ATOM      8  C   UNL A   1      32.454  19.883  23.614  1.00  0.00     0.081 C 
ATOM      9  C   UNL A   1      32.131  21.068  23.037  1.00  0.00     0.029 C 
BRANCH   9  10
ATOM     10  C   UNL A   1      32.160  22.486  23.477  1.00  0.00    -0.020 A 
ATOM     11  C   UNL A   1      32.580  25.187  24.233  1.00  0.00     0.160 A 
ATOM     12  C   UNL A   1      32.162  24.237  25.170  1.00  0.00     0.051 A 
ATOM     13  C   UNL A   1      32.832  24.795  22.915  1.00  0.00     0.161 A 
ATOM     14  C   UNL A   1      31.982  22.897  24.800  1.00  0.00     0.012 A 
ATOM     15  C   UNL A   1      32.588  23.456  22.551  1.00  0.00     0.058 A 
BRANCH  11  16
ATOM     16  O   UNL A   1      32.846  26.447  24.696  1.00  0.00    -0.493 OA
ATOM     17  C   UNL A   1      33.558  26.410  25.937  1.00  0.00     0.278 C 
ENDBRANCH  11  16
BRANCH  13  18
ATOM     18  O   UNL A   1      33.342  25.536  21.882  1.00  0.00    -0.493 OA
ATOM     19  C   UNL A   1      32.754  25.422  20.597  1.00  0.00     0.278 C 
ENDBRANCH  13  18
ENDBRANCH   9  10
BRANCH   8  20
ATOM     20  S   UNL A   1      32.545  18.457  22.610  1.00  0.00    -0.045 SA
BRANCH  20  21
ATOM     21  C   UNL A   1      33.383  17.301  23.572  1.00  0.00     0.188 A 
ATOM     22  N   UNL A   1      34.654  17.155  23.856  1.00  0.00    -0.206 NA
ATOM     23  N   UNL A   1      32.652  16.413  24.303  1.00  0.00    -0.254 N 
ATOM     24  C   UNL A   1      34.647  16.153  24.800  1.00  0.00     0.148 A 
ATOM     25  N   UNL A   1      33.433  15.677  25.110  1.00  0.00    -0.158 NA
ATOM     26  H   UNL A   1      31.674  16.323  24.247  1.00  0.00     0.192 HD
ATOM     27  C   UNL A   1      35.875  15.673  25.467  1.00  0.00     0.092 C 
ENDBRANCH  20  21
ENDBRANCH   8  20
ENDBRANCH   5   8
ENDBRANCH   3   4
ENDBRANCH   2   3
ENDBRANCH   1   2
BRANCH   1  28
ATOM     28  C   UNL A   1      37.452  22.889  25.630  1.00  0.00     0.116 C 
BRANCH  28  29
ATOM     29  N   UNL A   1      38.435  21.994  26.244  1.00  0.00    -0.352 N 
ATOM     30  C   UNL A   1      39.687  22.319  26.750  1.00  0.00     0.251 C 
ATOM     31  H   UNL A   1      38.177  21.046  26.306  1.00  0.00     0.163 HD
ATOM     32  O   UNL A   1      40.554  21.470  26.870  1.00  0.00    -0.269 OA
BRANCH  30  33
ATOM     33  C   UNL A   1      39.933  23.715  27.164  1.00  0.00     0.039 A 
ATOM     34  C   UNL A   1      38.989  24.732  27.001  1.00  0.00     0.014 A 
ATOM     35  C   UNL A   1      41.158  23.976  27.765  1.00  0.00     0.014 A 
ATOM     36  C   UNL A   1      39.268  25.995  27.527  1.00  0.00     0.010 A 
ATOM     37  C   UNL A   1      41.345  25.142  28.450  1.00  0.00     0.010 A 
ATOM     38  C   UNL A   1      40.447  26.183  28.264  1.00  0.00    -0.014 A 
BRANCH  38  39
ATOM     39  C   UNL A   1      40.748  27.427  28.958  1.00  0.00     0.031 A 
ATOM     40  C   UNL A   1      41.794  28.249  28.297  1.00  0.00     0.074 A 
ATOM     41  C   UNL A   1      39.955  27.905  29.945  1.00  0.00     0.049 A 
ATOM     42  N   UNL A   1      43.009  28.428  28.691  1.00  0.00    -0.248 NA
ATOM     43  C   UNL A   1      41.524  28.787  26.951  1.00  0.00     0.031 C 
ATOM     44  C   UNL A   1      38.698  27.338  30.458  1.00  0.00     0.029 A 
ATOM     45  N   UNL A   1      40.033  29.083  30.617  1.00  0.00    -0.354 N 
ATOM     46  C   UNL A   1      43.573  29.322  27.787  1.00  0.00     0.074 A 
ATOM     47  C   UNL A   1      42.710  29.315  26.635  1.00  0.00     0.031 C 
ATOM     48  C   UNL A   1      38.022  28.280  31.153  1.00  0.00     0.029 A 
ATOM     49  C   UNL A   1      38.871  29.448  31.291  1.00  0.00     0.049 A 
ATOM     50  H   UNL A   1      40.848  29.635  30.627  1.00  0.00     0.167 HD
ATOM     51  C   UNL A   1      44.531  30.209  28.182  1.00  0.00     0.031 A 
ATOM     52  C   UNL A   1      38.614  30.636  31.900  1.00  0.00     0.031 A 
ATOM     53  C   UNL A   1      45.004  29.901  29.511  1.00  0.00     0.049 A 
ATOM     54  C   UNL A   1      39.931  31.270  32.158  1.00  0.00     0.074 A 
ATOM     55  C   UNL A   1      45.618  28.818  30.106  1.00  0.00     0.029 A 
ATOM     56  N   UNL A   1      44.464  30.650  30.534  1.00  0.00    -0.354 N 
ATOM     57  N   UNL A   1      40.820  30.757  32.965  1.00  0.00    -0.248 NA
ATOM     58  C   UNL A   1      40.457  32.181  31.152  1.00  0.00     0.031 C 
ATOM     59  C   UNL A   1      45.020  28.725  31.397  1.00  0.00     0.029 A 
ATOM     60  C   UNL A   1      44.145  29.803  31.559  1.00  0.00     0.049 A 
ATOM     61  H   UNL A   1      44.332  31.626  30.527  1.00  0.00     0.167 HD
ATOM     62  C   UNL A   1      42.031  30.911  32.302  1.00  0.00     0.074 A 
ATOM     63  C   UNL A   1      41.757  31.881  31.239  1.00  0.00     0.031 C 
ATOM     64  C   UNL A   1      43.056  30.027  32.490  1.00  0.00     0.031 A 
BRANCH  51  65
ATOM     65  C   UNL A   1      44.712  31.594  27.602  1.00  0.00    -0.014 A 
ATOM     66  C   UNL A   1      45.973  31.923  27.057  1.00  0.00     0.010 A 
ATOM     67  C   UNL A   1      43.821  32.661  27.835  1.00  0.00     0.010 A 
ATOM     68  C   UNL A   1      46.361  33.254  26.870  1.00  0.00     0.020 A 
ATOM     69  C   UNL A   1      44.185  33.991  27.609  1.00  0.00     0.020 A 
ATOM     70  C   UNL A   1      45.469  34.280  27.169  1.00  0.00     0.054 A 
BRANCH  70  71
ATOM     71  S   UNL A   1      46.025  35.996  27.044  1.00  0.00     0.124 S 
ATOM     72  O   UNL A   1      46.778  36.156  28.284  1.00  0.00    -0.237 OA
ATOM     73  O   UNL A   1      46.817  35.974  25.818  1.00  0.00    -0.237 OA
ATOM     74  O   UNL A   1      44.779  36.753  26.963  1.00  0.00    -0.744 OA
ENDBRANCH  70  71
ENDBRANCH  51  65
BRANCH  52  75
ATOM     75  C   UNL A   1      37.324  31.376  31.970  1.00  0.00    -0.014 A 
ATOM     76  C   UNL A   1      36.807  31.858  33.188  1.00  0.00     0.010 A 
ATOM     77  C   UNL A   1      36.727  31.851  30.783  1.00  0.00     0.010 A 
ATOM     78  C   UNL A   1      35.769  32.810  33.216  1.00  0.00     0.020 A 
ATOM     79  C   UNL A   1      35.694  32.799  30.801  1.00  0.00     0.020 A 
ATOM     80  C   UNL A   1      35.230  33.290  32.018  1.00  0.00     0.054 A 
BRANCH  80  81
ATOM     81  S   UNL A   1      34.001  34.633  32.052  1.00  0.00     0.124 S 
ATOM     82  O   UNL A   1      33.604  34.731  30.651  1.00  0.00    -0.237 OA
ATOM     83  O   UNL A   1      32.982  34.113  32.961  1.00  0.00    -0.237 OA
ATOM     84  O   UNL A   1      34.752  35.777  32.565  1.00  0.00    -0.744 OA
ENDBRANCH  80  81
ENDBRANCH  52  75
BRANCH  64  85
ATOM     85  C   UNL A   1      42.973  29.052  33.642  1.00  0.00    -0.014 A 
ATOM     86  C   UNL A   1      43.393  29.339  34.955  1.00  0.00     0.010 A 
ATOM     87  C   UNL A   1      42.255  27.865  33.412  1.00  0.00     0.010 A 
ATOM     88  C   UNL A   1      43.104  28.455  36.008  1.00  0.00     0.020 A 
ATOM     89  C   UNL A   1      41.950  26.992  34.455  1.00  0.00     0.020 A 
ATOM     90  C   UNL A   1      42.379  27.286  35.749  1.00  0.00     0.054 A 
BRANCH  90  91
ATOM     91  S   UNL A   1      41.942  26.175  37.117  1.00  0.00     0.124 S 
ATOM     92  O   UNL A   1      41.895  24.870  36.463  1.00  0.00    -0.237 OA
ATOM     93  O   UNL A   1      43.043  26.367  38.059  1.00  0.00    -0.237 OA
ATOM     94  O   UNL A   1      40.649  26.681  37.578  1.00  0.00    -0.744 OA
ENDBRANCH  90  91
ENDBRANCH  64  85
ENDBRANCH  38  39
ENDBRANCH  30  33
ENDBRANCH  28  29
ENDBRANCH   1  28
TORSDOF 19
ENDMDL
MODEL 2
REMARK VINA RESULT:     -12.2      1.912      2.956
REMARK SMILES COc1ccc(/C=C(/Sc2nc(C)n[nH]2)C(=O)NCCCCNC(=O)c2ccc(-c3c4nc(c(-c5ccc(S(=O)(=O)[O-])cc5)c5ccc([nH]5)c(-c5ccc(S(=O)(=O)[O-])cc5)c5nc(c(-c6ccc(S(=O)(=O)[O-])cc6)c6ccc3[nH]6)C=C5)C=C4)cc2)cc1OC
REMARK SMILES IDX 21 1 20 2 19 3 18 4 16 5 17 6 8 8 7 9 6 10 3 11 4 12 87 13
REMARK SMILES IDX 5 14 86 15 2 16 1 17 88 18 89 19 9 20 10 21 11 22 15 23
REMARK SMILES IDX 12 24 14 25 13 27 22 28 23 29 24 30 25 32 26 33 27 34 85 35
REMARK SMILES IDX 28 36 84 37 29 38 30 39 31 40 78 41 32 42 83 43 77 44 79 45
REMARK SMILES IDX 33 46 82 47 76 48 75 49 34 51 64 52 45 53 63 54 46 55 49 56
REMARK SMILES IDX 62 57 80 58 47 59 48 60 61 62 81 63 50 64 35 65 36 66 44 67
REMARK SMILES IDX 37 68 43 69 38 70 39 71 40 72 41 73 42 74 65 75 66 76 74 77
REMARK SMILES IDX 67 78 73 79 68 80 69 81 70 82 71 83 72 84 51 85 52 86 60 87
REMARK SMILES IDX 53 88 59 89 54 90 55 91 56 92 57 93 58 94
REMARK H PARENT 18 7 15 26 23 31 79 50 49 61
REMARK Flexibility Score: inf
ROOT
ATOM      1  C   UNL A   1      39.119  21.782  25.848  1.00  0.00     0.023 C 
ENDROOT
BRANCH   1   2
ATOM      2  C   UNL A   1      38.569  23.035  26.549  1.00  0.00     0.023 C 
BRANCH   2   3
ATOM      3  C   UNL A   1      37.726  23.989  25.700  1.00  0.00     0.116 C 
BRANCH   3   4
ATOM      4  N   UNL A   1      36.802  23.341  24.786  1.00  0.00    -0.352 N 
ATOM      5  C   UNL A   1      35.436  23.312  24.704  1.00  0.00     0.258 C 
ATOM      6  O   UNL A   1      35.009  23.244  23.547  1.00  0.00    -0.269 OA
ATOM      7  H   UNL A   1      37.248  22.816  24.083  1.00  0.00     0.163 HD
BRANCH   5   8
ATOM      8  C   UNL A   1      34.483  23.285  25.885  1.00  0.00     0.081 C 
ATOM      9  C   UNL A   1      33.588  24.281  26.106  1.00  0.00     0.029 C 
BRANCH   9  10
ATOM     10  C   UNL A   1      33.218  25.529  25.391  1.00  0.00    -0.020 A 
ATOM     11  C   UNL A   1      32.322  28.004  24.337  1.00  0.00     0.160 A 
ATOM     12  C   UNL A   1      31.953  26.795  23.740  1.00  0.00     0.051 A 
ATOM     13  C   UNL A   1      33.110  27.994  25.491  1.00  0.00     0.161 A 
ATOM     14  C   UNL A   1      32.375  25.572  24.279  1.00  0.00     0.012 A 
ATOM     15  C   UNL A   1      33.572  26.757  25.982  1.00  0.00     0.058 A 
BRANCH  11  16
ATOM     16  O   UNL A   1      31.775  29.148  23.821  1.00  0.00    -0.493 OA
ATOM     17  C   UNL A   1      31.004  28.877  22.647  1.00  0.00     0.278 C 
ENDBRANCH  11  16
BRANCH  13  18
ATOM     18  O   UNL A   1      33.490  29.048  26.279  1.00  0.00    -0.493 OA
ATOM     19  C   UNL A   1      34.680  28.943  27.043  1.00  0.00     0.278 C 
ENDBRANCH  13  18
ENDBRANCH   9  10
BRANCH   8  20
ATOM     20  S   UNL A   1      34.375  21.831  26.846  1.00  0.00    -0.045 SA
BRANCH  20  21
ATOM     21  C   UNL A   1      33.745  20.643  25.771  1.00  0.00     0.188 A 
ATOM     22  N   UNL A   1      34.330  19.824  24.932  1.00  0.00    -0.206 NA
ATOM     23  N   UNL A   1      32.415  20.357  25.828  1.00  0.00    -0.254 N 
ATOM     24  C   UNL A   1      33.293  19.026  24.504  1.00  0.00     0.148 A 
ATOM     25  N   UNL A   1      32.099  19.315  25.041  1.00  0.00    -0.158 NA
ATOM     26  H   UNL A   1      31.765  20.851  26.378  1.00  0.00     0.192 HD
ATOM     27  C   UNL A   1      33.484  17.898  23.570  1.00  0.00     0.092 C 
ENDBRANCH  20  21
ENDBRANCH   8  20
ENDBRANCH   5   8
ENDBRANCH   3   4
ENDBRANCH   2   3
ENDBRANCH   1   2
BRANCH   1  28
ATOM     28  C   UNL A   1      40.280  21.085  26.549  1.00  0.00     0.116 C 
BRANCH  28  29
ATOM     29  N   UNL A   1      41.553  21.195  25.834  1.00  0.00    -0.352 N 
ATOM     30  C   UNL A   1      42.318  22.336  25.621  1.00  0.00     0.251 C 
ATOM     31  H   UNL A   1      41.912  20.359  25.459  1.00  0.00     0.163 HD
ATOM     32  O   UNL A   1      43.125  22.389  24.709  1.00  0.00    -0.269 OA
BRANCH  30  33
ATOM     33  C   UNL A   1      42.146  23.475  26.545  1.00  0.00     0.039 A 
ATOM     34  C   UNL A   1      42.594  23.453  27.868  1.00  0.00     0.014 A 
ATOM     35  C   UNL A   1      41.533  24.608  26.024  1.00  0.00     0.014 A 
ATOM     36  C   UNL A   1      42.489  24.618  28.629  1.00  0.00     0.010 A 
ATOM     37  C   UNL A   1      41.614  25.794  26.694  1.00  0.00     0.010 A 
ATOM     38  C   UNL A   1      42.009  25.790  28.024  1.00  0.00    -0.014 A 
BRANCH  38  39
ATOM     39  C   UNL A   1      41.994  27.076  28.707  1.00  0.00     0.031 A 
ATOM     40  C   UNL A   1      43.168  27.935  28.402  1.00  0.00     0.074 A 
ATOM     41  C   UNL A   1      40.887  27.542  29.330  1.00  0.00     0.049 A 
ATOM     42  N   UNL A   1      44.161  28.202  29.181  1.00  0.00    -0.248 NA
ATOM     43  C   UNL A   1      43.359  28.403  27.018  1.00  0.00     0.031 C 
ATOM     44  C   UNL A   1      39.557  26.918  29.409  1.00  0.00     0.029 A 
ATOM     45  N   UNL A   1      40.675  28.747  29.920  1.00  0.00    -0.354 N 
ATOM     46  C   UNL A   1      44.964  29.094  28.479  1.00  0.00     0.074 A 
ATOM     47  C   UNL A   1      44.557  28.990  27.101  1.00  0.00     0.031 C 
ATOM     48  C   UNL A   1      38.640  27.843  29.773  1.00  0.00     0.029 A 
ATOM     49  C   UNL A   1      39.335  29.066  30.129  1.00  0.00     0.049 A 
ATOM     50  H   UNL A   1      41.410  29.347  30.180  1.00  0.00     0.167 HD
ATOM     51  C   UNL A   1      45.684  30.053  29.128  1.00  0.00     0.031 A 
ATOM     52  C   UNL A   1      38.831  30.258  30.544  1.00  0.00     0.031 A 
ATOM     53  C   UNL A   1      45.678  29.825  30.554  1.00  0.00     0.049 A 
ATOM     54  C   UNL A   1      39.946  30.980  31.204  1.00  0.00     0.074 A 
ATOM     55  C   UNL A   1      46.094  28.805  31.385  1.00  0.00     0.029 A 
ATOM     56  N   UNL A   1      44.783  30.577  31.283  1.00  0.00    -0.354 N 
ATOM     57  N   UNL A   1      40.521  30.553  32.296  1.00  0.00    -0.248 NA
ATOM     58  C   UNL A   1      40.748  31.883  30.392  1.00  0.00     0.031 C 
ATOM     59  C   UNL A   1      45.089  28.725  32.394  1.00  0.00     0.029 A 
ATOM     60  C   UNL A   1      44.165  29.752  32.182  1.00  0.00     0.049 A 
ATOM     61  H   UNL A   1      44.619  31.542  31.176  1.00  0.00     0.167 HD
ATOM     62  C   UNL A   1      41.878  30.756  32.085  1.00  0.00     0.074 A 
ATOM     63  C   UNL A   1      41.949  31.666  30.940  1.00  0.00     0.031 C 
ATOM     64  C   UNL A   1      42.812  29.944  32.665  1.00  0.00     0.031 A 
BRANCH  51  65
ATOM     65  C   UNL A   1      45.994  31.423  28.569  1.00  0.00    -0.014 A 
ATOM     66  C   UNL A   1      44.909  32.271  28.256  1.00  0.00     0.010 A 
ATOM     67  C   UNL A   1      47.257  31.793  28.065  1.00  0.00     0.010 A 
ATOM     68  C   UNL A   1      45.060  33.358  27.389  1.00  0.00     0.020 A 
ATOM     69  C   UNL A   1      47.426  32.904  27.234  1.00  0.00     0.020 A 
ATOM     70  C   UNL A   1      46.316  33.654  26.867  1.00  0.00     0.054 A 
BRANCH  70  71
ATOM     71  S   UNL A   1      46.475  34.981  25.649  1.00  0.00     0.124 S 
ATOM     72  O   UNL A   1      47.907  34.955  25.365  1.00  0.00    -0.237 OA
ATOM     73  O   UNL A   1      45.605  34.516  24.574  1.00  0.00    -0.237 OA
ATOM     74  O   UNL A   1      45.998  36.160  26.367  1.00  0.00    -0.744 OA
ENDBRANCH  70  71
ENDBRANCH  51  65
BRANCH  52  75
ATOM     75  C   UNL A   1      37.566  30.919  30.122  1.00  0.00    -0.014 A 
ATOM     76  C   UNL A   1      36.518  31.170  31.029  1.00  0.00     0.010 A 
ATOM     77  C   UNL A   1      37.498  31.558  28.865  1.00  0.00     0.010 A 
ATOM     78  C   UNL A   1      35.472  32.059  30.709  1.00  0.00     0.020 A 
ATOM     79  C   UNL A   1      36.461  32.444  28.539  1.00  0.00     0.020 A 
ATOM     80  C   UNL A   1      35.460  32.706  29.470  1.00  0.00     0.054 A 
BRANCH  80  81
ATOM     81  S   UNL A   1      34.197  33.971  29.121  1.00  0.00     0.124 S 
ATOM     82  O   UNL A   1      33.650  34.242  30.447  1.00  0.00    -0.237 OA
ATOM     83  O   UNL A   1      34.980  35.053  28.530  1.00  0.00    -0.237 OA
ATOM     84  O   UNL A   1      33.281  33.302  28.199  1.00  0.00    -0.744 OA
ENDBRANCH  80  81
ENDBRANCH  52  75
BRANCH  64  85
ATOM     85  C   UNL A   1      42.377  29.010  33.771  1.00  0.00    -0.014 A 
ATOM     86  C   UNL A   1      41.759  27.762  33.557  1.00  0.00     0.010 A 
ATOM     87  C   UNL A   1      42.798  29.335  35.072  1.00  0.00     0.010 A 
ATOM     88  C   UNL A   1      41.564  26.869  34.623  1.00  0.00     0.020 A 
ATOM     89  C   UNL A   1      42.624  28.446  36.132  1.00  0.00     0.020 A 
ATOM     90  C   UNL A   1      42.004  27.217  35.906  1.00  0.00     0.054 A 
BRANCH  90  91
ATOM     91  S   UNL A   1      41.817  26.038  37.273  1.00  0.00     0.124 S 
ATOM     92  O   UNL A   1      40.436  26.254  37.693  1.00  0.00    -0.237 OA
ATOM     93  O   UNL A   1      42.088  24.751  36.636  1.00  0.00    -0.237 OA
ATOM     94  O   UNL A   1      42.830  26.463  38.241  1.00  0.00    -0.744 OA
ENDBRANCH  90  91
ENDBRANCH  64  85
ENDBRANCH  38  39
ENDBRANCH  30  33
ENDBRANCH  28  29
ENDBRANCH   1  28
TORSDOF 19
ENDMDL
MODEL 3
REMARK VINA RESULT:     -12.1      1.546      2.144
REMARK SMILES COc1ccc(/C=C(/Sc2nc(C)n[nH]2)C(=O)NCCCCNC(=O)c2ccc(-c3c4nc(c(-c5ccc(S(=O)(=O)[O-])cc5)c5ccc([nH]5)c(-c5ccc(S(=O)(=O)[O-])cc5)c5nc(c(-c6ccc(S(=O)(=O)[O-])cc6)c6ccc3[nH]6)C=C5)C=C4)cc2)cc1OC
REMARK SMILES IDX 21 1 20 2 19 3 18 4 16 5 17 6 8 8 7 9 6 10 3 11 4 12 87 13
REMARK SMILES IDX 5 14 86 15 2 16 1 17 88 18 89 19 9 20 10 21 11 22 15 23
REMARK SMILES IDX 12 24 14 25 13 27 22 28 23 29 24 30 25 32 26 33 27 34 85 35
REMARK SMILES IDX 28 36 84 37 29 38 30 39 31 40 78 41 32 42 83 43 77 44 79 45
REMARK SMILES IDX 33 46 82 47 76 48 75 49 34 51 64 52 45 53 63 54 46 55 49 56
REMARK SMILES IDX 62 57 80 58 47 59 48 60 61 62 81 63 50 64 35 65 36 66 44 67
REMARK SMILES IDX 37 68 43 69 38 70 39 71 40 72 41 73 42 74 65 75 66 76 74 77
REMARK SMILES IDX 67 78 73 79 68 80 69 81 70 82 71 83 72 84 51 85 52 86 60 87
REMARK SMILES IDX 53 88 59 89 54 90 55 91 56 92 57 93 58 94
REMARK H PARENT 18 7 15 26 23 31 79 50 49 61
REMARK Flexibility Score: inf
ROOT
ATOM      1  C   UNL A   1      36.829  21.855  24.318  1.00  0.00     0.023 C 
ENDROOT
BRANCH   1   2
ATOM      2  C   UNL A   1      36.387  22.662  23.087  1.00  0.00     0.023 C 
BRANCH   2   3
ATOM      3  C   UNL A   1      35.005  23.318  23.148  1.00  0.00     0.116 C 
BRANCH   3   4
ATOM      4  N   UNL A   1      34.873  24.375  24.135  1.00  0.00    -0.352 N 
ATOM      5  C   UNL A   1      34.440  24.392  25.433  1.00  0.00     0.258 C 
ATOM      6  O   UNL A   1      35.023  25.218  26.141  1.00  0.00    -0.269 OA
ATOM      7  H   UNL A   1      35.151  25.259  23.803  1.00  0.00     0.163 HD
BRANCH   5   8
ATOM      8  C   UNL A   1      33.303  23.556  25.993  1.00  0.00     0.081 C 
ATOM      9  C   UNL A   1      32.005  23.834  25.714  1.00  0.00     0.029 C 
BRANCH   9  10
ATOM     10  C   UNL A   1      31.312  24.841  24.870  1.00  0.00    -0.020 A 
ATOM     11  C   UNL A   1      30.331  26.871  23.149  1.00  0.00     0.160 A 
ATOM     12  C   UNL A   1      30.088  26.918  24.525  1.00  0.00     0.051 A 
ATOM     13  C   UNL A   1      31.099  25.832  22.617  1.00  0.00     0.161 A 
ATOM     14  C   UNL A   1      30.597  25.929  25.377  1.00  0.00     0.012 A 
ATOM     15  C   UNL A   1      31.551  24.816  23.483  1.00  0.00     0.058 A 
BRANCH  11  16
ATOM     16  O   UNL A   1      29.901  27.934  22.402  1.00  0.00    -0.493 OA
ATOM     17  C   UNL A   1      28.743  28.545  22.978  1.00  0.00     0.278 C 
ENDBRANCH  11  16
BRANCH  13  18
ATOM     18  O   UNL A   1      31.535  25.660  21.330  1.00  0.00    -0.493 OA
ATOM     19  C   UNL A   1      32.914  25.823  21.043  1.00  0.00     0.278 C 
ENDBRANCH  13  18
ENDBRANCH   9  10
BRANCH   8  20
ATOM     20  S   UNL A   1      33.682  22.067  26.823  1.00  0.00    -0.045 SA
BRANCH  20  21
ATOM     21  C   UNL A   1      33.080  20.827  25.791  1.00  0.00     0.188 A 
ATOM     22  N   UNL A   1      32.888  20.784  24.495  1.00  0.00    -0.206 NA
ATOM     23  N   UNL A   1      32.852  19.594  26.323  1.00  0.00    -0.254 N 
ATOM     24  C   UNL A   1      32.551  19.467  24.276  1.00  0.00     0.148 A 
ATOM     25  N   UNL A   1      32.528  18.700  25.375  1.00  0.00    -0.158 NA
ATOM     26  H   UNL A   1      32.916  19.385  27.282  1.00  0.00     0.192 HD
ATOM     27  C   UNL A   1      32.291  18.922  22.928  1.00  0.00     0.092 C 
ENDBRANCH  20  21
ENDBRANCH   8  20
ENDBRANCH   5   8
ENDBRANCH   3   4
ENDBRANCH   2   3
ENDBRANCH   1   2
BRANCH   1  28
ATOM     28  C   UNL A   1      37.765  22.573  25.282  1.00  0.00     0.116 C 
BRANCH  28  29
ATOM     29  N   UNL A   1      38.520  21.672  26.155  1.00  0.00    -0.352 N 
ATOM     30  C   UNL A   1      39.660  21.956  26.896  1.00  0.00     0.251 C 
ATOM     31  H   UNL A   1      38.178  20.752  26.226  1.00  0.00     0.163 HD
ATOM     32  O   UNL A   1      40.410  21.066  27.259  1.00  0.00    -0.269 OA
BRANCH  30  33
ATOM     33  C   UNL A   1      39.927  23.363  27.255  1.00  0.00     0.039 A 
ATOM     34  C   UNL A   1      38.949  24.360  27.200  1.00  0.00     0.014 A 
ATOM     35  C   UNL A   1      41.214  23.658  27.691  1.00  0.00     0.014 A 
ATOM     36  C   UNL A   1      39.267  25.636  27.668  1.00  0.00     0.010 A 
ATOM     37  C   UNL A   1      41.462  24.838  28.330  1.00  0.00     0.010 A 
ATOM     38  C   UNL A   1      40.526  25.859  28.246  1.00  0.00    -0.014 A 
BRANCH  38  39
ATOM     39  C   UNL A   1      40.887  27.120  28.877  1.00  0.00     0.031 A 
ATOM     40  C   UNL A   1      41.971  27.857  28.178  1.00  0.00     0.074 A 
ATOM     41  C   UNL A   1      40.118  27.684  29.838  1.00  0.00     0.049 A 
ATOM     42  N   UNL A   1      43.194  27.996  28.566  1.00  0.00    -0.248 NA
ATOM     43  C   UNL A   1      41.727  28.339  26.807  1.00  0.00     0.031 C 
ATOM     44  C   UNL A   1      38.836  27.204  30.376  1.00  0.00     0.029 A 
ATOM     45  N   UNL A   1      40.253  28.888  30.451  1.00  0.00    -0.354 N 
ATOM     46  C   UNL A   1      43.800  28.816  27.620  1.00  0.00     0.074 A 
ATOM     47  C   UNL A   1      42.937  28.793  26.468  1.00  0.00     0.031 C 
ATOM     48  C   UNL A   1      38.206  28.211  31.022  1.00  0.00     0.029 A 
ATOM     49  C   UNL A   1      39.110  29.342  31.104  1.00  0.00     0.049 A 
ATOM     50  H   UNL A   1      41.094  29.400  30.435  1.00  0.00     0.167 HD
ATOM     51  C   UNL A   1      44.800  29.674  27.972  1.00  0.00     0.031 A 
ATOM     52  C   UNL A   1      38.912  30.570  31.653  1.00  0.00     0.031 A 
ATOM     53  C   UNL A   1      45.257  29.410  29.316  1.00  0.00     0.049 A 
ATOM     54  C   UNL A   1      40.258  31.151  31.881  1.00  0.00     0.074 A 
ATOM     55  C   UNL A   1      45.819  28.329  29.965  1.00  0.00     0.029 A 
ATOM     56  N   UNL A   1      44.755  30.234  30.299  1.00  0.00    -0.354 N 
ATOM     57  N   UNL A   1      41.121  30.637  32.715  1.00  0.00    -0.248 NA
ATOM     58  C   UNL A   1      40.826  31.985  30.833  1.00  0.00     0.031 C 
ATOM     59  C   UNL A   1      45.218  28.330  31.258  1.00  0.00     0.029 A 
ATOM     60  C   UNL A   1      44.395  29.455  31.365  1.00  0.00     0.049 A 
ATOM     61  H   UNL A   1      44.670  31.213  30.244  1.00  0.00     0.167 HD
ATOM     62  C   UNL A   1      42.338  30.699  32.047  1.00  0.00     0.074 A 
ATOM     63  C   UNL A   1      42.111  31.627  30.938  1.00  0.00     0.031 C 
ATOM     64  C   UNL A   1      43.319  29.778  32.281  1.00  0.00     0.031 A 
BRANCH  51  65
ATOM     65  C   UNL A   1      45.047  31.018  27.325  1.00  0.00    -0.014 A 
ATOM     66  C   UNL A   1      46.381  31.372  27.024  1.00  0.00     0.010 A 
ATOM     67  C   UNL A   1      44.089  32.050  27.277  1.00  0.00     0.010 A 
ATOM     68  C   UNL A   1      46.751  32.703  26.806  1.00  0.00     0.020 A 
ATOM     69  C   UNL A   1      44.443  33.377  27.017  1.00  0.00     0.020 A 
ATOM     70  C   UNL A   1      45.779  33.700  26.826  1.00  0.00     0.054 A 
BRANCH  70  71
ATOM     71  S   UNL A   1      46.286  35.429  26.672  1.00  0.00     0.124 S 
ATOM     72  O   UNL A   1      47.190  35.578  27.808  1.00  0.00    -0.237 OA
ATOM     73  O   UNL A   1      46.913  35.448  25.353  1.00  0.00    -0.237 OA
ATOM     74  O   UNL A   1      45.027  36.163  26.769  1.00  0.00    -0.744 OA
ENDBRANCH  70  71
ENDBRANCH  51  65
BRANCH  52  75
ATOM     75  C   UNL A   1      37.659  31.374  31.683  1.00  0.00    -0.014 A 
ATOM     76  C   UNL A   1      36.807  31.383  32.805  1.00  0.00     0.010 A 
ATOM     77  C   UNL A   1      37.437  32.358  30.696  1.00  0.00     0.010 A 
ATOM     78  C   UNL A   1      35.808  32.365  32.955  1.00  0.00     0.020 A 
ATOM     79  C   UNL A   1      36.445  33.339  30.838  1.00  0.00     0.020 A 
ATOM     80  C   UNL A   1      35.645  33.351  31.977  1.00  0.00     0.054 A 
BRANCH  80  81
ATOM     81  S   UNL A   1      34.461  34.708  32.248  1.00  0.00     0.124 S 
ATOM     82  O   UNL A   1      33.376  34.041  32.961  1.00  0.00    -0.237 OA
ATOM     83  O   UNL A   1      35.240  35.661  33.034  1.00  0.00    -0.237 OA
ATOM     84  O   UNL A   1      34.131  35.154  30.896  1.00  0.00    -0.744 OA
ENDBRANCH  80  81
ENDBRANCH  52  75
BRANCH  64  85
ATOM     85  C   UNL A   1      43.190  28.866  33.479  1.00  0.00    -0.014 A 
ATOM     86  C   UNL A   1      43.693  29.165  34.761  1.00  0.00     0.010 A 
ATOM     87  C   UNL A   1      42.348  27.749  33.334  1.00  0.00     0.010 A 
ATOM     88  C   UNL A   1      43.363  28.360  35.865  1.00  0.00     0.020 A 
ATOM     89  C   UNL A   1      42.002  26.956  34.428  1.00  0.00     0.020 A 
ATOM     90  C   UNL A   1      42.514  27.261  35.689  1.00  0.00     0.054 A 
BRANCH  90  91
ATOM     91  S   UNL A   1      42.030  26.259  37.123  1.00  0.00     0.124 S 
ATOM     92  O   UNL A   1      42.053  24.902  36.585  1.00  0.00    -0.237 OA
ATOM     93  O   UNL A   1      43.069  26.566  38.103  1.00  0.00    -0.237 OA
ATOM     94  O   UNL A   1      40.699  26.763  37.467  1.00  0.00    -0.744 OA
ENDBRANCH  90  91
ENDBRANCH  64  85
ENDBRANCH  38  39
ENDBRANCH  30  33
ENDBRANCH  28  29
ENDBRANCH   1  28
TORSDOF 19
ENDMDL
