MODEL 1
REMARK VINA RESULT:     -10.9      0.000      0.000
REMARK SMILES Cc1nonc1C[C@@H](C(=O)NCCCCNC(=O)c1ccc(-c2c3nc(c(-c4ccc(S(=O)(=O)[O-])cc4)c4ccc([nH]4)c(-c4ccc(S(=O)(=O)[O-])cc4)c4nc(c(-c5ccc(S(=O)(=O)[O-])cc5)c5ccc2[nH]5)C=C4)C=C3)cc1)c1ccccc1Br
REMARK SMILES IDX 14 1 13 2 12 3 11 4 9 5 10 6 8 8 7 9 6 10 1 11 2 12 3 13
REMARK SMILES IDX 4 14 5 15 79 16 80 17 84 18 81 19 83 20 85 21 82 22 15 23
REMARK SMILES IDX 16 24 17 25 18 27 19 28 20 29 78 30 21 31 77 32 22 33 23 34
REMARK SMILES IDX 24 35 71 36 25 37 76 38 70 39 72 40 26 41 75 42 69 43 68 44
REMARK SMILES IDX 27 46 57 47 38 48 56 49 39 50 42 51 55 52 73 53 40 54 41 55
REMARK SMILES IDX 54 57 74 58 43 59 28 60 29 61 37 62 30 63 36 64 31 65 32 66
REMARK SMILES IDX 33 67 34 68 35 69 58 70 59 71 67 72 60 73 66 74 61 75 62 76
REMARK SMILES IDX 63 77 64 78 65 79 44 80 45 81 53 82 46 83 52 84 47 85 48 86
REMARK SMILES IDX 49 87 50 88 51 89
REMARK H PARENT 11 7 16 26 72 45 42 56
REMARK Flexibility Score: inf
ROOT
ATOM      1  C   UNL A   1      33.262  26.850  26.075  1.00  0.00     0.023 C 
ENDROOT
BRANCH   1   2
ATOM      2  C   UNL A   1      33.800  25.450  25.819  1.00  0.00     0.023 C 
BRANCH   2   3
ATOM      3  C   UNL A   1      32.773  24.327  25.971  1.00  0.00     0.116 C 
BRANCH   3   4
ATOM      4  N   UNL A   1      33.323  23.304  26.837  1.00  0.00    -0.356 N 
ATOM      5  C   UNL A   1      33.260  21.946  26.699  1.00  0.00     0.227 C 
ATOM      6  O   UNL A   1      33.292  21.264  27.726  1.00  0.00    -0.274 OA
ATOM      7  H   UNL A   1      33.807  23.632  27.630  1.00  0.00     0.163 HD
BRANCH   5   8
ATOM      8  C   UNL A   1      33.266  21.303  25.296  1.00  0.00     0.116 C 
BRANCH   8   9
ATOM      9  C   UNL A   1      33.124  19.768  25.471  1.00  0.00     0.080 C 
BRANCH   9  10
ATOM     10  C   UNL A   1      33.068  18.913  24.256  1.00  0.00     0.109 A 
ATOM     11  C   UNL A   1      34.422  16.756  24.889  1.00  0.00     0.073 C 
ATOM     12  C   UNL A   1      33.614  17.633  24.017  1.00  0.00     0.105 A 
ATOM     13  N   UNL A   1      33.241  17.209  22.808  1.00  0.00    -0.055 NA
ATOM     14  O   UNL A   1      32.397  18.199  22.323  1.00  0.00    -0.244 OA
ATOM     15  N   UNL A   1      32.263  19.232  23.242  1.00  0.00    -0.055 NA
ENDBRANCH   9  10
ENDBRANCH   8   9
BRANCH   8  16
ATOM     16  C   UNL A   1      34.586  21.686  24.550  1.00  0.00    -0.021 A 
ATOM     17  C   UNL A   1      35.833  21.173  24.977  1.00  0.00     0.006 A 
ATOM     18  C   UNL A   1      34.630  22.591  23.463  1.00  0.00     0.021 A 
ATOM     19  C   UNL A   1      37.048  21.624  24.455  1.00  0.00     0.000 A 
ATOM     20  C   UNL A   1      35.855  23.076  22.973  1.00  0.00     0.016 A 
ATOM     21  Br  UNL A   1      33.092  23.181  22.508  1.00  0.00    -0.051 Br
ATOM     22  C   UNL A   1      37.062  22.608  23.482  1.00  0.00     0.001 A 
ENDBRANCH   8  16
ENDBRANCH   5   8
ENDBRANCH   3   4
ENDBRANCH   2   3
ENDBRANCH   1   2
BRANCH   1  23
ATOM     23  C   UNL A   1      34.323  27.873  26.438  1.00  0.00     0.116 C 
BRANCH  23  24
ATOM     24  N   UNL A   1      33.773  29.181  26.772  1.00  0.00    -0.352 N 
ATOM     25  C   UNL A   1      34.328  30.204  27.511  1.00  0.00     0.251 C 
ATOM     26  H   UNL A   1      32.872  29.360  26.418  1.00  0.00     0.163 HD
ATOM     27  O   UNL A   1      33.673  31.194  27.790  1.00  0.00    -0.269 OA
BRANCH  25  28
ATOM     28  C   UNL A   1      35.719  30.061  27.992  1.00  0.00     0.039 A 
ATOM     29  C   UNL A   1      35.946  29.597  29.289  1.00  0.00     0.014 A 
ATOM     30  C   UNL A   1      36.788  30.314  27.132  1.00  0.00     0.014 A 
ATOM     31  C   UNL A   1      37.250  29.298  29.689  1.00  0.00     0.010 A 
ATOM     32  C   UNL A   1      38.064  29.908  27.492  1.00  0.00     0.010 A 
ATOM     33  C   UNL A   1      38.312  29.402  28.776  1.00  0.00    -0.014 A 
BRANCH  33  34
ATOM     34  C   UNL A   1      39.697  29.001  29.134  1.00  0.00     0.031 A 
ATOM     35  C   UNL A   1      40.608  29.994  29.807  1.00  0.00     0.074 A 
ATOM     36  C   UNL A   1      40.163  27.789  28.773  1.00  0.00     0.049 A 
ATOM     37  N   UNL A   1      41.879  29.888  30.092  1.00  0.00    -0.248 NA
ATOM     38  C   UNL A   1      40.021  31.297  30.167  1.00  0.00     0.031 C 
ATOM     39  C   UNL A   1      39.401  26.758  28.062  1.00  0.00     0.029 A 
ATOM     40  N   UNL A   1      41.399  27.220  28.946  1.00  0.00    -0.354 N 
ATOM     41  C   UNL A   1      42.249  31.118  30.623  1.00  0.00     0.074 A 
ATOM     42  C   UNL A   1      41.086  31.973  30.570  1.00  0.00     0.031 C 
ATOM     43  C   UNL A   1      40.172  25.673  27.895  1.00  0.00     0.029 A 
ATOM     44  C   UNL A   1      41.497  25.942  28.446  1.00  0.00     0.049 A 
ATOM     45  H   UNL A   1      42.148  27.683  29.388  1.00  0.00     0.167 HD
ATOM     46  C   UNL A   1      43.444  31.496  31.137  1.00  0.00     0.031 A 
ATOM     47  C   UNL A   1      42.536  25.085  28.430  1.00  0.00     0.031 A 
ATOM     48  C   UNL A   1      44.584  30.627  31.232  1.00  0.00     0.049 A 
ATOM     49  C   UNL A   1      43.842  25.512  29.042  1.00  0.00     0.074 A 
ATOM     50  C   UNL A   1      45.817  30.884  31.804  1.00  0.00     0.029 A 
ATOM     51  N   UNL A   1      44.626  29.326  30.753  1.00  0.00    -0.354 N 
ATOM     52  N   UNL A   1      44.154  26.659  29.597  1.00  0.00    -0.248 NA
ATOM     53  C   UNL A   1      44.932  24.526  29.036  1.00  0.00     0.031 C 
ATOM     54  C   UNL A   1      46.618  29.749  31.639  1.00  0.00     0.029 A 
ATOM     55  C   UNL A   1      45.867  28.770  31.007  1.00  0.00     0.049 A 
ATOM     56  H   UNL A   1      43.882  28.866  30.300  1.00  0.00     0.167 HD
ATOM     57  C   UNL A   1      45.469  26.523  30.032  1.00  0.00     0.074 A 
ATOM     58  C   UNL A   1      45.886  25.179  29.687  1.00  0.00     0.031 C 
ATOM     59  C   UNL A   1      46.258  27.428  30.660  1.00  0.00     0.031 A 
BRANCH  46  60
ATOM     60  C   UNL A   1      43.566  32.910  31.641  1.00  0.00    -0.014 A 
ATOM     61  C   UNL A   1      43.277  33.231  32.980  1.00  0.00     0.010 A 
ATOM     62  C   UNL A   1      43.994  33.928  30.770  1.00  0.00     0.010 A 
ATOM     63  C   UNL A   1      43.363  34.552  33.426  1.00  0.00     0.020 A 
ATOM     64  C   UNL A   1      44.111  35.246  31.220  1.00  0.00     0.020 A 
ATOM     65  C   UNL A   1      43.774  35.553  32.541  1.00  0.00     0.054 A 
BRANCH  65  66
ATOM     66  S   UNL A   1      43.891  37.257  33.150  1.00  0.00     0.124 S 
ATOM     67  O   UNL A   1      42.700  37.358  33.989  1.00  0.00    -0.237 OA
ATOM     68  O   UNL A   1      45.165  37.256  33.866  1.00  0.00    -0.237 OA
ATOM     69  O   UNL A   1      43.866  38.063  31.932  1.00  0.00    -0.744 OA
ENDBRANCH  65  66
ENDBRANCH  46  60
BRANCH  47  70
ATOM     70  C   UNL A   1      42.375  23.726  27.846  1.00  0.00    -0.014 A 
ATOM     71  C   UNL A   1      41.801  22.691  28.606  1.00  0.00     0.010 A 
ATOM     72  C   UNL A   1      42.782  23.457  26.525  1.00  0.00     0.010 A 
ATOM     73  C   UNL A   1      41.656  21.409  28.066  1.00  0.00     0.020 A 
ATOM     74  C   UNL A   1      42.615  22.183  25.973  1.00  0.00     0.020 A 
ATOM     75  C   UNL A   1      42.064  21.163  26.753  1.00  0.00     0.054 A 
BRANCH  75  76
ATOM     76  S   UNL A   1      41.823  19.504  26.057  1.00  0.00     0.124 S 
ATOM     77  O   UNL A   1      42.255  18.649  27.159  1.00  0.00    -0.237 OA
ATOM     78  O   UNL A   1      40.392  19.488  25.766  1.00  0.00    -0.237 OA
ATOM     79  O   UNL A   1      42.691  19.498  24.881  1.00  0.00    -0.744 OA
ENDBRANCH  75  76
ENDBRANCH  47  70
BRANCH  59  80
ATOM     80  C   UNL A   1      47.643  26.985  31.049  1.00  0.00    -0.014 A 
ATOM     81  C   UNL A   1      47.881  26.340  32.275  1.00  0.00     0.010 A 
ATOM     82  C   UNL A   1      48.705  27.163  30.144  1.00  0.00     0.010 A 
ATOM     83  C   UNL A   1      49.168  25.902  32.600  1.00  0.00     0.020 A 
ATOM     84  C   UNL A   1      49.986  26.704  30.456  1.00  0.00     0.020 A 
ATOM     85  C   UNL A   1      50.212  26.088  31.689  1.00  0.00     0.054 A 
BRANCH  85  86
ATOM     86  S   UNL A   1      51.862  25.466  32.112  1.00  0.00     0.124 S 
ATOM     87  O   UNL A   1      52.140  26.170  33.361  1.00  0.00    -0.237 OA
ATOM     88  O   UNL A   1      51.642  24.027  32.237  1.00  0.00    -0.237 OA
ATOM     89  O   UNL A   1      52.686  25.867  30.974  1.00  0.00    -0.744 OA
ENDBRANCH  85  86
ENDBRANCH  59  80
ENDBRANCH  33  34
ENDBRANCH  25  28
ENDBRANCH  23  24
ENDBRANCH   1  23
TORSDOF 17
ENDMDL
MODEL 2
REMARK VINA RESULT:     -10.8      1.701      2.664
REMARK SMILES Cc1nonc1C[C@@H](C(=O)NCCCCNC(=O)c1ccc(-c2c3nc(c(-c4ccc(S(=O)(=O)[O-])cc4)c4ccc([nH]4)c(-c4ccc(S(=O)(=O)[O-])cc4)c4nc(c(-c5ccc(S(=O)(=O)[O-])cc5)c5ccc2[nH]5)C=C4)C=C3)cc1)c1ccccc1Br
REMARK SMILES IDX 14 1 13 2 12 3 11 4 9 5 10 6 8 8 7 9 6 10 1 11 2 12 3 13
REMARK SMILES IDX 4 14 5 15 79 16 80 17 84 18 81 19 83 20 85 21 82 22 15 23
REMARK SMILES IDX 16 24 17 25 18 27 19 28 20 29 78 30 21 31 77 32 22 33 23 34
REMARK SMILES IDX 24 35 71 36 25 37 76 38 70 39 72 40 26 41 75 42 69 43 68 44
REMARK SMILES IDX 27 46 57 47 38 48 56 49 39 50 42 51 55 52 73 53 40 54 41 55
REMARK SMILES IDX 54 57 74 58 43 59 28 60 29 61 37 62 30 63 36 64 31 65 32 66
REMARK SMILES IDX 33 67 34 68 35 69 58 70 59 71 67 72 60 73 66 74 61 75 62 76
REMARK SMILES IDX 63 77 64 78 65 79 44 80 45 81 53 82 46 83 52 84 47 85 48 86
REMARK SMILES IDX 49 87 50 88 51 89
REMARK H PARENT 11 7 16 26 72 45 42 56
REMARK Flexibility Score: inf
ROOT
ATOM      1  C   UNL A   1      32.378  28.410  26.218  1.00  0.00     0.023 C 
ENDROOT
BRANCH   1   2
ATOM      2  C   UNL A   1      31.320  27.536  26.877  1.00  0.00     0.023 C 
BRANCH   2   3
ATOM      3  C   UNL A   1      30.973  26.259  26.111  1.00  0.00     0.116 C 
BRANCH   3   4
ATOM      4  N   UNL A   1      31.628  25.137  26.753  1.00  0.00    -0.356 N 
ATOM      5  C   UNL A   1      32.341  24.122  26.179  1.00  0.00     0.227 C 
ATOM      6  O   UNL A   1      32.358  23.034  26.758  1.00  0.00    -0.274 OA
ATOM      7  H   UNL A   1      31.548  25.101  27.734  1.00  0.00     0.163 HD
BRANCH   5   8
ATOM      8  C   UNL A   1      33.183  24.381  24.911  1.00  0.00     0.116 C 
BRANCH   8   9
ATOM      9  C   UNL A   1      32.355  23.922  23.683  1.00  0.00     0.080 C 
BRANCH   9  10
ATOM     10  C   UNL A   1      32.667  24.508  22.352  1.00  0.00     0.109 A 
ATOM     11  C   UNL A   1      32.693  27.102  22.748  1.00  0.00     0.073 C 
ATOM     12  C   UNL A   1      32.817  25.856  21.963  1.00  0.00     0.105 A 
ATOM     13  N   UNL A   1      33.181  25.912  20.681  1.00  0.00    -0.055 NA
ATOM     14  O   UNL A   1      33.333  24.587  20.291  1.00  0.00    -0.244 OA
ATOM     15  N   UNL A   1      33.052  23.725  21.343  1.00  0.00    -0.055 NA
ENDBRANCH   9  10
ENDBRANCH   8   9
BRANCH   8  16
ATOM     16  C   UNL A   1      34.542  23.615  25.020  1.00  0.00    -0.021 A 
ATOM     17  C   UNL A   1      35.702  24.265  25.501  1.00  0.00     0.006 A 
ATOM     18  C   UNL A   1      34.714  22.274  24.603  1.00  0.00     0.021 A 
ATOM     19  C   UNL A   1      36.968  23.676  25.450  1.00  0.00     0.000 A 
ATOM     20  C   UNL A   1      35.995  21.702  24.510  1.00  0.00     0.016 A 
ATOM     21  Br  UNL A   1      33.276  21.089  24.209  1.00  0.00    -0.051 Br
ATOM     22  C   UNL A   1      37.122  22.410  24.914  1.00  0.00     0.001 A 
ENDBRANCH   8  16
ENDBRANCH   5   8
ENDBRANCH   3   4
ENDBRANCH   2   3
ENDBRANCH   1   2
BRANCH   1  23
ATOM     23  C   UNL A   1      33.571  28.724  27.103  1.00  0.00     0.116 C 
BRANCH  23  24
ATOM     24  N   UNL A   1      33.553  30.082  27.634  1.00  0.00    -0.352 N 
ATOM     25  C   UNL A   1      34.539  30.776  28.301  1.00  0.00     0.251 C 
ATOM     26  H   UNL A   1      32.713  30.575  27.496  1.00  0.00     0.163 HD
ATOM     27  O   UNL A   1      34.310  31.873  28.780  1.00  0.00    -0.269 OA
BRANCH  25  28
ATOM     28  C   UNL A   1      35.869  30.148  28.458  1.00  0.00     0.039 A 
ATOM     29  C   UNL A   1      36.785  30.224  27.408  1.00  0.00     0.014 A 
ATOM     30  C   UNL A   1      36.227  29.556  29.670  1.00  0.00     0.014 A 
ATOM     31  C   UNL A   1      38.095  29.785  27.610  1.00  0.00     0.010 A 
ATOM     32  C   UNL A   1      37.554  29.230  29.904  1.00  0.00     0.010 A 
ATOM     33  C   UNL A   1      38.502  29.333  28.876  1.00  0.00    -0.014 A 
BRANCH  33  34
ATOM     34  C   UNL A   1      39.910  28.951  29.158  1.00  0.00     0.031 A 
ATOM     35  C   UNL A   1      40.847  29.962  29.764  1.00  0.00     0.074 A 
ATOM     36  C   UNL A   1      40.368  27.739  28.785  1.00  0.00     0.049 A 
ATOM     37  N   UNL A   1      42.134  29.873  29.976  1.00  0.00    -0.248 NA
ATOM     38  C   UNL A   1      40.268  31.264  30.141  1.00  0.00     0.031 C 
ATOM     39  C   UNL A   1      39.577  26.692  28.133  1.00  0.00     0.029 A 
ATOM     40  N   UNL A   1      41.619  27.185  28.893  1.00  0.00    -0.354 N 
ATOM     41  C   UNL A   1      42.521  31.114  30.469  1.00  0.00     0.074 A 
ATOM     42  C   UNL A   1      41.347  31.956  30.473  1.00  0.00     0.031 C 
ATOM     43  C   UNL A   1      40.350  25.612  27.935  1.00  0.00     0.029 A 
ATOM     44  C   UNL A   1      41.701  25.902  28.404  1.00  0.00     0.049 A 
ATOM     45  H   UNL A   1      42.386  27.662  29.285  1.00  0.00     0.167 HD
ATOM     46  C   UNL A   1      43.739  31.511  30.907  1.00  0.00     0.031 A 
ATOM     47  C   UNL A   1      42.747  25.056  28.338  1.00  0.00     0.031 A 
ATOM     48  C   UNL A   1      44.892  30.655  30.946  1.00  0.00     0.049 A 
ATOM     49  C   UNL A   1      44.082  25.505  28.868  1.00  0.00     0.074 A 
ATOM     50  C   UNL A   1      46.154  30.932  31.443  1.00  0.00     0.029 A 
ATOM     51  N   UNL A   1      44.921  29.349  30.482  1.00  0.00    -0.354 N 
ATOM     52  N   UNL A   1      44.413  26.662  29.389  1.00  0.00    -0.248 NA
ATOM     53  C   UNL A   1      45.180  24.530  28.811  1.00  0.00     0.031 C 
ATOM     54  C   UNL A   1      46.956  29.804  31.245  1.00  0.00     0.029 A 
ATOM     55  C   UNL A   1      46.181  28.809  30.670  1.00  0.00     0.049 A 
ATOM     56  H   UNL A   1      44.158  28.875  30.079  1.00  0.00     0.167 HD
ATOM     57  C   UNL A   1      45.752  26.545  29.748  1.00  0.00     0.074 A 
ATOM     58  C   UNL A   1      46.163  25.202  29.396  1.00  0.00     0.031 C 
ATOM     59  C   UNL A   1      46.566  27.467  30.318  1.00  0.00     0.031 A 
BRANCH  46  60
ATOM     60  C   UNL A   1      43.875  32.932  31.386  1.00  0.00    -0.014 A 
ATOM     61  C   UNL A   1      43.656  33.269  32.734  1.00  0.00     0.010 A 
ATOM     62  C   UNL A   1      44.245  33.943  30.480  1.00  0.00     0.010 A 
ATOM     63  C   UNL A   1      43.753  34.596  33.158  1.00  0.00     0.020 A 
ATOM     64  C   UNL A   1      44.373  35.268  30.906  1.00  0.00     0.020 A 
ATOM     65  C   UNL A   1      44.106  35.589  32.239  1.00  0.00     0.054 A 
BRANCH  65  66
ATOM     66  S   UNL A   1      44.239  37.302  32.819  1.00  0.00     0.124 S 
ATOM     67  O   UNL A   1      43.036  37.437  33.636  1.00  0.00    -0.237 OA
ATOM     68  O   UNL A   1      45.501  37.295  33.556  1.00  0.00    -0.237 OA
ATOM     69  O   UNL A   1      44.246  38.086  31.586  1.00  0.00    -0.744 OA
ENDBRANCH  65  66
ENDBRANCH  46  60
BRANCH  47  70
ATOM     70  C   UNL A   1      42.567  23.687  27.781  1.00  0.00    -0.014 A 
ATOM     71  C   UNL A   1      42.803  23.440  26.417  1.00  0.00     0.010 A 
ATOM     72  C   UNL A   1      42.171  22.621  28.609  1.00  0.00     0.010 A 
ATOM     73  C   UNL A   1      42.625  22.159  25.886  1.00  0.00     0.020 A 
ATOM     74  C   UNL A   1      42.018  21.332  28.087  1.00  0.00     0.020 A 
ATOM     75  C   UNL A   1      42.235  21.113  26.725  1.00  0.00     0.054 A 
BRANCH  75  76
ATOM     76  S   UNL A   1      42.056  19.448  26.023  1.00  0.00     0.124 S 
ATOM     77  O   UNL A   1      42.853  19.547  24.805  1.00  0.00    -0.237 OA
ATOM     78  O   UNL A   1      42.609  18.601  27.076  1.00  0.00    -0.237 OA
ATOM     79  O   UNL A   1      40.614  19.317  25.820  1.00  0.00    -0.744 OA
ENDBRANCH  75  76
ENDBRANCH  47  70
BRANCH  59  80
ATOM     80  C   UNL A   1      47.976  27.044  30.631  1.00  0.00    -0.014 A 
ATOM     81  C   UNL A   1      49.050  27.429  29.810  1.00  0.00     0.010 A 
ATOM     82  C   UNL A   1      48.231  26.304  31.800  1.00  0.00     0.010 A 
ATOM     83  C   UNL A   1      50.356  27.057  30.140  1.00  0.00     0.020 A 
ATOM     84  C   UNL A   1      49.537  25.953  32.146  1.00  0.00     0.020 A 
ATOM     85  C   UNL A   1      50.591  26.322  31.306  1.00  0.00     0.054 A 
BRANCH  85  86
ATOM     86  S   UNL A   1      52.299  25.895  31.739  1.00  0.00     0.124 S 
ATOM     87  O   UNL A   1      52.962  25.938  30.439  1.00  0.00    -0.237 OA
ATOM     88  O   UNL A   1      52.670  26.957  32.671  1.00  0.00    -0.237 OA
ATOM     89  O   UNL A   1      52.183  24.565  32.336  1.00  0.00    -0.744 OA
ENDBRANCH  85  86
ENDBRANCH  59  80
ENDBRANCH  33  34
ENDBRANCH  25  28
ENDBRANCH  23  24
ENDBRANCH   1  23
TORSDOF 17
ENDMDL
MODEL 3
REMARK VINA RESULT:     -10.5      1.607      2.642
REMARK SMILES Cc1nonc1C[C@@H](C(=O)NCCCCNC(=O)c1ccc(-c2c3nc(c(-c4ccc(S(=O)(=O)[O-])cc4)c4ccc([nH]4)c(-c4ccc(S(=O)(=O)[O-])cc4)c4nc(c(-c5ccc(S(=O)(=O)[O-])cc5)c5ccc2[nH]5)C=C4)C=C3)cc1)c1ccccc1Br
REMARK SMILES IDX 14 1 13 2 12 3 11 4 9 5 10 6 8 8 7 9 6 10 1 11 2 12 3 13
REMARK SMILES IDX 4 14 5 15 79 16 80 17 84 18 81 19 83 20 85 21 82 22 15 23
REMARK SMILES IDX 16 24 17 25 18 27 19 28 20 29 78 30 21 31 77 32 22 33 23 34
REMARK SMILES IDX 24 35 71 36 25 37 76 38 70 39 72 40 26 41 75 42 69 43 68 44
REMARK SMILES IDX 27 46 57 47 38 48 56 49 39 50 42 51 55 52 73 53 40 54 41 55
REMARK SMILES IDX 54 57 74 58 43 59 28 60 29 61 37 62 30 63 36 64 31 65 32 66
REMARK SMILES IDX 33 67 34 68 35 69 58 70 59 71 67 72 60 73 66 74 61 75 62 76
REMARK SMILES IDX 63 77 64 78 65 79 44 80 45 81 53 82 46 83 52 84 47 85 48 86
REMARK SMILES IDX 49 87 50 88 51 89
REMARK H PARENT 11 7 16 26 72 45 42 56
REMARK Flexibility Score: inf
ROOT
ATOM      1  C   UNL A   1      33.266  26.823  26.286  1.00  0.00     0.023 C 
ENDROOT
BRANCH   1   2
ATOM      2  C   UNL A   1      33.613  25.780  25.232  1.00  0.00     0.023 C 
BRANCH   2   3
ATOM      3  C   UNL A   1      34.467  24.616  25.736  1.00  0.00     0.116 C 
BRANCH   3   4
ATOM      4  N   UNL A   1      33.590  23.559  26.199  1.00  0.00    -0.356 N 
ATOM      5  C   UNL A   1      32.799  22.724  25.461  1.00  0.00     0.227 C 
ATOM      6  O   UNL A   1      31.775  22.288  25.992  1.00  0.00    -0.274 OA
ATOM      7  H   UNL A   1      33.560  23.426  27.174  1.00  0.00     0.163 HD
BRANCH   5   8
ATOM      8  C   UNL A   1      33.247  22.260  24.059  1.00  0.00     0.116 C 
BRANCH   8   9
ATOM      9  C   UNL A   1      32.197  22.755  23.031  1.00  0.00     0.080 C 
BRANCH   9  10
ATOM     10  C   UNL A   1      32.405  24.074  22.375  1.00  0.00     0.109 A 
ATOM     11  C   UNL A   1      30.463  25.589  23.280  1.00  0.00     0.073 C 
ATOM     12  C   UNL A   1      31.671  25.274  22.491  1.00  0.00     0.105 A 
ATOM     13  N   UNL A   1      32.271  26.232  21.783  1.00  0.00    -0.055 NA
ATOM     14  O   UNL A   1      33.427  25.644  21.285  1.00  0.00    -0.244 OA
ATOM     15  N   UNL A   1      33.523  24.318  21.690  1.00  0.00    -0.055 NA
ENDBRANCH   9  10
ENDBRANCH   8   9
BRANCH   8  16
ATOM     16  C   UNL A   1      33.392  20.703  24.043  1.00  0.00    -0.021 A 
ATOM     17  C   UNL A   1      32.366  19.887  23.511  1.00  0.00     0.006 A 
ATOM     18  C   UNL A   1      34.502  20.020  24.594  1.00  0.00     0.021 A 
ATOM     19  C   UNL A   1      32.375  18.495  23.635  1.00  0.00     0.000 A 
ATOM     20  C   UNL A   1      34.484  18.624  24.758  1.00  0.00     0.016 A 
ATOM     21  Br  UNL A   1      36.134  20.867  25.089  1.00  0.00    -0.051 Br
ATOM     22  C   UNL A   1      33.414  17.865  24.298  1.00  0.00     0.001 A 
ENDBRANCH   8  16
ENDBRANCH   5   8
ENDBRANCH   3   4
ENDBRANCH   2   3
ENDBRANCH   1   2
BRANCH   1  23
ATOM     23  C   UNL A   1      34.299  27.924  26.440  1.00  0.00     0.116 C 
BRANCH  23  24
ATOM     24  N   UNL A   1      33.716  29.218  26.776  1.00  0.00    -0.352 N 
ATOM     25  C   UNL A   1      34.233  30.241  27.541  1.00  0.00     0.251 C 
ATOM     26  H   UNL A   1      32.822  29.385  26.400  1.00  0.00     0.163 HD
ATOM     27  O   UNL A   1      33.553  31.215  27.814  1.00  0.00    -0.269 OA
BRANCH  25  28
ATOM     28  C   UNL A   1      35.613  30.117  28.056  1.00  0.00     0.039 A 
ATOM     29  C   UNL A   1      35.816  29.641  29.352  1.00  0.00     0.014 A 
ATOM     30  C   UNL A   1      36.700  30.401  27.227  1.00  0.00     0.014 A 
ATOM     31  C   UNL A   1      37.114  29.361  29.783  1.00  0.00     0.010 A 
ATOM     32  C   UNL A   1      37.973  30.014  27.615  1.00  0.00     0.010 A 
ATOM     33  C   UNL A   1      38.198  29.496  28.899  1.00  0.00    -0.014 A 
BRANCH  33  34
ATOM     34  C   UNL A   1      39.580  29.116  29.288  1.00  0.00     0.031 A 
ATOM     35  C   UNL A   1      40.454  30.116  29.998  1.00  0.00     0.074 A 
ATOM     36  C   UNL A   1      40.078  27.918  28.922  1.00  0.00     0.049 A 
ATOM     37  N   UNL A   1      41.719  30.029  30.316  1.00  0.00    -0.248 NA
ATOM     38  C   UNL A   1      39.833  31.403  30.361  1.00  0.00     0.031 C 
ATOM     39  C   UNL A   1      39.355  26.884  28.177  1.00  0.00     0.029 A 
ATOM     40  N   UNL A   1      41.320  27.370  29.120  1.00  0.00    -0.354 N 
ATOM     41  C   UNL A   1      42.051  31.259  30.873  1.00  0.00     0.074 A 
ATOM     42  C   UNL A   1      40.874  32.093  30.801  1.00  0.00     0.031 C 
ATOM     43  C   UNL A   1      40.151  25.815  28.016  1.00  0.00     0.029 A 
ATOM     44  C   UNL A   1      41.456  26.101  28.605  1.00  0.00     0.049 A 
ATOM     45  H   UNL A   1      42.048  27.840  29.588  1.00  0.00     0.167 HD
ATOM     46  C   UNL A   1      43.225  31.652  31.423  1.00  0.00     0.031 A 
ATOM     47  C   UNL A   1      42.511  25.265  28.605  1.00  0.00     0.031 A 
ATOM     48  C   UNL A   1      44.378  30.803  31.536  1.00  0.00     0.049 A 
ATOM     49  C   UNL A   1      43.792  25.707  29.257  1.00  0.00     0.074 A 
ATOM     50  C   UNL A   1      45.591  31.074  32.145  1.00  0.00     0.029 A 
ATOM     51  N   UNL A   1      44.458  29.510  31.041  1.00  0.00    -0.354 N 
ATOM     52  N   UNL A   1      44.068  26.851  29.836  1.00  0.00    -0.248 NA
ATOM     53  C   UNL A   1      44.900  24.742  29.266  1.00  0.00     0.031 C 
ATOM     54  C   UNL A   1      46.418  29.958  31.985  1.00  0.00     0.029 A 
ATOM     55  C   UNL A   1      45.702  28.974  31.319  1.00  0.00     0.049 A 
ATOM     56  H   UNL A   1      43.735  29.043  30.562  1.00  0.00     0.167 HD
ATOM     57  C   UNL A   1      45.373  26.734  30.303  1.00  0.00     0.074 A 
ATOM     58  C   UNL A   1      45.825  25.403  29.950  1.00  0.00     0.031 C 
ATOM     59  C   UNL A   1      46.128  27.645  30.964  1.00  0.00     0.031 A 
BRANCH  46  60
ATOM     60  C   UNL A   1      43.307  33.060  31.950  1.00  0.00    -0.014 A 
ATOM     61  C   UNL A   1      43.684  34.128  31.115  1.00  0.00     0.010 A 
ATOM     62  C   UNL A   1      42.985  33.323  33.294  1.00  0.00     0.010 A 
ATOM     63  C   UNL A   1      43.788  35.424  31.626  1.00  0.00     0.020 A 
ATOM     64  C   UNL A   1      43.058  34.623  33.801  1.00  0.00     0.020 A 
ATOM     65  C   UNL A   1      43.479  35.663  32.968  1.00  0.00     0.054 A 
BRANCH  65  66
ATOM     66  S   UNL A   1      43.608  37.357  33.601  1.00  0.00     0.124 S 
ATOM     67  O   UNL A   1      42.325  37.524  34.278  1.00  0.00    -0.237 OA
ATOM     68  O   UNL A   1      44.775  37.286  34.477  1.00  0.00    -0.237 OA
ATOM     69  O   UNL A   1      43.786  38.164  32.396  1.00  0.00    -0.744 OA
ENDBRANCH  65  66
ENDBRANCH  46  60
BRANCH  47  70
ATOM     70  C   UNL A   1      42.391  23.911  27.997  1.00  0.00    -0.014 A 
ATOM     71  C   UNL A   1      42.688  23.715  26.637  1.00  0.00     0.010 A 
ATOM     72  C   UNL A   1      41.990  22.807  28.774  1.00  0.00     0.010 A 
ATOM     73  C   UNL A   1      42.567  22.447  26.058  1.00  0.00     0.020 A 
ATOM     74  C   UNL A   1      41.893  21.533  28.205  1.00  0.00     0.020 A 
ATOM     75  C   UNL A   1      42.171  21.364  26.847  1.00  0.00     0.054 A 
BRANCH  75  76
ATOM     76  S   UNL A   1      42.066  19.720  26.085  1.00  0.00     0.124 S 
ATOM     77  O   UNL A   1      42.501  18.854  27.176  1.00  0.00    -0.237 OA
ATOM     78  O   UNL A   1      40.653  19.628  25.727  1.00  0.00    -0.237 OA
ATOM     79  O   UNL A   1      42.984  19.810  24.951  1.00  0.00    -0.744 OA
ENDBRANCH  75  76
ENDBRANCH  47  70
BRANCH  59  80
ATOM     80  C   UNL A   1      47.510  27.222  31.384  1.00  0.00    -0.014 A 
ATOM     81  C   UNL A   1      47.707  26.374  32.487  1.00  0.00     0.010 A 
ATOM     82  C   UNL A   1      48.619  27.631  30.621  1.00  0.00     0.010 A 
ATOM     83  C   UNL A   1      48.996  25.963  32.837  1.00  0.00     0.020 A 
ATOM     84  C   UNL A   1      49.905  27.201  30.953  1.00  0.00     0.020 A 
ATOM     85  C   UNL A   1      50.086  26.379  32.067  1.00  0.00     0.054 A 
BRANCH  85  86
ATOM     86  S   UNL A   1      51.743  25.791  32.511  1.00  0.00     0.124 S 
ATOM     87  O   UNL A   1      52.360  27.000  33.051  1.00  0.00    -0.237 OA
ATOM     88  O   UNL A   1      51.463  24.739  33.484  1.00  0.00    -0.237 OA
ATOM     89  O   UNL A   1      52.296  25.325  31.241  1.00  0.00    -0.744 OA
ENDBRANCH  85  86
ENDBRANCH  59  80
ENDBRANCH  33  34
ENDBRANCH  25  28
ENDBRANCH  23  24
ENDBRANCH   1  23
TORSDOF 17
ENDMDL
