MODEL 1
REMARK VINA RESULT:      -9.9      0.000      0.000
REMARK SMILES CCCC#C[C@](C)(O)C[NH2+][C@H](C)C(=O)NCCCCNC(=O)c1ccc(-c2c3nc(c(-c4ccc(S(=O)(=O)[O-])cc4)c4ccc([nH]4)c(-c4ccc(S(=O)(=O)[O-])cc4)c4nc(c(-c5ccc(S(=O)(=O)[O-])cc5)c5ccc2[nH]5)C=C4)C=C3)cc1
REMARK SMILES IDX 16 1 15 2 13 3 14 4 11 6 12 7 10 8 9 11 6 12 7 13 5 14 4 15
REMARK SMILES IDX 3 16 2 17 1 18 8 19 17 21 18 22 19 23 20 24 21 25 22 27
REMARK SMILES IDX 23 28 24 29 82 30 25 31 81 32 26 33 27 34 28 35 75 36 29 37
REMARK SMILES IDX 80 38 74 39 76 40 30 41 79 42 73 43 72 44 31 46 61 47 42 48
REMARK SMILES IDX 60 49 43 50 46 51 59 52 77 53 44 54 45 55 58 57 78 58 47 59
REMARK SMILES IDX 32 60 33 61 41 62 34 63 40 64 35 65 36 66 37 67 38 68 39 69
REMARK SMILES IDX 62 70 63 71 71 72 64 73 70 74 65 75 66 76 67 77 68 78 69 79
REMARK SMILES IDX 48 80 49 81 57 82 50 83 56 84 51 85 52 86 53 87 54 88 55 89
REMARK H PARENT 15 5 10 9 10 10 8 20 20 26 76 45 46 56
REMARK Flexibility Score: inf
ROOT
ATOM      1  C   UNL A   1      38.009  22.348  25.853  1.00  0.00     0.116 C 
ENDROOT
BRANCH   1   2
ATOM      2  N   UNL A   1      37.665  22.543  24.452  1.00  0.00    -0.351 N 
ATOM      3  C   UNL A   1      36.452  22.564  23.807  1.00  0.00     0.277 C 
ATOM      4  O   UNL A   1      36.462  22.985  22.643  1.00  0.00    -0.268 OA
ATOM      5  H   UNL A   1      38.439  22.685  23.861  1.00  0.00     0.163 HD
BRANCH   3   6
ATOM      6  C   UNL A   1      35.110  22.100  24.454  1.00  0.00     0.269 C 
ATOM      7  C   UNL A   1      35.188  20.736  25.139  1.00  0.00     0.086 C 
BRANCH   6   8
ATOM      8  N   UNL A   1      34.379  23.160  25.214  1.00  0.00    -0.333 N 
ATOM      9  H   UNL A   1      35.024  23.589  25.878  1.00  0.00     0.347 HD
ATOM     10  H   UNL A   1      34.029  23.840  24.538  1.00  0.00     0.347 HD
BRANCH   8  11
ATOM     11  C   UNL A   1      33.235  22.634  25.946  1.00  0.00     0.310 C 
BRANCH  11  12
ATOM     12  C   UNL A   1      31.807  23.152  25.724  1.00  0.00     0.171 C 
ATOM     13  C   UNL A   1      31.353  23.064  24.269  1.00  0.00     0.063 C 
BRANCH  12  14
ATOM     14  C   UNL A   1      31.814  24.561  26.193  1.00  0.00    -0.063 C 
ATOM     15  C   UNL A   1      31.731  25.839  26.442  1.00  0.00    -0.100 C 
BRANCH  15  16
ATOM     16  C   UNL A   1      31.634  27.326  26.735  1.00  0.00     0.089 C 
BRANCH  16  17
ATOM     17  C   UNL A   1      32.091  28.148  25.529  1.00  0.00     0.010 C 
ATOM     18  C   UNL A   1      33.582  28.021  25.242  1.00  0.00     0.005 C 
ENDBRANCH  16  17
ENDBRANCH  15  16
ENDBRANCH  12  14
BRANCH  12  19
ATOM     19  O   UNL A   1      30.896  22.403  26.534  1.00  0.00    -0.372 OA
ATOM     20  H   UNL A   1      30.002  22.769  26.438  1.00  0.00     0.212 HD
ENDBRANCH  12  19
ENDBRANCH  11  12
ENDBRANCH   8  11
ENDBRANCH   6   8
ENDBRANCH   3   6
ENDBRANCH   1   2
BRANCH   1  21
ATOM     21  C   UNL A   1      39.423  21.848  26.100  1.00  0.00     0.023 C 
BRANCH  21  22
ATOM     22  C   UNL A   1      40.091  22.415  27.351  1.00  0.00     0.023 C 
BRANCH  22  23
ATOM     23  C   UNL A   1      41.446  23.090  27.145  1.00  0.00     0.116 C 
BRANCH  23  24
ATOM     24  N   UNL A   1      41.458  24.060  26.061  1.00  0.00    -0.352 N 
ATOM     25  C   UNL A   1      41.340  25.433  26.107  1.00  0.00     0.251 C 
ATOM     26  H   UNL A   1      41.566  23.679  25.159  1.00  0.00     0.163 HD
ATOM     27  O   UNL A   1      41.297  26.077  25.070  1.00  0.00    -0.269 OA
BRANCH  25  28
ATOM     28  C   UNL A   1      41.265  26.129  27.414  1.00  0.00     0.039 A 
ATOM     29  C   UNL A   1      42.340  26.933  27.796  1.00  0.00     0.014 A 
ATOM     30  C   UNL A   1      40.145  26.015  28.244  1.00  0.00     0.014 A 
ATOM     31  C   UNL A   1      42.242  27.710  28.951  1.00  0.00     0.010 A 
ATOM     32  C   UNL A   1      40.015  26.848  29.350  1.00  0.00     0.010 A 
ATOM     33  C   UNL A   1      41.055  27.717  29.702  1.00  0.00    -0.014 A 
BRANCH  33  34
ATOM     34  C   UNL A   1      40.865  28.675  30.818  1.00  0.00     0.031 A 
ATOM     35  C   UNL A   1      41.694  28.567  32.066  1.00  0.00     0.074 A 
ATOM     36  C   UNL A   1      39.887  29.598  30.723  1.00  0.00     0.049 A 
ATOM     37  N   UNL A   1      41.655  29.309  33.142  1.00  0.00    -0.248 NA
ATOM     38  C   UNL A   1      42.674  27.471  32.127  1.00  0.00     0.031 C 
ATOM     39  C   UNL A   1      38.973  29.749  29.587  1.00  0.00     0.029 A 
ATOM     40  N   UNL A   1      39.495  30.582  31.594  1.00  0.00    -0.354 N 
ATOM     41  C   UNL A   1      42.595  28.766  34.009  1.00  0.00     0.074 A 
ATOM     42  C   UNL A   1      43.148  27.599  33.357  1.00  0.00     0.031 C 
ATOM     43  C   UNL A   1      38.154  30.788  29.814  1.00  0.00     0.029 A 
ATOM     44  C   UNL A   1      38.456  31.351  31.125  1.00  0.00     0.049 A 
ATOM     45  H   UNL A   1      39.917  30.724  32.471  1.00  0.00     0.167 HD
ATOM     46  C   UNL A   1      42.978  29.213  35.229  1.00  0.00     0.031 A 
ATOM     47  C   UNL A   1      37.817  32.395  31.686  1.00  0.00     0.031 A 
ATOM     48  C   UNL A   1      42.422  30.376  35.867  1.00  0.00     0.049 A 
ATOM     49  C   UNL A   1      38.266  32.878  33.038  1.00  0.00     0.074 A 
ATOM     50  C   UNL A   1      42.780  30.950  37.074  1.00  0.00     0.029 A 
ATOM     51  N   UNL A   1      41.384  31.141  35.354  1.00  0.00    -0.354 N 
ATOM     52  N   UNL A   1      39.219  32.404  33.806  1.00  0.00    -0.248 NA
ATOM     53  C   UNL A   1      37.570  34.046  33.590  1.00  0.00     0.031 C 
ATOM     54  C   UNL A   1      41.922  32.028  37.316  1.00  0.00     0.029 A 
ATOM     55  C   UNL A   1      41.074  32.168  36.229  1.00  0.00     0.049 A 
ATOM     56  H   UNL A   1      40.935  30.978  34.492  1.00  0.00     0.167 HD
ATOM     57  C   UNL A   1      39.255  33.234  34.919  1.00  0.00     0.074 A 
ATOM     58  C   UNL A   1      38.240  34.249  34.716  1.00  0.00     0.031 C 
ATOM     59  C   UNL A   1      40.058  33.168  36.010  1.00  0.00     0.031 A 
BRANCH  46  60
ATOM     60  C   UNL A   1      44.049  28.437  35.952  1.00  0.00    -0.014 A 
ATOM     61  C   UNL A   1      45.413  28.703  35.732  1.00  0.00     0.010 A 
ATOM     62  C   UNL A   1      43.687  27.455  36.892  1.00  0.00     0.010 A 
ATOM     63  C   UNL A   1      46.395  27.973  36.406  1.00  0.00     0.020 A 
ATOM     64  C   UNL A   1      44.667  26.744  37.592  1.00  0.00     0.020 A 
ATOM     65  C   UNL A   1      46.016  26.996  37.330  1.00  0.00     0.054 A 
BRANCH  65  66
ATOM     66  S   UNL A   1      47.314  26.081  38.207  1.00  0.00     0.124 S 
ATOM     67  O   UNL A   1      47.486  24.910  37.351  1.00  0.00    -0.237 OA
ATOM     68  O   UNL A   1      48.427  27.027  38.208  1.00  0.00    -0.237 OA
ATOM     69  O   UNL A   1      46.726  25.813  39.517  1.00  0.00    -0.744 OA
ENDBRANCH  65  66
ENDBRANCH  46  60
BRANCH  47  70
ATOM     70  C   UNL A   1      36.706  33.068  30.957  1.00  0.00    -0.014 A 
ATOM     71  C   UNL A   1      35.375  32.911  31.378  1.00  0.00     0.010 A 
ATOM     72  C   UNL A   1      36.979  33.888  29.845  1.00  0.00     0.010 A 
ATOM     73  C   UNL A   1      34.334  33.542  30.691  1.00  0.00     0.020 A 
ATOM     74  C   UNL A   1      35.944  34.544  29.174  1.00  0.00     0.020 A 
ATOM     75  C   UNL A   1      34.626  34.358  29.594  1.00  0.00     0.054 A 
BRANCH  75  76
ATOM     76  S   UNL A   1      33.264  35.207  28.748  1.00  0.00     0.124 S 
ATOM     77  O   UNL A   1      32.495  35.740  29.868  1.00  0.00    -0.237 OA
ATOM     78  O   UNL A   1      33.966  36.195  27.933  1.00  0.00    -0.237 OA
ATOM     79  O   UNL A   1      32.613  34.138  27.992  1.00  0.00    -0.744 OA
ENDBRANCH  75  76
ENDBRANCH  47  70
BRANCH  59  80
ATOM     80  C   UNL A   1      39.901  34.243  37.051  1.00  0.00    -0.014 A 
ATOM     81  C   UNL A   1      40.550  35.485  36.927  1.00  0.00     0.010 A 
ATOM     82  C   UNL A   1      39.047  34.022  38.147  1.00  0.00     0.010 A 
ATOM     83  C   UNL A   1      40.375  36.472  37.901  1.00  0.00     0.020 A 
ATOM     84  C   UNL A   1      38.845  35.017  39.105  1.00  0.00     0.020 A 
ATOM     85  C   UNL A   1      39.524  36.231  38.984  1.00  0.00     0.054 A 
BRANCH  85  86
ATOM     86  S   UNL A   1      39.283  37.542  40.213  1.00  0.00     0.124 S 
ATOM     87  O   UNL A   1      38.250  38.361  39.585  1.00  0.00    -0.237 OA
ATOM     88  O   UNL A   1      38.860  36.797  41.397  1.00  0.00    -0.237 OA
ATOM     89  O   UNL A   1      40.599  38.169  40.316  1.00  0.00    -0.744 OA
ENDBRANCH  85  86
ENDBRANCH  59  80
ENDBRANCH  33  34
ENDBRANCH  25  28
ENDBRANCH  23  24
ENDBRANCH  22  23
ENDBRANCH  21  22
ENDBRANCH   1  21
TORSDOF 21
ENDMDL
MODEL 2
REMARK VINA RESULT:      -9.7      1.169      2.364
REMARK SMILES CCCC#C[C@](C)(O)C[NH2+][C@H](C)C(=O)NCCCCNC(=O)c1ccc(-c2c3nc(c(-c4ccc(S(=O)(=O)[O-])cc4)c4ccc([nH]4)c(-c4ccc(S(=O)(=O)[O-])cc4)c4nc(c(-c5ccc(S(=O)(=O)[O-])cc5)c5ccc2[nH]5)C=C4)C=C3)cc1
REMARK SMILES IDX 16 1 15 2 13 3 14 4 11 6 12 7 10 8 9 11 6 12 7 13 5 14 4 15
REMARK SMILES IDX 3 16 2 17 1 18 8 19 17 21 18 22 19 23 20 24 21 25 22 27
REMARK SMILES IDX 23 28 24 29 82 30 25 31 81 32 26 33 27 34 28 35 75 36 29 37
REMARK SMILES IDX 80 38 74 39 76 40 30 41 79 42 73 43 72 44 31 46 61 47 42 48
REMARK SMILES IDX 60 49 43 50 46 51 59 52 77 53 44 54 45 55 58 57 78 58 47 59
REMARK SMILES IDX 32 60 33 61 41 62 34 63 40 64 35 65 36 66 37 67 38 68 39 69
REMARK SMILES IDX 62 70 63 71 71 72 64 73 70 74 65 75 66 76 67 77 68 78 69 79
REMARK SMILES IDX 48 80 49 81 57 82 50 83 56 84 51 85 52 86 53 87 54 88 55 89
REMARK H PARENT 15 5 10 9 10 10 8 20 20 26 76 45 46 56
REMARK Flexibility Score: inf
ROOT
ATOM      1  C   UNL A   1      38.295  22.769  26.143  1.00  0.00     0.116 C 
ENDROOT
BRANCH   1   2
ATOM      2  N   UNL A   1      38.027  22.934  24.721  1.00  0.00    -0.351 N 
ATOM      3  C   UNL A   1      36.877  22.775  23.987  1.00  0.00     0.277 C 
ATOM      4  O   UNL A   1      36.905  23.216  22.831  1.00  0.00    -0.268 OA
ATOM      5  H   UNL A   1      38.810  23.208  24.191  1.00  0.00     0.163 HD
BRANCH   3   6
ATOM      6  C   UNL A   1      35.582  22.093  24.528  1.00  0.00     0.269 C 
ATOM      7  C   UNL A   1      35.789  20.657  25.007  1.00  0.00     0.086 C 
BRANCH   6   8
ATOM      8  N   UNL A   1      34.743  22.954  25.418  1.00  0.00    -0.333 N 
ATOM      9  H   UNL A   1      34.847  22.627  26.379  1.00  0.00     0.347 HD
ATOM     10  H   UNL A   1      35.065  23.916  25.312  1.00  0.00     0.347 HD
BRANCH   8  11
ATOM     11  C   UNL A   1      33.332  22.917  25.062  1.00  0.00     0.310 C 
BRANCH  11  12
ATOM     12  C   UNL A   1      32.311  22.066  25.832  1.00  0.00     0.171 C 
ATOM     13  C   UNL A   1      32.526  22.086  27.343  1.00  0.00     0.063 C 
BRANCH  12  14
ATOM     14  C   UNL A   1      32.452  20.689  25.295  1.00  0.00    -0.063 C 
ATOM     15  C   UNL A   1      32.420  19.439  24.923  1.00  0.00    -0.100 C 
BRANCH  15  16
ATOM     16  C   UNL A   1      32.384  17.983  24.488  1.00  0.00     0.089 C 
BRANCH  16  17
ATOM     17  C   UNL A   1      33.766  17.342  24.622  1.00  0.00     0.010 C 
ATOM     18  C   UNL A   1      33.746  16.016  25.373  1.00  0.00     0.005 C 
ENDBRANCH  16  17
ENDBRANCH  15  16
ENDBRANCH  12  14
BRANCH  12  19
ATOM     19  O   UNL A   1      30.989  22.536  25.552  1.00  0.00    -0.372 OA
ATOM     20  H   UNL A   1      30.341  21.933  25.949  1.00  0.00     0.212 HD
ENDBRANCH  12  19
ENDBRANCH  11  12
ENDBRANCH   8  11
ENDBRANCH   6   8
ENDBRANCH   3   6
ENDBRANCH   1   2
BRANCH   1  21
ATOM     21  C   UNL A   1      39.515  21.925  26.470  1.00  0.00     0.023 C 
BRANCH  21  22
ATOM     22  C   UNL A   1      40.406  22.492  27.573  1.00  0.00     0.023 C 
BRANCH  22  23
ATOM     23  C   UNL A   1      41.753  23.060  27.128  1.00  0.00     0.116 C 
BRANCH  23  24
ATOM     24  N   UNL A   1      41.651  24.023  26.041  1.00  0.00    -0.352 N 
ATOM     25  C   UNL A   1      41.436  25.384  26.089  1.00  0.00     0.251 C 
ATOM     26  H   UNL A   1      41.749  23.646  25.137  1.00  0.00     0.163 HD
ATOM     27  O   UNL A   1      41.305  26.018  25.053  1.00  0.00    -0.269 OA
BRANCH  25  28
ATOM     28  C   UNL A   1      41.364  26.080  27.396  1.00  0.00     0.039 A 
ATOM     29  C   UNL A   1      42.428  26.904  27.764  1.00  0.00     0.014 A 
ATOM     30  C   UNL A   1      40.256  25.947  28.239  1.00  0.00     0.014 A 
ATOM     31  C   UNL A   1      42.330  27.681  28.920  1.00  0.00     0.010 A 
ATOM     32  C   UNL A   1      40.124  26.779  29.346  1.00  0.00     0.010 A 
ATOM     33  C   UNL A   1      41.152  27.666  29.684  1.00  0.00    -0.014 A 
BRANCH  33  34
ATOM     34  C   UNL A   1      40.958  28.622  30.802  1.00  0.00     0.031 A 
ATOM     35  C   UNL A   1      41.788  28.516  32.050  1.00  0.00     0.074 A 
ATOM     36  C   UNL A   1      39.976  29.541  30.708  1.00  0.00     0.049 A 
ATOM     37  N   UNL A   1      41.746  29.256  33.127  1.00  0.00    -0.248 NA
ATOM     38  C   UNL A   1      42.772  27.425  32.109  1.00  0.00     0.031 C 
ATOM     39  C   UNL A   1      39.061  29.689  29.573  1.00  0.00     0.029 A 
ATOM     40  N   UNL A   1      39.579  30.522  31.581  1.00  0.00    -0.354 N 
ATOM     41  C   UNL A   1      42.688  28.717  33.993  1.00  0.00     0.074 A 
ATOM     42  C   UNL A   1      43.246  27.553  33.339  1.00  0.00     0.031 C 
ATOM     43  C   UNL A   1      38.238  30.724  29.801  1.00  0.00     0.029 A 
ATOM     44  C   UNL A   1      38.537  31.287  31.113  1.00  0.00     0.049 A 
ATOM     45  H   UNL A   1      40.001  30.665  32.458  1.00  0.00     0.167 HD
ATOM     46  C   UNL A   1      43.070  29.163  35.213  1.00  0.00     0.031 A 
ATOM     47  C   UNL A   1      37.894  32.328  31.676  1.00  0.00     0.031 A 
ATOM     48  C   UNL A   1      42.508  30.324  35.853  1.00  0.00     0.049 A 
ATOM     49  C   UNL A   1      38.341  32.810  33.028  1.00  0.00     0.074 A 
ATOM     50  C   UNL A   1      42.864  30.897  37.061  1.00  0.00     0.029 A 
ATOM     51  N   UNL A   1      41.466  31.085  35.341  1.00  0.00    -0.354 N 
ATOM     52  N   UNL A   1      39.295  32.340  33.795  1.00  0.00    -0.248 NA
ATOM     53  C   UNL A   1      37.639  33.975  33.581  1.00  0.00     0.031 C 
ATOM     54  C   UNL A   1      42.001  31.971  37.305  1.00  0.00     0.029 A 
ATOM     55  C   UNL A   1      41.152  32.108  36.218  1.00  0.00     0.049 A 
ATOM     56  H   UNL A   1      41.018  30.920  34.479  1.00  0.00     0.167 HD
ATOM     57  C   UNL A   1      39.328  33.169  34.910  1.00  0.00     0.074 A 
ATOM     58  C   UNL A   1      38.309  34.179  34.707  1.00  0.00     0.031 C 
ATOM     59  C   UNL A   1      40.132  33.104  36.000  1.00  0.00     0.031 A 
BRANCH  46  60
ATOM     60  C   UNL A   1      44.143  28.392  35.935  1.00  0.00    -0.014 A 
ATOM     61  C   UNL A   1      45.475  28.846  35.956  1.00  0.00     0.010 A 
ATOM     62  C   UNL A   1      43.811  27.217  36.635  1.00  0.00     0.010 A 
ATOM     63  C   UNL A   1      46.462  28.118  36.625  1.00  0.00     0.020 A 
ATOM     64  C   UNL A   1      44.790  26.503  37.333  1.00  0.00     0.020 A 
ATOM     65  C   UNL A   1      46.114  26.949  37.308  1.00  0.00     0.054 A 
BRANCH  65  66
ATOM     66  S   UNL A   1      47.412  26.038  38.188  1.00  0.00     0.124 S 
ATOM     67  O   UNL A   1      47.068  26.298  39.583  1.00  0.00    -0.237 OA
ATOM     68  O   UNL A   1      47.202  24.666  37.734  1.00  0.00    -0.237 OA
ATOM     69  O   UNL A   1      48.650  26.663  37.726  1.00  0.00    -0.744 OA
ENDBRANCH  65  66
ENDBRANCH  46  60
BRANCH  47  70
ATOM     70  C   UNL A   1      36.780  32.996  30.948  1.00  0.00    -0.014 A 
ATOM     71  C   UNL A   1      35.442  32.748  31.301  1.00  0.00     0.010 A 
ATOM     72  C   UNL A   1      37.054  33.903  29.906  1.00  0.00     0.010 A 
ATOM     73  C   UNL A   1      34.399  33.376  30.615  1.00  0.00     0.020 A 
ATOM     74  C   UNL A   1      36.014  34.555  29.238  1.00  0.00     0.020 A 
ATOM     75  C   UNL A   1      34.692  34.279  29.588  1.00  0.00     0.054 A 
BRANCH  75  76
ATOM     76  S   UNL A   1      33.323  35.119  28.745  1.00  0.00     0.124 S 
ATOM     77  O   UNL A   1      32.538  35.624  29.867  1.00  0.00    -0.237 OA
ATOM     78  O   UNL A   1      34.016  36.130  27.950  1.00  0.00    -0.237 OA
ATOM     79  O   UNL A   1      32.694  34.052  27.969  1.00  0.00    -0.744 OA
ENDBRANCH  75  76
ENDBRANCH  47  70
BRANCH  59  80
ATOM     80  C   UNL A   1      39.970  34.178  37.043  1.00  0.00    -0.014 A 
ATOM     81  C   UNL A   1      40.579  35.437  36.899  1.00  0.00     0.010 A 
ATOM     82  C   UNL A   1      39.151  33.935  38.161  1.00  0.00     0.010 A 
ATOM     83  C   UNL A   1      40.400  36.421  37.875  1.00  0.00     0.020 A 
ATOM     84  C   UNL A   1      38.944  34.927  39.122  1.00  0.00     0.020 A 
ATOM     85  C   UNL A   1      39.585  36.160  38.980  1.00  0.00     0.054 A 
BRANCH  85  86
ATOM     86  S   UNL A   1      39.337  37.466  40.212  1.00  0.00     0.124 S 
ATOM     87  O   UNL A   1      38.416  38.364  39.521  1.00  0.00    -0.237 OA
ATOM     88  O   UNL A   1      38.772  36.736  41.345  1.00  0.00    -0.237 OA
ATOM     89  O   UNL A   1      40.680  37.998  40.430  1.00  0.00    -0.744 OA
ENDBRANCH  85  86
ENDBRANCH  59  80
ENDBRANCH  33  34
ENDBRANCH  25  28
ENDBRANCH  23  24
ENDBRANCH  22  23
ENDBRANCH  21  22
ENDBRANCH   1  21
TORSDOF 21
ENDMDL
MODEL 3
REMARK VINA RESULT:      -9.6      2.990      9.423
REMARK SMILES CCCC#C[C@](C)(O)C[NH2+][C@H](C)C(=O)NCCCCNC(=O)c1ccc(-c2c3nc(c(-c4ccc(S(=O)(=O)[O-])cc4)c4ccc([nH]4)c(-c4ccc(S(=O)(=O)[O-])cc4)c4nc(c(-c5ccc(S(=O)(=O)[O-])cc5)c5ccc2[nH]5)C=C4)C=C3)cc1
REMARK SMILES IDX 16 1 15 2 13 3 14 4 11 6 12 7 10 8 9 11 6 12 7 13 5 14 4 15
REMARK SMILES IDX 3 16 2 17 1 18 8 19 17 21 18 22 19 23 20 24 21 25 22 27
REMARK SMILES IDX 23 28 24 29 82 30 25 31 81 32 26 33 27 34 28 35 75 36 29 37
REMARK SMILES IDX 80 38 74 39 76 40 30 41 79 42 73 43 72 44 31 46 61 47 42 48
REMARK SMILES IDX 60 49 43 50 46 51 59 52 77 53 44 54 45 55 58 57 78 58 47 59
REMARK SMILES IDX 32 60 33 61 41 62 34 63 40 64 35 65 36 66 37 67 38 68 39 69
REMARK SMILES IDX 62 70 63 71 71 72 64 73 70 74 65 75 66 76 67 77 68 78 69 79
REMARK SMILES IDX 48 80 49 81 57 82 50 83 56 84 51 85 52 86 53 87 54 88 55 89
REMARK H PARENT 15 5 10 9 10 10 8 20 20 26 76 45 46 56
REMARK Flexibility Score: inf
ROOT
ATOM      1  C   UNL A   1      31.969  26.929  24.695  1.00  0.00     0.116 C 
ENDROOT
BRANCH   1   2
ATOM      2  N   UNL A   1      32.692  26.880  23.433  1.00  0.00    -0.351 N 
ATOM      3  C   UNL A   1      33.255  25.832  22.746  1.00  0.00     0.277 C 
ATOM      4  O   UNL A   1      33.600  26.068  21.581  1.00  0.00    -0.268 OA
ATOM      5  H   UNL A   1      32.797  27.755  22.992  1.00  0.00     0.163 HD
BRANCH   3   6
ATOM      6  C   UNL A   1      33.467  24.407  23.346  1.00  0.00     0.269 C 
ATOM      7  C   UNL A   1      34.724  24.274  24.203  1.00  0.00     0.086 C 
BRANCH   6   8
ATOM      8  N   UNL A   1      32.235  23.772  23.908  1.00  0.00    -0.333 N 
ATOM      9  H   UNL A   1      32.110  24.097  24.867  1.00  0.00     0.347 HD
ATOM     10  H   UNL A   1      31.450  24.041  23.315  1.00  0.00     0.347 HD
BRANCH   8  11
ATOM     11  C   UNL A   1      32.308  22.318  23.913  1.00  0.00     0.310 C 
BRANCH  11  12
ATOM     12  C   UNL A   1      32.609  21.513  25.186  1.00  0.00     0.171 C 
ATOM     13  C   UNL A   1      32.538  22.352  26.459  1.00  0.00     0.063 C 
BRANCH  12  14
ATOM     14  C   UNL A   1      33.970  20.954  24.994  1.00  0.00    -0.063 C 
ATOM     15  C   UNL A   1      35.217  20.569  24.973  1.00  0.00    -0.100 C 
BRANCH  15  16
ATOM     16  C   UNL A   1      36.668  20.120  24.948  1.00  0.00     0.089 C 
BRANCH  16  17
ATOM     17  C   UNL A   1      37.590  21.282  24.578  1.00  0.00     0.010 C 
ATOM     18  C   UNL A   1      38.087  22.066  25.788  1.00  0.00     0.005 C 
ENDBRANCH  16  17
ENDBRANCH  15  16
ENDBRANCH  12  14
BRANCH  12  19
ATOM     19  O   UNL A   1      31.678  20.432  25.298  1.00  0.00    -0.372 OA
ATOM     20  H   UNL A   1      31.765  19.850  24.527  1.00  0.00     0.212 HD
ENDBRANCH  12  19
ENDBRANCH  11  12
ENDBRANCH   8  11
ENDBRANCH   6   8
ENDBRANCH   3   6
ENDBRANCH   1   2
BRANCH   1  21
ATOM     21  C   UNL A   1      32.847  26.959  25.935  1.00  0.00     0.023 C 
BRANCH  21  22
ATOM     22  C   UNL A   1      32.850  28.290  26.683  1.00  0.00     0.023 C 
BRANCH  22  23
ATOM     23  C   UNL A   1      33.746  29.385  26.109  1.00  0.00     0.116 C 
BRANCH  23  24
ATOM     24  N   UNL A   1      33.563  30.683  26.742  1.00  0.00    -0.352 N 
ATOM     25  C   UNL A   1      34.318  31.301  27.716  1.00  0.00     0.251 C 
ATOM     26  H   UNL A   1      32.783  31.195  26.428  1.00  0.00     0.163 HD
ATOM     27  O   UNL A   1      33.957  32.371  28.180  1.00  0.00    -0.269 OA
BRANCH  25  28
ATOM     28  C   UNL A   1      35.568  30.668  28.201  1.00  0.00     0.039 A 
ATOM     29  C   UNL A   1      36.786  31.199  27.775  1.00  0.00     0.014 A 
ATOM     30  C   UNL A   1      35.547  29.583  29.084  1.00  0.00     0.014 A 
ATOM     31  C   UNL A   1      37.976  30.718  28.321  1.00  0.00     0.010 A 
ATOM     32  C   UNL A   1      36.726  29.158  29.687  1.00  0.00     0.010 A 
ATOM     33  C   UNL A   1      37.949  29.736  29.324  1.00  0.00    -0.014 A 
BRANCH  33  34
ATOM     34  C   UNL A   1      39.185  29.351  30.047  1.00  0.00     0.031 A 
ATOM     35  C   UNL A   1      39.598  30.078  31.295  1.00  0.00     0.074 A 
ATOM     36  C   UNL A   1      39.969  28.385  29.526  1.00  0.00     0.049 A 
ATOM     37  N   UNL A   1      40.650  29.883  32.047  1.00  0.00    -0.248 NA
ATOM     38  C   UNL A   1      38.736  31.183  31.742  1.00  0.00     0.031 C 
ATOM     39  C   UNL A   1      39.703  27.659  28.281  1.00  0.00     0.029 A 
ATOM     40  N   UNL A   1      41.149  27.848  29.974  1.00  0.00    -0.354 N 
ATOM     41  C   UNL A   1      40.581  30.843  33.049  1.00  0.00     0.074 A 
ATOM     42  C   UNL A   1      39.416  31.656  32.776  1.00  0.00     0.031 C 
ATOM     43  C   UNL A   1      40.668  26.748  28.086  1.00  0.00     0.029 A 
ATOM     44  C   UNL A   1      41.641  26.850  29.167  1.00  0.00     0.049 A 
ATOM     45  H   UNL A   1      41.599  28.148  30.796  1.00  0.00     0.167 HD
ATOM     46  C   UNL A   1      41.403  31.018  34.111  1.00  0.00     0.031 A 
ATOM     47  C   UNL A   1      42.753  26.098  29.285  1.00  0.00     0.031 A 
ATOM     48  C   UNL A   1      42.559  30.202  34.372  1.00  0.00     0.049 A 
ATOM     49  C   UNL A   1      43.645  26.306  30.477  1.00  0.00     0.074 A 
ATOM     50  C   UNL A   1      43.425  30.255  35.451  1.00  0.00     0.029 A 
ATOM     51  N   UNL A   1      43.017  29.188  33.542  1.00  0.00    -0.354 N 
ATOM     52  N   UNL A   1      43.515  27.162  31.462  1.00  0.00    -0.248 NA
ATOM     53  C   UNL A   1      44.821  25.433  30.585  1.00  0.00     0.031 C 
ATOM     54  C   UNL A   1      44.436  29.312  35.245  1.00  0.00     0.029 A 
ATOM     55  C   UNL A   1      44.164  28.624  34.073  1.00  0.00     0.049 A 
ATOM     56  H   UNL A   1      42.588  28.911  32.700  1.00  0.00     0.167 HD
ATOM     57  C   UNL A   1      44.578  26.912  32.323  1.00  0.00     0.074 A 
ATOM     58  C   UNL A   1      45.329  25.814  31.749  1.00  0.00     0.031 C 
ATOM     59  C   UNL A   1      44.900  27.531  33.485  1.00  0.00     0.031 A 
BRANCH  46  60
ATOM     60  C   UNL A   1      41.080  32.136  35.067  1.00  0.00    -0.014 A 
ATOM     61  C   UNL A   1      40.230  31.927  36.170  1.00  0.00     0.010 A 
ATOM     62  C   UNL A   1      41.662  33.404  34.885  1.00  0.00     0.010 A 
ATOM     63  C   UNL A   1      39.936  32.974  37.046  1.00  0.00     0.020 A 
ATOM     64  C   UNL A   1      41.394  34.446  35.778  1.00  0.00     0.020 A 
ATOM     65  C   UNL A   1      40.517  34.228  36.844  1.00  0.00     0.054 A 
BRANCH  65  66
ATOM     66  S   UNL A   1      40.134  35.562  38.012  1.00  0.00     0.124 S 
ATOM     67  O   UNL A   1      39.025  34.986  38.770  1.00  0.00    -0.237 OA
ATOM     68  O   UNL A   1      41.387  35.712  38.747  1.00  0.00    -0.237 OA
ATOM     69  O   UNL A   1      39.780  36.688  37.151  1.00  0.00    -0.744 OA
ENDBRANCH  65  66
ENDBRANCH  46  60
BRANCH  47  70
ATOM     70  C   UNL A   1      43.064  25.066  28.258  1.00  0.00    -0.014 A 
ATOM     71  C   UNL A   1      43.854  25.383  27.139  1.00  0.00     0.010 A 
ATOM     72  C   UNL A   1      42.588  23.749  28.406  1.00  0.00     0.010 A 
ATOM     73  C   UNL A   1      44.144  24.411  26.177  1.00  0.00     0.020 A 
ATOM     74  C   UNL A   1      42.900  22.768  27.462  1.00  0.00     0.020 A 
ATOM     75  C   UNL A   1      43.667  23.108  26.346  1.00  0.00     0.054 A 
BRANCH  75  76
ATOM     76  S   UNL A   1      44.097  21.852  25.109  1.00  0.00     0.124 S 
ATOM     77  O   UNL A   1      43.886  22.573  23.858  1.00  0.00    -0.237 OA
ATOM     78  O   UNL A   1      45.487  21.548  25.440  1.00  0.00    -0.237 OA
ATOM     79  O   UNL A   1      43.150  20.771  25.377  1.00  0.00    -0.744 OA
ENDBRANCH  75  76
ENDBRANCH  47  70
BRANCH  59  80
ATOM     80  C   UNL A   1      46.096  27.011  34.237  1.00  0.00    -0.014 A 
ATOM     81  C   UNL A   1      47.381  27.545  34.031  1.00  0.00     0.010 A 
ATOM     82  C   UNL A   1      45.918  26.004  35.203  1.00  0.00     0.010 A 
ATOM     83  C   UNL A   1      48.472  27.053  34.753  1.00  0.00     0.020 A 
ATOM     84  C   UNL A   1      47.000  25.533  35.949  1.00  0.00     0.020 A 
ATOM     85  C   UNL A   1      48.275  26.050  35.707  1.00  0.00     0.054 A 
BRANCH  85  86
ATOM     86  S   UNL A   1      49.700  25.457  36.658  1.00  0.00     0.124 S 
ATOM     87  O   UNL A   1      50.791  26.247  36.094  1.00  0.00    -0.237 OA
ATOM     88  O   UNL A   1      49.328  25.790  38.032  1.00  0.00    -0.237 OA
ATOM     89  O   UNL A   1      49.746  24.028  36.361  1.00  0.00    -0.744 OA
ENDBRANCH  85  86
ENDBRANCH  59  80
ENDBRANCH  33  34
ENDBRANCH  25  28
ENDBRANCH  23  24
ENDBRANCH  22  23
ENDBRANCH  21  22
ENDBRANCH   1  21
TORSDOF 21
ENDMDL
