MODEL 1
REMARK VINA RESULT:      -9.7      0.000      0.000
REMARK SMILES O=C(CCCN1C(=O)C(=O)/C(=C(\[O-])c2ccccc2)[C@H]1c1ccc([N+](=O)[O-])cc1)NCCCCNC(=O)c1ccc(-c2c3nc(c(-c4ccc(S(=O)(=O)[O-])cc4)c4ccc([nH]4)c(-c4ccc(S(=O)(=O)[O-])cc4)c4nc(c(-c5ccc(S(=O)(=O)[O-])cc5)c5ccc2[nH]5)C=C4)C=C3)cc1
REMARK SMILES IDX 31 1 30 2 1 3 2 4 3 6 4 7 5 8 6 9 7 10 20 11 8 12 9 13 11 14
REMARK SMILES IDX 10 15 12 16 13 17 21 18 22 19 29 20 23 21 28 22 24 23 25 24
REMARK SMILES IDX 26 25 27 26 14 27 15 28 19 29 16 30 18 31 17 32 32 33 33 34
REMARK SMILES IDX 34 35 35 36 36 37 37 39 38 40 39 41 97 42 40 43 96 44 41 45
REMARK SMILES IDX 42 46 43 47 90 48 44 49 95 50 89 51 91 52 45 53 94 54 88 55
REMARK SMILES IDX 87 56 46 58 76 59 57 60 75 61 58 62 61 63 74 64 92 65 59 66
REMARK SMILES IDX 60 67 73 69 93 70 62 71 47 72 48 73 56 74 49 75 55 76 50 77
REMARK SMILES IDX 51 78 52 79 53 80 54 81 77 82 78 83 86 84 79 85 85 86 80 87
REMARK SMILES IDX 81 88 82 89 83 90 84 91 63 92 64 93 72 94 65 95 71 96 66 97
REMARK SMILES IDX 67 98 68 99 69 100 70 101
REMARK H PARENT 30 5 35 38 91 57 61 68
REMARK Flexibility Score: inf
ROOT
ATOM      1  C   UNL A   1      42.912  23.095  27.554  1.00  0.00     0.116 C 
ENDROOT
BRANCH   1   2
ATOM      2  N   UNL A   1      43.889  22.851  26.507  1.00  0.00    -0.356 N 
ATOM      3  O   UNL A   1      42.980  24.349  25.052  1.00  0.00    -0.275 OA
ATOM      4  C   UNL A   1      43.868  23.541  25.320  1.00  0.00     0.220 C 
ATOM      5  H   UNL A   1      44.585  22.171  26.652  1.00  0.00     0.163 HD
BRANCH   4   6
ATOM      6  C   UNL A   1      44.892  23.165  24.253  1.00  0.00     0.102 C 
BRANCH   6   7
ATOM      7  C   UNL A   1      46.388  23.405  24.419  1.00  0.00     0.031 C 
BRANCH   7   8
ATOM      8  C   UNL A   1      47.000  24.214  25.558  1.00  0.00     0.121 C 
BRANCH   8   9
ATOM      9  N   UNL A   1      47.569  25.558  25.394  1.00  0.00    -0.325 N 
ATOM     10  C   UNL A   1      46.673  26.572  25.767  1.00  0.00     0.295 C 
ATOM     11  C   UNL A   1      48.455  26.030  24.310  1.00  0.00     0.150 C 
ATOM     12  O   UNL A   1      45.868  26.542  26.679  1.00  0.00    -0.265 OA
ATOM     13  C   UNL A   1      46.696  27.622  24.658  1.00  0.00     0.248 C 
ATOM     14  C   UNL A   1      47.712  27.190  23.684  1.00  0.00     0.025 C 
ATOM     15  O   UNL A   1      45.964  28.585  24.541  1.00  0.00    -0.283 OA
ATOM     16  C   UNL A   1      47.892  27.822  22.509  1.00  0.00    -0.092 C 
ATOM     17  O   UNL A   1      47.157  28.914  22.097  1.00  0.00    -0.872 OA
BRANCH  11  18
ATOM     18  C   UNL A   1      49.853  26.423  24.836  1.00  0.00    -0.020 A 
ATOM     19  C   UNL A   1      51.068  26.179  24.170  1.00  0.00     0.013 A 
ATOM     20  C   UNL A   1      49.960  26.981  26.113  1.00  0.00     0.013 A 
ATOM     21  C   UNL A   1      52.309  26.375  24.804  1.00  0.00     0.086 A 
ATOM     22  C   UNL A   1      51.175  27.229  26.749  1.00  0.00     0.086 A 
ATOM     23  C   UNL A   1      52.354  26.884  26.105  1.00  0.00     0.269 A 
BRANCH  23  24
ATOM     24  N   UNL A   1      53.627  27.019  26.817  1.00  0.00     0.062 N 
ATOM     25  O   UNL A   1      53.611  27.546  27.937  1.00  0.00    -0.258 OA
ATOM     26  O   UNL A   1      54.652  26.617  26.243  1.00  0.00    -0.258 OA
ENDBRANCH  23  24
ENDBRANCH  11  18
BRANCH  16  27
ATOM     27  C   UNL A   1      49.025  27.502  21.627  1.00  0.00    -0.033 A 
ATOM     28  C   UNL A   1      50.170  28.313  21.672  1.00  0.00     0.007 A 
ATOM     29  C   UNL A   1      49.034  26.360  20.819  1.00  0.00     0.007 A 
ATOM     30  C   UNL A   1      51.329  27.946  20.986  1.00  0.00     0.001 A 
ATOM     31  C   UNL A   1      50.191  26.001  20.124  1.00  0.00     0.001 A 
ATOM     32  C   UNL A   1      51.342  26.783  20.222  1.00  0.00     0.000 A 
ENDBRANCH  16  27
ENDBRANCH   8   9
ENDBRANCH   7   8
ENDBRANCH   6   7
ENDBRANCH   4   6
ENDBRANCH   1   2
BRANCH   1  33
ATOM     33  C   UNL A   1      42.224  21.820  28.042  1.00  0.00     0.023 C 
BRANCH  33  34
ATOM     34  C   UNL A   1      40.773  21.625  27.593  1.00  0.00     0.023 C 
BRANCH  34  35
ATOM     35  C   UNL A   1      40.512  21.759  26.095  1.00  0.00     0.116 C 
BRANCH  35  36
ATOM     36  N   UNL A   1      39.135  22.114  25.787  1.00  0.00    -0.352 N 
ATOM     37  C   UNL A   1      38.417  23.239  26.124  1.00  0.00     0.251 C 
ATOM     38  H   UNL A   1      38.641  21.447  25.257  1.00  0.00     0.163 HD
ATOM     39  O   UNL A   1      37.218  23.283  25.861  1.00  0.00    -0.269 OA
BRANCH  37  40
ATOM     40  C   UNL A   1      39.062  24.376  26.826  1.00  0.00     0.039 A 
ATOM     41  C   UNL A   1      39.892  25.231  26.094  1.00  0.00     0.014 A 
ATOM     42  C   UNL A   1      38.870  24.601  28.191  1.00  0.00     0.014 A 
ATOM     43  C   UNL A   1      40.466  26.347  26.712  1.00  0.00     0.010 A 
ATOM     44  C   UNL A   1      39.381  25.755  28.787  1.00  0.00     0.010 A 
ATOM     45  C   UNL A   1      40.181  26.644  28.054  1.00  0.00    -0.014 A 
BRANCH  45  46
ATOM     46  C   UNL A   1      40.691  27.885  28.698  1.00  0.00     0.031 A 
ATOM     47  C   UNL A   1      42.107  27.962  29.204  1.00  0.00     0.074 A 
ATOM     48  C   UNL A   1      39.856  28.928  28.889  1.00  0.00     0.049 A 
ATOM     49  N   UNL A   1      42.705  28.938  29.839  1.00  0.00    -0.248 NA
ATOM     50  C   UNL A   1      42.958  26.782  28.984  1.00  0.00     0.031 C 
ATOM     51  C   UNL A   1      38.450  28.974  28.478  1.00  0.00     0.029 A 
ATOM     52  N   UNL A   1      40.065  30.149  29.483  1.00  0.00    -0.354 N 
ATOM     53  C   UNL A   1      43.992  28.485  30.112  1.00  0.00     0.074 A 
ATOM     54  C   UNL A   1      44.074  27.130  29.610  1.00  0.00     0.031 C 
ATOM     55  C   UNL A   1      37.933  30.169  28.809  1.00  0.00     0.029 A 
ATOM     56  C   UNL A   1      38.950  30.956  29.496  1.00  0.00     0.049 A 
ATOM     57  H   UNL A   1      40.931  30.421  29.866  1.00  0.00     0.167 HD
ATOM     58  C   UNL A   1      45.015  29.139  30.713  1.00  0.00     0.031 A 
ATOM     59  C   UNL A   1      38.761  32.187  30.012  1.00  0.00     0.031 A 
ATOM     60  C   UNL A   1      44.933  30.489  31.208  1.00  0.00     0.049 A 
ATOM     61  C   UNL A   1      39.906  32.882  30.699  1.00  0.00     0.074 A 
ATOM     62  C   UNL A   1      45.934  31.257  31.778  1.00  0.00     0.029 A 
ATOM     63  N   UNL A   1      43.786  31.269  31.203  1.00  0.00    -0.354 N 
ATOM     64  N   UNL A   1      41.135  32.463  30.882  1.00  0.00    -0.248 NA
ATOM     65  C   UNL A   1      39.639  34.222  31.240  1.00  0.00     0.031 C 
ATOM     66  C   UNL A   1      45.378  32.477  32.175  1.00  0.00     0.029 A 
ATOM     67  C   UNL A   1      44.047  32.498  31.788  1.00  0.00     0.049 A 
ATOM     68  H   UNL A   1      42.915  30.991  30.837  1.00  0.00     0.167 HD
ATOM     69  C   UNL A   1      41.797  33.500  31.530  1.00  0.00     0.074 A 
ATOM     70  C   UNL A   1      40.836  34.572  31.693  1.00  0.00     0.031 C 
ATOM     71  C   UNL A   1      43.086  33.560  31.947  1.00  0.00     0.031 A 
BRANCH  58  72
ATOM     72  C   UNL A   1      46.317  28.399  30.883  1.00  0.00    -0.014 A 
ATOM     73  C   UNL A   1      47.324  28.454  29.902  1.00  0.00     0.010 A 
ATOM     74  C   UNL A   1      46.562  27.681  32.069  1.00  0.00     0.010 A 
ATOM     75  C   UNL A   1      48.530  27.773  30.084  1.00  0.00     0.020 A 
ATOM     76  C   UNL A   1      47.780  27.024  32.269  1.00  0.00     0.020 A 
ATOM     77  C   UNL A   1      48.750  27.062  31.267  1.00  0.00     0.054 A 
BRANCH  77  78
ATOM     78  S   UNL A   1      50.337  26.210  31.487  1.00  0.00     0.124 S 
ATOM     79  O   UNL A   1      50.900  26.270  30.140  1.00  0.00    -0.237 OA
ATOM     80  O   UNL A   1      51.009  27.039  32.485  1.00  0.00    -0.237 OA
ATOM     81  O   UNL A   1      49.957  24.876  31.942  1.00  0.00    -0.744 OA
ENDBRANCH  77  78
ENDBRANCH  58  72
BRANCH  59  82
ATOM     82  C   UNL A   1      37.431  32.850  29.892  1.00  0.00    -0.014 A 
ATOM     83  C   UNL A   1      37.066  33.504  28.702  1.00  0.00     0.010 A 
ATOM     84  C   UNL A   1      36.523  32.831  30.967  1.00  0.00     0.010 A 
ATOM     85  C   UNL A   1      35.827  34.144  28.595  1.00  0.00     0.020 A 
ATOM     86  C   UNL A   1      35.271  33.443  30.852  1.00  0.00     0.020 A 
ATOM     87  C   UNL A   1      34.936  34.107  29.672  1.00  0.00     0.054 A 
BRANCH  87  88
ATOM     88  S   UNL A   1      33.317  34.905  29.493  1.00  0.00     0.124 S 
ATOM     89  O   UNL A   1      32.613  33.974  28.618  1.00  0.00    -0.237 OA
ATOM     90  O   UNL A   1      32.840  34.963  30.873  1.00  0.00    -0.237 OA
ATOM     91  O   UNL A   1      33.639  36.201  28.900  1.00  0.00    -0.744 OA
ENDBRANCH  87  88
ENDBRANCH  59  82
BRANCH  71  92
ATOM     92  C   UNL A   1      43.552  34.842  32.587  1.00  0.00    -0.014 A 
ATOM     93  C   UNL A   1      43.908  35.962  31.815  1.00  0.00     0.010 A 
ATOM     94  C   UNL A   1      43.583  34.942  33.991  1.00  0.00     0.010 A 
ATOM     95  C   UNL A   1      44.316  37.148  32.434  1.00  0.00     0.020 A 
ATOM     96  C   UNL A   1      43.958  36.136  34.614  1.00  0.00     0.020 A 
ATOM     97  C   UNL A   1      44.337  37.227  33.830  1.00  0.00     0.054 A 
BRANCH  97  98
ATOM     98  S   UNL A   1      44.826  38.791  34.607  1.00  0.00     0.124 S 
ATOM     99  O   UNL A   1      44.118  38.732  35.883  1.00  0.00    -0.237 OA
ATOM    100  O   UNL A   1      46.280  38.666  34.689  1.00  0.00    -0.237 OA
ATOM    101  O   UNL A   1      44.346  39.807  33.674  1.00  0.00    -0.744 OA
ENDBRANCH  97  98
ENDBRANCH  71  92
ENDBRANCH  45  46
ENDBRANCH  37  40
ENDBRANCH  35  36
ENDBRANCH  34  35
ENDBRANCH  33  34
ENDBRANCH   1  33
TORSDOF 20
ENDMDL
MODEL 2
REMARK VINA RESULT:      -9.2      5.638     11.522
REMARK SMILES O=C(CCCN1C(=O)C(=O)/C(=C(\[O-])c2ccccc2)[C@H]1c1ccc([N+](=O)[O-])cc1)NCCCCNC(=O)c1ccc(-c2c3nc(c(-c4ccc(S(=O)(=O)[O-])cc4)c4ccc([nH]4)c(-c4ccc(S(=O)(=O)[O-])cc4)c4nc(c(-c5ccc(S(=O)(=O)[O-])cc5)c5ccc2[nH]5)C=C4)C=C3)cc1
REMARK SMILES IDX 31 1 30 2 1 3 2 4 3 6 4 7 5 8 6 9 7 10 20 11 8 12 9 13 11 14
REMARK SMILES IDX 10 15 12 16 13 17 21 18 22 19 29 20 23 21 28 22 24 23 25 24
REMARK SMILES IDX 26 25 27 26 14 27 15 28 19 29 16 30 18 31 17 32 32 33 33 34
REMARK SMILES IDX 34 35 35 36 36 37 37 39 38 40 39 41 97 42 40 43 96 44 41 45
REMARK SMILES IDX 42 46 43 47 90 48 44 49 95 50 89 51 91 52 45 53 94 54 88 55
REMARK SMILES IDX 87 56 46 58 76 59 57 60 75 61 58 62 61 63 74 64 92 65 59 66
REMARK SMILES IDX 60 67 73 69 93 70 62 71 47 72 48 73 56 74 49 75 55 76 50 77
REMARK SMILES IDX 51 78 52 79 53 80 54 81 77 82 78 83 86 84 79 85 85 86 80 87
REMARK SMILES IDX 81 88 82 89 83 90 84 91 63 92 64 93 72 94 65 95 71 96 66 97
REMARK SMILES IDX 67 98 68 99 69 100 70 101
REMARK H PARENT 30 5 35 38 91 57 61 68
REMARK Flexibility Score: inf
ROOT
ATOM      1  C   UNL A   1      34.578  34.361  27.664  1.00  0.00     0.116 C 
ENDROOT
BRANCH   1   2
ATOM      2  N   UNL A   1      35.643  33.376  27.748  1.00  0.00    -0.356 N 
ATOM      3  O   UNL A   1      34.238  31.609  28.048  1.00  0.00    -0.275 OA
ATOM      4  C   UNL A   1      35.382  32.037  27.901  1.00  0.00     0.220 C 
ATOM      5  H   UNL A   1      36.578  33.677  27.693  1.00  0.00     0.163 HD
BRANCH   4   6
ATOM      6  C   UNL A   1      36.566  31.087  28.051  1.00  0.00     0.102 C 
BRANCH   6   7
ATOM      7  C   UNL A   1      37.892  31.508  28.674  1.00  0.00     0.031 C 
BRANCH   7   8
ATOM      8  C   UNL A   1      38.378  31.039  30.042  1.00  0.00     0.121 C 
BRANCH   8   9
ATOM      9  N   UNL A   1      38.795  29.661  30.334  1.00  0.00    -0.325 N 
ATOM     10  C   UNL A   1      37.821  28.941  31.042  1.00  0.00     0.295 C 
ATOM     11  C   UNL A   1      40.148  29.195  30.703  1.00  0.00     0.150 C 
ATOM     12  O   UNL A   1      36.613  29.018  30.915  1.00  0.00    -0.265 OA
ATOM     13  C   UNL A   1      38.533  28.235  32.194  1.00  0.00     0.248 C 
ATOM     14  C   UNL A   1      39.970  28.525  32.048  1.00  0.00     0.025 C 
ATOM     15  O   UNL A   1      38.022  27.623  33.110  1.00  0.00    -0.283 OA
ATOM     16  C   UNL A   1      40.871  28.165  32.982  1.00  0.00    -0.092 C 
ATOM     17  O   UNL A   1      40.554  27.506  34.150  1.00  0.00    -0.872 OA
BRANCH  11  18
ATOM     18  C   UNL A   1      40.744  28.250  29.635  1.00  0.00    -0.020 A 
ATOM     19  C   UNL A   1      40.129  27.081  29.151  1.00  0.00     0.013 A 
ATOM     20  C   UNL A   1      42.037  28.498  29.164  1.00  0.00     0.013 A 
ATOM     21  C   UNL A   1      40.822  26.164  28.339  1.00  0.00     0.086 A 
ATOM     22  C   UNL A   1      42.733  27.630  28.324  1.00  0.00     0.086 A 
ATOM     23  C   UNL A   1      42.134  26.438  27.944  1.00  0.00     0.269 A 
BRANCH  23  24
ATOM     24  N   UNL A   1      42.906  25.462  27.170  1.00  0.00     0.062 N 
ATOM     25  O   UNL A   1      43.170  24.377  27.705  1.00  0.00    -0.258 OA
ATOM     26  O   UNL A   1      43.271  25.791  26.030  1.00  0.00    -0.258 OA
ENDBRANCH  23  24
ENDBRANCH  11  18
BRANCH  16  27
ATOM     27  C   UNL A   1      42.318  28.293  32.745  1.00  0.00    -0.033 A 
ATOM     28  C   UNL A   1      43.065  27.136  32.474  1.00  0.00     0.007 A 
ATOM     29  C   UNL A   1      42.950  29.539  32.686  1.00  0.00     0.007 A 
ATOM     30  C   UNL A   1      44.399  27.230  32.072  1.00  0.00     0.001 A 
ATOM     31  C   UNL A   1      44.288  29.630  32.296  1.00  0.00     0.001 A 
ATOM     32  C   UNL A   1      45.006  28.478  31.971  1.00  0.00     0.000 A 
ENDBRANCH  16  27
ENDBRANCH   8   9
ENDBRANCH   7   8
ENDBRANCH   6   7
ENDBRANCH   4   6
ENDBRANCH   1   2
BRANCH   1  33
ATOM     33  C   UNL A   1      34.289  35.046  29.000  1.00  0.00     0.023 C 
BRANCH  33  34
ATOM     34  C   UNL A   1      33.159  36.080  28.994  1.00  0.00     0.023 C 
BRANCH  34  35
ATOM     35  C   UNL A   1      32.968  36.872  30.285  1.00  0.00     0.116 C 
BRANCH  35  36
ATOM     36  N   UNL A   1      32.034  36.244  31.205  1.00  0.00    -0.352 N 
ATOM     37  C   UNL A   1      32.267  35.358  32.232  1.00  0.00     0.251 C 
ATOM     38  H   UNL A   1      31.089  36.489  31.073  1.00  0.00     0.163 HD
ATOM     39  O   UNL A   1      31.311  34.853  32.816  1.00  0.00    -0.269 OA
BRANCH  37  40
ATOM     40  C   UNL A   1      33.650  34.982  32.618  1.00  0.00     0.039 A 
ATOM     41  C   UNL A   1      34.556  35.998  32.937  1.00  0.00     0.014 A 
ATOM     42  C   UNL A   1      34.066  33.649  32.656  1.00  0.00     0.014 A 
ATOM     43  C   UNL A   1      35.849  35.675  33.364  1.00  0.00     0.010 A 
ATOM     44  C   UNL A   1      35.329  33.325  33.154  1.00  0.00     0.010 A 
ATOM     45  C   UNL A   1      36.234  34.334  33.517  1.00  0.00    -0.014 A 
BRANCH  45  46
ATOM     46  C   UNL A   1      37.565  33.969  34.075  1.00  0.00     0.031 A 
ATOM     47  C   UNL A   1      37.743  33.749  35.555  1.00  0.00     0.074 A 
ATOM     48  C   UNL A   1      38.635  33.898  33.255  1.00  0.00     0.049 A 
ATOM     49  N   UNL A   1      38.836  33.481  36.224  1.00  0.00    -0.248 NA
ATOM     50  C   UNL A   1      36.541  33.863  36.395  1.00  0.00     0.031 C 
ATOM     51  C   UNL A   1      38.608  34.121  31.807  1.00  0.00     0.029 A 
ATOM     52  N   UNL A   1      39.954  33.625  33.523  1.00  0.00    -0.354 N 
ATOM     53  C   UNL A   1      38.459  33.414  37.561  1.00  0.00     0.074 A 
ATOM     54  C   UNL A   1      37.043  33.712  37.612  1.00  0.00     0.031 C 
ATOM     55  C   UNL A   1      39.845  33.950  31.313  1.00  0.00     0.029 A 
ATOM     56  C   UNL A   1      40.762  33.655  32.409  1.00  0.00     0.049 A 
ATOM     57  H   UNL A   1      40.291  33.428  34.427  1.00  0.00     0.167 HD
ATOM     58  C   UNL A   1      39.216  33.120  38.645  1.00  0.00     0.031 A 
ATOM     59  C   UNL A   1      42.092  33.475  32.281  1.00  0.00     0.031 A 
ATOM     60  C   UNL A   1      40.624  32.821  38.592  1.00  0.00     0.049 A 
ATOM     61  C   UNL A   1      42.916  33.176  33.504  1.00  0.00     0.074 A 
ATOM     62  C   UNL A   1      41.464  32.452  39.629  1.00  0.00     0.029 A 
ATOM     63  N   UNL A   1      41.403  32.863  37.444  1.00  0.00    -0.354 N 
ATOM     64  N   UNL A   1      42.526  33.047  34.750  1.00  0.00    -0.248 NA
ATOM     65  C   UNL A   1      44.359  32.989  33.302  1.00  0.00     0.031 C 
ATOM     66  C   UNL A   1      42.761  32.334  39.121  1.00  0.00     0.029 A 
ATOM     67  C   UNL A   1      42.719  32.558  37.755  1.00  0.00     0.049 A 
ATOM     68  H   UNL A   1      41.070  33.077  36.543  1.00  0.00     0.167 HD
ATOM     69  C   UNL A   1      43.670  32.731  35.474  1.00  0.00     0.074 A 
ATOM     70  C   UNL A   1      44.763  32.675  34.526  1.00  0.00     0.031 C 
ATOM     71  C   UNL A   1      43.801  32.504  36.805  1.00  0.00     0.031 A 
BRANCH  58  72
ATOM     72  C   UNL A   1      38.542  33.120  39.993  1.00  0.00    -0.014 A 
ATOM     73  C   UNL A   1      38.460  34.290  40.770  1.00  0.00     0.010 A 
ATOM     74  C   UNL A   1      37.932  31.944  40.468  1.00  0.00     0.010 A 
ATOM     75  C   UNL A   1      37.818  34.273  42.012  1.00  0.00     0.020 A 
ATOM     76  C   UNL A   1      37.262  31.930  41.695  1.00  0.00     0.020 A 
ATOM     77  C   UNL A   1      37.224  33.093  42.466  1.00  0.00     0.054 A 
BRANCH  77  78
ATOM     78  S   UNL A   1      36.374  33.108  44.070  1.00  0.00     0.124 S 
ATOM     79  O   UNL A   1      35.852  34.472  44.120  1.00  0.00    -0.237 OA
ATOM     80  O   UNL A   1      35.371  32.058  43.910  1.00  0.00    -0.237 OA
ATOM     81  O   UNL A   1      37.435  32.813  45.029  1.00  0.00    -0.744 OA
ENDBRANCH  77  78
ENDBRANCH  58  72
BRANCH  59  82
ATOM     82  C   UNL A   1      42.731  33.564  30.937  1.00  0.00    -0.014 A 
ATOM     83  C   UNL A   1      42.984  32.400  30.190  1.00  0.00     0.010 A 
ATOM     84  C   UNL A   1      43.089  34.813  30.397  1.00  0.00     0.010 A 
ATOM     85  C   UNL A   1      43.603  32.482  28.938  1.00  0.00     0.020 A 
ATOM     86  C   UNL A   1      43.678  34.901  29.133  1.00  0.00     0.020 A 
ATOM     87  C   UNL A   1      43.943  33.733  28.416  1.00  0.00     0.054 A 
BRANCH  87  88
ATOM     88  S   UNL A   1      44.703  33.816  26.771  1.00  0.00     0.124 S 
ATOM     89  O   UNL A   1      45.544  32.623  26.764  1.00  0.00    -0.237 OA
ATOM     90  O   UNL A   1      43.542  33.778  25.885  1.00  0.00    -0.237 OA
ATOM     91  O   UNL A   1      45.421  35.088  26.790  1.00  0.00    -0.744 OA
ENDBRANCH  87  88
ENDBRANCH  59  82
BRANCH  71  92
ATOM     92  C   UNL A   1      45.170  32.131  37.317  1.00  0.00    -0.014 A 
ATOM     93  C   UNL A   1      45.599  30.793  37.359  1.00  0.00     0.010 A 
ATOM     94  C   UNL A   1      46.059  33.148  37.712  1.00  0.00     0.010 A 
ATOM     95  C   UNL A   1      46.882  30.476  37.817  1.00  0.00     0.020 A 
ATOM     96  C   UNL A   1      47.353  32.838  38.140  1.00  0.00     0.020 A 
ATOM     97  C   UNL A   1      47.751  31.501  38.203  1.00  0.00     0.054 A 
BRANCH  97  98
ATOM     98  S   UNL A   1      49.424  31.066  38.750  1.00  0.00     0.124 S 
ATOM     99  O   UNL A   1      50.201  31.247  37.528  1.00  0.00    -0.237 OA
ATOM    100  O   UNL A   1      49.679  32.041  39.808  1.00  0.00    -0.237 OA
ATOM    101  O   UNL A   1      49.292  29.684  39.205  1.00  0.00    -0.744 OA
ENDBRANCH  97  98
ENDBRANCH  71  92
ENDBRANCH  45  46
ENDBRANCH  37  40
ENDBRANCH  35  36
ENDBRANCH  34  35
ENDBRANCH  33  34
ENDBRANCH   1  33
TORSDOF 20
ENDMDL
MODEL 3
REMARK VINA RESULT:      -9.2      4.152     14.852
REMARK SMILES O=C(CCCN1C(=O)C(=O)/C(=C(\[O-])c2ccccc2)[C@H]1c1ccc([N+](=O)[O-])cc1)NCCCCNC(=O)c1ccc(-c2c3nc(c(-c4ccc(S(=O)(=O)[O-])cc4)c4ccc([nH]4)c(-c4ccc(S(=O)(=O)[O-])cc4)c4nc(c(-c5ccc(S(=O)(=O)[O-])cc5)c5ccc2[nH]5)C=C4)C=C3)cc1
REMARK SMILES IDX 31 1 30 2 1 3 2 4 3 6 4 7 5 8 6 9 7 10 20 11 8 12 9 13 11 14
REMARK SMILES IDX 10 15 12 16 13 17 21 18 22 19 29 20 23 21 28 22 24 23 25 24
REMARK SMILES IDX 26 25 27 26 14 27 15 28 19 29 16 30 18 31 17 32 32 33 33 34
REMARK SMILES IDX 34 35 35 36 36 37 37 39 38 40 39 41 97 42 40 43 96 44 41 45
REMARK SMILES IDX 42 46 43 47 90 48 44 49 95 50 89 51 91 52 45 53 94 54 88 55
REMARK SMILES IDX 87 56 46 58 76 59 57 60 75 61 58 62 61 63 74 64 92 65 59 66
REMARK SMILES IDX 60 67 73 69 93 70 62 71 47 72 48 73 56 74 49 75 55 76 50 77
REMARK SMILES IDX 51 78 52 79 53 80 54 81 77 82 78 83 86 84 79 85 85 86 80 87
REMARK SMILES IDX 81 88 82 89 83 90 84 91 63 92 64 93 72 94 65 95 71 96 66 97
REMARK SMILES IDX 67 98 68 99 69 100 70 101
REMARK H PARENT 30 5 35 38 91 57 61 68
REMARK Flexibility Score: inf
ROOT
ATOM      1  C   UNL A   1      43.523  35.974  29.365  1.00  0.00     0.116 C 
ENDROOT
BRANCH   1   2
ATOM      2  N   UNL A   1      42.456  35.163  29.929  1.00  0.00    -0.356 N 
ATOM      3  O   UNL A   1      41.011  35.535  28.209  1.00  0.00    -0.275 OA
ATOM      4  C   UNL A   1      41.266  34.972  29.274  1.00  0.00     0.220 C 
ATOM      5  H   UNL A   1      42.592  34.739  30.807  1.00  0.00     0.163 HD
BRANCH   4   6
ATOM      6  C   UNL A   1      40.180  34.164  29.978  1.00  0.00     0.102 C 
BRANCH   6   7
ATOM      7  C   UNL A   1      38.692  34.449  29.804  1.00  0.00     0.031 C 
BRANCH   7   8
ATOM      8  C   UNL A   1      37.710  34.594  30.963  1.00  0.00     0.121 C 
BRANCH   8   9
ATOM      9  N   UNL A   1      37.480  33.555  31.975  1.00  0.00    -0.325 N 
ATOM     10  C   UNL A   1      36.117  33.327  32.214  1.00  0.00     0.295 C 
ATOM     11  C   UNL A   1      38.264  33.313  33.203  1.00  0.00     0.150 C 
ATOM     12  O   UNL A   1      35.213  33.356  31.399  1.00  0.00    -0.265 OA
ATOM     13  C   UNL A   1      35.925  33.299  33.729  1.00  0.00     0.248 C 
ATOM     14  C   UNL A   1      37.262  33.438  34.330  1.00  0.00     0.025 C 
ATOM     15  O   UNL A   1      34.873  33.260  34.337  1.00  0.00    -0.283 OA
ATOM     16  C   UNL A   1      37.438  33.590  35.656  1.00  0.00    -0.092 C 
ATOM     17  O   UNL A   1      36.409  33.635  36.573  1.00  0.00    -0.872 OA
BRANCH  11  18
ATOM     18  C   UNL A   1      38.972  31.940  33.177  1.00  0.00    -0.020 A 
ATOM     19  C   UNL A   1      38.341  30.699  33.384  1.00  0.00     0.013 A 
ATOM     20  C   UNL A   1      40.362  31.901  33.035  1.00  0.00     0.013 A 
ATOM     21  C   UNL A   1      39.082  29.515  33.553  1.00  0.00     0.086 A 
ATOM     22  C   UNL A   1      41.118  30.736  33.154  1.00  0.00     0.086 A 
ATOM     23  C   UNL A   1      40.476  29.545  33.456  1.00  0.00     0.269 A 
BRANCH  23  24
ATOM     24  N   UNL A   1      41.274  28.343  33.712  1.00  0.00     0.062 N 
ATOM     25  O   UNL A   1      40.920  27.598  34.636  1.00  0.00    -0.258 OA
ATOM     26  O   UNL A   1      42.275  28.156  33.002  1.00  0.00    -0.258 OA
ENDBRANCH  23  24
ENDBRANCH  11  18
BRANCH  16  27
ATOM     27  C   UNL A   1      38.776  33.543  36.266  1.00  0.00    -0.033 A 
ATOM     28  C   UNL A   1      39.434  34.750  36.550  1.00  0.00     0.007 A 
ATOM     29  C   UNL A   1      39.368  32.338  36.658  1.00  0.00     0.007 A 
ATOM     30  C   UNL A   1      40.621  34.756  37.284  1.00  0.00     0.001 A 
ATOM     31  C   UNL A   1      40.563  32.346  37.382  1.00  0.00     0.001 A 
ATOM     32  C   UNL A   1      41.178  33.554  37.711  1.00  0.00     0.000 A 
ENDBRANCH  16  27
ENDBRANCH   8   9
ENDBRANCH   7   8
ENDBRANCH   6   7
ENDBRANCH   4   6
ENDBRANCH   1   2
BRANCH   1  33
ATOM     33  C   UNL A   1      43.711  37.307  30.091  1.00  0.00     0.023 C 
BRANCH  33  34
ATOM     34  C   UNL A   1      44.140  37.218  31.557  1.00  0.00     0.023 C 
BRANCH  34  35
ATOM     35  C   UNL A   1      45.576  36.764  31.809  1.00  0.00     0.116 C 
BRANCH  35  36
ATOM     36  N   UNL A   1      46.552  37.504  31.026  1.00  0.00    -0.352 N 
ATOM     37  C   UNL A   1      47.370  37.079  30.003  1.00  0.00     0.251 C 
ATOM     38  H   UNL A   1      46.643  38.456  31.263  1.00  0.00     0.163 HD
ATOM     39  O   UNL A   1      48.216  37.849  29.554  1.00  0.00    -0.269 OA
BRANCH  37  40
ATOM     40  C   UNL A   1      47.266  35.701  29.465  1.00  0.00     0.039 A 
ATOM     41  C   UNL A   1      47.465  34.625  30.336  1.00  0.00     0.014 A 
ATOM     42  C   UNL A   1      46.991  35.456  28.118  1.00  0.00     0.014 A 
ATOM     43  C   UNL A   1      47.314  33.313  29.875  1.00  0.00     0.010 A 
ATOM     44  C   UNL A   1      46.767  34.151  27.676  1.00  0.00     0.010 A 
ATOM     45  C   UNL A   1      46.921  33.064  28.550  1.00  0.00    -0.014 A 
BRANCH  45  46
ATOM     46  C   UNL A   1      46.647  31.682  28.069  1.00  0.00     0.031 A 
ATOM     47  C   UNL A   1      45.251  31.118  28.109  1.00  0.00     0.074 A 
ATOM     48  C   UNL A   1      47.670  30.906  27.654  1.00  0.00     0.049 A 
ATOM     49  N   UNL A   1      44.835  29.920  27.786  1.00  0.00    -0.248 NA
ATOM     50  C   UNL A   1      44.185  32.010  28.594  1.00  0.00     0.031 C 
ATOM     51  C   UNL A   1      49.076  31.316  27.596  1.00  0.00     0.029 A 
ATOM     52  N   UNL A   1      47.687  29.607  27.209  1.00  0.00    -0.354 N 
ATOM     53  C   UNL A   1      43.469  29.907  28.045  1.00  0.00     0.074 A 
ATOM     54  C   UNL A   1      43.133  31.204  28.592  1.00  0.00     0.031 C 
ATOM     55  C   UNL A   1      49.812  30.300  27.117  1.00  0.00     0.029 A 
ATOM     56  C   UNL A   1      48.944  29.151  26.880  1.00  0.00     0.049 A 
ATOM     57  H   UNL A   1      46.877  29.052  27.132  1.00  0.00     0.167 HD
ATOM     58  C   UNL A   1      42.573  28.912  27.835  1.00  0.00     0.031 A 
ATOM     59  C   UNL A   1      49.357  27.943  26.447  1.00  0.00     0.031 A 
ATOM     60  C   UNL A   1      42.907  27.623  27.286  1.00  0.00     0.049 A 
ATOM     61  C   UNL A   1      48.346  26.847  26.247  1.00  0.00     0.074 A 
ATOM     62  C   UNL A   1      42.058  26.573  26.981  1.00  0.00     0.029 A 
ATOM     63  N   UNL A   1      44.191  27.203  26.969  1.00  0.00    -0.354 N 
ATOM     64  N   UNL A   1      47.047  26.879  26.430  1.00  0.00    -0.248 NA
ATOM     65  C   UNL A   1      48.856  25.553  25.772  1.00  0.00     0.031 C 
ATOM     66  C   UNL A   1      42.834  25.497  26.540  1.00  0.00     0.029 A 
ATOM     67  C   UNL A   1      44.159  25.899  26.502  1.00  0.00     0.049 A 
ATOM     68  H   UNL A   1      45.004  27.751  27.062  1.00  0.00     0.167 HD
ATOM     69  C   UNL A   1      46.582  25.622  26.062  1.00  0.00     0.074 A 
ATOM     70  C   UNL A   1      47.734  24.858  25.632  1.00  0.00     0.031 C 
ATOM     71  C   UNL A   1      45.312  25.145  26.075  1.00  0.00     0.031 A 
BRANCH  58  72
ATOM     72  C   UNL A   1      41.136  29.171  28.213  1.00  0.00    -0.014 A 
ATOM     73  C   UNL A   1      40.116  29.185  27.244  1.00  0.00     0.010 A 
ATOM     74  C   UNL A   1      40.792  29.348  29.566  1.00  0.00     0.010 A 
ATOM     75  C   UNL A   1      38.788  29.412  27.615  1.00  0.00     0.020 A 
ATOM     76  C   UNL A   1      39.460  29.545  29.945  1.00  0.00     0.020 A 
ATOM     77  C   UNL A   1      38.469  29.591  28.964  1.00  0.00     0.054 A 
BRANCH  77  78
ATOM     78  S   UNL A   1      36.733  29.857  29.419  1.00  0.00     0.124 S 
ATOM     79  O   UNL A   1      36.661  31.315  29.492  1.00  0.00    -0.237 OA
ATOM     80  O   UNL A   1      36.014  29.249  28.302  1.00  0.00    -0.237 OA
ATOM     81  O   UNL A   1      36.597  29.164  30.697  1.00  0.00    -0.744 OA
ENDBRANCH  77  78
ENDBRANCH  58  72
BRANCH  59  82
ATOM     82  C   UNL A   1      50.801  27.707  26.162  1.00  0.00    -0.014 A 
ATOM     83  C   UNL A   1      51.646  27.179  27.154  1.00  0.00     0.010 A 
ATOM     84  C   UNL A   1      51.339  28.009  24.897  1.00  0.00     0.010 A 
ATOM     85  C   UNL A   1      53.005  26.977  26.895  1.00  0.00     0.020 A 
ATOM     86  C   UNL A   1      52.690  27.778  24.625  1.00  0.00     0.020 A 
ATOM     87  C   UNL A   1      53.518  27.276  25.629  1.00  0.00     0.054 A 
BRANCH  87  88
ATOM     88  S   UNL A   1      55.275  26.962  25.303  1.00  0.00     0.124 S 
ATOM     89  O   UNL A   1      55.881  27.245  26.600  1.00  0.00    -0.237 OA
ATOM     90  O   UNL A   1      55.275  25.559  24.896  1.00  0.00    -0.237 OA
ATOM     91  O   UNL A   1      55.600  27.911  24.240  1.00  0.00    -0.744 OA
ENDBRANCH  87  88
ENDBRANCH  59  82
BRANCH  71  92
ATOM     92  C   UNL A   1      45.088  23.742  25.572  1.00  0.00    -0.014 A 
ATOM     93  C   UNL A   1      45.227  23.419  24.210  1.00  0.00     0.010 A 
ATOM     94  C   UNL A   1      44.786  22.720  26.490  1.00  0.00     0.010 A 
ATOM     95  C   UNL A   1      45.037  22.105  23.772  1.00  0.00     0.020 A 
ATOM     96  C   UNL A   1      44.627  21.399  26.060  1.00  0.00     0.020 A 
ATOM     97  C   UNL A   1      44.739  21.103  24.701  1.00  0.00     0.054 A 
BRANCH  97  98
ATOM     98  S   UNL A   1      44.542  19.399  24.112  1.00  0.00     0.124 S 
ATOM     99  O   UNL A   1      43.345  18.966  24.827  1.00  0.00    -0.237 OA
ATOM    100  O   UNL A   1      44.384  19.575  22.671  1.00  0.00    -0.237 OA
ATOM    101  O   UNL A   1      45.783  18.744  24.522  1.00  0.00    -0.744 OA
ENDBRANCH  97  98
ENDBRANCH  71  92
ENDBRANCH  45  46
ENDBRANCH  37  40
ENDBRANCH  35  36
ENDBRANCH  34  35
ENDBRANCH  33  34
ENDBRANCH   1  33
TORSDOF 20
ENDMDL
