MODEL 1
REMARK VINA RESULT:     -10.6      0.000      0.000
REMARK SMILES COC(=O)[C@H]1CCN(S(=O)(=O)N2CCC[C@H](C(=O)NCCCCNC(=O)c3ccc(-c4c5nc(c(-c6ccc(S(=O)(=O)[O-])cc6)c6ccc([nH]6)c(-c6ccc(S(=O)(=O)[O-])cc6)c6nc(c(-c7ccc(S(=O)(=O)[O-])cc7)c7ccc4[nH]7)C=C6)C=C5)cc3)C2)C1
REMARK SMILES IDX 21 1 20 2 19 3 17 4 18 5 16 7 12 8 13 9 87 10 14 11 15 12
REMARK SMILES IDX 9 13 10 14 11 15 8 16 5 17 6 18 88 19 7 20 3 21 4 22 2 23
REMARK SMILES IDX 1 24 22 25 23 26 24 27 25 28 26 30 27 31 28 32 86 33 29 34
REMARK SMILES IDX 85 35 30 36 31 37 32 38 79 39 33 40 84 41 78 42 80 43 34 44
REMARK SMILES IDX 83 45 77 46 76 47 35 49 65 50 46 51 64 52 47 53 50 54 63 55
REMARK SMILES IDX 81 56 48 57 49 58 62 60 82 61 51 62 36 63 37 64 45 65 38 66
REMARK SMILES IDX 44 67 39 68 40 69 41 70 42 71 43 72 66 73 67 74 75 75 68 76
REMARK SMILES IDX 74 77 69 78 70 79 71 80 72 81 73 82 52 83 53 84 61 85 54 86
REMARK SMILES IDX 60 87 55 88 56 89 57 90 58 91 59 92
REMARK H PARENT 19 6 24 29 80 48 50 59
REMARK Flexibility Score: inf
ROOT
ATOM      1  C   UNL A   1      31.817  29.027  25.487  1.00  0.00     0.023 C 
ENDROOT
BRANCH   1   2
ATOM      2  C   UNL A   1      31.560  29.026  23.984  1.00  0.00     0.116 C 
BRANCH   2   3
ATOM      3  N   UNL A   1      32.730  28.650  23.227  1.00  0.00    -0.356 N 
ATOM      4  C   UNL A   1      32.962  27.609  22.393  1.00  0.00     0.224 C 
ATOM      5  O   UNL A   1      34.063  27.595  21.827  1.00  0.00    -0.275 OA
ATOM      6  H   UNL A   1      33.495  29.261  23.335  1.00  0.00     0.163 HD
BRANCH   4   7
ATOM      7  C   UNL A   1      31.976  26.474  22.117  1.00  0.00     0.094 C 
ATOM      8  N   UNL A   1      32.072  24.671  23.828  1.00  0.00    -0.188 NA
ATOM      9  C   UNL A   1      32.311  23.604  22.845  1.00  0.00     0.103 C 
ATOM     10  C   UNL A   1      31.339  25.851  23.347  1.00  0.00     0.117 C 
ATOM     11  C   UNL A   1      32.978  24.155  21.585  1.00  0.00     0.018 C 
ATOM     12  C   UNL A   1      32.372  25.451  21.055  1.00  0.00     0.016 C 
BRANCH   8  13
ATOM     13  S   UNL A   1      32.003  24.259  25.451  1.00  0.00     0.282 S 
ATOM     14  O   UNL A   1      31.840  22.833  25.573  1.00  0.00    -0.195 OA
ATOM     15  O   UNL A   1      31.088  25.176  26.094  1.00  0.00    -0.195 OA
BRANCH  13  16
ATOM     16  N   UNL A   1      33.563  24.656  25.986  1.00  0.00    -0.188 NA
ATOM     17  C   UNL A   1      35.610  23.361  25.836  1.00  0.00     0.116 C 
ATOM     18  C   UNL A   1      35.390  24.134  24.552  1.00  0.00     0.033 C 
ATOM     19  C   UNL A   1      34.286  23.476  26.582  1.00  0.00     0.118 C 
ATOM     20  C   UNL A   1      34.487  25.259  24.998  1.00  0.00     0.104 C 
BRANCH  17  21
ATOM     21  C   UNL A   1      35.934  21.915  25.570  1.00  0.00     0.310 C 
ATOM     22  O   UNL A   1      35.279  20.965  25.972  1.00  0.00    -0.252 OA
BRANCH  21  23
ATOM     23  O   UNL A   1      37.073  21.819  24.830  1.00  0.00    -0.469 OA
ATOM     24  C   UNL A   1      38.266  21.858  25.616  1.00  0.00     0.282 C 
ENDBRANCH  21  23
ENDBRANCH  17  21
ENDBRANCH  13  16
ENDBRANCH   8  13
ENDBRANCH   4   7
ENDBRANCH   2   3
ENDBRANCH   1   2
BRANCH   1  25
ATOM     25  C   UNL A   1      33.124  28.363  25.892  1.00  0.00     0.023 C 
BRANCH  25  26
ATOM     26  C   UNL A   1      33.538  28.617  27.335  1.00  0.00     0.116 C 
BRANCH  26  27
ATOM     27  N   UNL A   1      33.547  30.027  27.709  1.00  0.00    -0.352 N 
ATOM     28  C   UNL A   1      34.585  30.746  28.259  1.00  0.00     0.251 C 
ATOM     29  H   UNL A   1      32.712  30.523  27.550  1.00  0.00     0.163 HD
ATOM     30  O   UNL A   1      34.426  31.897  28.646  1.00  0.00    -0.269 OA
BRANCH  28  31
ATOM     31  C   UNL A   1      35.889  30.072  28.412  1.00  0.00     0.039 A 
ATOM     32  C   UNL A   1      36.816  30.140  27.373  1.00  0.00     0.014 A 
ATOM     33  C   UNL A   1      36.229  29.493  29.638  1.00  0.00     0.014 A 
ATOM     34  C   UNL A   1      38.121  29.701  27.598  1.00  0.00     0.010 A 
ATOM     35  C   UNL A   1      37.553  29.162  29.891  1.00  0.00     0.010 A 
ATOM     36  C   UNL A   1      38.513  29.259  28.874  1.00  0.00    -0.014 A 
BRANCH  36  37
ATOM     37  C   UNL A   1      39.926  28.904  29.161  1.00  0.00     0.031 A 
ATOM     38  C   UNL A   1      40.838  29.909  29.811  1.00  0.00     0.074 A 
ATOM     39  C   UNL A   1      40.400  27.696  28.791  1.00  0.00     0.049 A 
ATOM     40  N   UNL A   1      42.100  29.786  30.135  1.00  0.00    -0.248 NA
ATOM     41  C   UNL A   1      40.270  31.235  30.113  1.00  0.00     0.031 C 
ATOM     42  C   UNL A   1      39.631  26.657  28.099  1.00  0.00     0.029 A 
ATOM     43  N   UNL A   1      41.642  27.134  28.949  1.00  0.00    -0.354 N 
ATOM     44  C   UNL A   1      42.474  31.016  30.664  1.00  0.00     0.074 A 
ATOM     45  C   UNL A   1      41.331  31.891  30.556  1.00  0.00     0.031 C 
ATOM     46  C   UNL A   1      40.402  25.571  27.938  1.00  0.00     0.029 A 
ATOM     47  C   UNL A   1      41.733  25.847  28.468  1.00  0.00     0.049 A 
ATOM     48  H   UNL A   1      42.397  27.605  29.369  1.00  0.00     0.167 HD
ATOM     49  C   UNL A   1      43.656  31.377  31.217  1.00  0.00     0.031 A 
ATOM     50  C   UNL A   1      42.770  24.987  28.456  1.00  0.00     0.031 A 
ATOM     51  C   UNL A   1      44.791  30.499  31.326  1.00  0.00     0.049 A 
ATOM     52  C   UNL A   1      44.078  25.416  29.064  1.00  0.00     0.074 A 
ATOM     53  C   UNL A   1      46.014  30.747  31.921  1.00  0.00     0.029 A 
ATOM     54  N   UNL A   1      44.843  29.207  30.825  1.00  0.00    -0.354 N 
ATOM     55  N   UNL A   1      44.385  26.555  29.638  1.00  0.00    -0.248 NA
ATOM     56  C   UNL A   1      45.174  24.439  29.036  1.00  0.00     0.031 C 
ATOM     57  C   UNL A   1      46.830  29.629  31.721  1.00  0.00     0.029 A 
ATOM     58  C   UNL A   1      46.090  28.657  31.067  1.00  0.00     0.049 A 
ATOM     59  H   UNL A   1      44.103  28.748  30.365  1.00  0.00     0.167 HD
ATOM     60  C   UNL A   1      45.704  26.422  30.061  1.00  0.00     0.074 A 
ATOM     61  C   UNL A   1      46.124  25.084  29.698  1.00  0.00     0.031 C 
ATOM     62  C   UNL A   1      46.496  27.325  30.692  1.00  0.00     0.031 A 
BRANCH  49  63
ATOM     63  C   UNL A   1      43.780  32.785  31.741  1.00  0.00    -0.014 A 
ATOM     64  C   UNL A   1      43.518  33.086  33.091  1.00  0.00     0.010 A 
ATOM     65  C   UNL A   1      44.201  33.816  30.882  1.00  0.00     0.010 A 
ATOM     66  C   UNL A   1      43.635  34.396  33.561  1.00  0.00     0.020 A 
ATOM     67  C   UNL A   1      44.353  35.122  31.356  1.00  0.00     0.020 A 
ATOM     68  C   UNL A   1      44.053  35.407  32.690  1.00  0.00     0.054 A 
BRANCH  68  69
ATOM     69  S   UNL A   1      44.229  37.092  33.337  1.00  0.00     0.124 S 
ATOM     70  O   UNL A   1      44.592  37.839  32.136  1.00  0.00    -0.237 OA
ATOM     71  O   UNL A   1      42.897  37.368  33.869  1.00  0.00    -0.237 OA
ATOM     72  O   UNL A   1      45.284  36.972  34.340  1.00  0.00    -0.744 OA
ENDBRANCH  68  69
ENDBRANCH  49  63
BRANCH  50  73
ATOM     73  C   UNL A   1      42.609  23.630  27.860  1.00  0.00    -0.014 A 
ATOM     74  C   UNL A   1      42.187  22.545  28.650  1.00  0.00     0.010 A 
ATOM     75  C   UNL A   1      42.871  23.418  26.494  1.00  0.00     0.010 A 
ATOM     76  C   UNL A   1      42.050  21.271  28.090  1.00  0.00     0.020 A 
ATOM     77  C   UNL A   1      42.703  22.153  25.923  1.00  0.00     0.020 A 
ATOM     78  C   UNL A   1      42.306  21.084  26.728  1.00  0.00     0.054 A 
BRANCH  78  79
ATOM     79  S   UNL A   1      42.074  19.432  26.014  1.00  0.00     0.124 S 
ATOM     80  O   UNL A   1      42.914  19.495  24.821  1.00  0.00    -0.237 OA
ATOM     81  O   UNL A   1      42.553  18.558  27.081  1.00  0.00    -0.237 OA
ATOM     82  O   UNL A   1      40.636  19.366  25.763  1.00  0.00    -0.744 OA
ENDBRANCH  78  79
ENDBRANCH  50  73
BRANCH  62  83
ATOM     83  C   UNL A   1      47.890  26.887  31.056  1.00  0.00    -0.014 A 
ATOM     84  C   UNL A   1      48.155  26.211  32.261  1.00  0.00     0.010 A 
ATOM     85  C   UNL A   1      48.946  27.117  30.154  1.00  0.00     0.010 A 
ATOM     86  C   UNL A   1      49.456  25.810  32.574  1.00  0.00     0.020 A 
ATOM     87  C   UNL A   1      50.241  26.685  30.447  1.00  0.00     0.020 A 
ATOM     88  C   UNL A   1      50.491  26.049  31.664  1.00  0.00     0.054 A 
BRANCH  88  89
ATOM     89  S   UNL A   1      52.163  25.487  32.082  1.00  0.00     0.124 S 
ATOM     90  O   UNL A   1      52.908  25.819  30.870  1.00  0.00    -0.237 OA
ATOM     91  O   UNL A   1      52.486  26.289  33.258  1.00  0.00    -0.237 OA
ATOM     92  O   UNL A   1      51.996  24.057  32.336  1.00  0.00    -0.744 OA
ENDBRANCH  88  89
ENDBRANCH  62  83
ENDBRANCH  36  37
ENDBRANCH  28  31
ENDBRANCH  26  27
ENDBRANCH  25  26
ENDBRANCH   1  25
TORSDOF 18
ENDMDL
MODEL 2
REMARK VINA RESULT:     -10.4      3.388      9.311
REMARK SMILES COC(=O)[C@H]1CCN(S(=O)(=O)N2CCC[C@H](C(=O)NCCCCNC(=O)c3ccc(-c4c5nc(c(-c6ccc(S(=O)(=O)[O-])cc6)c6ccc([nH]6)c(-c6ccc(S(=O)(=O)[O-])cc6)c6nc(c(-c7ccc(S(=O)(=O)[O-])cc7)c7ccc4[nH]7)C=C6)C=C5)cc3)C2)C1
REMARK SMILES IDX 21 1 20 2 19 3 17 4 18 5 16 7 12 8 13 9 87 10 14 11 15 12
REMARK SMILES IDX 9 13 10 14 11 15 8 16 5 17 6 18 88 19 7 20 3 21 4 22 2 23
REMARK SMILES IDX 1 24 22 25 23 26 24 27 25 28 26 30 27 31 28 32 86 33 29 34
REMARK SMILES IDX 85 35 30 36 31 37 32 38 79 39 33 40 84 41 78 42 80 43 34 44
REMARK SMILES IDX 83 45 77 46 76 47 35 49 65 50 46 51 64 52 47 53 50 54 63 55
REMARK SMILES IDX 81 56 48 57 49 58 62 60 82 61 51 62 36 63 37 64 45 65 38 66
REMARK SMILES IDX 44 67 39 68 40 69 41 70 42 71 43 72 66 73 67 74 75 75 68 76
REMARK SMILES IDX 74 77 69 78 70 79 71 80 72 81 73 82 52 83 53 84 61 85 54 86
REMARK SMILES IDX 60 87 55 88 56 89 57 90 58 91 59 92
REMARK H PARENT 19 6 24 29 80 48 50 59
REMARK Flexibility Score: inf
ROOT
ATOM      1  C   UNL A   1      37.489  20.185  24.888  1.00  0.00     0.023 C 
ENDROOT
BRANCH   1   2
ATOM      2  C   UNL A   1      35.970  20.169  25.012  1.00  0.00     0.116 C 
BRANCH   2   3
ATOM      3  N   UNL A   1      35.480  21.197  25.899  1.00  0.00    -0.356 N 
ATOM      4  C   UNL A   1      34.324  21.902  25.903  1.00  0.00     0.224 C 
ATOM      5  O   UNL A   1      34.159  22.681  26.851  1.00  0.00    -0.275 OA
ATOM      6  H   UNL A   1      36.096  21.426  26.633  1.00  0.00     0.163 HD
BRANCH   4   7
ATOM      7  C   UNL A   1      33.237  21.803  24.832  1.00  0.00     0.094 C 
ATOM      8  N   UNL A   1      32.533  24.023  23.959  1.00  0.00    -0.188 NA
ATOM      9  C   UNL A   1      31.109  23.810  24.260  1.00  0.00     0.103 C 
ATOM     10  C   UNL A   1      33.336  22.819  23.707  1.00  0.00     0.117 C 
ATOM     11  C   UNL A   1      30.932  22.814  25.406  1.00  0.00     0.018 C 
ATOM     12  C   UNL A   1      31.806  21.568  25.312  1.00  0.00     0.016 C 
BRANCH   8  13
ATOM     13  S   UNL A   1      32.994  25.482  23.275  1.00  0.00     0.282 S 
ATOM     14  O   UNL A   1      31.816  26.224  22.901  1.00  0.00    -0.195 OA
ATOM     15  O   UNL A   1      34.039  25.202  22.316  1.00  0.00    -0.195 OA
BRANCH  13  16
ATOM     16  N   UNL A   1      33.719  26.277  24.586  1.00  0.00    -0.188 NA
ATOM     17  C   UNL A   1      32.999  28.279  25.754  1.00  0.00     0.116 C 
ATOM     18  C   UNL A   1      32.298  27.064  26.327  1.00  0.00     0.033 C 
ATOM     19  C   UNL A   1      33.641  27.777  24.466  1.00  0.00     0.118 C 
ATOM     20  C   UNL A   1      33.229  25.939  25.942  1.00  0.00     0.104 C 
BRANCH  17  21
ATOM     21  C   UNL A   1      32.032  29.392  25.454  1.00  0.00     0.310 C 
ATOM     22  O   UNL A   1      31.043  29.289  24.744  1.00  0.00    -0.252 OA
BRANCH  21  23
ATOM     23  O   UNL A   1      32.428  30.537  26.075  1.00  0.00    -0.469 OA
ATOM     24  C   UNL A   1      33.204  30.305  27.253  1.00  0.00     0.282 C 
ENDBRANCH  21  23
ENDBRANCH  17  21
ENDBRANCH  13  16
ENDBRANCH   8  13
ENDBRANCH   4   7
ENDBRANCH   2   3
ENDBRANCH   1   2
BRANCH   1  25
ATOM     25  C   UNL A   1      38.125  21.520  25.242  1.00  0.00     0.023 C 
BRANCH  25  26
ATOM     26  C   UNL A   1      39.284  21.425  26.226  1.00  0.00     0.116 C 
BRANCH  26  27
ATOM     27  N   UNL A   1      40.045  20.185  26.124  1.00  0.00    -0.352 N 
ATOM     28  C   UNL A   1      41.414  20.032  26.150  1.00  0.00     0.251 C 
ATOM     29  H   UNL A   1      39.518  19.359  26.027  1.00  0.00     0.163 HD
ATOM     30  O   UNL A   1      41.936  18.946  25.928  1.00  0.00    -0.269 OA
BRANCH  28  31
ATOM     31  C   UNL A   1      42.239  21.228  26.406  1.00  0.00     0.039 A 
ATOM     32  C   UNL A   1      42.571  22.066  25.342  1.00  0.00     0.014 A 
ATOM     33  C   UNL A   1      42.561  21.579  27.721  1.00  0.00     0.014 A 
ATOM     34  C   UNL A   1      43.153  23.304  25.610  1.00  0.00     0.010 A 
ATOM     35  C   UNL A   1      43.037  22.855  27.989  1.00  0.00     0.010 A 
ATOM     36  C   UNL A   1      43.341  23.731  26.937  1.00  0.00    -0.014 A 
BRANCH  36  37
ATOM     37  C   UNL A   1      43.847  25.094  27.239  1.00  0.00     0.031 A 
ATOM     38  C   UNL A   1      45.297  25.427  27.010  1.00  0.00     0.074 A 
ATOM     39  C   UNL A   1      43.014  26.015  27.766  1.00  0.00     0.049 A 
ATOM     40  N   UNL A   1      45.925  26.556  27.219  1.00  0.00    -0.248 NA
ATOM     41  C   UNL A   1      46.163  24.346  26.508  1.00  0.00     0.031 C 
ATOM     42  C   UNL A   1      41.601  25.795  28.090  1.00  0.00     0.029 A 
ATOM     43  N   UNL A   1      43.231  27.323  28.118  1.00  0.00    -0.354 N 
ATOM     44  C   UNL A   1      47.252  26.316  26.886  1.00  0.00     0.074 A 
ATOM     45  C   UNL A   1      47.356  24.921  26.528  1.00  0.00     0.031 C 
ATOM     46  C   UNL A   1      41.069  26.940  28.546  1.00  0.00     0.029 A 
ATOM     47  C   UNL A   1      42.109  27.963  28.593  1.00  0.00     0.049 A 
ATOM     48  H   UNL A   1      44.107  27.764  28.037  1.00  0.00     0.167 HD
ATOM     49  C   UNL A   1      48.289  27.186  26.854  1.00  0.00     0.031 A 
ATOM     50  C   UNL A   1      41.935  29.229  29.019  1.00  0.00     0.031 A 
ATOM     51  C   UNL A   1      48.179  28.577  27.206  1.00  0.00     0.049 A 
ATOM     52  C   UNL A   1      43.106  30.174  28.986  1.00  0.00     0.074 A 
ATOM     53  C   UNL A   1      49.155  29.555  27.152  1.00  0.00     0.029 A 
ATOM     54  N   UNL A   1      47.028  29.183  27.685  1.00  0.00    -0.354 N 
ATOM     55  N   UNL A   1      44.335  29.950  28.585  1.00  0.00    -0.248 NA
ATOM     56  C   UNL A   1      42.863  31.547  29.450  1.00  0.00     0.031 C 
ATOM     57  C   UNL A   1      48.612  30.739  27.661  1.00  0.00     0.029 A 
ATOM     58  C   UNL A   1      47.277  30.517  27.962  1.00  0.00     0.049 A 
ATOM     59  H   UNL A   1      46.161  28.733  27.809  1.00  0.00     0.167 HD
ATOM     60  C   UNL A   1      45.006  31.161  28.726  1.00  0.00     0.074 A 
ATOM     61  C   UNL A   1      44.038  32.116  29.225  1.00  0.00     0.031 C 
ATOM     62  C   UNL A   1      46.305  31.454  28.466  1.00  0.00     0.031 A 
BRANCH  49  63
ATOM     63  C   UNL A   1      49.633  26.654  26.425  1.00  0.00    -0.014 A 
ATOM     64  C   UNL A   1      50.466  25.965  27.326  1.00  0.00     0.010 A 
ATOM     65  C   UNL A   1      50.054  26.813  25.093  1.00  0.00     0.010 A 
ATOM     66  C   UNL A   1      51.710  25.481  26.914  1.00  0.00     0.020 A 
ATOM     67  C   UNL A   1      51.283  26.300  24.667  1.00  0.00     0.020 A 
ATOM     68  C   UNL A   1      52.111  25.650  25.585  1.00  0.00     0.054 A 
BRANCH  68  69
ATOM     69  S   UNL A   1      53.716  24.981  25.071  1.00  0.00     0.124 S 
ATOM     70  O   UNL A   1      53.843  25.512  23.716  1.00  0.00    -0.237 OA
ATOM     71  O   UNL A   1      54.628  25.553  26.057  1.00  0.00    -0.237 OA
ATOM     72  O   UNL A   1      53.534  23.535  25.159  1.00  0.00    -0.744 OA
ENDBRANCH  68  69
ENDBRANCH  49  63
BRANCH  50  73
ATOM     73  C   UNL A   1      40.598  29.681  29.498  1.00  0.00    -0.014 A 
ATOM     74  C   UNL A   1      39.568  29.973  28.584  1.00  0.00     0.010 A 
ATOM     75  C   UNL A   1      40.344  29.815  30.875  1.00  0.00     0.010 A 
ATOM     76  C   UNL A   1      38.320  30.409  29.037  1.00  0.00     0.020 A 
ATOM     77  C   UNL A   1      39.087  30.218  31.334  1.00  0.00     0.020 A 
ATOM     78  C   UNL A   1      38.086  30.525  30.411  1.00  0.00     0.054 A 
BRANCH  78  79
ATOM     79  S   UNL A   1      36.443  31.046  30.977  1.00  0.00     0.124 S 
ATOM     80  O   UNL A   1      35.698  31.123  29.724  1.00  0.00    -0.237 OA
ATOM     81  O   UNL A   1      36.061  29.959  31.875  1.00  0.00    -0.237 OA
ATOM     82  O   UNL A   1      36.696  32.327  31.634  1.00  0.00    -0.744 OA
ENDBRANCH  78  79
ENDBRANCH  50  73
BRANCH  62  83
ATOM     83  C   UNL A   1      46.751  32.876  28.690  1.00  0.00    -0.014 A 
ATOM     84  C   UNL A   1      47.299  33.287  29.919  1.00  0.00     0.010 A 
ATOM     85  C   UNL A   1      46.662  33.804  27.636  1.00  0.00     0.010 A 
ATOM     86  C   UNL A   1      47.710  34.609  30.101  1.00  0.00     0.020 A 
ATOM     87  C   UNL A   1      47.106  35.117  27.802  1.00  0.00     0.020 A 
ATOM     88  C   UNL A   1      47.612  35.516  29.040  1.00  0.00     0.054 A 
BRANCH  88  89
ATOM     89  S   UNL A   1      48.185  37.217  29.294  1.00  0.00     0.124 S 
ATOM     90  O   UNL A   1      47.137  37.768  30.150  1.00  0.00    -0.237 OA
ATOM     91  O   UNL A   1      49.483  37.024  29.934  1.00  0.00    -0.237 OA
ATOM     92  O   UNL A   1      48.239  37.771  27.943  1.00  0.00    -0.744 OA
ENDBRANCH  88  89
ENDBRANCH  62  83
ENDBRANCH  36  37
ENDBRANCH  28  31
ENDBRANCH  26  27
ENDBRANCH  25  26
ENDBRANCH   1  25
TORSDOF 18
ENDMDL
MODEL 3
REMARK VINA RESULT:     -10.3      4.308     10.262
REMARK SMILES COC(=O)[C@H]1CCN(S(=O)(=O)N2CCC[C@H](C(=O)NCCCCNC(=O)c3ccc(-c4c5nc(c(-c6ccc(S(=O)(=O)[O-])cc6)c6ccc([nH]6)c(-c6ccc(S(=O)(=O)[O-])cc6)c6nc(c(-c7ccc(S(=O)(=O)[O-])cc7)c7ccc4[nH]7)C=C6)C=C5)cc3)C2)C1
REMARK SMILES IDX 21 1 20 2 19 3 17 4 18 5 16 7 12 8 13 9 87 10 14 11 15 12
REMARK SMILES IDX 9 13 10 14 11 15 8 16 5 17 6 18 88 19 7 20 3 21 4 22 2 23
REMARK SMILES IDX 1 24 22 25 23 26 24 27 25 28 26 30 27 31 28 32 86 33 29 34
REMARK SMILES IDX 85 35 30 36 31 37 32 38 79 39 33 40 84 41 78 42 80 43 34 44
REMARK SMILES IDX 83 45 77 46 76 47 35 49 65 50 46 51 64 52 47 53 50 54 63 55
REMARK SMILES IDX 81 56 48 57 49 58 62 60 82 61 51 62 36 63 37 64 45 65 38 66
REMARK SMILES IDX 44 67 39 68 40 69 41 70 42 71 43 72 66 73 67 74 75 75 68 76
REMARK SMILES IDX 74 77 69 78 70 79 71 80 72 81 73 82 52 83 53 84 61 85 54 86
REMARK SMILES IDX 60 87 55 88 56 89 57 90 58 91 59 92
REMARK H PARENT 19 6 24 29 80 48 50 59
REMARK Flexibility Score: inf
ROOT
ATOM      1  C   UNL A   1      39.236  22.334  26.338  1.00  0.00     0.023 C 
ENDROOT
BRANCH   1   2
ATOM      2  C   UNL A   1      38.150  23.361  26.040  1.00  0.00     0.116 C 
BRANCH   2   3
ATOM      3  N   UNL A   1      37.711  23.314  24.666  1.00  0.00    -0.356 N 
ATOM      4  C   UNL A   1      36.604  22.781  24.096  1.00  0.00     0.224 C 
ATOM      5  O   UNL A   1      36.471  22.964  22.879  1.00  0.00    -0.275 OA
ATOM      6  H   UNL A   1      38.325  23.747  24.030  1.00  0.00     0.163 HD
BRANCH   4   7
ATOM      7  C   UNL A   1      35.535  21.982  24.843  1.00  0.00     0.094 C 
ATOM      8  N   UNL A   1      33.246  22.904  24.536  1.00  0.00    -0.188 NA
ATOM      9  C   UNL A   1      32.989  23.034  25.978  1.00  0.00     0.103 C 
ATOM     10  C   UNL A   1      34.199  21.860  24.133  1.00  0.00     0.117 C 
ATOM     11  C   UNL A   1      34.295  23.189  26.758  1.00  0.00     0.018 C 
ATOM     12  C   UNL A   1      35.405  22.229  26.344  1.00  0.00     0.016 C 
BRANCH   8  13
ATOM     13  S   UNL A   1      32.051  23.391  23.466  1.00  0.00     0.282 S 
ATOM     14  O   UNL A   1      30.954  23.958  24.206  1.00  0.00    -0.195 OA
ATOM     15  O   UNL A   1      31.843  22.311  22.526  1.00  0.00    -0.195 OA
BRANCH  13  16
ATOM     16  N   UNL A   1      32.819  24.645  22.621  1.00  0.00    -0.188 NA
ATOM     17  C   UNL A   1      32.199  26.986  22.458  1.00  0.00     0.116 C 
ATOM     18  C   UNL A   1      33.017  26.753  23.711  1.00  0.00     0.033 C 
ATOM     19  C   UNL A   1      31.839  25.587  21.971  1.00  0.00     0.118 C 
ATOM     20  C   UNL A   1      33.773  25.488  23.377  1.00  0.00     0.104 C 
BRANCH  17  21
ATOM     21  C   UNL A   1      30.950  27.775  22.744  1.00  0.00     0.310 C 
ATOM     22  O   UNL A   1      29.908  27.305  23.175  1.00  0.00    -0.252 OA
BRANCH  21  23
ATOM     23  O   UNL A   1      31.145  29.087  22.437  1.00  0.00    -0.469 OA
ATOM     24  C   UNL A   1      29.954  29.755  22.015  1.00  0.00     0.282 C 
ENDBRANCH  21  23
ENDBRANCH  17  21
ENDBRANCH  13  16
ENDBRANCH   8  13
ENDBRANCH   4   7
ENDBRANCH   2   3
ENDBRANCH   1   2
BRANCH   1  25
ATOM     25  C   UNL A   1      40.141  22.710  27.501  1.00  0.00     0.023 C 
BRANCH  25  26
ATOM     26  C   UNL A   1      41.552  23.115  27.096  1.00  0.00     0.116 C 
BRANCH  26  27
ATOM     27  N   UNL A   1      41.601  24.041  25.970  1.00  0.00    -0.352 N 
ATOM     28  C   UNL A   1      41.487  25.413  26.002  1.00  0.00     0.251 C 
ATOM     29  H   UNL A   1      41.731  23.638  25.081  1.00  0.00     0.163 HD
ATOM     30  O   UNL A   1      41.418  26.070  24.971  1.00  0.00    -0.269 OA
BRANCH  28  31
ATOM     31  C   UNL A   1      41.402  26.069  27.322  1.00  0.00     0.039 A 
ATOM     32  C   UNL A   1      42.499  26.789  27.795  1.00  0.00     0.014 A 
ATOM     33  C   UNL A   1      40.189  26.075  28.016  1.00  0.00     0.014 A 
ATOM     34  C   UNL A   1      42.347  27.590  28.927  1.00  0.00     0.010 A 
ATOM     35  C   UNL A   1      40.012  26.956  29.073  1.00  0.00     0.010 A 
ATOM     36  C   UNL A   1      41.090  27.722  29.542  1.00  0.00    -0.014 A 
BRANCH  36  37
ATOM     37  C   UNL A   1      40.884  28.663  30.673  1.00  0.00     0.031 A 
ATOM     38  C   UNL A   1      41.740  28.556  31.906  1.00  0.00     0.074 A 
ATOM     39  C   UNL A   1      39.897  29.580  30.609  1.00  0.00     0.049 A 
ATOM     40  N   UNL A   1      41.707  29.280  32.996  1.00  0.00    -0.248 NA
ATOM     41  C   UNL A   1      42.745  27.478  31.935  1.00  0.00     0.031 C 
ATOM     42  C   UNL A   1      38.962  29.743  29.492  1.00  0.00     0.029 A 
ATOM     43  N   UNL A   1      39.517  30.551  31.500  1.00  0.00    -0.354 N 
ATOM     44  C   UNL A   1      42.673  28.740  33.836  1.00  0.00     0.074 A 
ATOM     45  C   UNL A   1      43.227  27.588  33.163  1.00  0.00     0.031 C 
ATOM     46  C   UNL A   1      38.150  30.783  29.744  1.00  0.00     0.029 A 
ATOM     47  C   UNL A   1      38.472  31.331  31.057  1.00  0.00     0.049 A 
ATOM     48  H   UNL A   1      39.951  30.680  32.374  1.00  0.00     0.167 HD
ATOM     49  C   UNL A   1      43.084  29.180  35.049  1.00  0.00     0.031 A 
ATOM     50  C   UNL A   1      37.844  32.369  31.642  1.00  0.00     0.031 A 
ATOM     51  C   UNL A   1      42.533  30.332  35.712  1.00  0.00     0.049 A 
ATOM     52  C   UNL A   1      38.310  32.832  32.997  1.00  0.00     0.074 A 
ATOM     53  C   UNL A   1      42.917  30.895  36.915  1.00  0.00     0.029 A 
ATOM     54  N   UNL A   1      41.476  31.091  35.232  1.00  0.00    -0.354 N 
ATOM     55  N   UNL A   1      39.284  32.360  33.738  1.00  0.00    -0.248 NA
ATOM     56  C   UNL A   1      37.600  33.975  33.587  1.00  0.00     0.031 C 
ATOM     57  C   UNL A   1      42.050  31.955  37.196  1.00  0.00     0.029 A 
ATOM     58  C   UNL A   1      41.172  32.098  36.132  1.00  0.00     0.049 A 
ATOM     59  H   UNL A   1      41.010  30.937  34.379  1.00  0.00     0.167 HD
ATOM     60  C   UNL A   1      39.320  33.165  34.873  1.00  0.00     0.074 A 
ATOM     61  C   UNL A   1      38.286  34.166  34.704  1.00  0.00     0.031 C 
ATOM     62  C   UNL A   1      40.134  33.083  35.954  1.00  0.00     0.031 A 
BRANCH  49  63
ATOM     63  C   UNL A   1      44.181  28.408  35.736  1.00  0.00    -0.014 A 
ATOM     64  C   UNL A   1      43.887  27.331  36.595  1.00  0.00     0.010 A 
ATOM     65  C   UNL A   1      45.526  28.738  35.493  1.00  0.00     0.010 A 
ATOM     66  C   UNL A   1      44.915  26.627  37.227  1.00  0.00     0.020 A 
ATOM     67  C   UNL A   1      46.559  28.014  36.096  1.00  0.00     0.020 A 
ATOM     68  C   UNL A   1      46.246  26.973  36.972  1.00  0.00     0.054 A 
BRANCH  68  69
ATOM     69  S   UNL A   1      47.559  26.019  37.780  1.00  0.00     0.124 S 
ATOM     70  O   UNL A   1      46.996  24.671  37.783  1.00  0.00    -0.237 OA
ATOM     71  O   UNL A   1      48.695  26.221  36.886  1.00  0.00    -0.237 OA
ATOM     72  O   UNL A   1      47.686  26.643  39.094  1.00  0.00    -0.744 OA
ENDBRANCH  68  69
ENDBRANCH  49  63
BRANCH  50  73
ATOM     73  C   UNL A   1      36.718  33.052  30.943  1.00  0.00    -0.014 A 
ATOM     74  C   UNL A   1      35.401  32.943  31.426  1.00  0.00     0.010 A 
ATOM     75  C   UNL A   1      36.960  33.823  29.791  1.00  0.00     0.010 A 
ATOM     76  C   UNL A   1      34.347  33.574  30.760  1.00  0.00     0.020 A 
ATOM     77  C   UNL A   1      35.913  34.482  29.141  1.00  0.00     0.020 A 
ATOM     78  C   UNL A   1      34.610  34.343  29.623  1.00  0.00     0.054 A 
BRANCH  78  79
ATOM     79  S   UNL A   1      33.232  35.193  28.803  1.00  0.00     0.124 S 
ATOM     80  O   UNL A   1      32.458  35.685  29.939  1.00  0.00    -0.237 OA
ATOM     81  O   UNL A   1      33.917  36.213  28.013  1.00  0.00    -0.237 OA
ATOM     82  O   UNL A   1      32.593  34.136  28.022  1.00  0.00    -0.744 OA
ENDBRANCH  78  79
ENDBRANCH  50  73
BRANCH  62  83
ATOM     83  C   UNL A   1      39.960  34.121  37.032  1.00  0.00    -0.014 A 
ATOM     84  C   UNL A   1      40.606  35.369  36.959  1.00  0.00     0.010 A 
ATOM     85  C   UNL A   1      39.096  33.859  38.112  1.00  0.00     0.010 A 
ATOM     86  C   UNL A   1      40.424  36.317  37.969  1.00  0.00     0.020 A 
ATOM     87  C   UNL A   1      38.883  34.819  39.104  1.00  0.00     0.020 A 
ATOM     88  C   UNL A   1      39.562  36.037  39.035  1.00  0.00     0.054 A 
BRANCH  88  89
ATOM     89  S   UNL A   1      39.318  37.300  40.312  1.00  0.00     0.124 S 
ATOM     90  O   UNL A   1      40.692  37.681  40.630  1.00  0.00    -0.237 OA
ATOM     91  O   UNL A   1      38.530  38.312  39.614  1.00  0.00    -0.237 OA
ATOM     92  O   UNL A   1      38.609  36.588  41.373  1.00  0.00    -0.744 OA
ENDBRANCH  88  89
ENDBRANCH  62  83
ENDBRANCH  36  37
ENDBRANCH  28  31
ENDBRANCH  26  27
ENDBRANCH  25  26
ENDBRANCH   1  25
TORSDOF 18
ENDMDL
