MODEL 1
REMARK VINA RESULT:      -9.6      0.000      0.000
REMARK SMILES CCOCCCC(=O)N[C@@H]1COC[C@H]1C(=O)NCCCCNC(=O)c1ccc(-c2c3nc(c(-c4ccc(S(=O)(=O)[O-])cc4)c4ccc([nH]4)c(-c4ccc(S(=O)(=O)[O-])cc4)c4nc(c(-c5ccc(S(=O)(=O)[O-])cc5)c5ccc2[nH]5)C=C4)C=C3)cc1
REMARK SMILES IDX 18 1 17 2 15 3 16 4 14 6 10 7 11 8 12 9 13 10 9 11 7 12 8 13
REMARK SMILES IDX 6 15 5 16 4 17 3 18 2 19 1 20 19 21 20 22 21 23 22 24 23 25
REMARK SMILES IDX 24 27 25 28 26 29 84 30 27 31 83 32 28 33 29 34 30 35 77 36
REMARK SMILES IDX 31 37 82 38 76 39 78 40 32 41 81 42 75 43 74 44 33 46 63 47
REMARK SMILES IDX 44 48 62 49 45 50 48 51 61 52 79 53 46 54 47 55 60 57 80 58
REMARK SMILES IDX 49 59 34 60 35 61 43 62 36 63 42 64 37 65 38 66 39 67 40 68
REMARK SMILES IDX 41 69 64 70 65 71 73 72 66 73 72 74 67 75 68 76 69 77 70 78
REMARK SMILES IDX 71 79 50 80 51 81 59 82 52 83 58 84 53 85 54 86 55 87 56 88
REMARK SMILES IDX 57 89
REMARK H PARENT 17 5 9 14 22 26 78 45 48 56
REMARK Flexibility Score: inf
ROOT
ATOM      1  C   UNL A   1      31.628  25.759  26.526  1.00  0.00     0.116 C 
ENDROOT
BRANCH   1   2
ATOM      2  N   UNL A   1      32.951  25.359  26.080  1.00  0.00    -0.356 N 
ATOM      3  C   UNL A   1      33.437  24.937  24.886  1.00  0.00     0.227 C 
ATOM      4  O   UNL A   1      34.646  24.683  24.838  1.00  0.00    -0.275 OA
ATOM      5  H   UNL A   1      33.634  25.402  26.789  1.00  0.00     0.163 HD
BRANCH   3   6
ATOM      6  C   UNL A   1      32.617  24.833  23.612  1.00  0.00     0.129 C 
ATOM      7  C   UNL A   1      32.042  26.140  23.077  1.00  0.00     0.122 C 
ATOM      8  C   UNL A   1      32.729  26.275  21.732  1.00  0.00     0.185 C 
ATOM      9  O   UNL A   1      33.811  25.348  21.646  1.00  0.00    -0.378 OA
ATOM     10  C   UNL A   1      33.478  24.261  22.500  1.00  0.00     0.176 C 
BRANCH   7  11
ATOM     11  N   UNL A   1      30.570  26.185  23.066  1.00  0.00    -0.350 N 
ATOM     12  C   UNL A   1      29.697  27.144  23.502  1.00  0.00     0.220 C 
ATOM     13  O   UNL A   1      28.617  26.759  23.959  1.00  0.00    -0.275 OA
ATOM     14  H   UNL A   1      30.140  25.389  22.679  1.00  0.00     0.163 HD
BRANCH  12  15
ATOM     15  C   UNL A   1      29.944  28.633  23.309  1.00  0.00     0.102 C 
BRANCH  15  16
ATOM     16  C   UNL A   1      28.745  29.491  22.916  1.00  0.00     0.038 C 
BRANCH  16  17
ATOM     17  C   UNL A   1      28.742  30.940  23.449  1.00  0.00     0.160 C 
BRANCH  17  18
ATOM     18  O   UNL A   1      28.698  31.911  22.412  1.00  0.00    -0.382 OA
BRANCH  18  19
ATOM     19  C   UNL A   1      28.182  31.462  21.162  1.00  0.00     0.156 C 
ATOM     20  C   UNL A   1      27.757  32.668  20.333  1.00  0.00     0.035 C 
ENDBRANCH  18  19
ENDBRANCH  17  18
ENDBRANCH  16  17
ENDBRANCH  15  16
ENDBRANCH  12  15
ENDBRANCH   7  11
ENDBRANCH   3   6
ENDBRANCH   1   2
BRANCH   1  21
ATOM     21  C   UNL A   1      31.571  27.232  26.937  1.00  0.00     0.023 C 
BRANCH  21  22
ATOM     22  C   UNL A   1      32.609  28.114  26.250  1.00  0.00     0.023 C 
BRANCH  22  23
ATOM     23  C   UNL A   1      33.775  28.516  27.135  1.00  0.00     0.116 C 
BRANCH  23  24
ATOM     24  N   UNL A   1      33.677  29.888  27.616  1.00  0.00    -0.352 N 
ATOM     25  C   UNL A   1      34.647  30.622  28.256  1.00  0.00     0.251 C 
ATOM     26  H   UNL A   1      32.816  30.342  27.463  1.00  0.00     0.163 HD
ATOM     27  O   UNL A   1      34.396  31.728  28.724  1.00  0.00    -0.269 OA
BRANCH  25  28
ATOM     28  C   UNL A   1      35.986  30.021  28.401  1.00  0.00     0.039 A 
ATOM     29  C   UNL A   1      36.870  30.071  27.324  1.00  0.00     0.014 A 
ATOM     30  C   UNL A   1      36.393  29.529  29.645  1.00  0.00     0.014 A 
ATOM     31  C   UNL A   1      38.200  29.701  27.519  1.00  0.00     0.010 A 
ATOM     32  C   UNL A   1      37.734  29.235  29.854  1.00  0.00     0.010 A 
ATOM     33  C   UNL A   1      38.652  29.327  28.797  1.00  0.00    -0.014 A 
BRANCH  33  34
ATOM     34  C   UNL A   1      40.087  29.058  29.055  1.00  0.00     0.031 A 
ATOM     35  C   UNL A   1      40.677  27.721  28.703  1.00  0.00     0.074 A 
ATOM     36  C   UNL A   1      40.835  29.991  29.679  1.00  0.00     0.049 A 
ATOM     37  N   UNL A   1      41.893  27.282  28.903  1.00  0.00    -0.248 NA
ATOM     38  C   UNL A   1      39.780  26.743  28.066  1.00  0.00     0.031 C 
ATOM     39  C   UNL A   1      40.360  31.305  30.123  1.00  0.00     0.029 A 
ATOM     40  N   UNL A   1      42.155  29.975  30.056  1.00  0.00    -0.354 N 
ATOM     41  C   UNL A   1      41.900  25.973  28.435  1.00  0.00     0.074 A 
ATOM     42  C   UNL A   1      40.560  25.674  27.985  1.00  0.00     0.031 C 
ATOM     43  C   UNL A   1      41.378  31.974  30.686  1.00  0.00     0.029 A 
ATOM     44  C   UNL A   1      42.566  31.128  30.680  1.00  0.00     0.049 A 
ATOM     45  H   UNL A   1      42.751  29.207  29.894  1.00  0.00     0.167 HD
ATOM     46  C   UNL A   1      42.939  25.106  28.367  1.00  0.00     0.031 A 
ATOM     47  C   UNL A   1      43.764  31.465  31.196  1.00  0.00     0.031 A 
ATOM     48  C   UNL A   1      44.274  25.413  28.803  1.00  0.00     0.049 A 
ATOM     49  C   UNL A   1      44.900  30.484  31.106  1.00  0.00     0.074 A 
ATOM     50  C   UNL A   1      45.409  24.627  28.712  1.00  0.00     0.029 A 
ATOM     51  N   UNL A   1      44.654  26.598  29.414  1.00  0.00    -0.354 N 
ATOM     52  N   UNL A   1      44.908  29.281  30.584  1.00  0.00    -0.248 NA
ATOM     53  C   UNL A   1      46.191  30.910  31.666  1.00  0.00     0.031 C 
ATOM     54  C   UNL A   1      46.466  25.317  29.314  1.00  0.00     0.029 A 
ATOM     55  C   UNL A   1      46.001  26.555  29.731  1.00  0.00     0.049 A 
ATOM     56  H   UNL A   1      44.055  27.358  29.596  1.00  0.00     0.167 HD
ATOM     57  C   UNL A   1      46.209  28.812  30.736  1.00  0.00     0.074 A 
ATOM     58  C   UNL A   1      46.962  29.870  31.380  1.00  0.00     0.031 C 
ATOM     59  C   UNL A   1      46.732  27.614  30.377  1.00  0.00     0.031 A 
BRANCH  46  60
ATOM     60  C   UNL A   1      42.667  23.739  27.798  1.00  0.00    -0.014 A 
ATOM     61  C   UNL A   1      42.831  23.481  26.425  1.00  0.00     0.010 A 
ATOM     62  C   UNL A   1      42.285  22.690  28.652  1.00  0.00     0.010 A 
ATOM     63  C   UNL A   1      42.585  22.206  25.911  1.00  0.00     0.020 A 
ATOM     64  C   UNL A   1      42.065  21.405  28.146  1.00  0.00     0.020 A 
ATOM     65  C   UNL A   1      42.201  21.176  26.775  1.00  0.00     0.054 A 
BRANCH  65  66
ATOM     66  S   UNL A   1      41.921  19.522  26.085  1.00  0.00     0.124 S 
ATOM     67  O   UNL A   1      40.486  19.548  25.814  1.00  0.00    -0.237 OA
ATOM     68  O   UNL A   1      42.782  19.517  24.905  1.00  0.00    -0.237 OA
ATOM     69  O   UNL A   1      42.336  18.622  27.158  1.00  0.00    -0.744 OA
ENDBRANCH  65  66
ENDBRANCH  46  60
BRANCH  47  70
ATOM     70  C   UNL A   1      43.952  32.796  31.836  1.00  0.00    -0.014 A 
ATOM     71  C   UNL A   1      44.293  33.919  31.061  1.00  0.00     0.010 A 
ATOM     72  C   UNL A   1      43.784  32.949  33.224  1.00  0.00     0.010 A 
ATOM     73  C   UNL A   1      44.481  35.165  31.665  1.00  0.00     0.020 A 
ATOM     74  C   UNL A   1      43.944  34.199  33.828  1.00  0.00     0.020 A 
ATOM     75  C   UNL A   1      44.305  35.298  33.045  1.00  0.00     0.054 A 
BRANCH  75  76
ATOM     76  S   UNL A   1      44.506  36.936  33.801  1.00  0.00     0.124 S 
ATOM     77  O   UNL A   1      43.126  37.402  33.884  1.00  0.00    -0.237 OA
ATOM     78  O   UNL A   1      45.146  36.619  35.075  1.00  0.00    -0.237 OA
ATOM     79  O   UNL A   1      45.353  37.649  32.847  1.00  0.00    -0.744 OA
ENDBRANCH  75  76
ENDBRANCH  47  70
BRANCH  59  80
ATOM     80  C   UNL A   1      48.194  27.389  30.656  1.00  0.00    -0.014 A 
ATOM     81  C   UNL A   1      48.621  26.808  31.862  1.00  0.00     0.010 A 
ATOM     82  C   UNL A   1      49.147  27.714  29.673  1.00  0.00     0.010 A 
ATOM     83  C   UNL A   1      49.980  26.583  32.094  1.00  0.00     0.020 A 
ATOM     84  C   UNL A   1      50.503  27.466  29.891  1.00  0.00     0.020 A 
ATOM     85  C   UNL A   1      50.913  26.914  31.106  1.00  0.00     0.054 A 
BRANCH  85  86
ATOM     86  S   UNL A   1      52.668  26.572  31.414  1.00  0.00     0.124 S 
ATOM     87  O   UNL A   1      53.248  26.746  30.084  1.00  0.00    -0.237 OA
ATOM     88  O   UNL A   1      53.026  27.593  32.395  1.00  0.00    -0.237 OA
ATOM     89  O   UNL A   1      52.670  25.202  31.920  1.00  0.00    -0.744 OA
ENDBRANCH  85  86
ENDBRANCH  59  80
ENDBRANCH  33  34
ENDBRANCH  25  28
ENDBRANCH  23  24
ENDBRANCH  22  23
ENDBRANCH  21  22
ENDBRANCH   1  21
TORSDOF 20
ENDMDL
MODEL 2
REMARK VINA RESULT:      -9.1      5.567     10.951
REMARK SMILES CCOCCCC(=O)N[C@@H]1COC[C@H]1C(=O)NCCCCNC(=O)c1ccc(-c2c3nc(c(-c4ccc(S(=O)(=O)[O-])cc4)c4ccc([nH]4)c(-c4ccc(S(=O)(=O)[O-])cc4)c4nc(c(-c5ccc(S(=O)(=O)[O-])cc5)c5ccc2[nH]5)C=C4)C=C3)cc1
REMARK SMILES IDX 18 1 17 2 15 3 16 4 14 6 10 7 11 8 12 9 13 10 9 11 7 12 8 13
REMARK SMILES IDX 6 15 5 16 4 17 3 18 2 19 1 20 19 21 20 22 21 23 22 24 23 25
REMARK SMILES IDX 24 27 25 28 26 29 84 30 27 31 83 32 28 33 29 34 30 35 77 36
REMARK SMILES IDX 31 37 82 38 76 39 78 40 32 41 81 42 75 43 74 44 33 46 63 47
REMARK SMILES IDX 44 48 62 49 45 50 48 51 61 52 79 53 46 54 47 55 60 57 80 58
REMARK SMILES IDX 49 59 34 60 35 61 43 62 36 63 42 64 37 65 38 66 39 67 40 68
REMARK SMILES IDX 41 69 64 70 65 71 73 72 66 73 72 74 67 75 68 76 69 77 70 78
REMARK SMILES IDX 71 79 50 80 51 81 59 82 52 83 58 84 53 85 54 86 55 87 56 88
REMARK SMILES IDX 57 89
REMARK H PARENT 17 5 9 14 22 26 78 45 48 56
REMARK Flexibility Score: inf
ROOT
ATOM      1  C   UNL A   1      39.840  21.502  26.487  1.00  0.00     0.116 C 
ENDROOT
BRANCH   1   2
ATOM      2  N   UNL A   1      39.206  22.809  26.500  1.00  0.00    -0.356 N 
ATOM      3  C   UNL A   1      38.006  23.259  26.055  1.00  0.00     0.227 C 
ATOM      4  O   UNL A   1      37.760  24.458  26.239  1.00  0.00    -0.275 OA
ATOM      5  H   UNL A   1      39.759  23.510  26.915  1.00  0.00     0.163 HD
BRANCH   3   6
ATOM      6  C   UNL A   1      36.936  22.382  25.427  1.00  0.00     0.129 C 
ATOM      7  C   UNL A   1      35.524  22.958  25.409  1.00  0.00     0.122 C 
ATOM      8  C   UNL A   1      35.236  23.076  23.926  1.00  0.00     0.185 C 
ATOM      9  O   UNL A   1      36.444  22.911  23.184  1.00  0.00    -0.378 OA
ATOM     10  C   UNL A   1      37.298  22.100  23.980  1.00  0.00     0.176 C 
BRANCH   7  11
ATOM     11  N   UNL A   1      34.554  22.185  26.204  1.00  0.00    -0.350 N 
ATOM     12  C   UNL A   1      33.746  21.135  25.862  1.00  0.00     0.220 C 
ATOM     13  O   UNL A   1      32.650  21.061  26.423  1.00  0.00    -0.275 OA
ATOM     14  H   UNL A   1      34.472  22.473  27.141  1.00  0.00     0.163 HD
BRANCH  12  15
ATOM     15  C   UNL A   1      34.205  20.005  24.951  1.00  0.00     0.102 C 
BRANCH  15  16
ATOM     16  C   UNL A   1      33.120  19.227  24.211  1.00  0.00     0.038 C 
BRANCH  16  17
ATOM     17  C   UNL A   1      32.850  17.793  24.716  1.00  0.00     0.160 C 
BRANCH  17  18
ATOM     18  O   UNL A   1      33.967  16.928  24.551  1.00  0.00    -0.382 OA
BRANCH  18  19
ATOM     19  C   UNL A   1      33.861  15.652  25.175  1.00  0.00     0.156 C 
ATOM     20  C   UNL A   1      32.435  15.454  25.673  1.00  0.00     0.035 C 
ENDBRANCH  18  19
ENDBRANCH  17  18
ENDBRANCH  16  17
ENDBRANCH  15  16
ENDBRANCH  12  15
ENDBRANCH   7  11
ENDBRANCH   3   6
ENDBRANCH   1   2
BRANCH   1  21
ATOM     21  C   UNL A   1      41.070  21.442  27.395  1.00  0.00     0.023 C 
BRANCH  21  22
ATOM     22  C   UNL A   1      42.354  21.948  26.746  1.00  0.00     0.023 C 
BRANCH  22  23
ATOM     23  C   UNL A   1      42.663  23.408  27.023  1.00  0.00     0.116 C 
BRANCH  23  24
ATOM     24  N   UNL A   1      42.231  24.294  25.950  1.00  0.00    -0.352 N 
ATOM     25  C   UNL A   1      41.725  25.567  26.068  1.00  0.00     0.251 C 
ATOM     26  H   UNL A   1      42.311  23.940  25.034  1.00  0.00     0.163 HD
ATOM     27  O   UNL A   1      41.278  26.162  25.093  1.00  0.00    -0.269 OA
BRANCH  25  28
ATOM     28  C   UNL A   1      41.695  26.177  27.411  1.00  0.00     0.039 A 
ATOM     29  C   UNL A   1      42.665  27.122  27.745  1.00  0.00     0.014 A 
ATOM     30  C   UNL A   1      40.631  25.901  28.274  1.00  0.00     0.014 A 
ATOM     31  C   UNL A   1      42.521  27.856  28.922  1.00  0.00     0.010 A 
ATOM     32  C   UNL A   1      40.451  26.687  29.405  1.00  0.00     0.010 A 
ATOM     33  C   UNL A   1      41.388  27.678  29.734  1.00  0.00    -0.014 A 
BRANCH  33  34
ATOM     34  C   UNL A   1      41.148  28.539  30.917  1.00  0.00     0.031 A 
ATOM     35  C   UNL A   1      40.046  29.561  30.894  1.00  0.00     0.074 A 
ATOM     36  C   UNL A   1      41.975  28.452  31.980  1.00  0.00     0.049 A 
ATOM     37  N   UNL A   1      39.721  30.440  31.806  1.00  0.00    -0.248 NA
ATOM     38  C   UNL A   1      39.218  29.620  29.678  1.00  0.00     0.031 C 
ATOM     39  C   UNL A   1      43.117  27.540  32.096  1.00  0.00     0.029 A 
ATOM     40  N   UNL A   1      41.988  29.148  33.163  1.00  0.00    -0.354 N 
ATOM     41  C   UNL A   1      38.665  31.166  31.268  1.00  0.00     0.074 A 
ATOM     42  C   UNL A   1      38.436  30.659  29.934  1.00  0.00     0.031 C 
ATOM     43  C   UNL A   1      43.700  27.715  33.293  1.00  0.00     0.029 A 
ATOM     44  C   UNL A   1      43.002  28.775  34.013  1.00  0.00     0.049 A 
ATOM     45  H   UNL A   1      41.332  29.850  33.382  1.00  0.00     0.167 HD
ATOM     46  C   UNL A   1      37.939  32.153  31.843  1.00  0.00     0.031 A 
ATOM     47  C   UNL A   1      43.337  29.239  35.232  1.00  0.00     0.031 A 
ATOM     48  C   UNL A   1      38.161  32.645  33.176  1.00  0.00     0.049 A 
ATOM     49  C   UNL A   1      42.513  30.335  35.849  1.00  0.00     0.074 A 
ATOM     50  C   UNL A   1      37.436  33.593  33.874  1.00  0.00     0.029 A 
ATOM     51  N   UNL A   1      39.188  32.230  34.012  1.00  0.00    -0.354 N 
ATOM     52  N   UNL A   1      41.466  30.953  35.357  1.00  0.00    -0.248 NA
ATOM     53  C   UNL A   1      42.909  30.790  37.189  1.00  0.00     0.031 C 
ATOM     54  C   UNL A   1      38.053  33.789  35.114  1.00  0.00     0.029 A 
ATOM     55  C   UNL A   1      39.131  32.922  35.209  1.00  0.00     0.049 A 
ATOM     56  H   UNL A   1      39.857  31.544  33.786  1.00  0.00     0.167 HD
ATOM     57  C   UNL A   1      41.067  31.857  36.335  1.00  0.00     0.074 A 
ATOM     58  C   UNL A   1      41.973  31.690  37.454  1.00  0.00     0.031 C 
ATOM     59  C   UNL A   1      40.044  32.747  36.309  1.00  0.00     0.031 A 
BRANCH  46  60
ATOM     60  C   UNL A   1      36.832  32.768  31.029  1.00  0.00    -0.014 A 
ATOM     61  C   UNL A   1      35.491  32.397  31.234  1.00  0.00     0.010 A 
ATOM     62  C   UNL A   1      37.131  33.759  30.078  1.00  0.00     0.010 A 
ATOM     63  C   UNL A   1      34.472  32.981  30.479  1.00  0.00     0.020 A 
ATOM     64  C   UNL A   1      36.111  34.366  29.339  1.00  0.00     0.020 A 
ATOM     65  C   UNL A   1      34.789  33.962  29.534  1.00  0.00     0.054 A 
BRANCH  65  66
ATOM     66  S   UNL A   1      33.443  34.727  28.591  1.00  0.00     0.124 S 
ATOM     67  O   UNL A   1      32.464  35.010  29.638  1.00  0.00    -0.237 OA
ATOM     68  O   UNL A   1      34.088  35.898  28.002  1.00  0.00    -0.237 OA
ATOM     69  O   UNL A   1      33.052  33.691  27.638  1.00  0.00    -0.744 OA
ENDBRANCH  65  66
ENDBRANCH  46  60
BRANCH  47  70
ATOM     70  C   UNL A   1      44.504  28.661  35.954  1.00  0.00    -0.014 A 
ATOM     71  C   UNL A   1      44.336  27.565  36.820  1.00  0.00     0.010 A 
ATOM     72  C   UNL A   1      45.790  29.199  35.775  1.00  0.00     0.010 A 
ATOM     73  C   UNL A   1      45.430  27.030  37.506  1.00  0.00     0.020 A 
ATOM     74  C   UNL A   1      46.892  28.651  36.439  1.00  0.00     0.020 A 
ATOM     75  C   UNL A   1      46.701  27.577  37.311  1.00  0.00     0.054 A 
BRANCH  75  76
ATOM     76  S   UNL A   1      48.115  26.837  38.176  1.00  0.00     0.124 S 
ATOM     77  O   UNL A   1      49.192  27.764  37.844  1.00  0.00    -0.237 OA
ATOM     78  O   UNL A   1      47.676  26.847  39.568  1.00  0.00    -0.237 OA
ATOM     79  O   UNL A   1      48.224  25.509  37.575  1.00  0.00    -0.744 OA
ENDBRANCH  75  76
ENDBRANCH  47  70
BRANCH  59  80
ATOM     80  C   UNL A   1      39.838  33.596  37.534  1.00  0.00    -0.014 A 
ATOM     81  C   UNL A   1      40.524  34.812  37.697  1.00  0.00     0.010 A 
ATOM     82  C   UNL A   1      38.904  33.197  38.507  1.00  0.00     0.010 A 
ATOM     83  C   UNL A   1      40.302  35.601  38.828  1.00  0.00     0.020 A 
ATOM     84  C   UNL A   1      38.660  33.996  39.626  1.00  0.00     0.020 A 
ATOM     85  C   UNL A   1      39.372  35.187  39.786  1.00  0.00     0.054 A 
BRANCH  85  86
ATOM     86  S   UNL A   1      39.069  36.249  41.226  1.00  0.00     0.124 S 
ATOM     87  O   UNL A   1      38.720  37.520  40.597  1.00  0.00    -0.237 OA
ATOM     88  O   UNL A   1      37.974  35.562  41.906  1.00  0.00    -0.237 OA
ATOM     89  O   UNL A   1      40.343  36.236  41.940  1.00  0.00    -0.744 OA
ENDBRANCH  85  86
ENDBRANCH  59  80
ENDBRANCH  33  34
ENDBRANCH  25  28
ENDBRANCH  23  24
ENDBRANCH  22  23
ENDBRANCH  21  22
ENDBRANCH   1  21
TORSDOF 20
ENDMDL
MODEL 3
REMARK VINA RESULT:      -9.0      5.082     10.176
REMARK SMILES CCOCCCC(=O)N[C@@H]1COC[C@H]1C(=O)NCCCCNC(=O)c1ccc(-c2c3nc(c(-c4ccc(S(=O)(=O)[O-])cc4)c4ccc([nH]4)c(-c4ccc(S(=O)(=O)[O-])cc4)c4nc(c(-c5ccc(S(=O)(=O)[O-])cc5)c5ccc2[nH]5)C=C4)C=C3)cc1
REMARK SMILES IDX 18 1 17 2 15 3 16 4 14 6 10 7 11 8 12 9 13 10 9 11 7 12 8 13
REMARK SMILES IDX 6 15 5 16 4 17 3 18 2 19 1 20 19 21 20 22 21 23 22 24 23 25
REMARK SMILES IDX 24 27 25 28 26 29 84 30 27 31 83 32 28 33 29 34 30 35 77 36
REMARK SMILES IDX 31 37 82 38 76 39 78 40 32 41 81 42 75 43 74 44 33 46 63 47
REMARK SMILES IDX 44 48 62 49 45 50 48 51 61 52 79 53 46 54 47 55 60 57 80 58
REMARK SMILES IDX 49 59 34 60 35 61 43 62 36 63 42 64 37 65 38 66 39 67 40 68
REMARK SMILES IDX 41 69 64 70 65 71 73 72 66 73 72 74 67 75 68 76 69 77 70 78
REMARK SMILES IDX 71 79 50 80 51 81 59 82 52 83 58 84 53 85 54 86 55 87 56 88
REMARK SMILES IDX 57 89
REMARK H PARENT 17 5 9 14 22 26 78 45 48 56
REMARK Flexibility Score: inf
ROOT
ATOM      1  C   UNL A   1      39.914  21.448  26.335  1.00  0.00     0.116 C 
ENDROOT
BRANCH   1   2
ATOM      2  N   UNL A   1      39.459  22.827  26.279  1.00  0.00    -0.356 N 
ATOM      3  C   UNL A   1      38.260  23.395  25.995  1.00  0.00     0.227 C 
ATOM      4  O   UNL A   1      38.205  24.629  26.052  1.00  0.00    -0.275 OA
ATOM      5  H   UNL A   1      40.164  23.482  26.489  1.00  0.00     0.163 HD
BRANCH   3   6
ATOM      6  C   UNL A   1      36.990  22.618  25.693  1.00  0.00     0.129 C 
ATOM      7  C   UNL A   1      35.680  23.328  26.016  1.00  0.00     0.122 C 
ATOM      8  C   UNL A   1      35.031  23.456  24.651  1.00  0.00     0.185 C 
ATOM      9  O   UNL A   1      35.987  23.165  23.632  1.00  0.00    -0.378 OA
ATOM     10  C   UNL A   1      36.940  22.284  24.213  1.00  0.00     0.176 C 
BRANCH   7  11
ATOM     11  N   UNL A   1      34.880  22.663  27.059  1.00  0.00    -0.350 N 
ATOM     12  C   UNL A   1      33.779  21.856  26.970  1.00  0.00     0.220 C 
ATOM     13  O   UNL A   1      32.953  21.927  27.883  1.00  0.00    -0.275 OA
ATOM     14  H   UNL A   1      35.191  22.828  27.978  1.00  0.00     0.163 HD
BRANCH  12  15
ATOM     15  C   UNL A   1      33.620  20.797  25.889  1.00  0.00     0.102 C 
BRANCH  15  16
ATOM     16  C   UNL A   1      32.303  20.785  25.118  1.00  0.00     0.038 C 
BRANCH  16  17
ATOM     17  C   UNL A   1      31.870  22.129  24.492  1.00  0.00     0.160 C 
BRANCH  17  18
ATOM     18  O   UNL A   1      30.977  22.863  25.319  1.00  0.00    -0.382 OA
BRANCH  18  19
ATOM     19  C   UNL A   1      30.970  24.274  25.126  1.00  0.00     0.156 C 
ATOM     20  C   UNL A   1      31.855  24.929  26.179  1.00  0.00     0.035 C 
ENDBRANCH  18  19
ENDBRANCH  17  18
ENDBRANCH  16  17
ENDBRANCH  15  16
ENDBRANCH  12  15
ENDBRANCH   7  11
ENDBRANCH   3   6
ENDBRANCH   1   2
BRANCH   1  21
ATOM     21  C   UNL A   1      41.034  21.244  27.358  1.00  0.00     0.023 C 
BRANCH  21  22
ATOM     22  C   UNL A   1      42.407  21.709  26.884  1.00  0.00     0.023 C 
BRANCH  22  23
ATOM     23  C   UNL A   1      42.705  23.172  27.165  1.00  0.00     0.116 C 
BRANCH  23  24
ATOM     24  N   UNL A   1      42.444  24.034  26.020  1.00  0.00    -0.352 N 
ATOM     25  C   UNL A   1      42.067  25.356  26.036  1.00  0.00     0.251 C 
ATOM     26  H   UNL A   1      42.550  23.622  25.132  1.00  0.00     0.163 HD
ATOM     27  O   UNL A   1      41.755  25.937  25.002  1.00  0.00    -0.269 OA
BRANCH  25  28
ATOM     28  C   UNL A   1      42.008  26.042  27.341  1.00  0.00     0.039 A 
ATOM     29  C   UNL A   1      42.988  26.985  27.654  1.00  0.00     0.014 A 
ATOM     30  C   UNL A   1      40.912  25.836  28.183  1.00  0.00     0.014 A 
ATOM     31  C   UNL A   1      42.822  27.787  28.783  1.00  0.00     0.010 A 
ATOM     32  C   UNL A   1      40.713  26.688  29.262  1.00  0.00     0.010 A 
ATOM     33  C   UNL A   1      41.660  27.677  29.566  1.00  0.00    -0.014 A 
BRANCH  33  34
ATOM     34  C   UNL A   1      41.401  28.608  30.691  1.00  0.00     0.031 A 
ATOM     35  C   UNL A   1      42.207  28.503  31.955  1.00  0.00     0.074 A 
ATOM     36  C   UNL A   1      40.389  29.496  30.599  1.00  0.00     0.049 A 
ATOM     37  N   UNL A   1      42.090  29.189  33.063  1.00  0.00    -0.248 NA
ATOM     38  C   UNL A   1      43.263  27.479  31.989  1.00  0.00     0.031 C 
ATOM     39  C   UNL A   1      39.499  29.653  29.444  1.00  0.00     0.029 A 
ATOM     40  N   UNL A   1      39.932  30.427  31.496  1.00  0.00    -0.354 N 
ATOM     41  C   UNL A   1      43.043  28.667  33.929  1.00  0.00     0.074 A 
ATOM     42  C   UNL A   1      43.696  27.578  33.238  1.00  0.00     0.031 C 
ATOM     43  C   UNL A   1      38.623  30.639  29.696  1.00  0.00     0.029 A 
ATOM     44  C   UNL A   1      38.861  31.158  31.038  1.00  0.00     0.049 A 
ATOM     45  H   UNL A   1      40.334  30.561  32.386  1.00  0.00     0.167 HD
ATOM     46  C   UNL A   1      43.360  29.074  35.182  1.00  0.00     0.031 A 
ATOM     47  C   UNL A   1      38.145  32.131  31.634  1.00  0.00     0.031 A 
ATOM     48  C   UNL A   1      42.717  30.167  35.860  1.00  0.00     0.049 A 
ATOM     49  C   UNL A   1      38.518  32.564  33.025  1.00  0.00     0.074 A 
ATOM     50  C   UNL A   1      43.012  30.700  37.102  1.00  0.00     0.029 A 
ATOM     51  N   UNL A   1      41.648  30.892  35.356  1.00  0.00    -0.354 N 
ATOM     52  N   UNL A   1      39.478  32.114  33.797  1.00  0.00    -0.248 NA
ATOM     53  C   UNL A   1      37.719  33.644  33.621  1.00  0.00     0.031 C 
ATOM     54  C   UNL A   1      42.089  31.715  37.371  1.00  0.00     0.029 A 
ATOM     55  C   UNL A   1      41.253  31.851  36.273  1.00  0.00     0.049 A 
ATOM     56  H   UNL A   1      41.231  30.746  34.476  1.00  0.00     0.167 HD
ATOM     57  C   UNL A   1      39.410  32.867  34.964  1.00  0.00     0.074 A 
ATOM     58  C   UNL A   1      38.328  33.816  34.786  1.00  0.00     0.031 C 
ATOM     59  C   UNL A   1      40.171  32.782  36.082  1.00  0.00     0.031 A 
BRANCH  46  60
ATOM     60  C   UNL A   1      44.454  28.329  35.899  1.00  0.00    -0.014 A 
ATOM     61  C   UNL A   1      45.743  28.878  36.021  1.00  0.00     0.010 A 
ATOM     62  C   UNL A   1      44.178  27.087  36.497  1.00  0.00     0.010 A 
ATOM     63  C   UNL A   1      46.747  28.181  36.698  1.00  0.00     0.020 A 
ATOM     64  C   UNL A   1      45.172  26.399  37.199  1.00  0.00     0.020 A 
ATOM     65  C   UNL A   1      46.455  26.944  37.281  1.00  0.00     0.054 A 
BRANCH  65  66
ATOM     66  S   UNL A   1      47.769  26.078  38.182  1.00  0.00     0.124 S 
ATOM     67  O   UNL A   1      47.986  24.903  37.342  1.00  0.00    -0.237 OA
ATOM     68  O   UNL A   1      48.854  27.055  38.187  1.00  0.00    -0.237 OA
ATOM     69  O   UNL A   1      47.174  25.807  39.489  1.00  0.00    -0.744 OA
ENDBRANCH  65  66
ENDBRANCH  46  60
BRANCH  47  70
ATOM     70  C   UNL A   1      37.009  32.768  30.914  1.00  0.00    -0.014 A 
ATOM     71  C   UNL A   1      35.707  32.250  31.036  1.00  0.00     0.010 A 
ATOM     72  C   UNL A   1      37.221  33.900  30.107  1.00  0.00     0.010 A 
ATOM     73  C   UNL A   1      34.642  32.841  30.350  1.00  0.00     0.020 A 
ATOM     74  C   UNL A   1      36.154  34.511  29.441  1.00  0.00     0.020 A 
ATOM     75  C   UNL A   1      34.873  33.969  29.557  1.00  0.00     0.054 A 
BRANCH  75  76
ATOM     76  S   UNL A   1      33.468  34.749  28.714  1.00  0.00     0.124 S 
ATOM     77  O   UNL A   1      32.960  33.654  27.894  1.00  0.00    -0.237 OA
ATOM     78  O   UNL A   1      32.616  35.155  29.828  1.00  0.00    -0.237 OA
ATOM     79  O   UNL A   1      34.083  35.852  27.977  1.00  0.00    -0.744 OA
ENDBRANCH  75  76
ENDBRANCH  47  70
BRANCH  59  80
ATOM     80  C   UNL A   1      39.874  33.750  37.194  1.00  0.00    -0.014 A 
ATOM     81  C   UNL A   1      38.878  33.478  38.147  1.00  0.00     0.010 A 
ATOM     82  C   UNL A   1      40.643  34.923  37.318  1.00  0.00     0.010 A 
ATOM     83  C   UNL A   1      38.632  34.376  39.187  1.00  0.00     0.020 A 
ATOM     84  C   UNL A   1      40.418  35.810  38.372  1.00  0.00     0.020 A 
ATOM     85  C   UNL A   1      39.404  35.538  39.293  1.00  0.00     0.054 A 
BRANCH  85  86
ATOM     86  S   UNL A   1      39.095  36.668  40.679  1.00  0.00     0.124 S 
ATOM     87  O   UNL A   1      40.449  36.946  41.150  1.00  0.00    -0.237 OA
ATOM     88  O   UNL A   1      38.412  37.786  40.034  1.00  0.00    -0.237 OA
ATOM     89  O   UNL A   1      38.267  35.882  41.589  1.00  0.00    -0.744 OA
ENDBRANCH  85  86
ENDBRANCH  59  80
ENDBRANCH  33  34
ENDBRANCH  25  28
ENDBRANCH  23  24
ENDBRANCH  22  23
ENDBRANCH  21  22
ENDBRANCH   1  21
TORSDOF 20
ENDMDL
