MODEL 1
REMARK VINA RESULT:     -11.0      0.000      0.000
REMARK SMILES COc1ccc(CCN2C(=O)CC[C@@H](C(=O)NCCCCNC(=O)c3ccc(-c4c5nc(c(-c6ccc(S(=O)(=O)[O-])cc6)c6ccc([nH]6)c(-c6ccc(S(=O)(=O)[O-])cc6)c6nc(c(-c7ccc(S(=O)(=O)[O-])cc7)c7ccc4[nH]7)C=C6)C=C5)cc3)[C@@H]2c2ccc(Cl)cc2)cc1OC
REMARK SMILES IDX 19 1 18 2 17 3 15 4 16 5 14 7 9 8 10 9 85 10 11 11 12 12
REMARK SMILES IDX 13 13 8 14 7 15 6 16 3 17 4 18 94 19 5 20 93 21 2 22 1 23
REMARK SMILES IDX 95 24 96 25 86 26 87 27 92 28 88 29 91 30 89 31 90 32 20 33
REMARK SMILES IDX 21 34 22 35 23 36 24 38 25 39 26 40 84 41 27 42 83 43 28 44
REMARK SMILES IDX 29 45 30 46 77 47 31 48 82 49 76 50 78 51 32 52 81 53 75 54
REMARK SMILES IDX 74 55 33 57 63 58 44 59 62 60 45 61 48 62 61 63 79 64 46 65
REMARK SMILES IDX 47 66 60 68 80 69 49 70 34 71 35 72 43 73 36 74 42 75 37 76
REMARK SMILES IDX 38 77 39 78 40 79 41 80 64 81 65 82 73 83 66 84 72 85 67 86
REMARK SMILES IDX 68 87 69 88 70 89 71 90 50 91 51 92 59 93 52 94 58 95 53 96
REMARK SMILES IDX 54 97 55 98 56 99 57 100
REMARK H PARENT 17 6 22 37 78 56 48 67
REMARK Flexibility Score: inf
ROOT
ATOM      1  C   UNL A   1      39.801  22.224  26.704  1.00  0.00     0.023 C 
ENDROOT
BRANCH   1   2
ATOM      2  C   UNL A   1      38.696  23.114  26.146  1.00  0.00     0.116 C 
BRANCH   2   3
ATOM      3  N   UNL A   1      37.812  22.341  25.282  1.00  0.00    -0.356 N 
ATOM      4  C   UNL A   1      36.496  22.052  25.194  1.00  0.00     0.225 C 
ATOM      5  O   UNL A   1      36.223  21.139  24.399  1.00  0.00    -0.275 OA
ATOM      6  H   UNL A   1      38.317  21.907  24.556  1.00  0.00     0.163 HD
BRANCH   4   7
ATOM      7  C   UNL A   1      35.325  22.764  25.883  1.00  0.00     0.106 C 
ATOM      8  N   UNL A   1      33.283  22.409  24.497  1.00  0.00    -0.335 N 
ATOM      9  C   UNL A   1      32.807  21.405  25.347  1.00  0.00     0.223 C 
ATOM     10  C   UNL A   1      34.249  23.383  24.991  1.00  0.00     0.128 C 
ATOM     11  O   UNL A   1      31.785  20.766  25.092  1.00  0.00    -0.275 OA
ATOM     12  C   UNL A   1      33.658  20.999  26.551  1.00  0.00     0.101 C 
ATOM     13  C   UNL A   1      34.717  21.971  27.020  1.00  0.00     0.026 C 
BRANCH   8  14
ATOM     14  C   UNL A   1      32.548  22.657  23.232  1.00  0.00     0.125 C 
BRANCH  14  15
ATOM     15  C   UNL A   1      32.930  23.844  22.292  1.00  0.00     0.057 C 
BRANCH  15  16
ATOM     16  C   UNL A   1      32.154  25.139  22.468  1.00  0.00    -0.042 A 
ATOM     17  C   UNL A   1      30.956  27.566  23.273  1.00  0.00     0.160 A 
ATOM     18  C   UNL A   1      30.259  26.361  23.402  1.00  0.00     0.051 A 
ATOM     19  C   UNL A   1      32.169  27.590  22.573  1.00  0.00     0.160 A 
ATOM     20  C   UNL A   1      30.846  25.161  22.973  1.00  0.00     0.008 A 
ATOM     21  C   UNL A   1      32.763  26.374  22.186  1.00  0.00     0.054 A 
BRANCH  17  22
ATOM     22  O   UNL A   1      30.650  28.643  24.061  1.00  0.00    -0.493 OA
ATOM     23  C   UNL A   1      29.806  29.638  23.507  1.00  0.00     0.278 C 
ENDBRANCH  17  22
BRANCH  19  24
ATOM     24  O   UNL A   1      32.932  28.691  22.283  1.00  0.00    -0.493 OA
ATOM     25  C   UNL A   1      34.251  28.746  22.814  1.00  0.00     0.278 C 
ENDBRANCH  19  24
ENDBRANCH  15  16
ENDBRANCH  14  15
ENDBRANCH   8  14
BRANCH  10  26
ATOM     26  C   UNL A   1      33.539  24.588  25.643  1.00  0.00    -0.025 A 
ATOM     27  C   UNL A   1      32.273  24.492  26.255  1.00  0.00     0.007 A 
ATOM     28  C   UNL A   1      34.146  25.856  25.593  1.00  0.00     0.007 A 
ATOM     29  C   UNL A   1      31.619  25.621  26.756  1.00  0.00     0.021 A 
ATOM     30  C   UNL A   1      33.494  26.987  26.100  1.00  0.00     0.021 A 
ATOM     31  C   UNL A   1      32.228  26.867  26.668  1.00  0.00     0.041 A 
ATOM     32  Cl  UNL A   1      31.409  28.262  27.252  1.00  0.00    -0.084 Cl
ENDBRANCH  10  26
ENDBRANCH   4   7
ENDBRANCH   2   3
ENDBRANCH   1   2
BRANCH   1  33
ATOM     33  C   UNL A   1      39.830  20.785  26.196  1.00  0.00     0.023 C 
BRANCH  33  34
ATOM     34  C   UNL A   1      40.833  19.904  26.934  1.00  0.00     0.116 C 
BRANCH  34  35
ATOM     35  N   UNL A   1      41.866  19.309  26.094  1.00  0.00    -0.352 N 
ATOM     36  C   UNL A   1      43.066  19.743  25.557  1.00  0.00     0.251 C 
ATOM     37  H   UNL A   1      41.661  18.378  25.851  1.00  0.00     0.163 HD
ATOM     38  O   UNL A   1      43.718  18.947  24.903  1.00  0.00    -0.269 OA
BRANCH  36  39
ATOM     39  C   UNL A   1      43.555  21.146  25.702  1.00  0.00     0.039 A 
ATOM     40  C   UNL A   1      43.388  22.045  24.636  1.00  0.00     0.014 A 
ATOM     41  C   UNL A   1      44.170  21.611  26.852  1.00  0.00     0.014 A 
ATOM     42  C   UNL A   1      43.737  23.400  24.777  1.00  0.00     0.010 A 
ATOM     43  C   UNL A   1      44.368  22.971  27.051  1.00  0.00     0.010 A 
ATOM     44  C   UNL A   1      44.177  23.889  26.014  1.00  0.00    -0.014 A 
BRANCH  44  45
ATOM     45  C   UNL A   1      44.489  25.322  26.288  1.00  0.00     0.031 A 
ATOM     46  C   UNL A   1      45.905  25.824  26.101  1.00  0.00     0.074 A 
ATOM     47  C   UNL A   1      43.564  26.132  26.846  1.00  0.00     0.049 A 
ATOM     48  N   UNL A   1      46.458  26.932  26.526  1.00  0.00    -0.248 NA
ATOM     49  C   UNL A   1      46.843  24.922  25.405  1.00  0.00     0.031 C 
ATOM     50  C   UNL A   1      42.175  25.772  27.139  1.00  0.00     0.029 A 
ATOM     51  N   UNL A   1      43.666  27.428  27.289  1.00  0.00    -0.354 N 
ATOM     52  C   UNL A   1      47.810  26.823  26.212  1.00  0.00     0.074 A 
ATOM     53  C   UNL A   1      48.004  25.514  25.630  1.00  0.00     0.031 C 
ATOM     54  C   UNL A   1      41.548  26.830  27.677  1.00  0.00     0.029 A 
ATOM     55  C   UNL A   1      42.500  27.924  27.824  1.00  0.00     0.049 A 
ATOM     56  H   UNL A   1      44.497  27.953  27.231  1.00  0.00     0.167 HD
ATOM     57  C   UNL A   1      48.798  27.739  26.356  1.00  0.00     0.031 A 
ATOM     58  C   UNL A   1      42.227  29.122  28.379  1.00  0.00     0.031 A 
ATOM     59  C   UNL A   1      48.582  29.070  26.852  1.00  0.00     0.049 A 
ATOM     60  C   UNL A   1      43.321  30.149  28.474  1.00  0.00     0.074 A 
ATOM     61  C   UNL A   1      49.487  30.113  26.944  1.00  0.00     0.029 A 
ATOM     62  N   UNL A   1      47.367  29.551  27.314  1.00  0.00    -0.354 N 
ATOM     63  N   UNL A   1      44.582  30.044  28.127  1.00  0.00    -0.248 NA
ATOM     64  C   UNL A   1      42.953  31.460  29.024  1.00  0.00     0.031 C 
ATOM     65  C   UNL A   1      48.825  31.215  27.495  1.00  0.00     0.029 A 
ATOM     66  C   UNL A   1      47.498  30.873  27.698  1.00  0.00     0.049 A 
ATOM     67  H   UNL A   1      46.534  29.028  27.362  1.00  0.00     0.167 HD
ATOM     68  C   UNL A   1      45.149  31.288  28.384  1.00  0.00     0.074 A 
ATOM     69  C   UNL A   1      44.092  32.130  28.906  1.00  0.00     0.031 C 
ATOM     70  C   UNL A   1      46.430  31.697  28.203  1.00  0.00     0.031 A 
BRANCH  57  71
ATOM     71  C   UNL A   1      50.192  27.338  25.940  1.00  0.00    -0.014 A 
ATOM     72  C   UNL A   1      50.596  27.397  24.593  1.00  0.00     0.010 A 
ATOM     73  C   UNL A   1      51.121  26.919  26.910  1.00  0.00     0.010 A 
ATOM     74  C   UNL A   1      51.876  26.984  24.215  1.00  0.00     0.020 A 
ATOM     75  C   UNL A   1      52.416  26.540  26.541  1.00  0.00     0.020 A 
ATOM     76  C   UNL A   1      52.778  26.554  25.193  1.00  0.00     0.054 A 
BRANCH  76  77
ATOM     77  S   UNL A   1      54.437  26.040  24.674  1.00  0.00     0.124 S 
ATOM     78  O   UNL A   1      54.382  24.594  24.877  1.00  0.00    -0.237 OA
ATOM     79  O   UNL A   1      54.487  26.476  23.280  1.00  0.00    -0.237 OA
ATOM     80  O   UNL A   1      55.324  26.763  25.582  1.00  0.00    -0.744 OA
ENDBRANCH  76  77
ENDBRANCH  57  71
BRANCH  58  81
ATOM     81  C   UNL A   1      40.846  29.428  28.846  1.00  0.00    -0.014 A 
ATOM     82  C   UNL A   1      39.797  29.546  27.916  1.00  0.00     0.010 A 
ATOM     83  C   UNL A   1      40.566  29.584  30.215  1.00  0.00     0.010 A 
ATOM     84  C   UNL A   1      38.498  29.833  28.344  1.00  0.00     0.020 A 
ATOM     85  C   UNL A   1      39.262  29.843  30.650  1.00  0.00     0.020 A 
ATOM     86  C   UNL A   1      38.237  29.977  29.709  1.00  0.00     0.054 A 
BRANCH  86  87
ATOM     87  S   UNL A   1      36.533  30.297  30.244  1.00  0.00     0.124 S 
ATOM     88  O   UNL A   1      35.792  30.160  28.994  1.00  0.00    -0.237 OA
ATOM     89  O   UNL A   1      36.310  29.245  31.232  1.00  0.00    -0.237 OA
ATOM     90  O   UNL A   1      36.595  31.651  30.790  1.00  0.00    -0.744 OA
ENDBRANCH  86  87
ENDBRANCH  58  81
BRANCH  70  91
ATOM     91  C   UNL A   1      46.750  33.131  28.524  1.00  0.00    -0.014 A 
ATOM     92  C   UNL A   1      47.250  33.504  29.783  1.00  0.00     0.010 A 
ATOM     93  C   UNL A   1      46.608  34.109  27.522  1.00  0.00     0.010 A 
ATOM     94  C   UNL A   1      47.574  34.838  30.044  1.00  0.00     0.020 A 
ATOM     95  C   UNL A   1      46.958  35.438  27.770  1.00  0.00     0.020 A 
ATOM     96  C   UNL A   1      47.426  35.796  29.035  1.00  0.00     0.054 A 
BRANCH  96  97
ATOM     97  S   UNL A   1      47.900  37.510  29.385  1.00  0.00     0.124 S 
ATOM     98  O   UNL A   1      48.311  37.432  30.785  1.00  0.00    -0.237 OA
ATOM     99  O   UNL A   1      48.978  37.747  28.427  1.00  0.00    -0.237 OA
ATOM    100  O   UNL A   1      46.676  38.267  29.137  1.00  0.00    -0.744 OA
ENDBRANCH  96  97
ENDBRANCH  70  91
ENDBRANCH  44  45
ENDBRANCH  36  39
ENDBRANCH  34  35
ENDBRANCH  33  34
ENDBRANCH   1  33
TORSDOF 20
ENDMDL
MODEL 2
REMARK VINA RESULT:     -10.6      4.885      5.825
REMARK SMILES COc1ccc(CCN2C(=O)CC[C@@H](C(=O)NCCCCNC(=O)c3ccc(-c4c5nc(c(-c6ccc(S(=O)(=O)[O-])cc6)c6ccc([nH]6)c(-c6ccc(S(=O)(=O)[O-])cc6)c6nc(c(-c7ccc(S(=O)(=O)[O-])cc7)c7ccc4[nH]7)C=C6)C=C5)cc3)[C@@H]2c2ccc(Cl)cc2)cc1OC
REMARK SMILES IDX 19 1 18 2 17 3 15 4 16 5 14 7 9 8 10 9 85 10 11 11 12 12
REMARK SMILES IDX 13 13 8 14 7 15 6 16 3 17 4 18 94 19 5 20 93 21 2 22 1 23
REMARK SMILES IDX 95 24 96 25 86 26 87 27 92 28 88 29 91 30 89 31 90 32 20 33
REMARK SMILES IDX 21 34 22 35 23 36 24 38 25 39 26 40 84 41 27 42 83 43 28 44
REMARK SMILES IDX 29 45 30 46 77 47 31 48 82 49 76 50 78 51 32 52 81 53 75 54
REMARK SMILES IDX 74 55 33 57 63 58 44 59 62 60 45 61 48 62 61 63 79 64 46 65
REMARK SMILES IDX 47 66 60 68 80 69 49 70 34 71 35 72 43 73 36 74 42 75 37 76
REMARK SMILES IDX 38 77 39 78 40 79 41 80 64 81 65 82 73 83 66 84 72 85 67 86
REMARK SMILES IDX 68 87 69 88 70 89 71 90 50 91 51 92 59 93 52 94 58 95 53 96
REMARK SMILES IDX 54 97 55 98 56 99 57 100
REMARK H PARENT 17 6 22 37 78 56 48 67
REMARK Flexibility Score: inf
ROOT
ATOM      1  C   UNL A   1      39.777  22.611  26.811  1.00  0.00     0.023 C 
ENDROOT
BRANCH   1   2
ATOM      2  C   UNL A   1      38.591  23.326  26.172  1.00  0.00     0.116 C 
BRANCH   2   3
ATOM      3  N   UNL A   1      37.743  22.369  25.469  1.00  0.00    -0.356 N 
ATOM      4  C   UNL A   1      36.449  21.988  25.468  1.00  0.00     0.225 C 
ATOM      5  O   UNL A   1      36.221  20.945  24.836  1.00  0.00    -0.275 OA
ATOM      6  H   UNL A   1      38.262  21.858  24.806  1.00  0.00     0.163 HD
BRANCH   4   7
ATOM      7  C   UNL A   1      35.246  22.726  26.070  1.00  0.00     0.106 C 
ATOM      8  N   UNL A   1      33.281  22.339  24.586  1.00  0.00    -0.335 N 
ATOM      9  C   UNL A   1      32.752  21.362  25.439  1.00  0.00     0.223 C 
ATOM     10  C   UNL A   1      34.224  23.323  25.102  1.00  0.00     0.128 C 
ATOM     11  O   UNL A   1      31.742  20.720  25.148  1.00  0.00    -0.275 OA
ATOM     12  C   UNL A   1      33.535  20.990  26.699  1.00  0.00     0.101 C 
ATOM     13  C   UNL A   1      34.573  21.971  27.195  1.00  0.00     0.026 C 
BRANCH   8  14
ATOM     14  C   UNL A   1      32.616  22.551  23.275  1.00  0.00     0.125 C 
BRANCH  14  15
ATOM     15  C   UNL A   1      33.117  23.647  22.282  1.00  0.00     0.057 C 
BRANCH  15  16
ATOM     16  C   UNL A   1      32.440  25.005  22.357  1.00  0.00    -0.042 A 
ATOM     17  C   UNL A   1      31.396  27.552  22.990  1.00  0.00     0.160 A 
ATOM     18  C   UNL A   1      30.595  26.413  23.115  1.00  0.00     0.051 A 
ATOM     19  C   UNL A   1      32.650  27.449  22.374  1.00  0.00     0.160 A 
ATOM     20  C   UNL A   1      31.108  25.153  22.771  1.00  0.00     0.008 A 
ATOM     21  C   UNL A   1      33.165  26.175  22.073  1.00  0.00     0.054 A 
BRANCH  17  22
ATOM     22  O   UNL A   1      31.128  28.682  23.716  1.00  0.00    -0.493 OA
ATOM     23  C   UNL A   1      29.960  29.411  23.381  1.00  0.00     0.278 C 
ENDBRANCH  17  22
BRANCH  19  24
ATOM     24  O   UNL A   1      33.518  28.474  22.097  1.00  0.00    -0.493 OA
ATOM     25  C   UNL A   1      34.468  28.829  23.094  1.00  0.00     0.278 C 
ENDBRANCH  19  24
ENDBRANCH  15  16
ENDBRANCH  14  15
ENDBRANCH   8  14
BRANCH  10  26
ATOM     26  C   UNL A   1      33.487  24.550  25.678  1.00  0.00    -0.025 A 
ATOM     27  C   UNL A   1      32.155  24.498  26.136  1.00  0.00     0.007 A 
ATOM     28  C   UNL A   1      34.142  25.794  25.711  1.00  0.00     0.007 A 
ATOM     29  C   UNL A   1      31.489  25.649  26.568  1.00  0.00     0.021 A 
ATOM     30  C   UNL A   1      33.476  26.947  26.150  1.00  0.00     0.021 A 
ATOM     31  C   UNL A   1      32.149  26.871  26.564  1.00  0.00     0.041 A 
ATOM     32  Cl  UNL A   1      31.319  28.293  27.061  1.00  0.00    -0.084 Cl
ENDBRANCH  10  26
ENDBRANCH   4   7
ENDBRANCH   2   3
ENDBRANCH   1   2
BRANCH   1  33
ATOM     33  C   UNL A   1      39.944  21.135  26.460  1.00  0.00     0.023 C 
BRANCH  33  34
ATOM     34  C   UNL A   1      41.357  20.615  26.699  1.00  0.00     0.116 C 
BRANCH  34  35
ATOM     35  N   UNL A   1      42.340  21.017  25.699  1.00  0.00    -0.352 N 
ATOM     36  C   UNL A   1      43.276  22.031  25.594  1.00  0.00     0.251 C 
ATOM     37  H   UNL A   1      42.337  20.426  24.912  1.00  0.00     0.163 HD
ATOM     38  O   UNL A   1      43.980  22.056  24.599  1.00  0.00    -0.269 OA
BRANCH  36  39
ATOM     39  C   UNL A   1      43.414  23.112  26.615  1.00  0.00     0.039 A 
ATOM     40  C   UNL A   1      43.771  24.405  26.201  1.00  0.00     0.014 A 
ATOM     41  C   UNL A   1      43.199  22.899  27.966  1.00  0.00     0.014 A 
ATOM     42  C   UNL A   1      43.804  25.470  27.119  1.00  0.00     0.010 A 
ATOM     43  C   UNL A   1      43.075  23.969  28.842  1.00  0.00     0.010 A 
ATOM     44  C   UNL A   1      43.395  25.271  28.445  1.00  0.00    -0.014 A 
BRANCH  44  45
ATOM     45  C   UNL A   1      43.312  26.352  29.470  1.00  0.00     0.031 A 
ATOM     46  C   UNL A   1      44.358  26.423  30.562  1.00  0.00     0.074 A 
ATOM     47  C   UNL A   1      42.235  27.165  29.524  1.00  0.00     0.049 A 
ATOM     48  N   UNL A   1      44.339  27.089  31.689  1.00  0.00    -0.248 NA
ATOM     49  C   UNL A   1      45.551  25.572  30.395  1.00  0.00     0.031 C 
ATOM     50  C   UNL A   1      41.120  27.175  28.575  1.00  0.00     0.029 A 
ATOM     51  N   UNL A   1      41.895  28.131  30.439  1.00  0.00    -0.354 N 
ATOM     52  C   UNL A   1      45.473  26.682  32.385  1.00  0.00     0.074 A 
ATOM     53  C   UNL A   1      46.115  25.660  31.589  1.00  0.00     0.031 C 
ATOM     54  C   UNL A   1      40.240  28.123  28.937  1.00  0.00     0.029 A 
ATOM     55  C   UNL A   1      40.695  28.749  30.172  1.00  0.00     0.049 A 
ATOM     56  H   UNL A   1      42.456  28.360  31.215  1.00  0.00     0.167 HD
ATOM     57  C   UNL A   1      45.965  27.139  33.563  1.00  0.00     0.031 A 
ATOM     58  C   UNL A   1      40.029  29.705  30.849  1.00  0.00     0.031 A 
ATOM     59  C   UNL A   1      45.372  28.217  34.307  1.00  0.00     0.049 A 
ATOM     60  C   UNL A   1      40.619  30.245  32.122  1.00  0.00     0.074 A 
ATOM     61  C   UNL A   1      45.840  28.830  35.455  1.00  0.00     0.029 A 
ATOM     62  N   UNL A   1      44.195  28.860  33.957  1.00  0.00    -0.354 N 
ATOM     63  N   UNL A   1      41.718  29.881  32.740  1.00  0.00    -0.248 NA
ATOM     64  C   UNL A   1      39.887  31.333  32.783  1.00  0.00     0.031 C 
ATOM     65  C   UNL A   1      44.925  29.824  35.820  1.00  0.00     0.029 A 
ATOM     66  C   UNL A   1      43.916  29.861  34.871  1.00  0.00     0.049 A 
ATOM     67  H   UNL A   1      43.640  28.638  33.175  1.00  0.00     0.167 HD
ATOM     68  C   UNL A   1      41.827  30.720  33.843  1.00  0.00     0.074 A 
ATOM     69  C   UNL A   1      40.689  31.615  33.802  1.00  0.00     0.031 C 
ATOM     70  C   UNL A   1      42.784  30.749  34.804  1.00  0.00     0.031 A 
BRANCH  57  71
ATOM     71  C   UNL A   1      47.220  26.495  34.097  1.00  0.00    -0.014 A 
ATOM     72  C   UNL A   1      48.493  26.999  33.769  1.00  0.00     0.010 A 
ATOM     73  C   UNL A   1      47.129  25.385  34.957  1.00  0.00     0.010 A 
ATOM     74  C   UNL A   1      49.650  26.368  34.237  1.00  0.00     0.020 A 
ATOM     75  C   UNL A   1      48.283  24.774  35.459  1.00  0.00     0.020 A 
ATOM     76  C   UNL A   1      49.536  25.256  35.076  1.00  0.00     0.054 A 
BRANCH  76  77
ATOM     77  S   UNL A   1      51.054  24.469  35.680  1.00  0.00     0.124 S 
ATOM     78  O   UNL A   1      51.618  25.515  36.530  1.00  0.00    -0.237 OA
ATOM     79  O   UNL A   1      50.548  23.294  36.385  1.00  0.00    -0.237 OA
ATOM     80  O   UNL A   1      51.806  24.184  34.460  1.00  0.00    -0.744 OA
ENDBRANCH  76  77
ENDBRANCH  57  71
BRANCH  58  81
ATOM     81  C   UNL A   1      38.749  30.244  30.310  1.00  0.00    -0.014 A 
ATOM     82  C   UNL A   1      38.746  31.431  29.556  1.00  0.00     0.010 A 
ATOM     83  C   UNL A   1      37.534  29.569  30.527  1.00  0.00     0.010 A 
ATOM     84  C   UNL A   1      37.550  31.945  29.045  1.00  0.00     0.020 A 
ATOM     85  C   UNL A   1      36.340  30.065  29.993  1.00  0.00     0.020 A 
ATOM     86  C   UNL A   1      36.354  31.258  29.265  1.00  0.00     0.054 A 
BRANCH  86  87
ATOM     87  S   UNL A   1      34.823  31.916  28.547  1.00  0.00     0.124 S 
ATOM     88  O   UNL A   1      34.155  32.476  29.717  1.00  0.00    -0.237 OA
ATOM     89  O   UNL A   1      35.323  32.887  27.577  1.00  0.00    -0.237 OA
ATOM     90  O   UNL A   1      34.186  30.737  27.965  1.00  0.00    -0.744 OA
ENDBRANCH  86  87
ENDBRANCH  58  81
BRANCH  70  91
ATOM     91  C   UNL A   1      42.671  31.813  35.862  1.00  0.00    -0.014 A 
ATOM     92  C   UNL A   1      42.025  31.561  37.084  1.00  0.00     0.010 A 
ATOM     93  C   UNL A   1      43.282  33.063  35.650  1.00  0.00     0.010 A 
ATOM     94  C   UNL A   1      41.965  32.555  38.065  1.00  0.00     0.020 A 
ATOM     95  C   UNL A   1      43.249  34.047  36.639  1.00  0.00     0.020 A 
ATOM     96  C   UNL A   1      42.578  33.791  37.836  1.00  0.00     0.054 A 
BRANCH  96  97
ATOM     97  S   UNL A   1      42.528  35.044  39.145  1.00  0.00     0.124 S 
ATOM     98  O   UNL A   1      42.749  36.277  38.393  1.00  0.00    -0.237 OA
ATOM     99  O   UNL A   1      41.186  34.877  39.698  1.00  0.00    -0.237 OA
ATOM    100  O   UNL A   1      43.617  34.656  40.039  1.00  0.00    -0.744 OA
ENDBRANCH  96  97
ENDBRANCH  70  91
ENDBRANCH  44  45
ENDBRANCH  36  39
ENDBRANCH  34  35
ENDBRANCH  33  34
ENDBRANCH   1  33
TORSDOF 20
ENDMDL
MODEL 3
REMARK VINA RESULT:     -10.5      2.433      8.687
REMARK SMILES COc1ccc(CCN2C(=O)CC[C@@H](C(=O)NCCCCNC(=O)c3ccc(-c4c5nc(c(-c6ccc(S(=O)(=O)[O-])cc6)c6ccc([nH]6)c(-c6ccc(S(=O)(=O)[O-])cc6)c6nc(c(-c7ccc(S(=O)(=O)[O-])cc7)c7ccc4[nH]7)C=C6)C=C5)cc3)[C@@H]2c2ccc(Cl)cc2)cc1OC
REMARK SMILES IDX 19 1 18 2 17 3 15 4 16 5 14 7 9 8 10 9 85 10 11 11 12 12
REMARK SMILES IDX 13 13 8 14 7 15 6 16 3 17 4 18 94 19 5 20 93 21 2 22 1 23
REMARK SMILES IDX 95 24 96 25 86 26 87 27 92 28 88 29 91 30 89 31 90 32 20 33
REMARK SMILES IDX 21 34 22 35 23 36 24 38 25 39 26 40 84 41 27 42 83 43 28 44
REMARK SMILES IDX 29 45 30 46 77 47 31 48 82 49 76 50 78 51 32 52 81 53 75 54
REMARK SMILES IDX 74 55 33 57 63 58 44 59 62 60 45 61 48 62 61 63 79 64 46 65
REMARK SMILES IDX 47 66 60 68 80 69 49 70 34 71 35 72 43 73 36 74 42 75 37 76
REMARK SMILES IDX 38 77 39 78 40 79 41 80 64 81 65 82 73 83 66 84 72 85 67 86
REMARK SMILES IDX 68 87 69 88 70 89 71 90 50 91 51 92 59 93 52 94 58 95 53 96
REMARK SMILES IDX 54 97 55 98 56 99 57 100
REMARK H PARENT 17 6 22 37 78 56 48 67
REMARK Flexibility Score: inf
ROOT
ATOM      1  C   UNL A   1      34.113  30.437  27.096  1.00  0.00     0.023 C 
ENDROOT
BRANCH   1   2
ATOM      2  C   UNL A   1      34.267  29.073  27.758  1.00  0.00     0.116 C 
BRANCH   2   3
ATOM      3  N   UNL A   1      34.481  28.042  26.749  1.00  0.00    -0.356 N 
ATOM      4  C   UNL A   1      33.745  27.337  25.864  1.00  0.00     0.225 C 
ATOM      5  O   UNL A   1      34.340  26.376  25.352  1.00  0.00    -0.275 OA
ATOM      6  H   UNL A   1      35.432  27.790  26.697  1.00  0.00     0.163 HD
BRANCH   4   7
ATOM      7  C   UNL A   1      32.324  27.634  25.369  1.00  0.00     0.106 C 
ATOM      8  N   UNL A   1      31.625  25.771  23.867  1.00  0.00    -0.335 N 
ATOM      9  C   UNL A   1      30.850  25.173  24.868  1.00  0.00     0.223 C 
ATOM     10  C   UNL A   1      31.959  27.187  23.953  1.00  0.00     0.128 C 
ATOM     11  O   UNL A   1      30.285  24.092  24.697  1.00  0.00    -0.275 OA
ATOM     12  C   UNL A   1      30.822  25.817  26.255  1.00  0.00     0.101 C 
ATOM     13  C   UNL A   1      31.245  27.265  26.365  1.00  0.00     0.026 C 
BRANCH   8  14
ATOM     14  C   UNL A   1      31.799  25.035  22.589  1.00  0.00     0.125 C 
BRANCH  14  15
ATOM     15  C   UNL A   1      32.972  24.023  22.391  1.00  0.00     0.057 C 
BRANCH  15  16
ATOM     16  C   UNL A   1      32.857  22.687  23.106  1.00  0.00    -0.042 A 
ATOM     17  C   UNL A   1      33.089  20.077  24.159  1.00  0.00     0.160 A 
ATOM     18  C   UNL A   1      32.207  20.334  23.105  1.00  0.00     0.051 A 
ATOM     19  C   UNL A   1      33.713  21.148  24.813  1.00  0.00     0.160 A 
ATOM     20  C   UNL A   1      32.073  21.638  22.604  1.00  0.00     0.008 A 
ATOM     21  C   UNL A   1      33.600  22.442  24.273  1.00  0.00     0.054 A 
BRANCH  17  22
ATOM     22  O   UNL A   1      33.589  18.820  24.366  1.00  0.00    -0.493 OA
ATOM     23  C   UNL A   1      33.004  18.046  25.399  1.00  0.00     0.278 C 
ENDBRANCH  17  22
BRANCH  19  24
ATOM     24  O   UNL A   1      34.532  21.078  25.910  1.00  0.00    -0.493 OA
ATOM     25  C   UNL A   1      34.800  22.283  26.618  1.00  0.00     0.278 C 
ENDBRANCH  19  24
ENDBRANCH  15  16
ENDBRANCH  14  15
ENDBRANCH   8  14
BRANCH  10  26
ATOM     26  C   UNL A   1      30.861  28.058  23.305  1.00  0.00    -0.025 A 
ATOM     27  C   UNL A   1      29.493  27.723  23.351  1.00  0.00     0.007 A 
ATOM     28  C   UNL A   1      31.229  29.213  22.594  1.00  0.00     0.007 A 
ATOM     29  C   UNL A   1      28.535  28.486  22.677  1.00  0.00     0.021 A 
ATOM     30  C   UNL A   1      30.269  29.982  21.924  1.00  0.00     0.021 A 
ATOM     31  C   UNL A   1      28.928  29.608  21.958  1.00  0.00     0.041 A 
ATOM     32  Cl  UNL A   1      27.755  30.527  21.098  1.00  0.00    -0.084 Cl
ENDBRANCH  10  26
ENDBRANCH   4   7
ENDBRANCH   2   3
ENDBRANCH   1   2
BRANCH   1  33
ATOM     33  C   UNL A   1      34.369  31.652  27.984  1.00  0.00     0.023 C 
BRANCH  33  34
ATOM     34  C   UNL A   1      35.708  31.598  28.710  1.00  0.00     0.116 C 
BRANCH  34  35
ATOM     35  N   UNL A   1      35.703  30.840  29.956  1.00  0.00    -0.352 N 
ATOM     36  C   UNL A   1      36.592  29.991  30.593  1.00  0.00     0.251 C 
ATOM     37  H   UNL A   1      34.870  30.962  30.465  1.00  0.00     0.163 HD
ATOM     38  O   UNL A   1      36.270  29.539  31.678  1.00  0.00    -0.269 OA
BRANCH  36  39
ATOM     39  C   UNL A   1      37.889  29.573  29.982  1.00  0.00     0.039 A 
ATOM     40  C   UNL A   1      38.073  29.719  28.598  1.00  0.00     0.014 A 
ATOM     41  C   UNL A   1      38.932  29.046  30.724  1.00  0.00     0.014 A 
ATOM     42  C   UNL A   1      39.318  29.438  28.005  1.00  0.00     0.010 A 
ATOM     43  C   UNL A   1      40.201  28.920  30.174  1.00  0.00     0.010 A 
ATOM     44  C   UNL A   1      40.416  29.091  28.803  1.00  0.00    -0.014 A 
BRANCH  44  45
ATOM     45  C   UNL A   1      41.794  28.859  28.281  1.00  0.00     0.031 A 
ATOM     46  C   UNL A   1      42.193  27.471  27.826  1.00  0.00     0.074 A 
ATOM     47  C   UNL A   1      42.730  29.829  28.356  1.00  0.00     0.049 A 
ATOM     48  N   UNL A   1      43.385  26.981  27.596  1.00  0.00    -0.248 NA
ATOM     49  C   UNL A   1      41.108  26.483  27.681  1.00  0.00     0.031 C 
ATOM     50  C   UNL A   1      42.508  31.198  28.827  1.00  0.00     0.029 A 
ATOM     51  N   UNL A   1      44.069  29.800  28.055  1.00  0.00    -0.354 N 
ATOM     52  C   UNL A   1      43.194  25.625  27.353  1.00  0.00     0.074 A 
ATOM     53  C   UNL A   1      41.786  25.356  27.536  1.00  0.00     0.031 C 
ATOM     54  C   UNL A   1      43.660  31.885  28.749  1.00  0.00     0.029 A 
ATOM     55  C   UNL A   1      44.714  30.995  28.279  1.00  0.00     0.049 A 
ATOM     56  H   UNL A   1      44.527  28.999  27.711  1.00  0.00     0.167 HD
ATOM     57  C   UNL A   1      44.098  24.688  26.974  1.00  0.00     0.031 A 
ATOM     58  C   UNL A   1      46.010  31.335  28.134  1.00  0.00     0.031 A 
ATOM     59  C   UNL A   1      45.480  24.979  26.707  1.00  0.00     0.049 A 
ATOM     60  C   UNL A   1      46.988  30.299  27.653  1.00  0.00     0.074 A 
ATOM     61  C   UNL A   1      46.459  24.132  26.219  1.00  0.00     0.029 A 
ATOM     62  N   UNL A   1      46.071  26.221  26.879  1.00  0.00    -0.354 N 
ATOM     63  N   UNL A   1      46.779  29.032  27.381  1.00  0.00    -0.248 NA
ATOM     64  C   UNL A   1      48.373  30.741  27.446  1.00  0.00     0.031 C 
ATOM     65  C   UNL A   1      47.653  24.856  26.129  1.00  0.00     0.029 A 
ATOM     66  C   UNL A   1      47.404  26.164  26.513  1.00  0.00     0.049 A 
ATOM     67  H   UNL A   1      45.610  27.024  27.213  1.00  0.00     0.167 HD
ATOM     68  C   UNL A   1      48.000  28.535  26.938  1.00  0.00     0.074 A 
ATOM     69  C   UNL A   1      48.937  29.639  26.968  1.00  0.00     0.031 C 
ATOM     70  C   UNL A   1      48.316  27.278  26.539  1.00  0.00     0.031 A 
BRANCH  57  71
ATOM     71  C   UNL A   1      43.608  23.272  26.795  1.00  0.00    -0.014 A 
ATOM     72  C   UNL A   1      42.923  22.603  27.827  1.00  0.00     0.010 A 
ATOM     73  C   UNL A   1      43.814  22.607  25.572  1.00  0.00     0.010 A 
ATOM     74  C   UNL A   1      42.511  21.277  27.664  1.00  0.00     0.020 A 
ATOM     75  C   UNL A   1      43.369  21.293  25.392  1.00  0.00     0.020 A 
ATOM     76  C   UNL A   1      42.741  20.629  26.447  1.00  0.00     0.054 A 
BRANCH  76  77
ATOM     77  S   UNL A   1      42.180  18.915  26.260  1.00  0.00     0.124 S 
ATOM     78  O   UNL A   1      42.321  18.402  27.620  1.00  0.00    -0.237 OA
ATOM     79  O   UNL A   1      40.806  19.076  25.789  1.00  0.00    -0.237 OA
ATOM     80  O   UNL A   1      43.108  18.352  25.282  1.00  0.00    -0.744 OA
ENDBRANCH  76  77
ENDBRANCH  57  71
BRANCH  58  81
ATOM     81  C   UNL A   1      46.448  32.733  28.405  1.00  0.00    -0.014 A 
ATOM     82  C   UNL A   1      46.397  33.699  27.384  1.00  0.00     0.010 A 
ATOM     83  C   UNL A   1      46.897  33.113  29.682  1.00  0.00     0.010 A 
ATOM     84  C   UNL A   1      46.804  35.013  27.627  1.00  0.00     0.020 A 
ATOM     85  C   UNL A   1      47.278  34.434  29.938  1.00  0.00     0.020 A 
ATOM     86  C   UNL A   1      47.241  35.374  28.905  1.00  0.00     0.054 A 
BRANCH  86  87
ATOM     87  S   UNL A   1      47.714  37.099  29.211  1.00  0.00     0.124 S 
ATOM     88  O   UNL A   1      48.387  37.454  27.966  1.00  0.00    -0.237 OA
ATOM     89  O   UNL A   1      46.424  37.744  29.441  1.00  0.00    -0.237 OA
ATOM     90  O   UNL A   1      48.577  37.011  30.387  1.00  0.00    -0.744 OA
ENDBRANCH  86  87
ENDBRANCH  58  81
BRANCH  70  91
ATOM     91  C   UNL A   1      49.720  27.037  26.055  1.00  0.00    -0.014 A 
ATOM     92  C   UNL A   1      50.741  26.653  26.941  1.00  0.00     0.010 A 
ATOM     93  C   UNL A   1      50.001  27.136  24.680  1.00  0.00     0.010 A 
ATOM     94  C   UNL A   1      52.030  26.401  26.461  1.00  0.00     0.020 A 
ATOM     95  C   UNL A   1      51.280  26.857  24.194  1.00  0.00     0.020 A 
ATOM     96  C   UNL A   1      52.289  26.504  25.091  1.00  0.00     0.054 A 
BRANCH  96  97
ATOM     97  S   UNL A   1      53.957  26.123  24.489  1.00  0.00     0.124 S 
ATOM     98  O   UNL A   1      54.063  24.694  24.774  1.00  0.00    -0.237 OA
ATOM     99  O   UNL A   1      53.877  26.477  23.074  1.00  0.00    -0.237 OA
ATOM    100  O   UNL A   1      54.821  26.984  25.293  1.00  0.00    -0.744 OA
ENDBRANCH  96  97
ENDBRANCH  70  91
ENDBRANCH  44  45
ENDBRANCH  36  39
ENDBRANCH  34  35
ENDBRANCH  33  34
ENDBRANCH   1  33
TORSDOF 20
ENDMDL
