MODEL 1
REMARK VINA RESULT:     -11.4      0.000      0.000
REMARK SMILES COc1ccc(-n2c(=S)[nH]cc(CC(=O)NCCCCNC(=O)c3ccc(-c4c5nc(c(-c6ccc(S(=O)(=O)[O-])cc6)c6ccc([nH]6)c(-c6ccc(S(=O)(=O)[O-])cc6)c6nc(c(-c7ccc(S(=O)(=O)[O-])cc7)c7ccc4[nH]7)C=C6)C=C5)cc3)c2=O)cc1Cl
REMARK SMILES IDX 18 1 17 2 16 3 14 4 15 5 13 7 12 8 7 9 8 10 84 11 9 12 10 13
REMARK SMILES IDX 85 14 11 15 6 17 3 18 4 19 87 20 5 21 86 22 88 23 2 24 1 25
REMARK SMILES IDX 19 26 20 27 21 28 22 29 23 31 24 32 25 33 83 34 26 35 82 36
REMARK SMILES IDX 27 37 28 38 29 39 76 40 30 41 81 42 75 43 77 44 31 45 80 46
REMARK SMILES IDX 74 47 73 48 32 50 62 51 43 52 61 53 44 54 47 55 60 56 78 57
REMARK SMILES IDX 45 58 46 59 59 61 79 62 48 63 33 64 34 65 42 66 35 67 41 68
REMARK SMILES IDX 36 69 37 70 38 71 39 72 40 73 63 74 64 75 72 76 65 77 71 78
REMARK SMILES IDX 66 79 67 80 68 81 69 82 70 83 49 84 50 85 58 86 51 87 57 88
REMARK SMILES IDX 52 89 53 90 54 91 55 92 56 93
REMARK H PARENT 16 6 10 16 21 30 77 49 47 60
REMARK Flexibility Score: inf
ROOT
ATOM      1  C   UNL A   1      33.233  29.330  24.881  1.00  0.00     0.023 C 
ENDROOT
BRANCH   1   2
ATOM      2  C   UNL A   1      32.987  28.990  23.408  1.00  0.00     0.116 C 
BRANCH   2   3
ATOM      3  N   UNL A   1      31.611  29.230  23.014  1.00  0.00    -0.356 N 
ATOM      4  C   UNL A   1      30.742  28.394  22.372  1.00  0.00     0.224 C 
ATOM      5  O   UNL A   1      29.634  28.821  22.047  1.00  0.00    -0.275 OA
ATOM      6  H   UNL A   1      31.254  30.120  23.240  1.00  0.00     0.163 HD
BRANCH   4   7
ATOM      7  C   UNL A   1      31.157  26.964  22.054  1.00  0.00     0.142 C 
BRANCH   7   8
ATOM      8  C   UNL A   1      31.057  26.082  23.266  1.00  0.00     0.043 A 
ATOM      9  N   UNL A   1      32.064  24.281  24.628  1.00  0.00    -0.253 N 
ATOM     10  C   UNL A   1      30.890  24.216  25.400  1.00  0.00     0.184 A 
ATOM     11  C   UNL A   1      32.230  25.220  23.596  1.00  0.00     0.262 A 
ATOM     12  S   UNL A   1      30.571  23.278  26.759  1.00  0.00    -0.040 S 
ATOM     13  N   UNL A   1      29.887  25.083  25.040  1.00  0.00    -0.338 N 
ATOM     14  O   UNL A   1      33.250  25.347  22.916  1.00  0.00    -0.269 OA
ATOM     15  C   UNL A   1      29.959  25.975  24.018  1.00  0.00     0.095 A 
ATOM     16  H   UNL A   1      29.053  25.055  25.561  1.00  0.00     0.168 HD
BRANCH   9  17
ATOM     17  C   UNL A   1      33.177  23.402  24.888  1.00  0.00     0.053 A 
ATOM     18  C   UNL A   1      35.381  21.689  25.284  1.00  0.00     0.137 A 
ATOM     19  C   UNL A   1      34.219  21.213  24.676  1.00  0.00     0.050 A 
ATOM     20  C   UNL A   1      35.442  23.021  25.706  1.00  0.00     0.085 A 
ATOM     21  C   UNL A   1      33.120  22.058  24.495  1.00  0.00     0.031 A 
ATOM     22  C   UNL A   1      34.338  23.865  25.524  1.00  0.00     0.051 A 
ATOM     23  Cl  UNL A   1      36.864  23.704  26.406  1.00  0.00    -0.080 Cl
BRANCH  18  24
ATOM     24  O   UNL A   1      36.437  20.817  25.322  1.00  0.00    -0.495 OA
ATOM     25  C   UNL A   1      37.558  21.276  24.568  1.00  0.00     0.278 C 
ENDBRANCH  18  24
ENDBRANCH   9  17
ENDBRANCH   7   8
ENDBRANCH   4   7
ENDBRANCH   2   3
ENDBRANCH   1   2
BRANCH   1  26
ATOM     26  C   UNL A   1      33.180  28.137  25.837  1.00  0.00     0.023 C 
BRANCH  26  27
ATOM     27  C   UNL A   1      33.385  28.475  27.308  1.00  0.00     0.116 C 
BRANCH  27  28
ATOM     28  N   UNL A   1      33.376  29.903  27.581  1.00  0.00    -0.352 N 
ATOM     29  C   UNL A   1      34.393  30.687  28.079  1.00  0.00     0.251 C 
ATOM     30  H   UNL A   1      32.532  30.372  27.383  1.00  0.00     0.163 HD
ATOM     31  O   UNL A   1      34.188  31.868  28.343  1.00  0.00    -0.269 OA
BRANCH  29  32
ATOM     32  C   UNL A   1      35.716  30.080  28.339  1.00  0.00     0.039 A 
ATOM     33  C   UNL A   1      36.023  29.557  29.597  1.00  0.00     0.014 A 
ATOM     34  C   UNL A   1      36.679  30.088  27.326  1.00  0.00     0.014 A 
ATOM     35  C   UNL A   1      37.334  29.203  29.892  1.00  0.00     0.010 A 
ATOM     36  C   UNL A   1      37.979  29.654  27.603  1.00  0.00     0.010 A 
ATOM     37  C   UNL A   1      38.331  29.259  28.904  1.00  0.00    -0.014 A 
BRANCH  37  38
ATOM     38  C   UNL A   1      39.731  28.910  29.259  1.00  0.00     0.031 A 
ATOM     39  C   UNL A   1      40.322  27.584  28.855  1.00  0.00     0.074 A 
ATOM     40  C   UNL A   1      40.494  29.821  29.895  1.00  0.00     0.049 A 
ATOM     41  N   UNL A   1      41.536  27.138  29.049  1.00  0.00    -0.248 NA
ATOM     42  C   UNL A   1      39.445  26.640  28.144  1.00  0.00     0.031 C 
ATOM     43  C   UNL A   1      40.038  31.146  30.321  1.00  0.00     0.029 A 
ATOM     44  N   UNL A   1      41.816  29.789  30.262  1.00  0.00    -0.354 N 
ATOM     45  C   UNL A   1      41.566  25.860  28.501  1.00  0.00     0.074 A 
ATOM     46  C   UNL A   1      40.242  25.590  27.989  1.00  0.00     0.031 C 
ATOM     47  C   UNL A   1      41.075  31.820  30.840  1.00  0.00     0.029 A 
ATOM     48  C   UNL A   1      42.253  30.957  30.841  1.00  0.00     0.049 A 
ATOM     49  H   UNL A   1      42.396  29.006  30.126  1.00  0.00     0.167 HD
ATOM     50  C   UNL A   1      42.607  24.998  28.423  1.00  0.00     0.031 A 
ATOM     51  C   UNL A   1      43.461  31.303  31.329  1.00  0.00     0.031 A 
ATOM     52  C   UNL A   1      43.930  25.280  28.915  1.00  0.00     0.049 A 
ATOM     53  C   UNL A   1      44.592  30.318  31.258  1.00  0.00     0.074 A 
ATOM     54  C   UNL A   1      45.052  24.472  28.855  1.00  0.00     0.029 A 
ATOM     55  N   UNL A   1      44.313  26.453  29.547  1.00  0.00    -0.354 N 
ATOM     56  N   UNL A   1      44.597  29.117  30.731  1.00  0.00    -0.248 NA
ATOM     57  C   UNL A   1      45.874  30.728  31.844  1.00  0.00     0.031 C 
ATOM     58  C   UNL A   1      46.101  25.134  29.499  1.00  0.00     0.029 A 
ATOM     59  C   UNL A   1      45.649  26.379  29.905  1.00  0.00     0.049 A 
ATOM     60  H   UNL A   1      43.725  27.224  29.715  1.00  0.00     0.167 HD
ATOM     61  C   UNL A   1      45.883  28.627  30.923  1.00  0.00     0.074 A 
ATOM     62  C   UNL A   1      46.635  29.669  31.591  1.00  0.00     0.031 C 
ATOM     63  C   UNL A   1      46.388  27.417  30.578  1.00  0.00     0.031 A 
BRANCH  50  64
ATOM     64  C   UNL A   1      42.381  23.655  27.781  1.00  0.00    -0.014 A 
ATOM     65  C   UNL A   1      42.041  22.549  28.581  1.00  0.00     0.010 A 
ATOM     66  C   UNL A   1      42.635  23.457  26.412  1.00  0.00     0.010 A 
ATOM     67  C   UNL A   1      41.992  21.264  28.034  1.00  0.00     0.020 A 
ATOM     68  C   UNL A   1      42.564  22.176  25.856  1.00  0.00     0.020 A 
ATOM     69  C   UNL A   1      42.265  21.085  26.676  1.00  0.00     0.054 A 
BRANCH  69  70
ATOM     70  S   UNL A   1      42.230  19.407  25.986  1.00  0.00     0.124 S 
ATOM     71  O   UNL A   1      42.798  18.615  27.072  1.00  0.00    -0.237 OA
ATOM     72  O   UNL A   1      40.807  19.197  25.728  1.00  0.00    -0.237 OA
ATOM     73  O   UNL A   1      43.059  19.515  24.788  1.00  0.00    -0.744 OA
ENDBRANCH  69  70
ENDBRANCH  50  64
BRANCH  51  74
ATOM     74  C   UNL A   1      43.638  32.658  31.918  1.00  0.00    -0.014 A 
ATOM     75  C   UNL A   1      43.303  32.891  33.265  1.00  0.00     0.010 A 
ATOM     76  C   UNL A   1      44.036  33.738  31.113  1.00  0.00     0.010 A 
ATOM     77  C   UNL A   1      43.301  34.189  33.780  1.00  0.00     0.020 A 
ATOM     78  C   UNL A   1      44.064  35.036  31.634  1.00  0.00     0.020 A 
ATOM     79  C   UNL A   1      43.664  35.256  32.955  1.00  0.00     0.054 A 
BRANCH  79  80
ATOM     80  S   UNL A   1      43.593  36.941  33.623  1.00  0.00     0.124 S 
ATOM     81  O   UNL A   1      42.348  36.906  34.385  1.00  0.00    -0.237 OA
ATOM     82  O   UNL A   1      44.815  37.025  34.418  1.00  0.00    -0.237 OA
ATOM     83  O   UNL A   1      43.573  37.779  32.426  1.00  0.00    -0.744 OA
ENDBRANCH  79  80
ENDBRANCH  51  74
BRANCH  63  84
ATOM     84  C   UNL A   1      47.823  27.123  30.921  1.00  0.00    -0.014 A 
ATOM     85  C   UNL A   1      48.849  27.558  30.062  1.00  0.00     0.010 A 
ATOM     86  C   UNL A   1      48.144  26.300  32.014  1.00  0.00     0.010 A 
ATOM     87  C   UNL A   1      50.168  27.146  30.269  1.00  0.00     0.020 A 
ATOM     88  C   UNL A   1      49.466  25.905  32.238  1.00  0.00     0.020 A 
ATOM     89  C   UNL A   1      50.465  26.310  31.349  1.00  0.00     0.054 A 
BRANCH  89  90
ATOM     90  S   UNL A   1      52.175  25.752  31.582  1.00  0.00     0.124 S 
ATOM     91  O   UNL A   1      52.725  25.874  30.235  1.00  0.00    -0.237 OA
ATOM     92  O   UNL A   1      52.695  26.703  32.562  1.00  0.00    -0.237 OA
ATOM     93  O   UNL A   1      52.024  24.384  32.074  1.00  0.00    -0.744 OA
ENDBRANCH  89  90
ENDBRANCH  63  84
ENDBRANCH  37  38
ENDBRANCH  29  32
ENDBRANCH  27  28
ENDBRANCH  26  27
ENDBRANCH   1  26
TORSDOF 17
ENDMDL
MODEL 2
REMARK VINA RESULT:     -11.3      0.442      8.088
REMARK SMILES COc1ccc(-n2c(=S)[nH]cc(CC(=O)NCCCCNC(=O)c3ccc(-c4c5nc(c(-c6ccc(S(=O)(=O)[O-])cc6)c6ccc([nH]6)c(-c6ccc(S(=O)(=O)[O-])cc6)c6nc(c(-c7ccc(S(=O)(=O)[O-])cc7)c7ccc4[nH]7)C=C6)C=C5)cc3)c2=O)cc1Cl
REMARK SMILES IDX 18 1 17 2 16 3 14 4 15 5 13 7 12 8 7 9 8 10 84 11 9 12 10 13
REMARK SMILES IDX 85 14 11 15 6 17 3 18 4 19 87 20 5 21 86 22 88 23 2 24 1 25
REMARK SMILES IDX 19 26 20 27 21 28 22 29 23 31 24 32 25 33 83 34 26 35 82 36
REMARK SMILES IDX 27 37 28 38 29 39 76 40 30 41 81 42 75 43 77 44 31 45 80 46
REMARK SMILES IDX 74 47 73 48 32 50 62 51 43 52 61 53 44 54 47 55 60 56 78 57
REMARK SMILES IDX 45 58 46 59 59 61 79 62 48 63 33 64 34 65 42 66 35 67 41 68
REMARK SMILES IDX 36 69 37 70 38 71 39 72 40 73 63 74 64 75 72 76 65 77 71 78
REMARK SMILES IDX 66 79 67 80 68 81 69 82 70 83 49 84 50 85 58 86 51 87 57 88
REMARK SMILES IDX 52 89 53 90 54 91 55 92 56 93
REMARK H PARENT 16 6 10 16 21 30 77 49 47 60
REMARK Flexibility Score: inf
ROOT
ATOM      1  C   UNL A   1      31.942  29.275  25.551  1.00  0.00     0.023 C 
ENDROOT
BRANCH   1   2
ATOM      2  C   UNL A   1      32.047  29.563  24.052  1.00  0.00     0.116 C 
BRANCH   2   3
ATOM      3  N   UNL A   1      30.759  29.480  23.387  1.00  0.00    -0.356 N 
ATOM      4  C   UNL A   1      30.287  28.515  22.544  1.00  0.00     0.224 C 
ATOM      5  O   UNL A   1      29.188  28.675  22.011  1.00  0.00    -0.275 OA
ATOM      6  H   UNL A   1      30.140  30.224  23.570  1.00  0.00     0.163 HD
BRANCH   4   7
ATOM      7  C   UNL A   1      31.124  27.276  22.261  1.00  0.00     0.142 C 
BRANCH   7   8
ATOM      8  C   UNL A   1      31.058  26.298  23.400  1.00  0.00     0.043 A 
ATOM      9  N   UNL A   1      32.145  24.453  24.635  1.00  0.00    -0.253 N 
ATOM     10  C   UNL A   1      30.968  24.267  25.382  1.00  0.00     0.184 A 
ATOM     11  C   UNL A   1      32.271  25.476  23.681  1.00  0.00     0.262 A 
ATOM     12  S   UNL A   1      30.684  23.211  26.660  1.00  0.00    -0.040 S 
ATOM     13  N   UNL A   1      29.924  25.106  25.074  1.00  0.00    -0.338 N 
ATOM     14  O   UNL A   1      33.291  25.708  23.028  1.00  0.00    -0.269 OA
ATOM     15  C   UNL A   1      29.960  26.076  24.126  1.00  0.00     0.095 A 
ATOM     16  H   UNL A   1      29.087  24.993  25.580  1.00  0.00     0.168 HD
BRANCH   9  17
ATOM     17  C   UNL A   1      33.301  23.616  24.843  1.00  0.00     0.053 A 
ATOM     18  C   UNL A   1      35.585  21.991  25.139  1.00  0.00     0.137 A 
ATOM     19  C   UNL A   1      34.434  21.485  24.533  1.00  0.00     0.050 A 
ATOM     20  C   UNL A   1      35.595  23.308  25.608  1.00  0.00     0.085 A 
ATOM     21  C   UNL A   1      33.295  22.285  24.402  1.00  0.00     0.031 A 
ATOM     22  C   UNL A   1      34.452  24.108  25.476  1.00  0.00     0.051 A 
ATOM     23  Cl  UNL A   1      36.999  24.028  26.308  1.00  0.00    -0.080 Cl
BRANCH  18  24
ATOM     24  O   UNL A   1      36.679  21.166  25.126  1.00  0.00    -0.495 OA
ATOM     25  C   UNL A   1      36.344  19.808  24.850  1.00  0.00     0.278 C 
ENDBRANCH  18  24
ENDBRANCH   9  17
ENDBRANCH   7   8
ENDBRANCH   4   7
ENDBRANCH   2   3
ENDBRANCH   1   2
BRANCH   1  26
ATOM     26  C   UNL A   1      32.960  28.266  26.089  1.00  0.00     0.023 C 
BRANCH  26  27
ATOM     27  C   UNL A   1      33.462  28.542  27.500  1.00  0.00     0.116 C 
BRANCH  27  28
ATOM     28  N   UNL A   1      33.472  29.954  27.846  1.00  0.00    -0.352 N 
ATOM     29  C   UNL A   1      34.522  30.717  28.306  1.00  0.00     0.251 C 
ATOM     30  H   UNL A   1      32.615  30.428  27.737  1.00  0.00     0.163 HD
ATOM     31  O   UNL A   1      34.336  31.882  28.646  1.00  0.00    -0.269 OA
BRANCH  29  32
ATOM     32  C   UNL A   1      35.863  30.104  28.434  1.00  0.00     0.039 A 
ATOM     33  C   UNL A   1      36.277  29.547  29.646  1.00  0.00     0.014 A 
ATOM     34  C   UNL A   1      36.734  30.141  27.342  1.00  0.00     0.014 A 
ATOM     35  C   UNL A   1      37.608  29.187  29.816  1.00  0.00     0.010 A 
ATOM     36  C   UNL A   1      38.052  29.701  27.493  1.00  0.00     0.010 A 
ATOM     37  C   UNL A   1      38.515  29.270  28.747  1.00  0.00    -0.014 A 
BRANCH  37  38
ATOM     38  C   UNL A   1      39.940  28.913  28.970  1.00  0.00     0.031 A 
ATOM     39  C   UNL A   1      40.872  29.864  29.675  1.00  0.00     0.074 A 
ATOM     40  C   UNL A   1      40.380  27.697  28.591  1.00  0.00     0.049 A 
ATOM     41  N   UNL A   1      42.132  29.694  29.986  1.00  0.00    -0.248 NA
ATOM     42  C   UNL A   1      40.328  31.169  30.084  1.00  0.00     0.031 C 
ATOM     43  C   UNL A   1      39.565  26.684  27.916  1.00  0.00     0.029 A 
ATOM     44  N   UNL A   1      41.602  27.092  28.747  1.00  0.00    -0.354 N 
ATOM     45  C   UNL A   1      42.534  30.869  30.610  1.00  0.00     0.074 A 
ATOM     46  C   UNL A   1      41.394  31.757  30.613  1.00  0.00     0.031 C 
ATOM     47  C   UNL A   1      40.292  25.566  27.767  1.00  0.00     0.029 A 
ATOM     48  C   UNL A   1      41.640  25.801  28.278  1.00  0.00     0.049 A 
ATOM     49  H   UNL A   1      42.378  27.541  29.156  1.00  0.00     0.167 HD
ATOM     50  C   UNL A   1      43.741  31.173  31.143  1.00  0.00     0.031 A 
ATOM     51  C   UNL A   1      42.643  24.901  28.249  1.00  0.00     0.031 A 
ATOM     52  C   UNL A   1      44.868  30.277  31.158  1.00  0.00     0.049 A 
ATOM     53  C   UNL A   1      43.981  25.272  28.819  1.00  0.00     0.074 A 
ATOM     54  C   UNL A   1      46.123  30.495  31.700  1.00  0.00     0.029 A 
ATOM     55  N   UNL A   1      44.879  29.000  30.619  1.00  0.00    -0.354 N 
ATOM     56  N   UNL A   1      44.336  26.389  29.408  1.00  0.00    -0.248 NA
ATOM     57  C   UNL A   1      45.051  24.271  28.721  1.00  0.00     0.031 C 
ATOM     58  C   UNL A   1      46.910  29.370  31.441  1.00  0.00     0.029 A 
ATOM     59  C   UNL A   1      46.128  28.428  30.793  1.00  0.00     0.049 A 
ATOM     60  H   UNL A   1      44.113  28.564  30.180  1.00  0.00     0.167 HD
ATOM     61  C   UNL A   1      45.673  26.225  29.752  1.00  0.00     0.074 A 
ATOM     62  C   UNL A   1      46.055  24.894  29.328  1.00  0.00     0.031 C 
ATOM     63  C   UNL A   1      46.504  27.106  30.359  1.00  0.00     0.031 A 
BRANCH  50  64
ATOM     64  C   UNL A   1      43.931  32.531  31.764  1.00  0.00    -0.014 A 
ATOM     65  C   UNL A   1      43.546  32.747  33.101  1.00  0.00     0.010 A 
ATOM     66  C   UNL A   1      44.361  33.625  30.992  1.00  0.00     0.010 A 
ATOM     67  C   UNL A   1      43.556  34.033  33.645  1.00  0.00     0.020 A 
ATOM     68  C   UNL A   1      44.394  34.910  31.539  1.00  0.00     0.020 A 
ATOM     69  C   UNL A   1      43.969  35.110  32.855  1.00  0.00     0.054 A 
BRANCH  69  70
ATOM     70  S   UNL A   1      43.945  36.780  33.566  1.00  0.00     0.124 S 
ATOM     71  O   UNL A   1      42.578  36.884  34.062  1.00  0.00    -0.237 OA
ATOM     72  O   UNL A   1      44.986  36.707  34.589  1.00  0.00    -0.237 OA
ATOM     73  O   UNL A   1      44.266  37.636  32.426  1.00  0.00    -0.744 OA
ENDBRANCH  69  70
ENDBRANCH  50  64
BRANCH  51  74
ATOM     74  C   UNL A   1      42.387  23.559  27.657  1.00  0.00    -0.014 A 
ATOM     75  C   UNL A   1      41.983  22.491  28.480  1.00  0.00     0.010 A 
ATOM     76  C   UNL A   1      42.649  23.318  26.298  1.00  0.00     0.010 A 
ATOM     77  C   UNL A   1      41.907  21.194  27.970  1.00  0.00     0.020 A 
ATOM     78  C   UNL A   1      42.544  22.025  25.777  1.00  0.00     0.020 A 
ATOM     79  C   UNL A   1      42.206  20.966  26.624  1.00  0.00     0.054 A 
BRANCH  79  80
ATOM     80  S   UNL A   1      42.165  19.265  25.995  1.00  0.00     0.124 S 
ATOM     81  O   UNL A   1      42.682  18.514  27.136  1.00  0.00    -0.237 OA
ATOM     82  O   UNL A   1      40.748  19.065  25.700  1.00  0.00    -0.237 OA
ATOM     83  O   UNL A   1      43.041  19.315  24.827  1.00  0.00    -0.744 OA
ENDBRANCH  79  80
ENDBRANCH  51  74
BRANCH  63  84
ATOM     84  C   UNL A   1      47.928  26.685  30.602  1.00  0.00    -0.014 A 
ATOM     85  C   UNL A   1      48.278  26.077  31.822  1.00  0.00     0.010 A 
ATOM     86  C   UNL A   1      48.940  27.018  29.686  1.00  0.00     0.010 A 
ATOM     87  C   UNL A   1      49.618  25.841  32.137  1.00  0.00     0.020 A 
ATOM     88  C   UNL A   1      50.280  26.762  29.986  1.00  0.00     0.020 A 
ATOM     89  C   UNL A   1      50.612  26.197  31.221  1.00  0.00     0.054 A 
BRANCH  89  90
ATOM     90  S   UNL A   1      52.350  25.921  31.660  1.00  0.00     0.124 S 
ATOM     91  O   UNL A   1      52.578  26.943  32.677  1.00  0.00    -0.237 OA
ATOM     92  O   UNL A   1      52.345  24.542  32.145  1.00  0.00    -0.237 OA
ATOM     93  O   UNL A   1      53.058  26.125  30.398  1.00  0.00    -0.744 OA
ENDBRANCH  89  90
ENDBRANCH  63  84
ENDBRANCH  37  38
ENDBRANCH  29  32
ENDBRANCH  27  28
ENDBRANCH  26  27
ENDBRANCH   1  26
TORSDOF 17
ENDMDL
MODEL 3
REMARK VINA RESULT:     -10.7      3.218      8.839
REMARK SMILES COc1ccc(-n2c(=S)[nH]cc(CC(=O)NCCCCNC(=O)c3ccc(-c4c5nc(c(-c6ccc(S(=O)(=O)[O-])cc6)c6ccc([nH]6)c(-c6ccc(S(=O)(=O)[O-])cc6)c6nc(c(-c7ccc(S(=O)(=O)[O-])cc7)c7ccc4[nH]7)C=C6)C=C5)cc3)c2=O)cc1Cl
REMARK SMILES IDX 18 1 17 2 16 3 14 4 15 5 13 7 12 8 7 9 8 10 84 11 9 12 10 13
REMARK SMILES IDX 85 14 11 15 6 17 3 18 4 19 87 20 5 21 86 22 88 23 2 24 1 25
REMARK SMILES IDX 19 26 20 27 21 28 22 29 23 31 24 32 25 33 83 34 26 35 82 36
REMARK SMILES IDX 27 37 28 38 29 39 76 40 30 41 81 42 75 43 77 44 31 45 80 46
REMARK SMILES IDX 74 47 73 48 32 50 62 51 43 52 61 53 44 54 47 55 60 56 78 57
REMARK SMILES IDX 45 58 46 59 59 61 79 62 48 63 33 64 34 65 42 66 35 67 41 68
REMARK SMILES IDX 36 69 37 70 38 71 39 72 40 73 63 74 64 75 72 76 65 77 71 78
REMARK SMILES IDX 66 79 67 80 68 81 69 82 70 83 49 84 50 85 58 86 51 87 57 88
REMARK SMILES IDX 52 89 53 90 54 91 55 92 56 93
REMARK H PARENT 16 6 10 16 21 30 77 49 47 60
REMARK Flexibility Score: inf
ROOT
ATOM      1  C   UNL A   1      34.334  30.480  27.819  1.00  0.00     0.023 C 
ENDROOT
BRANCH   1   2
ATOM      2  C   UNL A   1      33.328  30.278  26.683  1.00  0.00     0.116 C 
BRANCH   2   3
ATOM      3  N   UNL A   1      32.349  29.254  26.995  1.00  0.00    -0.356 N 
ATOM      4  C   UNL A   1      32.447  27.899  26.853  1.00  0.00     0.224 C 
ATOM      5  O   UNL A   1      31.461  27.201  27.097  1.00  0.00    -0.275 OA
ATOM      6  H   UNL A   1      31.495  29.581  27.360  1.00  0.00     0.163 HD
BRANCH   4   7
ATOM      7  C   UNL A   1      33.753  27.275  26.383  1.00  0.00     0.142 C 
BRANCH   7   8
ATOM      8  C   UNL A   1      33.536  26.371  25.203  1.00  0.00     0.043 A 
ATOM      9  N   UNL A   1      33.453  24.060  24.330  1.00  0.00    -0.253 N 
ATOM     10  C   UNL A   1      33.354  24.564  23.020  1.00  0.00     0.184 A 
ATOM     11  C   UNL A   1      33.488  24.901  25.454  1.00  0.00     0.262 A 
ATOM     12  S   UNL A   1      33.144  23.724  21.578  1.00  0.00    -0.040 S 
ATOM     13  N   UNL A   1      33.362  25.933  22.903  1.00  0.00    -0.338 N 
ATOM     14  O   UNL A   1      33.535  24.513  26.623  1.00  0.00    -0.269 OA
ATOM     15  C   UNL A   1      33.453  26.802  23.942  1.00  0.00     0.095 A 
ATOM     16  H   UNL A   1      33.299  26.312  21.996  1.00  0.00     0.168 HD
BRANCH   9  17
ATOM     17  C   UNL A   1      33.484  22.641  24.582  1.00  0.00     0.053 A 
ATOM     18  C   UNL A   1      33.515  19.848  24.964  1.00  0.00     0.137 A 
ATOM     19  C   UNL A   1      32.303  20.535  24.888  1.00  0.00     0.050 A 
ATOM     20  C   UNL A   1      34.717  20.555  24.859  1.00  0.00     0.085 A 
ATOM     21  C   UNL A   1      32.287  21.922  24.716  1.00  0.00     0.031 A 
ATOM     22  C   UNL A   1      34.698  21.946  24.687  1.00  0.00     0.051 A 
ATOM     23  Cl  UNL A   1      36.254  19.772  24.877  1.00  0.00    -0.080 Cl
BRANCH  18  24
ATOM     24  O   UNL A   1      33.425  18.482  25.028  1.00  0.00    -0.495 OA
ATOM     25  C   UNL A   1      33.371  17.872  23.739  1.00  0.00     0.278 C 
ENDBRANCH  18  24
ENDBRANCH   9  17
ENDBRANCH   7   8
ENDBRANCH   4   7
ENDBRANCH   2   3
ENDBRANCH   1   2
BRANCH   1  26
ATOM     26  C   UNL A   1      34.869  31.907  27.963  1.00  0.00     0.023 C 
BRANCH  26  27
ATOM     27  C   UNL A   1      35.892  32.106  29.073  1.00  0.00     0.116 C 
BRANCH  27  28
ATOM     28  N   UNL A   1      35.684  31.234  30.218  1.00  0.00    -0.352 N 
ATOM     29  C   UNL A   1      36.552  30.316  30.766  1.00  0.00     0.251 C 
ATOM     30  H   UNL A   1      34.806  31.309  30.659  1.00  0.00     0.163 HD
ATOM     31  O   UNL A   1      36.181  29.585  31.680  1.00  0.00    -0.269 OA
BRANCH  29  32
ATOM     32  C   UNL A   1      37.916  30.186  30.209  1.00  0.00     0.039 A 
ATOM     33  C   UNL A   1      38.112  30.036  28.835  1.00  0.00     0.014 A 
ATOM     34  C   UNL A   1      39.007  30.156  31.082  1.00  0.00     0.014 A 
ATOM     35  C   UNL A   1      39.368  29.687  28.354  1.00  0.00     0.010 A 
ATOM     36  C   UNL A   1      40.285  29.885  30.585  1.00  0.00     0.010 A 
ATOM     37  C   UNL A   1      40.467  29.594  29.223  1.00  0.00    -0.014 A 
BRANCH  37  38
ATOM     38  C   UNL A   1      41.790  29.182  28.686  1.00  0.00     0.031 A 
ATOM     39  C   UNL A   1      42.952  30.141  28.679  1.00  0.00     0.074 A 
ATOM     40  C   UNL A   1      41.960  27.914  28.261  1.00  0.00     0.049 A 
ATOM     41  N   UNL A   1      44.182  29.931  28.284  1.00  0.00    -0.248 NA
ATOM     42  C   UNL A   1      42.709  31.505  29.176  1.00  0.00     0.031 C 
ATOM     43  C   UNL A   1      40.913  26.890  28.236  1.00  0.00     0.029 A 
ATOM     44  N   UNL A   1      43.076  27.261  27.801  1.00  0.00    -0.354 N 
ATOM     45  C   UNL A   1      44.853  31.134  28.469  1.00  0.00     0.074 A 
ATOM     46  C   UNL A   1      43.890  32.079  28.988  1.00  0.00     0.031 C 
ATOM     47  C   UNL A   1      41.449  25.726  27.840  1.00  0.00     0.029 A 
ATOM     48  C   UNL A   1      42.859  25.933  27.523  1.00  0.00     0.049 A 
ATOM     49  H   UNL A   1      43.949  27.702  27.682  1.00  0.00     0.167 HD
ATOM     50  C   UNL A   1      46.156  31.419  28.239  1.00  0.00     0.031 A 
ATOM     51  C   UNL A   1      43.692  24.981  27.057  1.00  0.00     0.031 A 
ATOM     52  C   UNL A   1      47.117  30.468  27.743  1.00  0.00     0.049 A 
ATOM     53  C   UNL A   1      45.126  25.329  26.780  1.00  0.00     0.074 A 
ATOM     54  C   UNL A   1      48.466  30.666  27.502  1.00  0.00     0.029 A 
ATOM     55  N   UNL A   1      46.841  29.149  27.419  1.00  0.00    -0.354 N 
ATOM     56  N   UNL A   1      45.739  26.473  26.967  1.00  0.00    -0.248 NA
ATOM     57  C   UNL A   1      45.978  24.267  26.231  1.00  0.00     0.031 C 
ATOM     58  C   UNL A   1      48.994  29.482  26.982  1.00  0.00     0.029 A 
ATOM     59  C   UNL A   1      47.989  28.529  26.956  1.00  0.00     0.049 A 
ATOM     60  H   UNL A   1      45.960  28.718  27.505  1.00  0.00     0.167 HD
ATOM     61  C   UNL A   1      47.051  26.269  26.558  1.00  0.00     0.074 A 
ATOM     62  C   UNL A   1      47.150  24.887  26.137  1.00  0.00     0.031 C 
ATOM     63  C   UNL A   1      48.076  27.154  26.530  1.00  0.00     0.031 A 
BRANCH  50  64
ATOM     64  C   UNL A   1      46.646  32.816  28.515  1.00  0.00    -0.014 A 
ATOM     65  C   UNL A   1      47.055  33.166  29.816  1.00  0.00     0.010 A 
ATOM     66  C   UNL A   1      46.577  33.814  27.528  1.00  0.00     0.010 A 
ATOM     67  C   UNL A   1      47.353  34.493  30.134  1.00  0.00     0.020 A 
ATOM     68  C   UNL A   1      46.896  35.140  27.836  1.00  0.00     0.020 A 
ATOM     69  C   UNL A   1      47.260  35.475  29.143  1.00  0.00     0.054 A 
BRANCH  69  70
ATOM     70  S   UNL A   1      47.618  37.199  29.579  1.00  0.00     0.124 S 
ATOM     71  O   UNL A   1      46.991  37.931  28.484  1.00  0.00    -0.237 OA
ATOM     72  O   UNL A   1      46.975  37.340  30.884  1.00  0.00    -0.237 OA
ATOM     73  O   UNL A   1      49.078  37.245  29.609  1.00  0.00    -0.744 OA
ENDBRANCH  69  70
ENDBRANCH  50  64
BRANCH  51  74
ATOM     74  C   UNL A   1      43.163  23.607  26.838  1.00  0.00    -0.014 A 
ATOM     75  C   UNL A   1      43.077  22.704  27.915  1.00  0.00     0.010 A 
ATOM     76  C   UNL A   1      42.844  23.164  25.544  1.00  0.00     0.010 A 
ATOM     77  C   UNL A   1      42.746  21.366  27.692  1.00  0.00     0.020 A 
ATOM     78  C   UNL A   1      42.483  21.831  25.322  1.00  0.00     0.020 A 
ATOM     79  C   UNL A   1      42.469  20.934  26.393  1.00  0.00     0.054 A 
BRANCH  79  80
ATOM     80  S   UNL A   1      42.105  19.179  26.115  1.00  0.00     0.124 S 
ATOM     81  O   UNL A   1      40.673  19.215  25.827  1.00  0.00    -0.237 OA
ATOM     82  O   UNL A   1      42.966  18.847  24.983  1.00  0.00    -0.237 OA
ATOM     83  O   UNL A   1      42.474  18.551  27.380  1.00  0.00    -0.744 OA
ENDBRANCH  79  80
ENDBRANCH  51  74
BRANCH  63  84
ATOM     84  C   UNL A   1      49.409  26.681  26.017  1.00  0.00    -0.014 A 
ATOM     85  C   UNL A   1      50.325  26.081  26.901  1.00  0.00     0.010 A 
ATOM     86  C   UNL A   1      49.807  26.957  24.698  1.00  0.00     0.010 A 
ATOM     87  C   UNL A   1      51.628  25.797  26.485  1.00  0.00     0.020 A 
ATOM     88  C   UNL A   1      51.102  26.652  24.271  1.00  0.00     0.020 A 
ATOM     89  C   UNL A   1      52.012  26.097  25.175  1.00  0.00     0.054 A 
BRANCH  89  90
ATOM     90  S   UNL A   1      53.718  25.758  24.662  1.00  0.00     0.124 S 
ATOM     91  O   UNL A   1      54.485  26.624  25.551  1.00  0.00    -0.237 OA
ATOM     92  O   UNL A   1      53.851  24.323  24.911  1.00  0.00    -0.237 OA
ATOM     93  O   UNL A   1      53.733  26.139  23.251  1.00  0.00    -0.744 OA
ENDBRANCH  89  90
ENDBRANCH  63  84
ENDBRANCH  37  38
ENDBRANCH  29  32
ENDBRANCH  27  28
ENDBRANCH  26  27
ENDBRANCH   1  26
TORSDOF 17
ENDMDL
