MODEL 1
REMARK VINA RESULT:     -12.4      0.000      0.000
REMARK SMILES O=C(Cn1cnc(-c2ccccc2)c1-c1ccccc1)NCCCCNC(=O)c1ccc(-c2c3nc(c(-c4ccc(S(=O)(=O)[O-])cc4)c4ccc([nH]4)c(-c4ccc(S(=O)(=O)[O-])cc4)c4nc(c(-c5ccc(S(=O)(=O)[O-])cc5)c5ccc2[nH]5)C=C4)C=C3)cc1
REMARK SMILES IDX 24 1 23 2 22 3 21 4 1 5 2 6 3 8 4 9 5 10 14 11 6 12 7 13
REMARK SMILES IDX 15 14 16 15 20 16 17 17 19 18 18 19 8 20 9 21 13 22 10 23
REMARK SMILES IDX 12 24 11 25 25 26 26 27 27 28 28 30 29 31 30 32 88 33 31 34
REMARK SMILES IDX 87 35 32 36 33 37 34 38 81 39 35 40 86 41 80 42 82 43 36 44
REMARK SMILES IDX 85 45 79 46 78 47 37 49 67 50 48 51 66 52 49 53 52 54 65 55
REMARK SMILES IDX 83 56 50 57 51 58 64 60 84 61 53 62 38 63 39 64 47 65 40 66
REMARK SMILES IDX 46 67 41 68 42 69 43 70 44 71 45 72 68 73 69 74 77 75 70 76
REMARK SMILES IDX 76 77 71 78 72 79 73 80 74 81 75 82 54 83 55 84 63 85 56 86
REMARK SMILES IDX 62 87 57 88 58 89 59 90 60 91 61 92
REMARK H PARENT 21 7 26 29 82 48 52 59
REMARK Flexibility Score: inf
ROOT
ATOM      1  C   UNL A   1      32.135  29.543  27.235  1.00  0.00     0.023 C 
ENDROOT
BRANCH   1   2
ATOM      2  C   UNL A   1      31.718  28.103  27.569  1.00  0.00     0.023 C 
BRANCH   2   3
ATOM      3  C   UNL A   1      30.887  27.369  26.510  1.00  0.00     0.116 C 
BRANCH   3   4
ATOM      4  N   UNL A   1      31.696  26.599  25.584  1.00  0.00    -0.355 N 
ATOM      5  O   UNL A   1      31.530  28.079  23.835  1.00  0.00    -0.273 OA
ATOM      6  C   UNL A   1      31.992  27.042  24.309  1.00  0.00     0.239 C 
ATOM      7  H   UNL A   1      32.048  25.726  25.874  1.00  0.00     0.163 HD
BRANCH   6   8
ATOM      8  C   UNL A   1      32.854  26.115  23.476  1.00  0.00     0.223 C 
BRANCH   8   9
ATOM      9  N   UNL A   1      32.374  24.746  23.462  1.00  0.00    -0.321 N 
ATOM     10  C   UNL A   1      31.106  24.385  23.096  1.00  0.00     0.201 A 
ATOM     11  C   UNL A   1      33.064  23.598  23.794  1.00  0.00     0.076 A 
ATOM     12  N   UNL A   1      30.944  23.085  23.135  1.00  0.00    -0.236 NA
ATOM     13  C   UNL A   1      32.126  22.586  23.621  1.00  0.00     0.096 A 
BRANCH  11  14
ATOM     14  C   UNL A   1      34.468  23.509  24.182  1.00  0.00     0.000 A 
ATOM     15  C   UNL A   1      35.418  23.080  23.244  1.00  0.00     0.010 A 
ATOM     16  C   UNL A   1      34.871  23.744  25.501  1.00  0.00     0.010 A 
ATOM     17  C   UNL A   1      36.747  22.889  23.618  1.00  0.00     0.001 A 
ATOM     18  C   UNL A   1      36.204  23.563  25.873  1.00  0.00     0.001 A 
ATOM     19  C   UNL A   1      37.140  23.132  24.934  1.00  0.00     0.000 A 
ENDBRANCH  11  14
BRANCH  13  20
ATOM     20  C   UNL A   1      32.359  21.177  23.877  1.00  0.00     0.002 A 
ATOM     21  C   UNL A   1      32.637  20.739  25.173  1.00  0.00     0.010 A 
ATOM     22  C   UNL A   1      32.278  20.237  22.839  1.00  0.00     0.010 A 
ATOM     23  C   UNL A   1      32.812  19.377  25.430  1.00  0.00     0.001 A 
ATOM     24  C   UNL A   1      32.459  18.878  23.099  1.00  0.00     0.001 A 
ATOM     25  C   UNL A   1      32.723  18.447  24.396  1.00  0.00     0.000 A 
ENDBRANCH  13  20
ENDBRANCH   8   9
ENDBRANCH   6   8
ENDBRANCH   3   4
ENDBRANCH   2   3
ENDBRANCH   1   2
BRANCH   1  26
ATOM     26  C   UNL A   1      33.626  29.831  27.359  1.00  0.00     0.116 C 
BRANCH  26  27
ATOM     27  N   UNL A   1      33.973  31.230  27.128  1.00  0.00    -0.352 N 
ATOM     28  C   UNL A   1      35.047  31.930  27.657  1.00  0.00     0.251 C 
ATOM     29  H   UNL A   1      33.378  31.734  26.529  1.00  0.00     0.163 HD
ATOM     30  O   UNL A   1      35.017  33.149  27.729  1.00  0.00    -0.269 OA
BRANCH  28  31
ATOM     31  C   UNL A   1      36.220  31.173  28.150  1.00  0.00     0.039 A 
ATOM     32  C   UNL A   1      36.407  29.833  27.808  1.00  0.00     0.014 A 
ATOM     33  C   UNL A   1      37.158  31.834  28.939  1.00  0.00     0.014 A 
ATOM     34  C   UNL A   1      37.595  29.205  28.182  1.00  0.00     0.010 A 
ATOM     35  C   UNL A   1      38.388  31.261  29.181  1.00  0.00     0.010 A 
ATOM     36  C   UNL A   1      38.609  29.934  28.835  1.00  0.00    -0.014 A 
BRANCH  36  37
ATOM     37  C   UNL A   1      39.938  29.343  29.021  1.00  0.00     0.031 A 
ATOM     38  C   UNL A   1      40.280  29.060  30.439  1.00  0.00     0.074 A 
ATOM     39  C   UNL A   1      40.763  28.923  28.035  1.00  0.00     0.049 A 
ATOM     40  N   UNL A   1      41.080  29.745  31.186  1.00  0.00    -0.248 NA
ATOM     41  C   UNL A   1      39.534  28.018  31.162  1.00  0.00     0.031 C 
ATOM     42  C   UNL A   1      40.500  28.858  26.594  1.00  0.00     0.029 A 
ATOM     43  N   UNL A   1      42.002  28.357  28.132  1.00  0.00    -0.354 N 
ATOM     44  C   UNL A   1      41.142  29.066  32.396  1.00  0.00     0.074 A 
ATOM     45  C   UNL A   1      40.028  28.151  32.396  1.00  0.00     0.031 C 
ATOM     46  C   UNL A   1      41.421  28.069  25.997  1.00  0.00     0.029 A 
ATOM     47  C   UNL A   1      42.439  27.722  26.971  1.00  0.00     0.049 A 
ATOM     48  H   UNL A   1      42.542  28.395  28.954  1.00  0.00     0.167 HD
ATOM     49  C   UNL A   1      42.265  29.111  33.166  1.00  0.00     0.031 A 
ATOM     50  C   UNL A   1      43.545  26.946  26.822  1.00  0.00     0.031 A 
ATOM     51  C   UNL A   1      43.167  30.153  32.738  1.00  0.00     0.049 A 
ATOM     52  C   UNL A   1      44.492  27.331  27.895  1.00  0.00     0.074 A 
ATOM     53  C   UNL A   1      43.056  31.516  32.534  1.00  0.00     0.029 A 
ATOM     54  N   UNL A   1      44.291  29.760  32.047  1.00  0.00    -0.354 N 
ATOM     55  N   UNL A   1      45.065  28.499  27.949  1.00  0.00    -0.248 NA
ATOM     56  C   UNL A   1      44.468  26.593  29.147  1.00  0.00     0.031 C 
ATOM     57  C   UNL A   1      43.812  31.772  31.352  1.00  0.00     0.029 A 
ATOM     58  C   UNL A   1      44.413  30.577  30.954  1.00  0.00     0.049 A 
ATOM     59  H   UNL A   1      44.897  29.025  32.294  1.00  0.00     0.167 HD
ATOM     60  C   UNL A   1      45.041  28.840  29.293  1.00  0.00     0.074 A 
ATOM     61  C   UNL A   1      44.768  27.584  29.991  1.00  0.00     0.031 C 
ATOM     62  C   UNL A   1      44.963  30.148  29.685  1.00  0.00     0.031 A 
BRANCH  49  63
ATOM     63  C   UNL A   1      42.744  27.943  33.994  1.00  0.00    -0.014 A 
ATOM     64  C   UNL A   1      42.909  28.118  35.382  1.00  0.00     0.010 A 
ATOM     65  C   UNL A   1      43.316  26.787  33.420  1.00  0.00     0.010 A 
ATOM     66  C   UNL A   1      43.672  27.220  36.141  1.00  0.00     0.020 A 
ATOM     67  C   UNL A   1      44.038  25.863  34.175  1.00  0.00     0.020 A 
ATOM     68  C   UNL A   1      44.241  26.105  35.526  1.00  0.00     0.054 A 
BRANCH  68  69
ATOM     69  S   UNL A   1      45.300  25.003  36.492  1.00  0.00     0.124 S 
ATOM     70  O   UNL A   1      45.145  25.545  37.838  1.00  0.00    -0.237 OA
ATOM     71  O   UNL A   1      44.683  23.701  36.256  1.00  0.00    -0.237 OA
ATOM     72  O   UNL A   1      46.618  25.183  35.888  1.00  0.00    -0.744 OA
ENDBRANCH  68  69
ENDBRANCH  49  63
BRANCH  50  73
ATOM     73  C   UNL A   1      43.726  25.723  25.994  1.00  0.00    -0.014 A 
ATOM     74  C   UNL A   1      44.993  25.377  25.487  1.00  0.00     0.010 A 
ATOM     75  C   UNL A   1      42.722  24.734  25.955  1.00  0.00     0.010 A 
ATOM     76  C   UNL A   1      45.269  24.070  25.048  1.00  0.00     0.020 A 
ATOM     77  C   UNL A   1      42.989  23.427  25.522  1.00  0.00     0.020 A 
ATOM     78  C   UNL A   1      44.271  23.093  25.096  1.00  0.00     0.054 A 
BRANCH  78  79
ATOM     79  S   UNL A   1      44.694  21.365  24.721  1.00  0.00     0.124 S 
ATOM     80  O   UNL A   1      43.597  20.631  25.345  1.00  0.00    -0.237 OA
ATOM     81  O   UNL A   1      44.709  21.349  23.260  1.00  0.00    -0.237 OA
ATOM     82  O   UNL A   1      46.000  21.177  25.349  1.00  0.00    -0.744 OA
ENDBRANCH  78  79
ENDBRANCH  50  73
BRANCH  62  83
ATOM     83  C   UNL A   1      45.272  31.229  28.671  1.00  0.00    -0.014 A 
ATOM     84  C   UNL A   1      44.358  31.716  27.714  1.00  0.00     0.010 A 
ATOM     85  C   UNL A   1      46.535  31.843  28.755  1.00  0.00     0.010 A 
ATOM     86  C   UNL A   1      44.726  32.742  26.828  1.00  0.00     0.020 A 
ATOM     87  C   UNL A   1      46.898  32.880  27.893  1.00  0.00     0.020 A 
ATOM     88  C   UNL A   1      45.999  33.309  26.918  1.00  0.00     0.054 A 
BRANCH  88  89
ATOM     89  S   UNL A   1      46.481  34.619  25.757  1.00  0.00     0.124 S 
ATOM     90  O   UNL A   1      47.874  34.291  25.469  1.00  0.00    -0.237 OA
ATOM     91  O   UNL A   1      45.547  34.431  24.649  1.00  0.00    -0.237 OA
ATOM     92  O   UNL A   1      46.283  35.851  26.521  1.00  0.00    -0.744 OA
ENDBRANCH  88  89
ENDBRANCH  62  83
ENDBRANCH  36  37
ENDBRANCH  28  31
ENDBRANCH  26  27
ENDBRANCH   1  26
TORSDOF 17
ENDMDL
MODEL 2
REMARK VINA RESULT:     -12.2      1.307      2.246
REMARK SMILES O=C(Cn1cnc(-c2ccccc2)c1-c1ccccc1)NCCCCNC(=O)c1ccc(-c2c3nc(c(-c4ccc(S(=O)(=O)[O-])cc4)c4ccc([nH]4)c(-c4ccc(S(=O)(=O)[O-])cc4)c4nc(c(-c5ccc(S(=O)(=O)[O-])cc5)c5ccc2[nH]5)C=C4)C=C3)cc1
REMARK SMILES IDX 24 1 23 2 22 3 21 4 1 5 2 6 3 8 4 9 5 10 14 11 6 12 7 13
REMARK SMILES IDX 15 14 16 15 20 16 17 17 19 18 18 19 8 20 9 21 13 22 10 23
REMARK SMILES IDX 12 24 11 25 25 26 26 27 27 28 28 30 29 31 30 32 88 33 31 34
REMARK SMILES IDX 87 35 32 36 33 37 34 38 81 39 35 40 86 41 80 42 82 43 36 44
REMARK SMILES IDX 85 45 79 46 78 47 37 49 67 50 48 51 66 52 49 53 52 54 65 55
REMARK SMILES IDX 83 56 50 57 51 58 64 60 84 61 53 62 38 63 39 64 47 65 40 66
REMARK SMILES IDX 46 67 41 68 42 69 43 70 44 71 45 72 68 73 69 74 77 75 70 76
REMARK SMILES IDX 76 77 71 78 72 79 73 80 74 81 75 82 54 83 55 84 63 85 56 86
REMARK SMILES IDX 62 87 57 88 58 89 59 90 60 91 61 92
REMARK H PARENT 21 7 26 29 82 48 52 59
REMARK Flexibility Score: inf
ROOT
ATOM      1  C   UNL A   1      32.134  29.520  26.942  1.00  0.00     0.023 C 
ENDROOT
BRANCH   1   2
ATOM      2  C   UNL A   1      31.854  28.088  27.421  1.00  0.00     0.023 C 
BRANCH   2   3
ATOM      3  C   UNL A   1      31.231  27.134  26.395  1.00  0.00     0.116 C 
BRANCH   3   4
ATOM      4  N   UNL A   1      31.239  25.748  26.824  1.00  0.00    -0.355 N 
ATOM      5  O   UNL A   1      30.239  24.907  24.936  1.00  0.00    -0.273 OA
ATOM      6  C   UNL A   1      30.771  24.720  26.029  1.00  0.00     0.239 C 
ATOM      7  H   UNL A   1      31.593  25.531  27.717  1.00  0.00     0.163 HD
BRANCH   6   8
ATOM      8  C   UNL A   1      30.859  23.332  26.632  1.00  0.00     0.223 C 
BRANCH   8   9
ATOM      9  N   UNL A   1      32.223  22.872  26.812  1.00  0.00    -0.321 N 
ATOM     10  C   UNL A   1      32.767  22.553  28.026  1.00  0.00     0.201 A 
ATOM     11  C   UNL A   1      33.189  22.672  25.846  1.00  0.00     0.076 A 
ATOM     12  N   UNL A   1      34.001  22.128  27.905  1.00  0.00    -0.236 NA
ATOM     13  C   UNL A   1      34.299  22.252  26.571  1.00  0.00     0.096 A 
BRANCH  11  14
ATOM     14  C   UNL A   1      33.023  22.830  24.405  1.00  0.00     0.000 A 
ATOM     15  C   UNL A   1      32.456  21.788  23.657  1.00  0.00     0.010 A 
ATOM     16  C   UNL A   1      33.515  23.958  23.739  1.00  0.00     0.010 A 
ATOM     17  C   UNL A   1      32.381  21.873  22.268  1.00  0.00     0.001 A 
ATOM     18  C   UNL A   1      33.430  24.046  22.349  1.00  0.00     0.001 A 
ATOM     19  C   UNL A   1      32.867  23.004  21.614  1.00  0.00     0.000 A 
ENDBRANCH  11  14
BRANCH  13  20
ATOM     20  C   UNL A   1      35.598  21.941  26.005  1.00  0.00     0.002 A 
ATOM     21  C   UNL A   1      36.648  22.853  26.123  1.00  0.00     0.010 A 
ATOM     22  C   UNL A   1      35.825  20.714  25.363  1.00  0.00     0.010 A 
ATOM     23  C   UNL A   1      37.913  22.534  25.623  1.00  0.00     0.001 A 
ATOM     24  C   UNL A   1      37.088  20.401  24.860  1.00  0.00     0.001 A 
ATOM     25  C   UNL A   1      38.134  21.311  24.993  1.00  0.00     0.000 A 
ENDBRANCH  13  20
ENDBRANCH   8   9
ENDBRANCH   6   8
ENDBRANCH   3   4
ENDBRANCH   2   3
ENDBRANCH   1   2
BRANCH   1  26
ATOM     26  C   UNL A   1      33.601  29.933  26.957  1.00  0.00     0.116 C 
BRANCH  26  27
ATOM     27  N   UNL A   1      33.801  31.376  27.042  1.00  0.00    -0.352 N 
ATOM     28  C   UNL A   1      34.700  32.055  27.851  1.00  0.00     0.251 C 
ATOM     29  H   UNL A   1      33.235  31.931  26.459  1.00  0.00     0.163 HD
ATOM     30  O   UNL A   1      34.511  33.227  28.138  1.00  0.00    -0.269 OA
BRANCH  28  31
ATOM     31  C   UNL A   1      35.879  31.330  28.374  1.00  0.00     0.039 A 
ATOM     32  C   UNL A   1      35.968  29.941  28.284  1.00  0.00     0.014 A 
ATOM     33  C   UNL A   1      36.922  32.065  28.934  1.00  0.00     0.014 A 
ATOM     34  C   UNL A   1      37.157  29.317  28.665  1.00  0.00     0.010 A 
ATOM     35  C   UNL A   1      38.141  31.469  29.171  1.00  0.00     0.010 A 
ATOM     36  C   UNL A   1      38.264  30.089  29.071  1.00  0.00    -0.014 A 
BRANCH  36  37
ATOM     37  C   UNL A   1      39.575  29.458  29.248  1.00  0.00     0.031 A 
ATOM     38  C   UNL A   1      39.912  29.152  30.663  1.00  0.00     0.074 A 
ATOM     39  C   UNL A   1      40.386  29.025  28.257  1.00  0.00     0.049 A 
ATOM     40  N   UNL A   1      40.733  29.806  31.415  1.00  0.00    -0.248 NA
ATOM     41  C   UNL A   1      39.138  28.125  31.377  1.00  0.00     0.031 C 
ATOM     42  C   UNL A   1      40.119  28.981  26.816  1.00  0.00     0.029 A 
ATOM     43  N   UNL A   1      41.609  28.422  28.346  1.00  0.00    -0.354 N 
ATOM     44  C   UNL A   1      40.777  29.115  32.618  1.00  0.00     0.074 A 
ATOM     45  C   UNL A   1      39.637  28.232  32.612  1.00  0.00     0.031 C 
ATOM     46  C   UNL A   1      41.016  28.171  26.209  1.00  0.00     0.029 A 
ATOM     47  C   UNL A   1      42.026  27.786  27.177  1.00  0.00     0.049 A 
ATOM     48  H   UNL A   1      42.151  28.436  29.167  1.00  0.00     0.167 HD
ATOM     49  C   UNL A   1      41.903  29.119  33.386  1.00  0.00     0.031 A 
ATOM     50  C   UNL A   1      43.108  26.979  27.018  1.00  0.00     0.031 A 
ATOM     51  C   UNL A   1      42.834  30.139  32.966  1.00  0.00     0.049 A 
ATOM     52  C   UNL A   1      44.067  27.327  28.093  1.00  0.00     0.074 A 
ATOM     53  C   UNL A   1      42.762  31.507  32.776  1.00  0.00     0.029 A 
ATOM     54  N   UNL A   1      43.945  29.721  32.269  1.00  0.00    -0.354 N 
ATOM     55  N   UNL A   1      44.674  28.477  28.157  1.00  0.00    -0.248 NA
ATOM     56  C   UNL A   1      44.024  26.578  29.339  1.00  0.00     0.031 C 
ATOM     57  C   UNL A   1      43.522  31.752  31.594  1.00  0.00     0.029 A 
ATOM     58  C   UNL A   1      44.089  30.544  31.183  1.00  0.00     0.049 A 
ATOM     59  H   UNL A   1      44.530  28.966  32.508  1.00  0.00     0.167 HD
ATOM     60  C   UNL A   1      44.662  28.805  29.504  1.00  0.00     0.074 A 
ATOM     61  C   UNL A   1      44.355  27.552  30.191  1.00  0.00     0.031 C 
ATOM     62  C   UNL A   1      44.623  30.111  29.909  1.00  0.00     0.031 A 
BRANCH  49  63
ATOM     63  C   UNL A   1      42.350  27.930  34.201  1.00  0.00    -0.014 A 
ATOM     64  C   UNL A   1      42.424  28.058  35.603  1.00  0.00     0.010 A 
ATOM     65  C   UNL A   1      42.977  26.805  33.625  1.00  0.00     0.010 A 
ATOM     66  C   UNL A   1      43.153  27.146  36.377  1.00  0.00     0.020 A 
ATOM     67  C   UNL A   1      43.665  25.865  34.392  1.00  0.00     0.020 A 
ATOM     68  C   UNL A   1      43.779  26.062  35.761  1.00  0.00     0.054 A 
BRANCH  68  69
ATOM     69  S   UNL A   1      44.795  24.943  36.753  1.00  0.00     0.124 S 
ATOM     70  O   UNL A   1      46.129  25.503  36.561  1.00  0.00    -0.237 OA
ATOM     71  O   UNL A   1      44.221  25.109  38.086  1.00  0.00    -0.237 OA
ATOM     72  O   UNL A   1      44.564  23.639  36.138  1.00  0.00    -0.744 OA
ENDBRANCH  68  69
ENDBRANCH  49  63
BRANCH  50  73
ATOM     73  C   UNL A   1      43.252  25.759  26.179  1.00  0.00    -0.014 A 
ATOM     74  C   UNL A   1      44.401  25.558  25.391  1.00  0.00     0.010 A 
ATOM     75  C   UNL A   1      42.405  24.651  26.381  1.00  0.00     0.010 A 
ATOM     76  C   UNL A   1      44.738  24.282  24.907  1.00  0.00     0.020 A 
ATOM     77  C   UNL A   1      42.734  23.374  25.906  1.00  0.00     0.020 A 
ATOM     78  C   UNL A   1      43.916  23.189  25.194  1.00  0.00     0.054 A 
BRANCH  78  79
ATOM     79  S   UNL A   1      44.464  21.515  24.740  1.00  0.00     0.124 S 
ATOM     80  O   UNL A   1      43.378  20.682  25.249  1.00  0.00    -0.237 OA
ATOM     81  O   UNL A   1      44.564  21.595  23.285  1.00  0.00    -0.237 OA
ATOM     82  O   UNL A   1      45.740  21.362  25.435  1.00  0.00    -0.744 OA
ENDBRANCH  78  79
ENDBRANCH  50  73
BRANCH  62  83
ATOM     83  C   UNL A   1      44.961  31.193  28.905  1.00  0.00    -0.014 A 
ATOM     84  C   UNL A   1      46.192  31.877  28.846  1.00  0.00     0.010 A 
ATOM     85  C   UNL A   1      44.002  31.466  27.912  1.00  0.00     0.010 A 
ATOM     86  C   UNL A   1      46.426  32.851  27.861  1.00  0.00     0.020 A 
ATOM     87  C   UNL A   1      44.237  32.414  26.915  1.00  0.00     0.020 A 
ATOM     88  C   UNL A   1      45.440  33.119  26.908  1.00  0.00     0.054 A 
BRANCH  88  89
ATOM     89  S   UNL A   1      45.733  34.394  25.649  1.00  0.00     0.124 S 
ATOM     90  O   UNL A   1      47.165  34.264  25.394  1.00  0.00    -0.237 OA
ATOM     91  O   UNL A   1      44.858  33.978  24.555  1.00  0.00    -0.237 OA
ATOM     92  O   UNL A   1      45.335  35.636  26.312  1.00  0.00    -0.744 OA
ENDBRANCH  88  89
ENDBRANCH  62  83
ENDBRANCH  36  37
ENDBRANCH  28  31
ENDBRANCH  26  27
ENDBRANCH   1  26
TORSDOF 17
ENDMDL
MODEL 3
REMARK VINA RESULT:     -11.8      2.812      9.138
REMARK SMILES O=C(Cn1cnc(-c2ccccc2)c1-c1ccccc1)NCCCCNC(=O)c1ccc(-c2c3nc(c(-c4ccc(S(=O)(=O)[O-])cc4)c4ccc([nH]4)c(-c4ccc(S(=O)(=O)[O-])cc4)c4nc(c(-c5ccc(S(=O)(=O)[O-])cc5)c5ccc2[nH]5)C=C4)C=C3)cc1
REMARK SMILES IDX 24 1 23 2 22 3 21 4 1 5 2 6 3 8 4 9 5 10 14 11 6 12 7 13
REMARK SMILES IDX 15 14 16 15 20 16 17 17 19 18 18 19 8 20 9 21 13 22 10 23
REMARK SMILES IDX 12 24 11 25 25 26 26 27 27 28 28 30 29 31 30 32 88 33 31 34
REMARK SMILES IDX 87 35 32 36 33 37 34 38 81 39 35 40 86 41 80 42 82 43 36 44
REMARK SMILES IDX 85 45 79 46 78 47 37 49 67 50 48 51 66 52 49 53 52 54 65 55
REMARK SMILES IDX 83 56 50 57 51 58 64 60 84 61 53 62 38 63 39 64 47 65 40 66
REMARK SMILES IDX 46 67 41 68 42 69 43 70 44 71 45 72 68 73 69 74 77 75 70 76
REMARK SMILES IDX 76 77 71 78 72 79 73 80 74 81 75 82 54 83 55 84 63 85 56 86
REMARK SMILES IDX 62 87 57 88 58 89 59 90 60 91 61 92
REMARK H PARENT 21 7 26 29 82 48 52 59
REMARK Flexibility Score: inf
ROOT
ATOM      1  C   UNL A   1      41.089  20.258  26.668  1.00  0.00     0.023 C 
ENDROOT
BRANCH   1   2
ATOM      2  C   UNL A   1      40.518  21.452  27.446  1.00  0.00     0.023 C 
BRANCH   2   3
ATOM      3  C   UNL A   1      40.156  22.694  26.624  1.00  0.00     0.116 C 
BRANCH   3   4
ATOM      4  N   UNL A   1      38.974  22.511  25.803  1.00  0.00    -0.355 N 
ATOM      5  O   UNL A   1      37.808  24.293  26.663  1.00  0.00    -0.273 OA
ATOM      6  C   UNL A   1      37.889  23.365  25.859  1.00  0.00     0.239 C 
ATOM      7  H   UNL A   1      38.943  21.749  25.180  1.00  0.00     0.163 HD
BRANCH   6   8
ATOM      8  C   UNL A   1      36.741  23.029  24.929  1.00  0.00     0.223 C 
BRANCH   8   9
ATOM      9  N   UNL A   1      36.436  21.612  24.884  1.00  0.00    -0.321 N 
ATOM     10  C   UNL A   1      37.385  20.626  24.859  1.00  0.00     0.201 A 
ATOM     11  C   UNL A   1      35.195  21.008  24.863  1.00  0.00     0.076 A 
ATOM     12  N   UNL A   1      36.842  19.433  24.859  1.00  0.00    -0.236 NA
ATOM     13  C   UNL A   1      35.489  19.650  24.801  1.00  0.00     0.096 A 
BRANCH  11  14
ATOM     14  C   UNL A   1      33.900  21.678  24.940  1.00  0.00     0.000 A 
ATOM     15  C   UNL A   1      33.358  21.990  26.195  1.00  0.00     0.010 A 
ATOM     16  C   UNL A   1      33.142  21.922  23.790  1.00  0.00     0.010 A 
ATOM     17  C   UNL A   1      32.080  22.536  26.299  1.00  0.00     0.001 A 
ATOM     18  C   UNL A   1      31.866  22.478  23.894  1.00  0.00     0.001 A 
ATOM     19  C   UNL A   1      31.335  22.782  25.147  1.00  0.00     0.000 A 
ENDBRANCH  11  14
BRANCH  13  20
ATOM     20  C   UNL A   1      34.507  18.584  24.726  1.00  0.00     0.002 A 
ATOM     21  C   UNL A   1      33.306  18.690  25.430  1.00  0.00     0.010 A 
ATOM     22  C   UNL A   1      34.735  17.455  23.928  1.00  0.00     0.010 A 
ATOM     23  C   UNL A   1      32.338  17.689  25.320  1.00  0.00     0.001 A 
ATOM     24  C   UNL A   1      33.768  16.453  23.824  1.00  0.00     0.001 A 
ATOM     25  C   UNL A   1      32.567  16.572  24.519  1.00  0.00     0.000 A 
ENDBRANCH  13  20
ENDBRANCH   8   9
ENDBRANCH   6   8
ENDBRANCH   3   4
ENDBRANCH   2   3
ENDBRANCH   1   2
BRANCH   1  26
ATOM     26  C   UNL A   1      42.451  19.767  27.141  1.00  0.00     0.116 C 
BRANCH  26  27
ATOM     27  N   UNL A   1      43.403  19.545  26.057  1.00  0.00    -0.352 N 
ATOM     28  C   UNL A   1      43.938  20.494  25.198  1.00  0.00     0.251 C 
ATOM     29  H   UNL A   1      43.700  18.617  25.919  1.00  0.00     0.163 HD
ATOM     30  O   UNL A   1      44.385  20.162  24.111  1.00  0.00    -0.269 OA
BRANCH  28  31
ATOM     31  C   UNL A   1      43.939  21.914  25.614  1.00  0.00     0.039 A 
ATOM     32  C   UNL A   1      43.203  22.869  24.912  1.00  0.00     0.014 A 
ATOM     33  C   UNL A   1      44.666  22.279  26.744  1.00  0.00     0.014 A 
ATOM     34  C   UNL A   1      43.126  24.166  25.423  1.00  0.00     0.010 A 
ATOM     35  C   UNL A   1      44.471  23.513  27.325  1.00  0.00     0.010 A 
ATOM     36  C   UNL A   1      43.728  24.478  26.658  1.00  0.00    -0.014 A 
BRANCH  36  37
ATOM     37  C   UNL A   1      43.456  25.766  27.305  1.00  0.00     0.031 A 
ATOM     38  C   UNL A   1      44.436  26.831  26.967  1.00  0.00     0.074 A 
ATOM     39  C   UNL A   1      42.354  26.072  28.025  1.00  0.00     0.049 A 
ATOM     40  N   UNL A   1      45.384  27.270  27.725  1.00  0.00    -0.248 NA
ATOM     41  C   UNL A   1      44.486  27.347  25.590  1.00  0.00     0.031 C 
ATOM     42  C   UNL A   1      41.152  25.260  28.242  1.00  0.00     0.029 A 
ATOM     43  N   UNL A   1      42.028  27.246  28.645  1.00  0.00    -0.354 N 
ATOM     44  C   UNL A   1      45.986  28.302  27.020  1.00  0.00     0.074 A 
ATOM     45  C   UNL A   1      45.541  28.164  25.655  1.00  0.00     0.031 C 
ATOM     46  C   UNL A   1      40.152  26.039  28.711  1.00  0.00     0.029 A 
ATOM     47  C   UNL A   1      40.685  27.357  29.002  1.00  0.00     0.049 A 
ATOM     48  H   UNL A   1      42.688  27.954  28.824  1.00  0.00     0.167 HD
ATOM     49  C   UNL A   1      46.568  29.349  27.671  1.00  0.00     0.031 A 
ATOM     50  C   UNL A   1      40.048  28.458  29.481  1.00  0.00     0.031 A 
ATOM     51  C   UNL A   1      46.748  29.072  29.076  1.00  0.00     0.049 A 
ATOM     52  C   UNL A   1      41.083  29.328  30.086  1.00  0.00     0.074 A 
ATOM     53  C   UNL A   1      47.363  28.068  29.801  1.00  0.00     0.029 A 
ATOM     54  N   UNL A   1      45.883  29.690  29.949  1.00  0.00    -0.354 N 
ATOM     55  N   UNL A   1      41.753  28.997  31.153  1.00  0.00    -0.248 NA
ATOM     56  C   UNL A   1      41.693  30.363  29.267  1.00  0.00     0.031 C 
ATOM     57  C   UNL A   1      46.488  27.821  30.900  1.00  0.00     0.029 A 
ATOM     58  C   UNL A   1      45.442  28.744  30.837  1.00  0.00     0.049 A 
ATOM     59  H   UNL A   1      45.627  30.641  29.938  1.00  0.00     0.167 HD
ATOM     60  C   UNL A   1      43.050  29.414  30.896  1.00  0.00     0.074 A 
ATOM     61  C   UNL A   1      42.928  30.346  29.776  1.00  0.00     0.031 C 
ATOM     62  C   UNL A   1      44.120  28.749  31.428  1.00  0.00     0.031 A 
BRANCH  49  63
ATOM     63  C   UNL A   1      46.551  30.762  27.140  1.00  0.00    -0.014 A 
ATOM     64  C   UNL A   1      47.749  31.503  27.148  1.00  0.00     0.010 A 
ATOM     65  C   UNL A   1      45.355  31.477  26.918  1.00  0.00     0.010 A 
ATOM     66  C   UNL A   1      47.740  32.898  27.015  1.00  0.00     0.020 A 
ATOM     67  C   UNL A   1      45.339  32.860  26.737  1.00  0.00     0.020 A 
ATOM     68  C   UNL A   1      46.531  33.566  26.823  1.00  0.00     0.054 A 
BRANCH  68  69
ATOM     69  S   UNL A   1      46.517  35.373  26.746  1.00  0.00     0.124 S 
ATOM     70  O   UNL A   1      45.111  35.648  26.469  1.00  0.00    -0.237 OA
ATOM     71  O   UNL A   1      46.987  35.739  28.079  1.00  0.00    -0.237 OA
ATOM     72  O   UNL A   1      47.444  35.674  25.659  1.00  0.00    -0.744 OA
ENDBRANCH  68  69
ENDBRANCH  49  63
BRANCH  50  73
ATOM     73  C   UNL A   1      38.662  28.928  29.212  1.00  0.00    -0.014 A 
ATOM     74  C   UNL A   1      37.824  29.338  30.266  1.00  0.00     0.010 A 
ATOM     75  C   UNL A   1      38.264  29.262  27.902  1.00  0.00     0.010 A 
ATOM     76  C   UNL A   1      36.687  30.131  30.025  1.00  0.00     0.020 A 
ATOM     77  C   UNL A   1      37.135  30.055  27.652  1.00  0.00     0.020 A 
ATOM     78  C   UNL A   1      36.366  30.510  28.720  1.00  0.00     0.054 A 
BRANCH  78  79
ATOM     79  S   UNL A   1      35.018  31.699  28.441  1.00  0.00     0.124 S 
ATOM     80  O   UNL A   1      34.000  30.872  27.799  1.00  0.00    -0.237 OA
ATOM     81  O   UNL A   1      34.702  32.147  29.794  1.00  0.00    -0.237 OA
ATOM     82  O   UNL A   1      35.619  32.718  27.582  1.00  0.00    -0.744 OA
ENDBRANCH  78  79
ENDBRANCH  50  73
BRANCH  62  83
ATOM     83  C   UNL A   1      43.882  27.795  32.580  1.00  0.00    -0.014 A 
ATOM     84  C   UNL A   1      43.443  28.180  33.863  1.00  0.00     0.010 A 
ATOM     85  C   UNL A   1      44.030  26.421  32.314  1.00  0.00     0.010 A 
ATOM     86  C   UNL A   1      43.224  27.220  34.865  1.00  0.00     0.020 A 
ATOM     87  C   UNL A   1      43.790  25.460  33.298  1.00  0.00     0.020 A 
ATOM     88  C   UNL A   1      43.410  25.866  34.577  1.00  0.00     0.054 A 
BRANCH  88  89
ATOM     89  S   UNL A   1      43.150  24.628  35.878  1.00  0.00     0.124 S 
ATOM     90  O   UNL A   1      44.182  23.637  35.586  1.00  0.00    -0.237 OA
ATOM     91  O   UNL A   1      43.345  25.399  37.104  1.00  0.00    -0.237 OA
ATOM     92  O   UNL A   1      41.777  24.172  35.655  1.00  0.00    -0.744 OA
ENDBRANCH  88  89
ENDBRANCH  62  83
ENDBRANCH  36  37
ENDBRANCH  28  31
ENDBRANCH  26  27
ENDBRANCH   1  26
TORSDOF 17
ENDMDL
