MODEL 1
REMARK VINA RESULT:     -13.3      0.000      0.000
REMARK SMILES Cc1ccc(N2C(=O)C[C@H](Sc3ccccc3C(=O)NCCCCNC(=O)c3ccc(-c4c5nc(c(-c6ccc(S(=O)(=O)[O-])cc6)c6ccc([nH]6)c(-c6ccc(S(=O)(=O)[O-])cc6)c6nc(c(-c7ccc(S(=O)(=O)[O-])cc7)c7ccc4[nH]7)C=C6)C=C5)cc3)C2=O)cc1
REMARK SMILES IDX 22 1 21 2 20 3 18 4 19 5 17 7 12 8 13 9 14 10 16 11 15 12
REMARK SMILES IDX 11 13 10 14 6 15 7 16 88 17 8 18 9 19 89 20 5 21 1 22 2 23
REMARK SMILES IDX 3 24 91 25 4 26 90 27 23 28 24 29 25 30 26 31 27 33 28 34
REMARK SMILES IDX 29 35 87 36 30 37 86 38 31 39 32 40 33 41 80 42 34 43 85 44
REMARK SMILES IDX 79 45 81 46 35 47 84 48 78 49 77 50 36 52 66 53 47 54 65 55
REMARK SMILES IDX 48 56 51 57 64 58 82 59 49 60 50 61 63 63 83 64 52 65 37 66
REMARK SMILES IDX 38 67 46 68 39 69 45 70 40 71 41 72 42 73 43 74 44 75 67 76
REMARK SMILES IDX 68 77 76 78 69 79 75 80 70 81 71 82 72 83 73 84 74 85 53 86
REMARK SMILES IDX 54 87 62 88 55 89 61 90 56 91 57 92 58 93 59 94 60 95
REMARK H PARENT 20 6 25 32 81 51 51 62
REMARK Flexibility Score: inf
ROOT
ATOM      1  C   UNL A   1      37.128  22.025  24.146  1.00  0.00     0.023 C 
ENDROOT
BRANCH   1   2
ATOM      2  C   UNL A   1      35.929  22.756  23.537  1.00  0.00     0.116 C 
BRANCH   2   3
ATOM      3  N   UNL A   1      35.612  24.055  24.132  1.00  0.00    -0.352 N 
ATOM      4  C   UNL A   1      34.625  24.508  24.981  1.00  0.00     0.252 C 
ATOM      5  O   UNL A   1      34.729  25.652  25.419  1.00  0.00    -0.269 OA
ATOM      6  H   UNL A   1      36.246  24.761  23.869  1.00  0.00     0.163 HD
BRANCH   4   7
ATOM      7  C   UNL A   1      33.432  23.690  25.329  1.00  0.00     0.053 A 
ATOM      8  C   UNL A   1      32.383  23.429  24.413  1.00  0.00     0.021 A 
ATOM      9  C   UNL A   1      31.317  22.602  24.822  1.00  0.00     0.016 A 
ATOM     10  C   UNL A   1      31.258  22.083  26.117  1.00  0.00     0.001 A 
ATOM     11  C   UNL A   1      33.297  23.243  26.654  1.00  0.00     0.015 A 
ATOM     12  C   UNL A   1      32.234  22.427  27.042  1.00  0.00     0.001 A 
BRANCH   8  13
ATOM     13  S   UNL A   1      32.066  24.322  22.880  1.00  0.00    -0.111 SA
BRANCH  13  14
ATOM     14  C   UNL A   1      31.132  25.810  23.346  1.00  0.00     0.151 C 
ATOM     15  N   UNL A   1      31.743  27.341  24.997  1.00  0.00    -0.250 N 
ATOM     16  C   UNL A   1      30.804  26.521  25.580  1.00  0.00     0.235 C 
ATOM     17  C   UNL A   1      31.993  26.997  23.687  1.00  0.00     0.247 C 
ATOM     18  O   UNL A   1      30.380  26.544  26.728  1.00  0.00    -0.274 OA
ATOM     19  C   UNL A   1      30.199  25.656  24.520  1.00  0.00     0.126 C 
ATOM     20  O   UNL A   1      32.777  27.523  22.904  1.00  0.00    -0.273 OA
BRANCH  15  21
ATOM     21  C   UNL A   1      32.302  28.469  25.648  1.00  0.00     0.052 A 
ATOM     22  C   UNL A   1      33.827  31.812  27.929  1.00  0.00     0.044 C 
ATOM     23  C   UNL A   1      33.322  30.667  27.103  1.00  0.00    -0.051 A 
ATOM     24  C   UNL A   1      32.106  30.770  26.421  1.00  0.00     0.005 A 
ATOM     25  C   UNL A   1      34.026  29.461  27.051  1.00  0.00     0.005 A 
ATOM     26  C   UNL A   1      31.614  29.690  25.680  1.00  0.00     0.027 A 
ATOM     27  C   UNL A   1      33.515  28.370  26.342  1.00  0.00     0.027 A 
ENDBRANCH  15  21
ENDBRANCH  13  14
ENDBRANCH   8  13
ENDBRANCH   4   7
ENDBRANCH   2   3
ENDBRANCH   1   2
BRANCH   1  28
ATOM     28  C   UNL A   1      37.312  22.153  25.655  1.00  0.00     0.023 C 
BRANCH  28  29
ATOM     29  C   UNL A   1      38.128  23.356  26.116  1.00  0.00     0.116 C 
BRANCH  29  30
ATOM     30  N   UNL A   1      39.290  23.026  26.929  1.00  0.00    -0.352 N 
ATOM     31  C   UNL A   1      40.160  23.906  27.568  1.00  0.00     0.251 C 
ATOM     32  H   UNL A   1      39.485  22.068  27.039  1.00  0.00     0.163 HD
ATOM     33  O   UNL A   1      41.229  23.565  28.016  1.00  0.00    -0.269 OA
BRANCH  31  34
ATOM     34  C   UNL A   1      39.655  25.283  27.791  1.00  0.00     0.039 A 
ATOM     35  C   UNL A   1      40.128  26.280  26.930  1.00  0.00     0.014 A 
ATOM     36  C   UNL A   1      39.009  25.604  28.978  1.00  0.00     0.014 A 
ATOM     37  C   UNL A   1      40.149  27.602  27.366  1.00  0.00     0.010 A 
ATOM     38  C   UNL A   1      39.126  26.894  29.453  1.00  0.00     0.010 A 
ATOM     39  C   UNL A   1      39.748  27.879  28.671  1.00  0.00    -0.014 A 
BRANCH  39  40
ATOM     40  C   UNL A   1      39.983  29.150  29.341  1.00  0.00     0.031 A 
ATOM     41  C   UNL A   1      38.976  30.229  29.216  1.00  0.00     0.074 A 
ATOM     42  C   UNL A   1      41.043  29.287  30.171  1.00  0.00     0.049 A 
ATOM     43  N   UNL A   1      39.185  31.473  29.489  1.00  0.00    -0.248 NA
ATOM     44  C   UNL A   1      37.634  29.980  28.695  1.00  0.00     0.031 C 
ATOM     45  C   UNL A   1      41.248  30.343  31.161  1.00  0.00     0.029 A 
ATOM     46  N   UNL A   1      42.269  28.614  30.148  1.00  0.00    -0.354 N 
ATOM     47  C   UNL A   1      37.958  32.102  29.506  1.00  0.00     0.074 A 
ATOM     48  C   UNL A   1      37.052  31.164  28.891  1.00  0.00     0.031 C 
ATOM     49  C   UNL A   1      42.563  30.447  31.411  1.00  0.00     0.029 A 
ATOM     50  C   UNL A   1      43.240  29.581  30.460  1.00  0.00     0.049 A 
ATOM     51  H   UNL A   1      42.420  27.660  29.953  1.00  0.00     0.167 HD
ATOM     52  C   UNL A   1      37.818  33.277  30.185  1.00  0.00     0.031 A 
ATOM     53  C   UNL A   1      44.208  29.995  29.589  1.00  0.00     0.031 A 
ATOM     54  C   UNL A   1      39.118  33.799  30.610  1.00  0.00     0.049 A 
ATOM     55  C   UNL A   1      44.158  31.486  29.312  1.00  0.00     0.074 A 
ATOM     56  C   UNL A   1      39.787  33.808  31.822  1.00  0.00     0.029 A 
ATOM     57  N   UNL A   1      40.057  34.142  29.641  1.00  0.00    -0.354 N 
ATOM     58  N   UNL A   1      43.122  32.240  29.565  1.00  0.00    -0.248 NA
ATOM     59  C   UNL A   1      45.255  32.240  28.711  1.00  0.00     0.031 C 
ATOM     60  C   UNL A   1      41.163  34.049  31.559  1.00  0.00     0.029 A 
ATOM     61  C   UNL A   1      41.320  34.228  30.196  1.00  0.00     0.049 A 
ATOM     62  H   UNL A   1      39.850  34.304  28.692  1.00  0.00     0.167 HD
ATOM     63  C   UNL A   1      43.386  33.533  29.198  1.00  0.00     0.074 A 
ATOM     64  C   UNL A   1      44.739  33.483  28.673  1.00  0.00     0.031 C 
ATOM     65  C   UNL A   1      42.472  34.536  29.355  1.00  0.00     0.031 A 
BRANCH  52  66
ATOM     66  C   UNL A   1      36.491  33.798  30.713  1.00  0.00    -0.014 A 
ATOM     67  C   UNL A   1      35.489  34.208  29.807  1.00  0.00     0.010 A 
ATOM     68  C   UNL A   1      36.192  33.998  32.075  1.00  0.00     0.010 A 
ATOM     69  C   UNL A   1      34.313  34.856  30.228  1.00  0.00     0.020 A 
ATOM     70  C   UNL A   1      35.036  34.660  32.512  1.00  0.00     0.020 A 
ATOM     71  C   UNL A   1      34.105  35.101  31.583  1.00  0.00     0.054 A 
BRANCH  71  72
ATOM     72  S   UNL A   1      32.626  36.001  32.118  1.00  0.00     0.124 S 
ATOM     73  O   UNL A   1      33.151  36.877  33.162  1.00  0.00    -0.237 OA
ATOM     74  O   UNL A   1      32.201  36.665  30.890  1.00  0.00    -0.237 OA
ATOM     75  O   UNL A   1      31.731  34.947  32.593  1.00  0.00    -0.744 OA
ENDBRANCH  71  72
ENDBRANCH  52  66
BRANCH  53  76
ATOM     76  C   UNL A   1      44.649  28.957  28.615  1.00  0.00    -0.014 A 
ATOM     77  C   UNL A   1      44.024  28.954  27.349  1.00  0.00     0.010 A 
ATOM     78  C   UNL A   1      45.894  28.320  28.759  1.00  0.00     0.010 A 
ATOM     79  C   UNL A   1      44.708  28.497  26.220  1.00  0.00     0.020 A 
ATOM     80  C   UNL A   1      46.578  27.850  27.627  1.00  0.00     0.020 A 
ATOM     81  C   UNL A   1      46.008  28.011  26.361  1.00  0.00     0.054 A 
BRANCH  81  82
ATOM     82  S   UNL A   1      47.002  27.815  24.850  1.00  0.00     0.124 S 
ATOM     83  O   UNL A   1      48.359  27.722  25.380  1.00  0.00    -0.237 OA
ATOM     84  O   UNL A   1      46.456  26.576  24.295  1.00  0.00    -0.237 OA
ATOM     85  O   UNL A   1      46.703  29.026  24.093  1.00  0.00    -0.744 OA
ENDBRANCH  81  82
ENDBRANCH  53  76
BRANCH  65  86
ATOM     86  C   UNL A   1      42.590  35.938  28.801  1.00  0.00    -0.014 A 
ATOM     87  C   UNL A   1      41.965  36.377  27.624  1.00  0.00     0.010 A 
ATOM     88  C   UNL A   1      43.261  36.919  29.573  1.00  0.00     0.010 A 
ATOM     89  C   UNL A   1      42.059  37.712  27.203  1.00  0.00     0.020 A 
ATOM     90  C   UNL A   1      43.321  38.262  29.187  1.00  0.00     0.020 A 
ATOM     91  C   UNL A   1      42.739  38.646  27.986  1.00  0.00     0.054 A 
BRANCH  91  92
ATOM     92  S   UNL A   1      42.798  40.380  27.468  1.00  0.00     0.124 S 
ATOM     93  O   UNL A   1      43.155  40.260  26.057  1.00  0.00    -0.237 OA
ATOM     94  O   UNL A   1      41.438  40.848  27.731  1.00  0.00    -0.237 OA
ATOM     95  O   UNL A   1      43.825  40.960  28.330  1.00  0.00    -0.744 OA
ENDBRANCH  91  92
ENDBRANCH  65  86
ENDBRANCH  39  40
ENDBRANCH  31  34
ENDBRANCH  29  30
ENDBRANCH  28  29
ENDBRANCH   1  28
TORSDOF 17
ENDMDL
MODEL 2
REMARK VINA RESULT:     -13.3      4.786     11.370
REMARK SMILES Cc1ccc(N2C(=O)C[C@H](Sc3ccccc3C(=O)NCCCCNC(=O)c3ccc(-c4c5nc(c(-c6ccc(S(=O)(=O)[O-])cc6)c6ccc([nH]6)c(-c6ccc(S(=O)(=O)[O-])cc6)c6nc(c(-c7ccc(S(=O)(=O)[O-])cc7)c7ccc4[nH]7)C=C6)C=C5)cc3)C2=O)cc1
REMARK SMILES IDX 22 1 21 2 20 3 18 4 19 5 17 7 12 8 13 9 14 10 16 11 15 12
REMARK SMILES IDX 11 13 10 14 6 15 7 16 88 17 8 18 9 19 89 20 5 21 1 22 2 23
REMARK SMILES IDX 3 24 91 25 4 26 90 27 23 28 24 29 25 30 26 31 27 33 28 34
REMARK SMILES IDX 29 35 87 36 30 37 86 38 31 39 32 40 33 41 80 42 34 43 85 44
REMARK SMILES IDX 79 45 81 46 35 47 84 48 78 49 77 50 36 52 66 53 47 54 65 55
REMARK SMILES IDX 48 56 51 57 64 58 82 59 49 60 50 61 63 63 83 64 52 65 37 66
REMARK SMILES IDX 38 67 46 68 39 69 45 70 40 71 41 72 42 73 43 74 44 75 67 76
REMARK SMILES IDX 68 77 76 78 69 79 75 80 70 81 71 82 72 83 73 84 74 85 53 86
REMARK SMILES IDX 54 87 62 88 55 89 61 90 56 91 57 92 58 93 59 94 60 95
REMARK H PARENT 20 6 25 32 81 51 51 62
REMARK Flexibility Score: inf
ROOT
ATOM      1  C   UNL A   1      32.269  29.023  26.545  1.00  0.00     0.023 C 
ENDROOT
BRANCH   1   2
ATOM      2  C   UNL A   1      31.506  28.783  25.240  1.00  0.00     0.116 C 
BRANCH   2   3
ATOM      3  N   UNL A   1      30.562  27.664  25.258  1.00  0.00    -0.352 N 
ATOM      4  C   UNL A   1      30.560  26.399  24.710  1.00  0.00     0.252 C 
ATOM      5  O   UNL A   1      29.659  25.633  25.043  1.00  0.00    -0.269 OA
ATOM      6  H   UNL A   1      29.749  27.858  25.778  1.00  0.00     0.163 HD
BRANCH   4   7
ATOM      7  C   UNL A   1      31.565  25.962  23.702  1.00  0.00     0.053 A 
ATOM      8  C   UNL A   1      32.836  25.445  24.056  1.00  0.00     0.021 A 
ATOM      9  C   UNL A   1      33.700  25.014  23.029  1.00  0.00     0.016 A 
ATOM     10  C   UNL A   1      33.344  25.131  21.684  1.00  0.00     0.001 A 
ATOM     11  C   UNL A   1      31.274  26.166  22.343  1.00  0.00     0.015 A 
ATOM     12  C   UNL A   1      32.143  25.733  21.340  1.00  0.00     0.001 A 
BRANCH   8  13
ATOM     13  S   UNL A   1      33.634  25.599  25.665  1.00  0.00    -0.111 SA
BRANCH  13  14
ATOM     14  C   UNL A   1      33.297  24.047  26.547  1.00  0.00     0.151 C 
ATOM     15  N   UNL A   1      32.650  22.033  25.563  1.00  0.00    -0.250 N 
ATOM     16  C   UNL A   1      31.490  22.603  26.041  1.00  0.00     0.235 C 
ATOM     17  C   UNL A   1      33.756  22.812  25.820  1.00  0.00     0.247 C 
ATOM     18  O   UNL A   1      30.345  22.182  25.956  1.00  0.00    -0.274 OA
ATOM     19  C   UNL A   1      31.850  23.785  26.882  1.00  0.00     0.126 C 
ATOM     20  O   UNL A   1      34.924  22.588  25.517  1.00  0.00    -0.273 OA
BRANCH  15  21
ATOM     21  C   UNL A   1      32.697  20.746  24.971  1.00  0.00     0.052 A 
ATOM     22  C   UNL A   1      33.174  16.896  23.060  1.00  0.00     0.044 C 
ATOM     23  C   UNL A   1      32.966  18.219  23.734  1.00  0.00    -0.051 A 
ATOM     24  C   UNL A   1      32.522  19.323  23.002  1.00  0.00     0.005 A 
ATOM     25  C   UNL A   1      33.272  18.384  25.088  1.00  0.00     0.005 A 
ATOM     26  C   UNL A   1      32.364  20.569  23.621  1.00  0.00     0.027 A 
ATOM     27  C   UNL A   1      33.151  19.638  25.696  1.00  0.00     0.027 A 
ENDBRANCH  15  21
ENDBRANCH  13  14
ENDBRANCH   8  13
ENDBRANCH   4   7
ENDBRANCH   2   3
ENDBRANCH   1   2
BRANCH   1  28
ATOM     28  C   UNL A   1      33.211  30.223  26.574  1.00  0.00     0.023 C 
BRANCH  28  29
ATOM     29  C   UNL A   1      34.601  29.952  27.138  1.00  0.00     0.116 C 
BRANCH  29  30
ATOM     30  N   UNL A   1      35.369  31.145  27.464  1.00  0.00    -0.352 N 
ATOM     31  C   UNL A   1      36.619  31.213  28.074  1.00  0.00     0.251 C 
ATOM     32  H   UNL A   1      34.955  32.006  27.228  1.00  0.00     0.163 HD
ATOM     33  O   UNL A   1      37.074  32.236  28.527  1.00  0.00    -0.269 OA
BRANCH  31  34
ATOM     34  C   UNL A   1      37.438  29.977  28.032  1.00  0.00     0.039 A 
ATOM     35  C   UNL A   1      37.432  29.172  29.177  1.00  0.00     0.014 A 
ATOM     36  C   UNL A   1      38.396  29.810  27.040  1.00  0.00     0.014 A 
ATOM     37  C   UNL A   1      38.520  28.342  29.432  1.00  0.00     0.010 A 
ATOM     38  C   UNL A   1      39.522  29.071  27.342  1.00  0.00     0.010 A 
ATOM     39  C   UNL A   1      39.607  28.385  28.562  1.00  0.00    -0.014 A 
BRANCH  39  40
ATOM     40  C   UNL A   1      40.906  27.795  28.856  1.00  0.00     0.031 A 
ATOM     41  C   UNL A   1      41.140  26.368  28.535  1.00  0.00     0.074 A 
ATOM     42  C   UNL A   1      41.918  28.580  29.292  1.00  0.00     0.049 A 
ATOM     43  N   UNL A   1      42.104  25.651  29.005  1.00  0.00    -0.248 NA
ATOM     44  C   UNL A   1      40.231  25.608  27.680  1.00  0.00     0.031 C 
ATOM     45  C   UNL A   1      43.340  28.239  29.317  1.00  0.00     0.029 A 
ATOM     46  N   UNL A   1      41.853  29.781  30.007  1.00  0.00    -0.354 N 
ATOM     47  C   UNL A   1      42.139  24.480  28.276  1.00  0.00     0.074 A 
ATOM     48  C   UNL A   1      40.890  24.453  27.557  1.00  0.00     0.031 C 
ATOM     49  C   UNL A   1      43.946  29.003  30.240  1.00  0.00     0.029 A 
ATOM     50  C   UNL A   1      42.898  29.721  30.944  1.00  0.00     0.049 A 
ATOM     51  H   UNL A   1      41.209  30.514  29.879  1.00  0.00     0.167 HD
ATOM     52  C   UNL A   1      43.290  23.749  28.241  1.00  0.00     0.031 A 
ATOM     53  C   UNL A   1      42.705  29.680  32.296  1.00  0.00     0.031 A 
ATOM     54  C   UNL A   1      44.264  24.250  29.213  1.00  0.00     0.049 A 
ATOM     55  C   UNL A   1      43.306  28.445  32.943  1.00  0.00     0.074 A 
ATOM     56  C   UNL A   1      45.400  25.033  29.100  1.00  0.00     0.029 A 
ATOM     57  N   UNL A   1      43.946  24.211  30.568  1.00  0.00    -0.354 N 
ATOM     58  N   UNL A   1      43.647  27.370  32.284  1.00  0.00    -0.248 NA
ATOM     59  C   UNL A   1      43.549  28.313  34.377  1.00  0.00     0.031 C 
ATOM     60  C   UNL A   1      45.697  25.558  30.387  1.00  0.00     0.029 A 
ATOM     61  C   UNL A   1      44.768  25.060  31.285  1.00  0.00     0.049 A 
ATOM     62  H   UNL A   1      43.235  23.654  30.961  1.00  0.00     0.167 HD
ATOM     63  C   UNL A   1      44.151  26.435  33.149  1.00  0.00     0.074 A 
ATOM     64  C   UNL A   1      44.074  27.076  34.450  1.00  0.00     0.031 C 
ATOM     65  C   UNL A   1      44.589  25.212  32.724  1.00  0.00     0.031 A 
BRANCH  52  66
ATOM     66  C   UNL A   1      43.640  22.772  27.129  1.00  0.00    -0.014 A 
ATOM     67  C   UNL A   1      42.809  21.656  26.891  1.00  0.00     0.010 A 
ATOM     68  C   UNL A   1      44.808  22.835  26.345  1.00  0.00     0.010 A 
ATOM     69  C   UNL A   1      43.166  20.629  25.998  1.00  0.00     0.020 A 
ATOM     70  C   UNL A   1      45.191  21.811  25.465  1.00  0.00     0.020 A 
ATOM     71  C   UNL A   1      44.372  20.702  25.307  1.00  0.00     0.054 A 
BRANCH  71  72
ATOM     72  S   UNL A   1      44.867  19.343  24.214  1.00  0.00     0.124 S 
ATOM     73  O   UNL A   1      46.324  19.376  24.311  1.00  0.00    -0.237 OA
ATOM     74  O   UNL A   1      44.217  18.191  24.830  1.00  0.00    -0.237 OA
ATOM     75  O   UNL A   1      44.329  19.732  22.911  1.00  0.00    -0.744 OA
ENDBRANCH  71  72
ENDBRANCH  52  66
BRANCH  53  76
ATOM     76  C   UNL A   1      41.479  30.383  32.768  1.00  0.00    -0.014 A 
ATOM     77  C   UNL A   1      40.322  29.599  32.969  1.00  0.00     0.010 A 
ATOM     78  C   UNL A   1      41.569  31.635  33.402  1.00  0.00     0.010 A 
ATOM     79  C   UNL A   1      39.371  29.967  33.923  1.00  0.00     0.020 A 
ATOM     80  C   UNL A   1      40.608  32.012  34.353  1.00  0.00     0.020 A 
ATOM     81  C   UNL A   1      39.559  31.138  34.656  1.00  0.00     0.054 A 
BRANCH  81  82
ATOM     82  S   UNL A   1      38.542  31.372  36.147  1.00  0.00     0.124 S 
ATOM     83  O   UNL A   1      38.466  30.018  36.687  1.00  0.00    -0.237 OA
ATOM     84  O   UNL A   1      39.359  32.312  36.917  1.00  0.00    -0.237 OA
ATOM     85  O   UNL A   1      37.294  31.911  35.620  1.00  0.00    -0.744 OA
ENDBRANCH  81  82
ENDBRANCH  53  76
BRANCH  65  86
ATOM     86  C   UNL A   1      44.967  24.049  33.614  1.00  0.00    -0.014 A 
ATOM     87  C   UNL A   1      44.092  23.014  33.976  1.00  0.00     0.010 A 
ATOM     88  C   UNL A   1      46.322  23.907  34.008  1.00  0.00     0.010 A 
ATOM     89  C   UNL A   1      44.528  21.926  34.746  1.00  0.00     0.020 A 
ATOM     90  C   UNL A   1      46.777  22.804  34.736  1.00  0.00     0.020 A 
ATOM     91  C   UNL A   1      45.867  21.829  35.125  1.00  0.00     0.054 A 
BRANCH  91  92
ATOM     92  S   UNL A   1      46.435  20.388  36.063  1.00  0.00     0.124 S 
ATOM     93  O   UNL A   1      46.014  19.285  35.203  1.00  0.00    -0.237 OA
ATOM     94  O   UNL A   1      47.879  20.599  36.149  1.00  0.00    -0.237 OA
ATOM     95  O   UNL A   1      45.720  20.503  37.332  1.00  0.00    -0.744 OA
ENDBRANCH  91  92
ENDBRANCH  65  86
ENDBRANCH  39  40
ENDBRANCH  31  34
ENDBRANCH  29  30
ENDBRANCH  28  29
ENDBRANCH   1  28
TORSDOF 17
ENDMDL
MODEL 3
REMARK VINA RESULT:     -13.1      1.030      1.533
REMARK SMILES Cc1ccc(N2C(=O)C[C@H](Sc3ccccc3C(=O)NCCCCNC(=O)c3ccc(-c4c5nc(c(-c6ccc(S(=O)(=O)[O-])cc6)c6ccc([nH]6)c(-c6ccc(S(=O)(=O)[O-])cc6)c6nc(c(-c7ccc(S(=O)(=O)[O-])cc7)c7ccc4[nH]7)C=C6)C=C5)cc3)C2=O)cc1
REMARK SMILES IDX 22 1 21 2 20 3 18 4 19 5 17 7 12 8 13 9 14 10 16 11 15 12
REMARK SMILES IDX 11 13 10 14 6 15 7 16 88 17 8 18 9 19 89 20 5 21 1 22 2 23
REMARK SMILES IDX 3 24 91 25 4 26 90 27 23 28 24 29 25 30 26 31 27 33 28 34
REMARK SMILES IDX 29 35 87 36 30 37 86 38 31 39 32 40 33 41 80 42 34 43 85 44
REMARK SMILES IDX 79 45 81 46 35 47 84 48 78 49 77 50 36 52 66 53 47 54 65 55
REMARK SMILES IDX 48 56 51 57 64 58 82 59 49 60 50 61 63 63 83 64 52 65 37 66
REMARK SMILES IDX 38 67 46 68 39 69 45 70 40 71 41 72 42 73 43 74 44 75 67 76
REMARK SMILES IDX 68 77 76 78 69 79 75 80 70 81 71 82 72 83 73 84 74 85 53 86
REMARK SMILES IDX 54 87 62 88 55 89 61 90 56 91 57 92 58 93 59 94 60 95
REMARK H PARENT 20 6 25 32 81 51 51 62
REMARK Flexibility Score: inf
ROOT
ATOM      1  C   UNL A   1      36.365  22.078  24.951  1.00  0.00     0.023 C 
ENDROOT
BRANCH   1   2
ATOM      2  C   UNL A   1      35.553  23.319  25.328  1.00  0.00     0.116 C 
BRANCH   2   3
ATOM      3  N   UNL A   1      34.419  23.084  26.223  1.00  0.00    -0.352 N 
ATOM      4  C   UNL A   1      33.270  22.327  26.139  1.00  0.00     0.252 C 
ATOM      5  O   UNL A   1      32.576  22.228  27.149  1.00  0.00    -0.269 OA
ATOM      6  H   UNL A   1      34.494  23.574  27.073  1.00  0.00     0.163 HD
BRANCH   4   7
ATOM      7  C   UNL A   1      32.825  21.685  24.872  1.00  0.00     0.053 A 
ATOM      8  C   UNL A   1      32.192  22.403  23.827  1.00  0.00     0.021 A 
ATOM      9  C   UNL A   1      31.850  21.716  22.645  1.00  0.00     0.016 A 
ATOM     10  C   UNL A   1      32.081  20.345  22.510  1.00  0.00     0.001 A 
ATOM     11  C   UNL A   1      32.950  20.291  24.754  1.00  0.00     0.015 A 
ATOM     12  C   UNL A   1      32.604  19.627  23.576  1.00  0.00     0.001 A 
BRANCH   8  13
ATOM     13  S   UNL A   1      31.443  24.037  23.963  1.00  0.00    -0.111 SA
BRANCH  13  14
ATOM     14  C   UNL A   1      32.814  25.229  23.896  1.00  0.00     0.151 C 
ATOM     15  N   UNL A   1      32.760  27.414  24.714  1.00  0.00    -0.250 N 
ATOM     16  C   UNL A   1      32.550  27.519  23.356  1.00  0.00     0.235 C 
ATOM     17  C   UNL A   1      32.927  26.106  25.114  1.00  0.00     0.247 C 
ATOM     18  O   UNL A   1      32.344  28.527  22.694  1.00  0.00    -0.274 OA
ATOM     19  C   UNL A   1      32.794  26.184  22.729  1.00  0.00     0.126 C 
ATOM     20  O   UNL A   1      33.122  25.683  26.248  1.00  0.00    -0.273 OA
BRANCH  15  21
ATOM     21  C   UNL A   1      32.891  28.536  25.569  1.00  0.00     0.052 A 
ATOM     22  C   UNL A   1      33.395  32.147  27.894  1.00  0.00     0.044 C 
ATOM     23  C   UNL A   1      33.208  30.873  27.126  1.00  0.00    -0.051 A 
ATOM     24  C   UNL A   1      34.286  30.009  26.916  1.00  0.00     0.005 A 
ATOM     25  C   UNL A   1      31.971  30.561  26.555  1.00  0.00     0.005 A 
ATOM     26  C   UNL A   1      34.122  28.838  26.167  1.00  0.00     0.027 A 
ATOM     27  C   UNL A   1      31.818  29.412  25.774  1.00  0.00     0.027 A 
ENDBRANCH  15  21
ENDBRANCH  13  14
ENDBRANCH   8  13
ENDBRANCH   4   7
ENDBRANCH   2   3
ENDBRANCH   1   2
BRANCH   1  28
ATOM     28  C   UNL A   1      37.852  22.106  25.289  1.00  0.00     0.023 C 
BRANCH  28  29
ATOM     29  C   UNL A   1      38.292  23.232  26.218  1.00  0.00     0.116 C 
BRANCH  29  30
ATOM     30  N   UNL A   1      39.481  22.942  27.007  1.00  0.00    -0.352 N 
ATOM     31  C   UNL A   1      40.348  23.852  27.606  1.00  0.00     0.251 C 
ATOM     32  H   UNL A   1      39.698  21.990  27.129  1.00  0.00     0.163 HD
ATOM     33  O   UNL A   1      41.435  23.541  28.032  1.00  0.00    -0.269 OA
BRANCH  31  34
ATOM     34  C   UNL A   1      39.821  25.222  27.817  1.00  0.00     0.039 A 
ATOM     35  C   UNL A   1      40.260  26.215  26.933  1.00  0.00     0.014 A 
ATOM     36  C   UNL A   1      39.189  25.549  29.009  1.00  0.00     0.014 A 
ATOM     37  C   UNL A   1      40.263  27.542  27.349  1.00  0.00     0.010 A 
ATOM     38  C   UNL A   1      39.289  26.848  29.463  1.00  0.00     0.010 A 
ATOM     39  C   UNL A   1      39.879  27.832  28.656  1.00  0.00    -0.014 A 
BRANCH  39  40
ATOM     40  C   UNL A   1      40.101  29.118  29.302  1.00  0.00     0.031 A 
ATOM     41  C   UNL A   1      39.082  30.184  29.159  1.00  0.00     0.074 A 
ATOM     42  C   UNL A   1      41.160  29.282  30.128  1.00  0.00     0.049 A 
ATOM     43  N   UNL A   1      39.277  31.434  29.409  1.00  0.00    -0.248 NA
ATOM     44  C   UNL A   1      37.743  29.910  28.644  1.00  0.00     0.031 C 
ATOM     45  C   UNL A   1      41.354  30.358  31.098  1.00  0.00     0.029 A 
ATOM     46  N   UNL A   1      42.394  28.621  30.116  1.00  0.00    -0.354 N 
ATOM     47  C   UNL A   1      38.044  32.050  29.416  1.00  0.00     0.074 A 
ATOM     48  C   UNL A   1      37.147  31.092  28.819  1.00  0.00     0.031 C 
ATOM     49  C   UNL A   1      42.668  30.480  31.345  1.00  0.00     0.029 A 
ATOM     50  C   UNL A   1      43.354  29.605  30.409  1.00  0.00     0.049 A 
ATOM     51  H   UNL A   1      42.554  27.666  29.938  1.00  0.00     0.167 HD
ATOM     52  C   UNL A   1      37.892  33.236  30.073  1.00  0.00     0.031 A 
ATOM     53  C   UNL A   1      44.317  30.013  29.529  1.00  0.00     0.031 A 
ATOM     54  C   UNL A   1      39.187  33.779  30.487  1.00  0.00     0.049 A 
ATOM     55  C   UNL A   1      44.250  31.498  29.226  1.00  0.00     0.074 A 
ATOM     56  C   UNL A   1      39.856  33.818  31.698  1.00  0.00     0.029 A 
ATOM     57  N   UNL A   1      40.121  34.115  29.511  1.00  0.00    -0.354 N 
ATOM     58  N   UNL A   1      43.206  32.245  29.466  1.00  0.00    -0.248 NA
ATOM     59  C   UNL A   1      45.338  32.254  28.610  1.00  0.00     0.031 C 
ATOM     60  C   UNL A   1      41.229  34.069  31.429  1.00  0.00     0.029 A 
ATOM     61  C   UNL A   1      41.383  34.225  30.063  1.00  0.00     0.049 A 
ATOM     62  H   UNL A   1      39.910  34.257  28.560  1.00  0.00     0.167 HD
ATOM     63  C   UNL A   1      43.456  33.535  29.075  1.00  0.00     0.074 A 
ATOM     64  C   UNL A   1      44.809  33.489  28.550  1.00  0.00     0.031 C 
ATOM     65  C   UNL A   1      42.530  34.530  29.215  1.00  0.00     0.031 A 
BRANCH  52  66
ATOM     66  C   UNL A   1      36.559  33.752  30.593  1.00  0.00    -0.014 A 
ATOM     67  C   UNL A   1      35.585  34.217  29.683  1.00  0.00     0.010 A 
ATOM     68  C   UNL A   1      36.232  33.895  31.956  1.00  0.00     0.010 A 
ATOM     69  C   UNL A   1      34.408  34.862  30.107  1.00  0.00     0.020 A 
ATOM     70  C   UNL A   1      35.074  34.554  32.396  1.00  0.00     0.020 A 
ATOM     71  C   UNL A   1      34.172  35.049  31.465  1.00  0.00     0.054 A 
BRANCH  71  72
ATOM     72  S   UNL A   1      32.692  35.946  32.006  1.00  0.00     0.124 S 
ATOM     73  O   UNL A   1      31.863  34.880  32.562  1.00  0.00    -0.237 OA
ATOM     74  O   UNL A   1      33.236  36.894  32.973  1.00  0.00    -0.237 OA
ATOM     75  O   UNL A   1      32.179  36.545  30.775  1.00  0.00    -0.744 OA
ENDBRANCH  71  72
ENDBRANCH  52  66
BRANCH  53  76
ATOM     76  C   UNL A   1      44.768  28.962  28.574  1.00  0.00    -0.014 A 
ATOM     77  C   UNL A   1      44.147  28.934  27.307  1.00  0.00     0.010 A 
ATOM     78  C   UNL A   1      46.017  28.337  28.732  1.00  0.00     0.010 A 
ATOM     79  C   UNL A   1      44.837  28.464  26.187  1.00  0.00     0.020 A 
ATOM     80  C   UNL A   1      46.708  27.853  27.610  1.00  0.00     0.020 A 
ATOM     81  C   UNL A   1      46.140  27.990  26.339  1.00  0.00     0.054 A 
BRANCH  81  82
ATOM     82  S   UNL A   1      47.140  27.776  24.835  1.00  0.00     0.124 S 
ATOM     83  O   UNL A   1      48.460  28.219  25.273  1.00  0.00    -0.237 OA
ATOM     84  O   UNL A   1      47.007  26.338  24.594  1.00  0.00    -0.237 OA
ATOM     85  O   UNL A   1      46.475  28.639  23.865  1.00  0.00    -0.744 OA
ENDBRANCH  81  82
ENDBRANCH  53  76
BRANCH  65  86
ATOM     86  C   UNL A   1      42.633  35.923  28.635  1.00  0.00    -0.014 A 
ATOM     87  C   UNL A   1      41.963  36.348  27.478  1.00  0.00     0.010 A 
ATOM     88  C   UNL A   1      43.340  36.912  29.364  1.00  0.00     0.010 A 
ATOM     89  C   UNL A   1      42.046  37.676  27.034  1.00  0.00     0.020 A 
ATOM     90  C   UNL A   1      43.390  38.248  28.956  1.00  0.00     0.020 A 
ATOM     91  C   UNL A   1      42.762  38.618  27.774  1.00  0.00     0.054 A 
BRANCH  91  92
ATOM     92  S   UNL A   1      42.808  40.344  27.228  1.00  0.00     0.124 S 
ATOM     93  O   UNL A   1      43.874  40.314  26.230  1.00  0.00    -0.237 OA
ATOM     94  O   UNL A   1      41.462  40.557  26.699  1.00  0.00    -0.237 OA
ATOM     95  O   UNL A   1      43.112  41.082  28.451  1.00  0.00    -0.744 OA
ENDBRANCH  91  92
ENDBRANCH  65  86
ENDBRANCH  39  40
ENDBRANCH  31  34
ENDBRANCH  29  30
ENDBRANCH  28  29
ENDBRANCH   1  28
TORSDOF 17
ENDMDL
