MODEL 1
REMARK VINA RESULT:     -10.9      0.000      0.000
REMARK SMILES Cc1nc(CNC(=O)[C@H]2CCO[C@H]2C)sc1C(=O)NCCCCNC(=O)c1ccc(-c2c3nc(c(-c4ccc(S(=O)(=O)[O-])cc4)c4ccc([nH]4)c(-c4ccc(S(=O)(=O)[O-])cc4)c4nc(c(-c5ccc(S(=O)(=O)[O-])cc5)c5ccc2[nH]5)C=C4)C=C3)cc1
REMARK SMILES IDX 21 1 20 2 19 3 17 4 18 5 16 7 1 8 2 9 3 10 4 11 15 12 5 13
REMARK SMILES IDX 6 14 7 15 8 17 9 18 10 19 13 20 11 21 12 22 14 23 22 24
REMARK SMILES IDX 23 25 24 26 25 27 26 29 27 30 28 31 86 32 29 33 85 34 30 35
REMARK SMILES IDX 31 36 32 37 79 38 33 39 84 40 78 41 80 42 34 43 83 44 77 45
REMARK SMILES IDX 76 46 35 48 65 49 46 50 64 51 47 52 50 53 63 54 81 55 48 56
REMARK SMILES IDX 49 57 62 59 82 60 51 61 36 62 37 63 45 64 38 65 44 66 39 67
REMARK SMILES IDX 40 68 41 69 42 70 43 71 66 72 67 73 75 74 68 75 74 76 69 77
REMARK SMILES IDX 70 78 71 79 72 80 73 81 52 82 53 83 61 84 54 85 60 86 55 87
REMARK SMILES IDX 56 88 57 89 58 90 59 91
REMARK H PARENT 19 6 6 16 24 28 80 47 50 58
REMARK Flexibility Score: inf
ROOT
ATOM      1  C   UNL A   1      35.570  21.720  26.016  1.00  0.00     0.023 C 
ENDROOT
BRANCH   1   2
ATOM      2  C   UNL A   1      35.358  20.715  24.884  1.00  0.00     0.116 C 
BRANCH   2   3
ATOM      3  N   UNL A   1      34.164  19.941  25.114  1.00  0.00    -0.351 N 
ATOM      4  C   UNL A   1      32.825  20.229  25.084  1.00  0.00     0.263 C 
ATOM      5  O   UNL A   1      32.121  19.246  25.346  1.00  0.00    -0.268 OA
ATOM      6  H   UNL A   1      34.352  19.002  25.344  1.00  0.00     0.163 HD
BRANCH   4   7
ATOM      7  C   UNL A   1      32.245  21.530  24.751  1.00  0.00     0.115 A 
ATOM      8  C   UNL A   1      32.778  22.345  22.305  1.00  0.00     0.068 C 
ATOM      9  C   UNL A   1      32.188  22.402  23.664  1.00  0.00     0.061 A 
ATOM     10  N   UNL A   1      31.507  23.591  23.898  1.00  0.00    -0.244 NA
ATOM     11  C   UNL A   1      31.135  23.694  25.148  1.00  0.00     0.113 A 
ATOM     12  S   UNL A   1      31.428  22.312  26.092  1.00  0.00    -0.111 S 
BRANCH  11  13
ATOM     13  C   UNL A   1      30.516  24.923  25.735  1.00  0.00     0.183 C 
BRANCH  13  14
ATOM     14  N   UNL A   1      31.559  25.915  25.963  1.00  0.00    -0.349 N 
ATOM     15  C   UNL A   1      31.795  27.092  25.322  1.00  0.00     0.226 C 
ATOM     16  H   UNL A   1      32.188  25.700  26.690  1.00  0.00     0.163 HD
ATOM     17  O   UNL A   1      32.791  27.741  25.645  1.00  0.00    -0.275 OA
BRANCH  15  18
ATOM     18  C   UNL A   1      30.813  27.586  24.280  1.00  0.00     0.109 C 
ATOM     19  C   UNL A   1      30.934  29.067  23.976  1.00  0.00     0.044 C 
ATOM     20  C   UNL A   1      30.969  26.981  22.889  1.00  0.00     0.127 C 
ATOM     21  C   UNL A   1      30.192  29.178  22.664  1.00  0.00     0.161 C 
ATOM     22  O   UNL A   1      30.311  27.912  21.997  1.00  0.00    -0.378 OA
ATOM     23  C   UNL A   1      32.402  26.823  22.387  1.00  0.00     0.039 C 
ENDBRANCH  15  18
ENDBRANCH  13  14
ENDBRANCH  11  13
ENDBRANCH   4   7
ENDBRANCH   2   3
ENDBRANCH   1   2
BRANCH   1  24
ATOM     24  C   UNL A   1      35.603  23.184  25.579  1.00  0.00     0.023 C 
BRANCH  24  25
ATOM     25  C   UNL A   1      36.990  23.719  25.247  1.00  0.00     0.116 C 
BRANCH  25  26
ATOM     26  N   UNL A   1      38.065  22.781  25.534  1.00  0.00    -0.352 N 
ATOM     27  C   UNL A   1      39.215  23.000  26.259  1.00  0.00     0.251 C 
ATOM     28  H   UNL A   1      37.956  21.875  25.163  1.00  0.00     0.163 HD
ATOM     29  O   UNL A   1      40.067  22.129  26.349  1.00  0.00    -0.269 OA
BRANCH  27  30
ATOM     30  C   UNL A   1      39.420  24.327  26.874  1.00  0.00     0.039 A 
ATOM     31  C   UNL A   1      38.928  24.552  28.161  1.00  0.00     0.014 A 
ATOM     32  C   UNL A   1      40.161  25.309  26.212  1.00  0.00     0.014 A 
ATOM     33  C   UNL A   1      39.253  25.738  28.820  1.00  0.00     0.010 A 
ATOM     34  C   UNL A   1      40.543  26.456  26.897  1.00  0.00     0.010 A 
ATOM     35  C   UNL A   1      40.098  26.678  28.209  1.00  0.00    -0.014 A 
BRANCH  35  36
ATOM     36  C   UNL A   1      40.545  27.894  28.930  1.00  0.00     0.031 A 
ATOM     37  C   UNL A   1      41.904  27.930  29.572  1.00  0.00     0.074 A 
ATOM     38  C   UNL A   1      39.697  28.933  29.071  1.00  0.00     0.049 A 
ATOM     39  N   UNL A   1      42.445  28.872  30.299  1.00  0.00    -0.248 NA
ATOM     40  C   UNL A   1      42.752  26.740  29.399  1.00  0.00     0.031 C 
ATOM     41  C   UNL A   1      38.333  28.995  28.540  1.00  0.00     0.029 A 
ATOM     42  N   UNL A   1      39.857  30.135  29.714  1.00  0.00    -0.354 N 
ATOM     43  C   UNL A   1      43.686  28.383  30.686  1.00  0.00     0.074 A 
ATOM     44  C   UNL A   1      43.798  27.042  30.154  1.00  0.00     0.031 C 
ATOM     45  C   UNL A   1      37.792  30.183  28.854  1.00  0.00     0.029 A 
ATOM     46  C   UNL A   1      38.754  30.952  29.637  1.00  0.00     0.049 A 
ATOM     47  H   UNL A   1      40.684  30.389  30.183  1.00  0.00     0.167 HD
ATOM     48  C   UNL A   1      44.655  29.000  31.402  1.00  0.00     0.031 A 
ATOM     49  C   UNL A   1      38.540  32.182  30.144  1.00  0.00     0.031 A 
ATOM     50  C   UNL A   1      44.549  30.341  31.912  1.00  0.00     0.049 A 
ATOM     51  C   UNL A   1      39.636  32.853  30.923  1.00  0.00     0.074 A 
ATOM     52  C   UNL A   1      45.501  31.080  32.592  1.00  0.00     0.029 A 
ATOM     53  N   UNL A   1      43.425  31.143  31.794  1.00  0.00    -0.354 N 
ATOM     54  N   UNL A   1      40.830  32.399  31.220  1.00  0.00    -0.248 NA
ATOM     55  C   UNL A   1      39.358  34.205  31.427  1.00  0.00     0.031 C 
ATOM     56  C   UNL A   1      44.936  32.318  32.920  1.00  0.00     0.029 A 
ATOM     57  C   UNL A   1      43.650  32.364  32.406  1.00  0.00     0.049 A 
ATOM     58  H   UNL A   1      42.589  30.884  31.342  1.00  0.00     0.167 HD
ATOM     59  C   UNL A   1      41.455  33.419  31.930  1.00  0.00     0.074 A 
ATOM     60  C   UNL A   1      40.513  34.516  32.003  1.00  0.00     0.031 C 
ATOM     61  C   UNL A   1      42.698  33.443  32.473  1.00  0.00     0.031 A 
BRANCH  48  62
ATOM     62  C   UNL A   1      45.915  28.223  31.673  1.00  0.00    -0.014 A 
ATOM     63  C   UNL A   1      47.013  28.299  30.797  1.00  0.00     0.010 A 
ATOM     64  C   UNL A   1      46.010  27.422  32.825  1.00  0.00     0.010 A 
ATOM     65  C   UNL A   1      48.167  27.551  31.044  1.00  0.00     0.020 A 
ATOM     66  C   UNL A   1      47.172  26.692  33.088  1.00  0.00     0.020 A 
ATOM     67  C   UNL A   1      48.236  26.746  32.185  1.00  0.00     0.054 A 
BRANCH  67  68
ATOM     68  S   UNL A   1      49.749  25.792  32.488  1.00  0.00     0.124 S 
ATOM     69  O   UNL A   1      49.340  24.925  33.590  1.00  0.00    -0.237 OA
ATOM     70  O   UNL A   1      49.968  25.121  31.209  1.00  0.00    -0.237 OA
ATOM     71  O   UNL A   1      50.738  26.811  32.830  1.00  0.00    -0.744 OA
ENDBRANCH  67  68
ENDBRANCH  48  62
BRANCH  49  72
ATOM     72  C   UNL A   1      37.241  32.866  29.907  1.00  0.00    -0.014 A 
ATOM     73  C   UNL A   1      36.223  32.811  30.875  1.00  0.00     0.010 A 
ATOM     74  C   UNL A   1      37.020  33.588  28.720  1.00  0.00     0.010 A 
ATOM     75  C   UNL A   1      35.002  33.454  30.656  1.00  0.00     0.020 A 
ATOM     76  C   UNL A   1      35.807  34.251  28.508  1.00  0.00     0.020 A 
ATOM     77  C   UNL A   1      34.802  34.170  29.472  1.00  0.00     0.054 A 
BRANCH  77  78
ATOM     78  S   UNL A   1      33.229  35.044  29.231  1.00  0.00     0.124 S 
ATOM     79  O   UNL A   1      32.578  34.221  28.218  1.00  0.00    -0.237 OA
ATOM     80  O   UNL A   1      32.633  34.997  30.564  1.00  0.00    -0.237 OA
ATOM     81  O   UNL A   1      33.644  36.374  28.790  1.00  0.00    -0.744 OA
ENDBRANCH  77  78
ENDBRANCH  49  72
BRANCH  61  82
ATOM     82  C   UNL A   1      43.116  34.703  33.176  1.00  0.00    -0.014 A 
ATOM     83  C   UNL A   1      42.940  34.850  34.563  1.00  0.00     0.010 A 
ATOM     84  C   UNL A   1      43.748  35.728  32.449  1.00  0.00     0.010 A 
ATOM     85  C   UNL A   1      43.365  36.014  35.208  1.00  0.00     0.020 A 
ATOM     86  C   UNL A   1      44.195  36.884  33.094  1.00  0.00     0.020 A 
ATOM     87  C   UNL A   1      43.989  37.025  34.469  1.00  0.00     0.054 A 
BRANCH  87  88
ATOM     88  S   UNL A   1      44.577  38.505  35.335  1.00  0.00     0.124 S 
ATOM     89  O   UNL A   1      44.019  38.317  36.672  1.00  0.00    -0.237 OA
ATOM     90  O   UNL A   1      46.029  38.382  35.237  1.00  0.00    -0.237 OA
ATOM     91  O   UNL A   1      43.999  39.607  34.568  1.00  0.00    -0.744 OA
ENDBRANCH  87  88
ENDBRANCH  61  82
ENDBRANCH  35  36
ENDBRANCH  27  30
ENDBRANCH  25  26
ENDBRANCH  24  25
ENDBRANCH   1  24
TORSDOF 17
ENDMDL
MODEL 2
REMARK VINA RESULT:     -10.7      2.702      8.313
REMARK SMILES Cc1nc(CNC(=O)[C@H]2CCO[C@H]2C)sc1C(=O)NCCCCNC(=O)c1ccc(-c2c3nc(c(-c4ccc(S(=O)(=O)[O-])cc4)c4ccc([nH]4)c(-c4ccc(S(=O)(=O)[O-])cc4)c4nc(c(-c5ccc(S(=O)(=O)[O-])cc5)c5ccc2[nH]5)C=C4)C=C3)cc1
REMARK SMILES IDX 21 1 20 2 19 3 17 4 18 5 16 7 1 8 2 9 3 10 4 11 15 12 5 13
REMARK SMILES IDX 6 14 7 15 8 17 9 18 10 19 13 20 11 21 12 22 14 23 22 24
REMARK SMILES IDX 23 25 24 26 25 27 26 29 27 30 28 31 86 32 29 33 85 34 30 35
REMARK SMILES IDX 31 36 32 37 79 38 33 39 84 40 78 41 80 42 34 43 83 44 77 45
REMARK SMILES IDX 76 46 35 48 65 49 46 50 64 51 47 52 50 53 63 54 81 55 48 56
REMARK SMILES IDX 49 57 62 59 82 60 51 61 36 62 37 63 45 64 38 65 44 66 39 67
REMARK SMILES IDX 40 68 41 69 42 70 43 71 66 72 67 73 75 74 68 75 74 76 69 77
REMARK SMILES IDX 70 78 71 79 72 80 73 81 52 82 53 83 61 84 54 85 60 86 55 87
REMARK SMILES IDX 56 88 57 89 58 90 59 91
REMARK H PARENT 19 6 6 16 24 28 80 47 50 58
REMARK Flexibility Score: inf
ROOT
ATOM      1  C   UNL A   1      32.965  29.339  24.894  1.00  0.00     0.023 C 
ENDROOT
BRANCH   1   2
ATOM      2  C   UNL A   1      33.096  29.317  23.371  1.00  0.00     0.116 C 
BRANCH   2   3
ATOM      3  N   UNL A   1      31.796  29.210  22.756  1.00  0.00    -0.351 N 
ATOM      4  C   UNL A   1      30.969  28.159  22.462  1.00  0.00     0.263 C 
ATOM      5  O   UNL A   1      29.914  28.520  21.925  1.00  0.00    -0.268 OA
ATOM      6  H   UNL A   1      31.424  30.081  22.489  1.00  0.00     0.163 HD
BRANCH   4   7
ATOM      7  C   UNL A   1      31.243  26.754  22.761  1.00  0.00     0.115 A 
ATOM      8  C   UNL A   1      30.219  25.926  25.042  1.00  0.00     0.068 C 
ATOM      9  C   UNL A   1      30.959  25.823  23.761  1.00  0.00     0.061 A 
ATOM     10  N   UNL A   1      31.525  24.568  23.574  1.00  0.00    -0.244 NA
ATOM     11  C   UNL A   1      32.306  24.543  22.524  1.00  0.00     0.113 A 
ATOM     12  S   UNL A   1      32.293  25.967  21.598  1.00  0.00    -0.111 S 
BRANCH  11  13
ATOM     13  C   UNL A   1      33.169  23.378  22.154  1.00  0.00     0.183 C 
BRANCH  13  14
ATOM     14  N   UNL A   1      34.266  23.281  23.107  1.00  0.00    -0.349 N 
ATOM     15  C   UNL A   1      34.515  22.337  24.055  1.00  0.00     0.226 C 
ATOM     16  H   UNL A   1      34.928  24.008  23.058  1.00  0.00     0.163 HD
ATOM     17  O   UNL A   1      35.480  22.501  24.802  1.00  0.00    -0.275 OA
BRANCH  15  18
ATOM     18  C   UNL A   1      33.638  21.103  24.130  1.00  0.00     0.109 C 
ATOM     19  C   UNL A   1      34.250  19.962  24.920  1.00  0.00     0.044 C 
ATOM     20  C   UNL A   1      32.305  21.285  24.848  1.00  0.00     0.127 C 
ATOM     21  C   UNL A   1      33.045  19.091  25.193  1.00  0.00     0.161 C 
ATOM     22  O   UNL A   1      31.895  19.949  25.225  1.00  0.00    -0.378 OA
ATOM     23  C   UNL A   1      32.346  22.114  26.130  1.00  0.00     0.039 C 
ENDBRANCH  15  18
ENDBRANCH  13  14
ENDBRANCH  11  13
ENDBRANCH   4   7
ENDBRANCH   2   3
ENDBRANCH   1   2
BRANCH   1  24
ATOM     24  C   UNL A   1      33.688  28.205  25.619  1.00  0.00     0.023 C 
BRANCH  24  25
ATOM     25  C   UNL A   1      33.687  28.317  27.138  1.00  0.00     0.116 C 
BRANCH  25  26
ATOM     26  N   UNL A   1      33.510  29.676  27.626  1.00  0.00    -0.352 N 
ATOM     27  C   UNL A   1      34.442  30.495  28.224  1.00  0.00     0.251 C 
ATOM     28  H   UNL A   1      32.610  30.060  27.516  1.00  0.00     0.163 HD
ATOM     29  O   UNL A   1      34.121  31.592  28.653  1.00  0.00    -0.269 OA
BRANCH  27  30
ATOM     30  C   UNL A   1      35.823  29.992  28.386  1.00  0.00     0.039 A 
ATOM     31  C   UNL A   1      36.697  30.076  27.301  1.00  0.00     0.014 A 
ATOM     32  C   UNL A   1      36.264  29.518  29.623  1.00  0.00     0.014 A 
ATOM     33  C   UNL A   1      38.044  29.760  27.482  1.00  0.00     0.010 A 
ATOM     34  C   UNL A   1      37.618  29.274  29.819  1.00  0.00     0.010 A 
ATOM     35  C   UNL A   1      38.521  29.399  28.752  1.00  0.00    -0.014 A 
BRANCH  35  36
ATOM     36  C   UNL A   1      39.965  29.165  28.993  1.00  0.00     0.031 A 
ATOM     37  C   UNL A   1      40.575  27.832  28.658  1.00  0.00     0.074 A 
ATOM     38  C   UNL A   1      40.706  30.124  29.582  1.00  0.00     0.049 A 
ATOM     39  N   UNL A   1      41.798  27.415  28.857  1.00  0.00    -0.248 NA
ATOM     40  C   UNL A   1      39.687  26.828  28.049  1.00  0.00     0.031 C 
ATOM     41  C   UNL A   1      40.214  31.439  30.002  1.00  0.00     0.029 A 
ATOM     42  N   UNL A   1      42.031  30.137  29.938  1.00  0.00    -0.354 N 
ATOM     43  C   UNL A   1      41.823  26.098  28.417  1.00  0.00     0.074 A 
ATOM     44  C   UNL A   1      40.481  25.770  27.986  1.00  0.00     0.031 C 
ATOM     45  C   UNL A   1      41.230  32.140  30.533  1.00  0.00     0.029 A 
ATOM     46  C   UNL A   1      42.433  31.314  30.523  1.00  0.00     0.049 A 
ATOM     47  H   UNL A   1      42.637  29.377  29.787  1.00  0.00     0.167 HD
ATOM     48  C   UNL A   1      42.871  25.244  28.357  1.00  0.00     0.031 A 
ATOM     49  C   UNL A   1      43.636  31.687  31.001  1.00  0.00     0.031 A 
ATOM     50  C   UNL A   1      44.208  25.579  28.767  1.00  0.00     0.049 A 
ATOM     51  C   UNL A   1      44.789  30.727  30.911  1.00  0.00     0.074 A 
ATOM     52  C   UNL A   1      45.353  24.807  28.684  1.00  0.00     0.029 A 
ATOM     53  N   UNL A   1      44.579  26.789  29.333  1.00  0.00    -0.354 N 
ATOM     54  N   UNL A   1      44.807  29.507  30.427  1.00  0.00    -0.248 NA
ATOM     55  C   UNL A   1      46.084  31.195  31.421  1.00  0.00     0.031 C 
ATOM     56  C   UNL A   1      46.410  25.537  29.238  1.00  0.00     0.029 A 
ATOM     57  C   UNL A   1      45.933  26.778  29.624  1.00  0.00     0.049 A 
ATOM     58  H   UNL A   1      43.971  27.544  29.504  1.00  0.00     0.167 HD
ATOM     59  C   UNL A   1      46.121  29.070  30.557  1.00  0.00     0.074 A 
ATOM     60  C   UNL A   1      46.868  30.160  31.150  1.00  0.00     0.031 C 
ATOM     61  C   UNL A   1      46.658  27.872  30.218  1.00  0.00     0.031 A 
BRANCH  48  62
ATOM     62  C   UNL A   1      42.605  23.860  27.827  1.00  0.00    -0.014 A 
ATOM     63  C   UNL A   1      42.599  23.606  26.443  1.00  0.00     0.010 A 
ATOM     64  C   UNL A   1      42.377  22.799  28.720  1.00  0.00     0.010 A 
ATOM     65  C   UNL A   1      42.324  22.324  25.962  1.00  0.00     0.020 A 
ATOM     66  C   UNL A   1      42.126  21.510  28.242  1.00  0.00     0.020 A 
ATOM     67  C   UNL A   1      42.081  21.285  26.865  1.00  0.00     0.054 A 
BRANCH  67  68
ATOM     68  S   UNL A   1      41.735  19.628  26.214  1.00  0.00     0.124 S 
ATOM     69  O   UNL A   1      42.052  18.783  27.364  1.00  0.00    -0.237 OA
ATOM     70  O   UNL A   1      40.319  19.707  25.866  1.00  0.00    -0.237 OA
ATOM     71  O   UNL A   1      42.646  19.504  25.080  1.00  0.00    -0.744 OA
ENDBRANCH  67  68
ENDBRANCH  48  62
BRANCH  49  72
ATOM     72  C   UNL A   1      43.815  33.043  31.587  1.00  0.00    -0.014 A 
ATOM     73  C   UNL A   1      44.157  34.131  30.766  1.00  0.00     0.010 A 
ATOM     74  C   UNL A   1      43.629  33.255  32.964  1.00  0.00     0.010 A 
ATOM     75  C   UNL A   1      44.324  35.406  31.313  1.00  0.00     0.020 A 
ATOM     76  C   UNL A   1      43.773  34.534  33.512  1.00  0.00     0.020 A 
ATOM     77  C   UNL A   1      44.131  35.599  32.684  1.00  0.00     0.054 A 
BRANCH  77  78
ATOM     78  S   UNL A   1      44.298  37.273  33.366  1.00  0.00     0.124 S 
ATOM     79  O   UNL A   1      44.689  38.041  32.189  1.00  0.00    -0.237 OA
ATOM     80  O   UNL A   1      42.958  37.540  33.882  1.00  0.00    -0.237 OA
ATOM     81  O   UNL A   1      45.331  37.121  34.389  1.00  0.00    -0.744 OA
ENDBRANCH  77  78
ENDBRANCH  49  72
BRANCH  61  82
ATOM     82  C   UNL A   1      48.130  27.685  30.460  1.00  0.00    -0.014 A 
ATOM     83  C   UNL A   1      48.600  27.133  31.664  1.00  0.00     0.010 A 
ATOM     84  C   UNL A   1      49.048  28.012  29.446  1.00  0.00     0.010 A 
ATOM     85  C   UNL A   1      49.969  26.935  31.860  1.00  0.00     0.020 A 
ATOM     86  C   UNL A   1      50.416  27.794  29.630  1.00  0.00     0.020 A 
ATOM     87  C   UNL A   1      50.869  27.268  30.843  1.00  0.00     0.054 A 
BRANCH  87  88
ATOM     88  S   UNL A   1      52.636  26.956  31.101  1.00  0.00     0.124 S 
ATOM     89  O   UNL A   1      53.145  26.943  29.732  1.00  0.00    -0.237 OA
ATOM     90  O   UNL A   1      53.050  28.096  31.916  1.00  0.00    -0.237 OA
ATOM     91  O   UNL A   1      52.662  25.666  31.788  1.00  0.00    -0.744 OA
ENDBRANCH  87  88
ENDBRANCH  61  82
ENDBRANCH  35  36
ENDBRANCH  27  30
ENDBRANCH  25  26
ENDBRANCH  24  25
ENDBRANCH   1  24
TORSDOF 17
ENDMDL
MODEL 3
REMARK VINA RESULT:     -10.6      1.326      1.994
REMARK SMILES Cc1nc(CNC(=O)[C@H]2CCO[C@H]2C)sc1C(=O)NCCCCNC(=O)c1ccc(-c2c3nc(c(-c4ccc(S(=O)(=O)[O-])cc4)c4ccc([nH]4)c(-c4ccc(S(=O)(=O)[O-])cc4)c4nc(c(-c5ccc(S(=O)(=O)[O-])cc5)c5ccc2[nH]5)C=C4)C=C3)cc1
REMARK SMILES IDX 21 1 20 2 19 3 17 4 18 5 16 7 1 8 2 9 3 10 4 11 15 12 5 13
REMARK SMILES IDX 6 14 7 15 8 17 9 18 10 19 13 20 11 21 12 22 14 23 22 24
REMARK SMILES IDX 23 25 24 26 25 27 26 29 27 30 28 31 86 32 29 33 85 34 30 35
REMARK SMILES IDX 31 36 32 37 79 38 33 39 84 40 78 41 80 42 34 43 83 44 77 45
REMARK SMILES IDX 76 46 35 48 65 49 46 50 64 51 47 52 50 53 63 54 81 55 48 56
REMARK SMILES IDX 49 57 62 59 82 60 51 61 36 62 37 63 45 64 38 65 44 66 39 67
REMARK SMILES IDX 40 68 41 69 42 70 43 71 66 72 67 73 75 74 68 75 74 76 69 77
REMARK SMILES IDX 70 78 71 79 72 80 73 81 52 82 53 83 61 84 54 85 60 86 55 87
REMARK SMILES IDX 56 88 57 89 58 90 59 91
REMARK H PARENT 19 6 6 16 24 28 80 47 50 58
REMARK Flexibility Score: inf
ROOT
ATOM      1  C   UNL A   1      35.410  21.662  26.104  1.00  0.00     0.023 C 
ENDROOT
BRANCH   1   2
ATOM      2  C   UNL A   1      34.314  21.163  25.164  1.00  0.00     0.116 C 
BRANCH   2   3
ATOM      3  N   UNL A   1      33.018  21.598  25.624  1.00  0.00    -0.351 N 
ATOM      4  C   UNL A   1      32.228  22.682  25.347  1.00  0.00     0.263 C 
ATOM      5  O   UNL A   1      31.161  22.665  25.975  1.00  0.00    -0.268 OA
ATOM      6  H   UNL A   1      32.616  20.984  26.279  1.00  0.00     0.163 HD
BRANCH   4   7
ATOM      7  C   UNL A   1      32.550  23.748  24.399  1.00  0.00     0.115 A 
ATOM      8  C   UNL A   1      33.036  22.895  21.955  1.00  0.00     0.068 C 
ATOM      9  C   UNL A   1      32.865  23.884  23.047  1.00  0.00     0.061 A 
ATOM     10  N   UNL A   1      33.141  25.182  22.635  1.00  0.00    -0.244 NA
ATOM     11  C   UNL A   1      33.145  26.016  23.643  1.00  0.00     0.113 A 
ATOM     12  S   UNL A   1      32.662  25.341  25.125  1.00  0.00    -0.111 S 
BRANCH  11  13
ATOM     13  C   UNL A   1      33.556  27.452  23.536  1.00  0.00     0.183 C 
BRANCH  13  14
ATOM     14  N   UNL A   1      32.394  28.295  23.787  1.00  0.00    -0.349 N 
ATOM     15  C   UNL A   1      32.172  29.195  24.785  1.00  0.00     0.226 C 
ATOM     16  H   UNL A   1      31.660  28.200  23.138  1.00  0.00     0.163 HD
ATOM     17  O   UNL A   1      31.073  29.748  24.835  1.00  0.00    -0.275 OA
BRANCH  15  18
ATOM     18  C   UNL A   1      33.284  29.520  25.760  1.00  0.00     0.109 C 
ATOM     19  C   UNL A   1      33.104  30.845  26.476  1.00  0.00     0.044 C 
ATOM     20  C   UNL A   1      33.432  28.561  26.935  1.00  0.00     0.127 C 
ATOM     21  C   UNL A   1      34.060  30.704  27.638  1.00  0.00     0.161 C 
ATOM     22  O   UNL A   1      34.165  29.304  27.939  1.00  0.00    -0.378 OA
ATOM     23  C   UNL A   1      32.130  28.100  27.587  1.00  0.00     0.039 C 
ENDBRANCH  15  18
ENDBRANCH  13  14
ENDBRANCH  11  13
ENDBRANCH   4   7
ENDBRANCH   2   3
ENDBRANCH   1   2
BRANCH   1  24
ATOM     24  C   UNL A   1      35.696  23.161  26.021  1.00  0.00     0.023 C 
BRANCH  24  25
ATOM     25  C   UNL A   1      36.997  23.523  25.315  1.00  0.00     0.116 C 
BRANCH  25  26
ATOM     26  N   UNL A   1      38.095  22.613  25.605  1.00  0.00    -0.352 N 
ATOM     27  C   UNL A   1      39.262  22.878  26.286  1.00  0.00     0.251 C 
ATOM     28  H   UNL A   1      37.991  21.693  25.272  1.00  0.00     0.163 HD
ATOM     29  O   UNL A   1      40.131  22.025  26.384  1.00  0.00    -0.269 OA
BRANCH  27  30
ATOM     30  C   UNL A   1      39.463  24.231  26.844  1.00  0.00     0.039 A 
ATOM     31  C   UNL A   1      39.040  24.486  28.150  1.00  0.00     0.014 A 
ATOM     32  C   UNL A   1      40.135  25.209  26.108  1.00  0.00     0.014 A 
ATOM     33  C   UNL A   1      39.367  25.703  28.749  1.00  0.00     0.010 A 
ATOM     34  C   UNL A   1      40.522  26.389  26.731  1.00  0.00     0.010 A 
ATOM     35  C   UNL A   1      40.147  26.645  28.059  1.00  0.00    -0.014 A 
BRANCH  35  36
ATOM     36  C   UNL A   1      40.598  27.896  28.712  1.00  0.00     0.031 A 
ATOM     37  C   UNL A   1      41.984  27.985  29.290  1.00  0.00     0.074 A 
ATOM     38  C   UNL A   1      39.735  28.922  28.852  1.00  0.00     0.049 A 
ATOM     39  N   UNL A   1      42.536  28.966  29.955  1.00  0.00    -0.248 NA
ATOM     40  C   UNL A   1      42.850  26.807  29.123  1.00  0.00     0.031 C 
ATOM     41  C   UNL A   1      38.348  28.935  28.382  1.00  0.00     0.029 A 
ATOM     42  N   UNL A   1      39.897  30.151  29.440  1.00  0.00    -0.354 N 
ATOM     43  C   UNL A   1      43.803  28.517  30.304  1.00  0.00     0.074 A 
ATOM     44  C   UNL A   1      43.921  27.160  29.818  1.00  0.00     0.031 C 
ATOM     45  C   UNL A   1      37.794  30.124  28.675  1.00  0.00     0.029 A 
ATOM     46  C   UNL A   1      38.774  30.942  29.383  1.00  0.00     0.049 A 
ATOM     47  H   UNL A   1      40.738  30.441  29.862  1.00  0.00     0.167 HD
ATOM     48  C   UNL A   1      44.789  29.182  30.951  1.00  0.00     0.031 A 
ATOM     49  C   UNL A   1      38.555  32.186  29.852  1.00  0.00     0.031 A 
ATOM     50  C   UNL A   1      44.677  30.539  31.413  1.00  0.00     0.049 A 
ATOM     51  C   UNL A   1      39.670  32.909  30.554  1.00  0.00     0.074 A 
ATOM     52  C   UNL A   1      45.641  31.324  32.020  1.00  0.00     0.029 A 
ATOM     53  N   UNL A   1      43.531  31.313  31.316  1.00  0.00    -0.354 N 
ATOM     54  N   UNL A   1      40.886  32.492  30.813  1.00  0.00    -0.248 NA
ATOM     55  C   UNL A   1      39.385  34.274  31.019  1.00  0.00     0.031 C 
ATOM     56  C   UNL A   1      45.064  32.561  32.327  1.00  0.00     0.029 A 
ATOM     57  C   UNL A   1      43.756  32.561  31.871  1.00  0.00     0.049 A 
ATOM     58  H   UNL A   1      42.682  31.019  30.913  1.00  0.00     0.167 HD
ATOM     59  C   UNL A   1      41.519  33.551  31.455  1.00  0.00     0.074 A 
ATOM     60  C   UNL A   1      40.557  34.631  31.529  1.00  0.00     0.031 C 
ATOM     61  C   UNL A   1      42.784  33.622  31.939  1.00  0.00     0.031 A 
BRANCH  48  62
ATOM     62  C   UNL A   1      46.077  28.442  31.193  1.00  0.00    -0.014 A 
ATOM     63  C   UNL A   1      47.127  28.493  30.259  1.00  0.00     0.010 A 
ATOM     64  C   UNL A   1      46.247  27.701  32.376  1.00  0.00     0.010 A 
ATOM     65  C   UNL A   1      48.307  27.780  30.482  1.00  0.00     0.020 A 
ATOM     66  C   UNL A   1      47.436  27.007  32.614  1.00  0.00     0.020 A 
ATOM     67  C   UNL A   1      48.451  27.034  31.655  1.00  0.00     0.054 A 
BRANCH  67  68
ATOM     68  S   UNL A   1      49.997  26.124  31.925  1.00  0.00     0.124 S 
ATOM     69  O   UNL A   1      49.910  25.802  33.348  1.00  0.00    -0.237 OA
ATOM     70  O   UNL A   1      49.865  24.988  31.016  1.00  0.00    -0.237 OA
ATOM     71  O   UNL A   1      51.033  27.088  31.567  1.00  0.00    -0.744 OA
ENDBRANCH  67  68
ENDBRANCH  48  62
BRANCH  49  72
ATOM     72  C   UNL A   1      37.232  32.834  29.648  1.00  0.00    -0.014 A 
ATOM     73  C   UNL A   1      36.298  32.885  30.698  1.00  0.00     0.010 A 
ATOM     74  C   UNL A   1      36.904  33.415  28.411  1.00  0.00     0.010 A 
ATOM     75  C   UNL A   1      35.054  33.494  30.511  1.00  0.00     0.020 A 
ATOM     76  C   UNL A   1      35.669  34.045  28.226  1.00  0.00     0.020 A 
ATOM     77  C   UNL A   1      34.748  34.070  29.274  1.00  0.00     0.054 A 
BRANCH  77  78
ATOM     78  S   UNL A   1      33.149  34.905  29.068  1.00  0.00     0.124 S 
ATOM     79  O   UNL A   1      32.577  34.796  30.406  1.00  0.00    -0.237 OA
ATOM     80  O   UNL A   1      33.544  36.249  28.655  1.00  0.00    -0.237 OA
ATOM     81  O   UNL A   1      32.485  34.115  28.034  1.00  0.00    -0.744 OA
ENDBRANCH  77  78
ENDBRANCH  49  72
BRANCH  61  82
ATOM     82  C   UNL A   1      43.206  34.917  32.574  1.00  0.00    -0.014 A 
ATOM     83  C   UNL A   1      43.735  35.964  31.799  1.00  0.00     0.010 A 
ATOM     84  C   UNL A   1      43.015  35.110  33.954  1.00  0.00     0.010 A 
ATOM     85  C   UNL A   1      44.092  37.174  32.399  1.00  0.00     0.020 A 
ATOM     86  C   UNL A   1      43.348  36.327  34.554  1.00  0.00     0.020 A 
ATOM     87  C   UNL A   1      43.897  37.348  33.773  1.00  0.00     0.054 A 
BRANCH  87  88
ATOM     88  S   UNL A   1      44.321  38.944  34.522  1.00  0.00     0.124 S 
ATOM     89  O   UNL A   1      43.962  38.728  35.920  1.00  0.00    -0.237 OA
ATOM     90  O   UNL A   1      45.752  39.059  34.250  1.00  0.00    -0.237 OA
ATOM     91  O   UNL A   1      43.479  39.898  33.801  1.00  0.00    -0.744 OA
ENDBRANCH  87  88
ENDBRANCH  61  82
ENDBRANCH  35  36
ENDBRANCH  27  30
ENDBRANCH  25  26
ENDBRANCH  24  25
ENDBRANCH   1  24
TORSDOF 17
ENDMDL
