MODEL 1
REMARK VINA RESULT:     -11.8      0.000      0.000
REMARK SMILES CN(C)S(=O)(=O)c1ccc(Cl)c(C(=O)N[C@H](CC2=c3ccccc3=NC2)C(=O)NCCCCNC(=O)c2ccc(-c3c4nc(c(-c5ccc(S(=O)(=O)[O-])cc5)c5ccc([nH]5)c(-c5ccc(S(=O)(=O)[O-])cc5)c5nc(c(-c6ccc(S(=O)(=O)[O-])cc6)c6ccc3[nH]6)C=C5)C=C4)cc2)c1
REMARK SMILES IDX 31 1 30 2 29 3 27 4 28 5 16 7 15 8 13 9 14 10 12 12 7 13
REMARK SMILES IDX 8 14 97 15 9 16 10 17 11 18 4 19 5 20 6 21 2 22 1 23 3 24
REMARK SMILES IDX 17 25 18 26 19 27 26 28 20 29 24 30 25 31 21 32 23 33 22 34
REMARK SMILES IDX 32 35 33 36 34 37 35 38 36 40 37 41 38 42 96 43 39 44 95 45
REMARK SMILES IDX 40 46 41 47 42 48 89 49 43 50 94 51 88 52 90 53 44 54 93 55
REMARK SMILES IDX 87 56 86 57 45 59 75 60 56 61 74 62 57 63 60 64 73 65 91 66
REMARK SMILES IDX 58 67 59 68 72 70 92 71 61 72 46 73 47 74 55 75 48 76 54 77
REMARK SMILES IDX 49 78 50 79 51 80 52 81 53 82 76 83 77 84 85 85 78 86 84 87
REMARK SMILES IDX 79 88 80 89 81 90 82 91 83 92 62 93 63 94 71 95 64 96 70 97
REMARK SMILES IDX 65 98 66 99 67 100 68 101 69 102
REMARK H PARENT 29 6 15 11 34 39 90 58 60 69
REMARK Flexibility Score: inf
ROOT
ATOM      1  C   UNL A   1      31.777  27.827  27.519  1.00  0.00     0.023 C 
ENDROOT
BRANCH   1   2
ATOM      2  C   UNL A   1      31.609  26.708  26.501  1.00  0.00     0.116 C 
BRANCH   2   3
ATOM      3  N   UNL A   1      30.579  25.756  26.809  1.00  0.00    -0.354 N 
ATOM      4  C   UNL A   1      30.479  24.462  26.402  1.00  0.00     0.242 C 
ATOM      5  O   UNL A   1      29.811  23.721  27.135  1.00  0.00    -0.273 OA
ATOM      6  H   UNL A   1      29.853  26.082  27.389  1.00  0.00     0.163 HD
BRANCH   4   7
ATOM      7  C   UNL A   1      31.168  23.874  25.128  1.00  0.00     0.175 C 
BRANCH   7   8
ATOM      8  N   UNL A   1      32.570  23.451  25.196  1.00  0.00    -0.340 N 
ATOM      9  C   UNL A   1      33.340  22.583  24.470  1.00  0.00     0.253 C 
ATOM     10  O   UNL A   1      34.564  22.681  24.595  1.00  0.00    -0.269 OA
ATOM     11  H   UNL A   1      33.067  23.888  25.924  1.00  0.00     0.164 HD
BRANCH   9  12
ATOM     12  C   UNL A   1      32.837  21.458  23.653  1.00  0.00     0.059 A 
ATOM     13  C   UNL A   1      32.921  19.033  23.411  1.00  0.00     0.083 A 
ATOM     14  C   UNL A   1      32.285  19.129  22.173  1.00  0.00     0.023 A 
ATOM     15  C   UNL A   1      33.128  20.178  24.182  1.00  0.00     0.037 A 
ATOM     16  C   UNL A   1      31.988  20.385  21.648  1.00  0.00     0.023 A 
ATOM     17  C   UNL A   1      32.345  21.549  22.344  1.00  0.00     0.053 A 
ATOM     18  Cl  UNL A   1      32.354  23.002  21.409  1.00  0.00    -0.083 Cl
BRANCH  13  19
ATOM     19  S   UNL A   1      33.601  17.449  23.851  1.00  0.00     0.242 S 
ATOM     20  O   UNL A   1      34.858  17.708  24.526  1.00  0.00    -0.207 OA
ATOM     21  O   UNL A   1      33.548  16.630  22.660  1.00  0.00    -0.207 OA
BRANCH  19  22
ATOM     22  N   UNL A   1      32.562  16.752  25.027  1.00  0.00    -0.204 NA
ATOM     23  C   UNL A   1      32.879  15.310  25.239  1.00  0.00     0.124 C 
ATOM     24  C   UNL A   1      32.496  17.447  26.337  1.00  0.00     0.124 C 
ENDBRANCH  19  22
ENDBRANCH  13  19
ENDBRANCH   9  12
ENDBRANCH   7   8
BRANCH   7  25
ATOM     25  C   UNL A   1      30.807  24.478  23.742  1.00  0.00     0.068 C 
BRANCH  25  26
ATOM     26  C   UNL A   1      30.694  25.955  23.410  1.00  0.00    -0.037 C 
ATOM     27  C   UNL A   1      29.722  26.875  23.430  1.00  0.00     0.001 A 
ATOM     28  C   UNL A   1      31.956  26.572  22.848  1.00  0.00     0.174 C 
ATOM     29  C   UNL A   1      28.345  26.942  23.825  1.00  0.00     0.010 A 
ATOM     30  C   UNL A   1      30.326  27.994  22.668  1.00  0.00     0.065 A 
ATOM     31  N   UNL A   1      31.579  27.904  22.346  1.00  0.00    -0.280 NA
ATOM     32  C   UNL A   1      27.582  27.963  23.401  1.00  0.00     0.001 A 
ATOM     33  C   UNL A   1      29.427  29.091  22.253  1.00  0.00     0.028 A 
ATOM     34  C   UNL A   1      28.127  29.027  22.581  1.00  0.00     0.002 A 
ENDBRANCH  25  26
ENDBRANCH   7  25
ENDBRANCH   4   7
ENDBRANCH   2   3
ENDBRANCH   1   2
BRANCH   1  35
ATOM     35  C   UNL A   1      33.195  28.387  27.606  1.00  0.00     0.023 C 
BRANCH  35  36
ATOM     36  C   UNL A   1      33.443  29.689  26.851  1.00  0.00     0.116 C 
BRANCH  36  37
ATOM     37  N   UNL A   1      33.475  30.894  27.672  1.00  0.00    -0.352 N 
ATOM     38  C   UNL A   1      34.531  31.320  28.458  1.00  0.00     0.251 C 
ATOM     39  H   UNL A   1      32.671  31.460  27.664  1.00  0.00     0.163 HD
ATOM     40  O   UNL A   1      34.464  32.343  29.128  1.00  0.00    -0.269 OA
BRANCH  38  41
ATOM     41  C   UNL A   1      35.733  30.458  28.499  1.00  0.00     0.039 A 
ATOM     42  C   UNL A   1      36.007  29.732  29.659  1.00  0.00     0.014 A 
ATOM     43  C   UNL A   1      36.678  30.555  27.475  1.00  0.00     0.014 A 
ATOM     44  C   UNL A   1      37.302  29.280  29.881  1.00  0.00     0.010 A 
ATOM     45  C   UNL A   1      37.954  30.018  27.668  1.00  0.00     0.010 A 
ATOM     46  C   UNL A   1      38.298  29.442  28.901  1.00  0.00    -0.014 A 
BRANCH  46  47
ATOM     47  C   UNL A   1      39.695  29.031  29.210  1.00  0.00     0.031 A 
ATOM     48  C   UNL A   1      40.595  29.896  30.057  1.00  0.00     0.074 A 
ATOM     49  C   UNL A   1      40.131  27.828  28.785  1.00  0.00     0.049 A 
ATOM     50  N   UNL A   1      41.818  29.660  30.458  1.00  0.00    -0.248 NA
ATOM     51  C   UNL A   1      40.061  31.191  30.512  1.00  0.00     0.031 C 
ATOM     52  C   UNL A   1      39.347  26.892  27.980  1.00  0.00     0.029 A 
ATOM     53  N   UNL A   1      41.318  27.174  29.000  1.00  0.00    -0.354 N 
ATOM     54  C   UNL A   1      42.210  30.780  31.182  1.00  0.00     0.074 A 
ATOM     55  C   UNL A   1      41.102  31.707  31.154  1.00  0.00     0.031 C 
ATOM     56  C   UNL A   1      40.044  25.758  27.826  1.00  0.00     0.029 A 
ATOM     57  C   UNL A   1      41.353  25.912  28.456  1.00  0.00     0.049 A 
ATOM     58  H   UNL A   1      42.070  27.569  29.496  1.00  0.00     0.167 HD
ATOM     59  C   UNL A   1      43.385  31.010  31.818  1.00  0.00     0.031 A 
ATOM     60  C   UNL A   1      42.324  24.978  28.450  1.00  0.00     0.031 A 
ATOM     61  C   UNL A   1      44.475  30.069  31.870  1.00  0.00     0.049 A 
ATOM     62  C   UNL A   1      43.623  25.263  29.139  1.00  0.00     0.074 A 
ATOM     63  C   UNL A   1      45.683  30.199  32.532  1.00  0.00     0.029 A 
ATOM     64  N   UNL A   1      44.495  28.834  31.241  1.00  0.00    -0.354 N 
ATOM     65  N   UNL A   1      43.968  26.326  29.825  1.00  0.00    -0.248 NA
ATOM     66  C   UNL A   1      44.666  24.234  29.051  1.00  0.00     0.031 C 
ATOM     67  C   UNL A   1      46.459  29.072  32.253  1.00  0.00     0.029 A 
ATOM     68  C   UNL A   1      45.709  28.208  31.470  1.00  0.00     0.049 A 
ATOM     69  H   UNL A   1      43.755  28.458  30.712  1.00  0.00     0.167 HD
ATOM     70  C   UNL A   1      45.272  26.098  30.245  1.00  0.00     0.074 A 
ATOM     71  C   UNL A   1      45.645  24.784  29.759  1.00  0.00     0.031 C 
ATOM     72  C   UNL A   1      46.085  26.912  30.962  1.00  0.00     0.031 A 
BRANCH  59  73
ATOM     73  C   UNL A   1      43.581  32.335  32.510  1.00  0.00    -0.014 A 
ATOM     74  C   UNL A   1      43.175  32.482  33.850  1.00  0.00     0.010 A 
ATOM     75  C   UNL A   1      44.049  33.462  31.811  1.00  0.00     0.010 A 
ATOM     76  C   UNL A   1      43.211  33.733  34.472  1.00  0.00     0.020 A 
ATOM     77  C   UNL A   1      44.109  34.711  32.438  1.00  0.00     0.020 A 
ATOM     78  C   UNL A   1      43.670  34.843  33.759  1.00  0.00     0.054 A 
BRANCH  78  79
ATOM     79  S   UNL A   1      43.703  36.462  34.577  1.00  0.00     0.124 S 
ATOM     80  O   UNL A   1      45.069  36.522  35.088  1.00  0.00    -0.237 OA
ATOM     81  O   UNL A   1      43.397  37.381  33.483  1.00  0.00    -0.237 OA
ATOM     82  O   UNL A   1      42.658  36.349  35.592  1.00  0.00    -0.744 OA
ENDBRANCH  78  79
ENDBRANCH  59  73
BRANCH  60  83
ATOM     83  C   UNL A   1      42.057  23.687  27.761  1.00  0.00    -0.014 A 
ATOM     84  C   UNL A   1      41.367  22.659  28.431  1.00  0.00     0.010 A 
ATOM     85  C   UNL A   1      42.621  23.427  26.501  1.00  0.00     0.010 A 
ATOM     86  C   UNL A   1      41.320  21.372  27.894  1.00  0.00     0.020 A 
ATOM     87  C   UNL A   1      42.549  22.145  25.946  1.00  0.00     0.020 A 
ATOM     88  C   UNL A   1      41.934  21.118  26.666  1.00  0.00     0.054 A 
BRANCH  88  89
ATOM     89  S   UNL A   1      41.957  19.417  26.037  1.00  0.00     0.124 S 
ATOM     90  O   UNL A   1      42.504  18.687  27.178  1.00  0.00    -0.237 OA
ATOM     91  O   UNL A   1      40.549  19.163  25.744  1.00  0.00    -0.237 OA
ATOM     92  O   UNL A   1      42.829  19.497  24.870  1.00  0.00    -0.744 OA
ENDBRANCH  88  89
ENDBRANCH  60  83
BRANCH  72  93
ATOM     93  C   UNL A   1      47.482  26.435  31.254  1.00  0.00    -0.014 A 
ATOM     94  C   UNL A   1      47.757  25.761  32.457  1.00  0.00     0.010 A 
ATOM     95  C   UNL A   1      48.543  26.763  30.393  1.00  0.00     0.010 A 
ATOM     96  C   UNL A   1      49.072  25.452  32.811  1.00  0.00     0.020 A 
ATOM     97  C   UNL A   1      49.859  26.433  30.731  1.00  0.00     0.020 A 
ATOM     98  C   UNL A   1      50.117  25.801  31.951  1.00  0.00     0.054 A 
BRANCH  98  99
ATOM     99  S   UNL A   1      51.822  25.416  32.436  1.00  0.00     0.124 S 
ATOM    100  O   UNL A   1      52.543  25.580  31.178  1.00  0.00    -0.237 OA
ATOM    101  O   UNL A   1      52.102  26.421  33.459  1.00  0.00    -0.237 OA
ATOM    102  O   UNL A   1      51.735  24.044  32.932  1.00  0.00    -0.744 OA
ENDBRANCH  98  99
ENDBRANCH  72  93
ENDBRANCH  46  47
ENDBRANCH  38  41
ENDBRANCH  36  37
ENDBRANCH  35  36
ENDBRANCH   1  35
TORSDOF 20
ENDMDL
MODEL 2
REMARK VINA RESULT:     -11.5      1.841      2.371
REMARK SMILES CN(C)S(=O)(=O)c1ccc(Cl)c(C(=O)N[C@H](CC2=c3ccccc3=NC2)C(=O)NCCCCNC(=O)c2ccc(-c3c4nc(c(-c5ccc(S(=O)(=O)[O-])cc5)c5ccc([nH]5)c(-c5ccc(S(=O)(=O)[O-])cc5)c5nc(c(-c6ccc(S(=O)(=O)[O-])cc6)c6ccc3[nH]6)C=C5)C=C4)cc2)c1
REMARK SMILES IDX 31 1 30 2 29 3 27 4 28 5 16 7 15 8 13 9 14 10 12 12 7 13
REMARK SMILES IDX 8 14 97 15 9 16 10 17 11 18 4 19 5 20 6 21 2 22 1 23 3 24
REMARK SMILES IDX 17 25 18 26 19 27 26 28 20 29 24 30 25 31 21 32 23 33 22 34
REMARK SMILES IDX 32 35 33 36 34 37 35 38 36 40 37 41 38 42 96 43 39 44 95 45
REMARK SMILES IDX 40 46 41 47 42 48 89 49 43 50 94 51 88 52 90 53 44 54 93 55
REMARK SMILES IDX 87 56 86 57 45 59 75 60 56 61 74 62 57 63 60 64 73 65 91 66
REMARK SMILES IDX 58 67 59 68 72 70 92 71 61 72 46 73 47 74 55 75 48 76 54 77
REMARK SMILES IDX 49 78 50 79 51 80 52 81 53 82 76 83 77 84 85 85 78 86 84 87
REMARK SMILES IDX 79 88 80 89 81 90 82 91 83 92 62 93 63 94 71 95 64 96 70 97
REMARK SMILES IDX 65 98 66 99 67 100 68 101 69 102
REMARK H PARENT 29 6 15 11 34 39 90 58 60 69
REMARK Flexibility Score: inf
ROOT
ATOM      1  C   UNL A   1      32.219  28.338  27.602  1.00  0.00     0.023 C 
ENDROOT
BRANCH   1   2
ATOM      2  C   UNL A   1      31.681  27.669  26.345  1.00  0.00     0.116 C 
BRANCH   2   3
ATOM      3  N   UNL A   1      30.577  26.776  26.558  1.00  0.00    -0.354 N 
ATOM      4  C   UNL A   1      30.433  25.495  26.123  1.00  0.00     0.242 C 
ATOM      5  O   UNL A   1      29.668  24.786  26.791  1.00  0.00    -0.273 OA
ATOM      6  H   UNL A   1      29.828  27.137  27.087  1.00  0.00     0.163 HD
BRANCH   4   7
ATOM      7  C   UNL A   1      31.182  24.883  24.895  1.00  0.00     0.175 C 
BRANCH   7   8
ATOM      8  N   UNL A   1      32.568  24.431  25.048  1.00  0.00    -0.340 N 
ATOM      9  C   UNL A   1      33.312  23.429  24.485  1.00  0.00     0.253 C 
ATOM     10  O   UNL A   1      34.538  23.506  24.605  1.00  0.00    -0.269 OA
ATOM     11  H   UNL A   1      33.076  24.966  25.699  1.00  0.00     0.164 HD
BRANCH   9  12
ATOM     12  C   UNL A   1      32.775  22.201  23.860  1.00  0.00     0.059 A 
ATOM     13  C   UNL A   1      32.475  19.807  24.209  1.00  0.00     0.083 A 
ATOM     14  C   UNL A   1      32.098  19.654  22.875  1.00  0.00     0.023 A 
ATOM     15  C   UNL A   1      32.737  21.079  24.721  1.00  0.00     0.037 A 
ATOM     16  C   UNL A   1      32.124  20.756  22.022  1.00  0.00     0.023 A 
ATOM     17  C   UNL A   1      32.549  22.008  22.491  1.00  0.00     0.053 A 
ATOM     18  Cl  UNL A   1      32.978  23.152  21.271  1.00  0.00    -0.083 Cl
BRANCH  13  19
ATOM     19  S   UNL A   1      32.778  18.321  25.140  1.00  0.00     0.242 S 
ATOM     20  O   UNL A   1      31.752  17.371  24.756  1.00  0.00    -0.207 OA
ATOM     21  O   UNL A   1      32.944  18.724  26.519  1.00  0.00    -0.207 OA
BRANCH  19  22
ATOM     22  N   UNL A   1      34.267  17.665  24.591  1.00  0.00    -0.204 NA
ATOM     23  C   UNL A   1      34.102  16.985  23.274  1.00  0.00     0.124 C 
ATOM     24  C   UNL A   1      35.413  18.606  24.527  1.00  0.00     0.124 C 
ENDBRANCH  19  22
ENDBRANCH  13  19
ENDBRANCH   9  12
ENDBRANCH   7   8
BRANCH   7  25
ATOM     25  C   UNL A   1      30.916  25.484  23.487  1.00  0.00     0.068 C 
BRANCH  25  26
ATOM     26  C   UNL A   1      30.704  26.953  23.165  1.00  0.00    -0.037 C 
ATOM     27  C   UNL A   1      29.662  27.792  23.134  1.00  0.00     0.001 A 
ATOM     28  C   UNL A   1      31.944  27.677  22.687  1.00  0.00     0.174 C 
ATOM     29  C   UNL A   1      28.263  27.742  23.445  1.00  0.00     0.010 A 
ATOM     30  C   UNL A   1      30.219  28.967  22.423  1.00  0.00     0.065 A 
ATOM     31  N   UNL A   1      31.492  28.982  22.177  1.00  0.00    -0.280 NA
ATOM     32  C   UNL A   1      27.447  28.706  22.986  1.00  0.00     0.001 A 
ATOM     33  C   UNL A   1      29.261  29.995  21.965  1.00  0.00     0.028 A 
ATOM     34  C   UNL A   1      27.954  29.822  22.212  1.00  0.00     0.002 A 
ENDBRANCH  25  26
ENDBRANCH   7  25
ENDBRANCH   4   7
ENDBRANCH   2   3
ENDBRANCH   1   2
BRANCH   1  35
ATOM     35  C   UNL A   1      33.704  28.686  27.539  1.00  0.00     0.023 C 
BRANCH  35  36
ATOM     36  C   UNL A   1      34.038  30.094  27.055  1.00  0.00     0.116 C 
BRANCH  36  37
ATOM     37  N   UNL A   1      33.837  31.158  28.031  1.00  0.00    -0.352 N 
ATOM     38  C   UNL A   1      34.743  31.567  28.994  1.00  0.00     0.251 C 
ATOM     39  H   UNL A   1      32.975  31.633  28.002  1.00  0.00     0.163 HD
ATOM     40  O   UNL A   1      34.482  32.465  29.785  1.00  0.00    -0.269 OA
BRANCH  38  41
ATOM     41  C   UNL A   1      36.028  30.837  29.063  1.00  0.00     0.039 A 
ATOM     42  C   UNL A   1      36.123  29.708  29.877  1.00  0.00     0.014 A 
ATOM     43  C   UNL A   1      37.169  31.409  28.496  1.00  0.00     0.014 A 
ATOM     44  C   UNL A   1      37.377  29.279  30.292  1.00  0.00     0.010 A 
ATOM     45  C   UNL A   1      38.429  30.914  28.846  1.00  0.00     0.010 A 
ATOM     46  C   UNL A   1      38.545  29.893  29.804  1.00  0.00    -0.014 A 
BRANCH  46  47
ATOM     47  C   UNL A   1      39.868  29.470  30.340  1.00  0.00     0.031 A 
ATOM     48  C   UNL A   1      40.420  30.063  31.613  1.00  0.00     0.074 A 
ATOM     49  C   UNL A   1      40.542  28.486  29.714  1.00  0.00     0.049 A 
ATOM     50  N   UNL A   1      41.531  29.768  32.238  1.00  0.00    -0.248 NA
ATOM     51  C   UNL A   1      39.633  31.121  32.268  1.00  0.00     0.031 C 
ATOM     52  C   UNL A   1      40.100  27.818  28.489  1.00  0.00     0.029 A 
ATOM     53  N   UNL A   1      41.716  27.852  30.036  1.00  0.00    -0.354 N 
ATOM     54  C   UNL A   1      41.592  30.618  33.338  1.00  0.00     0.074 A 
ATOM     55  C   UNL A   1      40.415  31.454  33.288  1.00  0.00     0.031 C 
ATOM     56  C   UNL A   1      40.951  26.825  28.201  1.00  0.00     0.029 A 
ATOM     57  C   UNL A   1      42.040  26.831  29.176  1.00  0.00     0.049 A 
ATOM     58  H   UNL A   1      42.271  28.104  30.809  1.00  0.00     0.167 HD
ATOM     59  C   UNL A   1      42.541  30.688  34.303  1.00  0.00     0.031 A 
ATOM     60  C   UNL A   1      43.095  25.992  29.155  1.00  0.00     0.031 A 
ATOM     61  C   UNL A   1      43.697  29.831  34.366  1.00  0.00     0.049 A 
ATOM     62  C   UNL A   1      44.144  26.104  30.219  1.00  0.00     0.074 A 
ATOM     63  C   UNL A   1      44.685  29.800  35.335  1.00  0.00     0.029 A 
ATOM     64  N   UNL A   1      44.025  28.860  33.431  1.00  0.00    -0.354 N 
ATOM     65  N   UNL A   1      44.176  26.910  31.253  1.00  0.00    -0.248 NA
ATOM     66  C   UNL A   1      45.299  25.205  30.115  1.00  0.00     0.031 C 
ATOM     67  C   UNL A   1      45.641  28.856  34.955  1.00  0.00     0.029 A 
ATOM     68  C   UNL A   1      45.218  28.251  33.782  1.00  0.00     0.049 A 
ATOM     69  H   UNL A   1      43.488  28.638  32.637  1.00  0.00     0.167 HD
ATOM     70  C   UNL A   1      45.359  26.620  31.920  1.00  0.00     0.074 A 
ATOM     71  C   UNL A   1      46.001  25.547  31.188  1.00  0.00     0.031 C 
ATOM     72  C   UNL A   1      45.866  27.201  33.035  1.00  0.00     0.031 A 
BRANCH  59  73
ATOM     73  C   UNL A   1      42.395  31.733  35.380  1.00  0.00    -0.014 A 
ATOM     74  C   UNL A   1      41.580  31.467  36.496  1.00  0.00     0.010 A 
ATOM     75  C   UNL A   1      42.958  33.014  35.236  1.00  0.00     0.010 A 
ATOM     76  C   UNL A   1      41.311  32.465  37.437  1.00  0.00     0.020 A 
ATOM     77  C   UNL A   1      42.711  34.009  36.188  1.00  0.00     0.020 A 
ATOM     78  C   UNL A   1      41.872  33.734  37.272  1.00  0.00     0.054 A 
BRANCH  78  79
ATOM     79  S   UNL A   1      41.507  35.022  38.496  1.00  0.00     0.124 S 
ATOM     80  O   UNL A   1      41.918  34.387  39.745  1.00  0.00    -0.237 OA
ATOM     81  O   UNL A   1      42.340  36.136  38.050  1.00  0.00    -0.237 OA
ATOM     82  O   UNL A   1      40.069  35.235  38.345  1.00  0.00    -0.744 OA
ENDBRANCH  78  79
ENDBRANCH  59  73
BRANCH  60  83
ATOM     83  C   UNL A   1      43.168  24.976  28.072  1.00  0.00    -0.014 A 
ATOM     84  C   UNL A   1      42.664  23.679  28.287  1.00  0.00     0.010 A 
ATOM     85  C   UNL A   1      43.873  25.251  26.888  1.00  0.00     0.010 A 
ATOM     86  C   UNL A   1      42.937  22.654  27.380  1.00  0.00     0.020 A 
ATOM     87  C   UNL A   1      44.123  24.233  25.963  1.00  0.00     0.020 A 
ATOM     88  C   UNL A   1      43.688  22.933  26.236  1.00  0.00     0.054 A 
BRANCH  88  89
ATOM     89  S   UNL A   1      44.125  21.568  25.125  1.00  0.00     0.124 S 
ATOM     90  O   UNL A   1      43.996  22.200  23.814  1.00  0.00    -0.237 OA
ATOM     91  O   UNL A   1      45.489  21.244  25.535  1.00  0.00    -0.237 OA
ATOM     92  O   UNL A   1      43.127  20.548  25.429  1.00  0.00    -0.744 OA
ENDBRANCH  88  89
ENDBRANCH  60  83
BRANCH  72  93
ATOM     93  C   UNL A   1      47.201  26.722  33.537  1.00  0.00    -0.014 A 
ATOM     94  C   UNL A   1      48.386  27.282  33.025  1.00  0.00     0.010 A 
ATOM     95  C   UNL A   1      47.283  25.633  34.422  1.00  0.00     0.010 A 
ATOM     96  C   UNL A   1      49.628  26.742  33.365  1.00  0.00     0.020 A 
ATOM     97  C   UNL A   1      48.525  25.105  34.784  1.00  0.00     0.020 A 
ATOM     98  C   UNL A   1      49.690  25.648  34.233  1.00  0.00     0.054 A 
BRANCH  98  99
ATOM     99  S   UNL A   1      51.309  24.942  34.643  1.00  0.00     0.124 S 
ATOM    100  O   UNL A   1      51.009  23.516  34.726  1.00  0.00    -0.237 OA
ATOM    101  O   UNL A   1      52.136  25.346  33.508  1.00  0.00    -0.237 OA
ATOM    102  O   UNL A   1      51.651  25.584  35.911  1.00  0.00    -0.744 OA
ENDBRANCH  98  99
ENDBRANCH  72  93
ENDBRANCH  46  47
ENDBRANCH  38  41
ENDBRANCH  36  37
ENDBRANCH  35  36
ENDBRANCH   1  35
TORSDOF 20
ENDMDL
MODEL 3
REMARK VINA RESULT:     -11.1      6.248     13.079
REMARK SMILES CN(C)S(=O)(=O)c1ccc(Cl)c(C(=O)N[C@H](CC2=c3ccccc3=NC2)C(=O)NCCCCNC(=O)c2ccc(-c3c4nc(c(-c5ccc(S(=O)(=O)[O-])cc5)c5ccc([nH]5)c(-c5ccc(S(=O)(=O)[O-])cc5)c5nc(c(-c6ccc(S(=O)(=O)[O-])cc6)c6ccc3[nH]6)C=C5)C=C4)cc2)c1
REMARK SMILES IDX 31 1 30 2 29 3 27 4 28 5 16 7 15 8 13 9 14 10 12 12 7 13
REMARK SMILES IDX 8 14 97 15 9 16 10 17 11 18 4 19 5 20 6 21 2 22 1 23 3 24
REMARK SMILES IDX 17 25 18 26 19 27 26 28 20 29 24 30 25 31 21 32 23 33 22 34
REMARK SMILES IDX 32 35 33 36 34 37 35 38 36 40 37 41 38 42 96 43 39 44 95 45
REMARK SMILES IDX 40 46 41 47 42 48 89 49 43 50 94 51 88 52 90 53 44 54 93 55
REMARK SMILES IDX 87 56 86 57 45 59 75 60 56 61 74 62 57 63 60 64 73 65 91 66
REMARK SMILES IDX 58 67 59 68 72 70 92 71 61 72 46 73 47 74 55 75 48 76 54 77
REMARK SMILES IDX 49 78 50 79 51 80 52 81 53 82 76 83 77 84 85 85 78 86 84 87
REMARK SMILES IDX 79 88 80 89 81 90 82 91 83 92 62 93 63 94 71 95 64 96 70 97
REMARK SMILES IDX 65 98 66 99 67 100 68 101 69 102
REMARK H PARENT 29 6 15 11 34 39 90 58 60 69
REMARK Flexibility Score: inf
ROOT
ATOM      1  C   UNL A   1      46.040  23.234  26.101  1.00  0.00     0.023 C 
ENDROOT
BRANCH   1   2
ATOM      2  C   UNL A   1      46.725  23.842  24.886  1.00  0.00     0.116 C 
BRANCH   2   3
ATOM      3  N   UNL A   1      46.256  25.147  24.513  1.00  0.00    -0.354 N 
ATOM      4  C   UNL A   1      46.834  26.353  24.764  1.00  0.00     0.242 C 
ATOM      5  O   UNL A   1      46.535  27.262  23.979  1.00  0.00    -0.273 OA
ATOM      6  H   UNL A   1      45.408  25.172  24.013  1.00  0.00     0.163 HD
BRANCH   4   7
ATOM      7  C   UNL A   1      47.846  26.631  25.922  1.00  0.00     0.175 C 
BRANCH   7   8
ATOM      8  N   UNL A   1      49.156  25.975  25.908  1.00  0.00    -0.340 N 
ATOM      9  C   UNL A   1      50.365  26.271  25.341  1.00  0.00     0.253 C 
ATOM     10  O   UNL A   1      51.351  25.667  25.772  1.00  0.00    -0.269 OA
ATOM     11  H   UNL A   1      49.170  25.135  26.422  1.00  0.00     0.164 HD
BRANCH   9  12
ATOM     12  C   UNL A   1      50.578  27.153  24.172  1.00  0.00     0.059 A 
ATOM     13  C   UNL A   1      50.330  27.274  21.750  1.00  0.00     0.083 A 
ATOM     14  C   UNL A   1      51.081  28.449  21.726  1.00  0.00     0.023 A 
ATOM     15  C   UNL A   1      50.014  26.670  22.968  1.00  0.00     0.037 A 
ATOM     16  C   UNL A   1      51.633  28.937  22.909  1.00  0.00     0.023 A 
ATOM     17  C   UNL A   1      51.459  28.241  24.114  1.00  0.00     0.053 A 
ATOM     18  Cl  UNL A   1      52.548  28.669  25.384  1.00  0.00    -0.083 Cl
BRANCH  13  19
ATOM     19  S   UNL A   1      49.972  26.509  20.183  1.00  0.00     0.242 S 
ATOM     20  O   UNL A   1      49.908  27.576  19.203  1.00  0.00    -0.207 OA
ATOM     21  O   UNL A   1      48.848  25.627  20.401  1.00  0.00    -0.207 OA
BRANCH  19  22
ATOM     22  N   UNL A   1      51.332  25.550  19.758  1.00  0.00    -0.204 NA
ATOM     23  C   UNL A   1      50.909  24.280  19.100  1.00  0.00     0.124 C 
ATOM     24  C   UNL A   1      52.372  26.216  18.935  1.00  0.00     0.124 C 
ENDBRANCH  19  22
ENDBRANCH  13  19
ENDBRANCH   9  12
ENDBRANCH   7   8
BRANCH   7  25
ATOM     25  C   UNL A   1      47.294  26.804  27.365  1.00  0.00     0.068 C 
BRANCH  25  26
ATOM     26  C   UNL A   1      46.184  27.747  27.793  1.00  0.00    -0.037 C 
ATOM     27  C   UNL A   1      44.904  27.943  27.458  1.00  0.00     0.001 A 
ATOM     28  C   UNL A   1      46.602  28.792  28.805  1.00  0.00     0.174 C 
ATOM     29  C   UNL A   1      43.939  27.333  26.590  1.00  0.00     0.010 A 
ATOM     30  C   UNL A   1      44.603  29.247  28.095  1.00  0.00     0.065 A 
ATOM     31  N   UNL A   1      45.493  29.757  28.889  1.00  0.00    -0.280 NA
ATOM     32  C   UNL A   1      42.820  28.002  26.268  1.00  0.00     0.001 A 
ATOM     33  C   UNL A   1      43.343  29.914  27.705  1.00  0.00     0.028 A 
ATOM     34  C   UNL A   1      42.542  29.318  26.809  1.00  0.00     0.002 A 
ENDBRANCH  25  26
ENDBRANCH   7  25
ENDBRANCH   4   7
ENDBRANCH   2   3
ENDBRANCH   1   2
BRANCH   1  35
ATOM     35  C   UNL A   1      45.531  21.811  25.888  1.00  0.00     0.023 C 
BRANCH  35  36
ATOM     36  C   UNL A   1      44.630  21.601  24.675  1.00  0.00     0.116 C 
BRANCH  36  37
ATOM     37  N   UNL A   1      43.735  20.451  24.749  1.00  0.00    -0.352 N 
ATOM     38  C   UNL A   1      42.571  20.367  25.492  1.00  0.00     0.251 C 
ATOM     39  H   UNL A   1      43.982  19.661  24.217  1.00  0.00     0.163 HD
ATOM     40  O   UNL A   1      41.887  19.351  25.504  1.00  0.00    -0.269 OA
BRANCH  38  41
ATOM     41  C   UNL A   1      42.211  21.541  26.317  1.00  0.00     0.039 A 
ATOM     42  C   UNL A   1      42.290  22.815  25.753  1.00  0.00     0.014 A 
ATOM     43  C   UNL A   1      42.017  21.377  27.691  1.00  0.00     0.014 A 
ATOM     44  C   UNL A   1      42.383  23.919  26.591  1.00  0.00     0.010 A 
ATOM     45  C   UNL A   1      42.019  22.501  28.522  1.00  0.00     0.010 A 
ATOM     46  C   UNL A   1      42.277  23.773  27.987  1.00  0.00    -0.014 A 
BRANCH  46  47
ATOM     47  C   UNL A   1      42.474  24.963  28.859  1.00  0.00     0.031 A 
ATOM     48  C   UNL A   1      43.779  25.194  29.582  1.00  0.00     0.074 A 
ATOM     49  C   UNL A   1      41.494  25.884  28.939  1.00  0.00     0.049 A 
ATOM     50  N   UNL A   1      44.128  26.204  30.338  1.00  0.00    -0.248 NA
ATOM     51  C   UNL A   1      44.824  24.167  29.443  1.00  0.00     0.031 C 
ATOM     52  C   UNL A   1      40.197  25.785  28.269  1.00  0.00     0.029 A 
ATOM     53  N   UNL A   1      41.446  27.095  29.584  1.00  0.00    -0.354 N 
ATOM     54  C   UNL A   1      45.414  25.922  30.787  1.00  0.00     0.074 A 
ATOM     55  C   UNL A   1      45.780  24.638  30.234  1.00  0.00     0.031 C 
ATOM     56  C   UNL A   1      39.509  26.915  28.479  1.00  0.00     0.029 A 
ATOM     57  C   UNL A   1      40.281  27.789  29.359  1.00  0.00     0.049 A 
ATOM     58  H   UNL A   1      42.176  27.433  30.151  1.00  0.00     0.167 HD
ATOM     59  C   UNL A   1      46.216  26.670  31.583  1.00  0.00     0.031 A 
ATOM     60  C   UNL A   1      39.865  28.988  29.810  1.00  0.00     0.031 A 
ATOM     61  C   UNL A   1      45.858  27.963  32.107  1.00  0.00     0.049 A 
ATOM     62  C   UNL A   1      40.759  29.787  30.709  1.00  0.00     0.074 A 
ATOM     63  C   UNL A   1      46.629  28.813  32.882  1.00  0.00     0.029 A 
ATOM     64  N   UNL A   1      44.639  28.594  31.915  1.00  0.00    -0.354 N 
ATOM     65  N   UNL A   1      41.974  29.504  31.114  1.00  0.00    -0.248 NA
ATOM     66  C   UNL A   1      40.231  31.059  31.217  1.00  0.00     0.031 C 
ATOM     67  C   UNL A   1      45.854  29.927  33.212  1.00  0.00     0.029 A 
ATOM     68  C   UNL A   1      44.623  29.804  32.588  1.00  0.00     0.049 A 
ATOM     69  H   UNL A   1      43.895  28.234  31.379  1.00  0.00     0.167 HD
ATOM     70  C   UNL A   1      42.354  30.559  31.932  1.00  0.00     0.074 A 
ATOM     71  C   UNL A   1      41.252  31.500  31.943  1.00  0.00     0.031 C 
ATOM     72  C   UNL A   1      43.512  30.724  32.617  1.00  0.00     0.031 A 
BRANCH  59  73
ATOM     73  C   UNL A   1      47.568  26.119  31.962  1.00  0.00    -0.014 A 
ATOM     74  C   UNL A   1      48.626  26.187  31.036  1.00  0.00     0.010 A 
ATOM     75  C   UNL A   1      47.763  25.432  33.173  1.00  0.00     0.010 A 
ATOM     76  C   UNL A   1      49.847  25.560  31.302  1.00  0.00     0.020 A 
ATOM     77  C   UNL A   1      48.992  24.824  33.453  1.00  0.00     0.020 A 
ATOM     78  C   UNL A   1      50.019  24.874  32.506  1.00  0.00     0.054 A 
BRANCH  78  79
ATOM     79  S   UNL A   1      51.606  24.057  32.833  1.00  0.00     0.124 S 
ATOM     80  O   UNL A   1      51.377  22.716  32.304  1.00  0.00    -0.237 OA
ATOM     81  O   UNL A   1      52.552  24.880  32.083  1.00  0.00    -0.237 OA
ATOM     82  O   UNL A   1      51.738  24.144  34.286  1.00  0.00    -0.744 OA
ENDBRANCH  78  79
ENDBRANCH  59  73
BRANCH  60  83
ATOM     83  C   UNL A   1      38.526  29.476  29.386  1.00  0.00    -0.014 A 
ATOM     84  C   UNL A   1      38.378  30.152  28.159  1.00  0.00     0.010 A 
ATOM     85  C   UNL A   1      37.433  29.405  30.266  1.00  0.00     0.010 A 
ATOM     86  C   UNL A   1      37.191  30.821  27.858  1.00  0.00     0.020 A 
ATOM     87  C   UNL A   1      36.232  30.049  29.954  1.00  0.00     0.020 A 
ATOM     88  C   UNL A   1      36.134  30.786  28.771  1.00  0.00     0.054 A 
BRANCH  88  89
ATOM     89  S   UNL A   1      34.640  31.751  28.413  1.00  0.00     0.124 S 
ATOM     90  O   UNL A   1      35.163  32.787  27.527  1.00  0.00    -0.237 OA
ATOM     91  O   UNL A   1      33.765  30.767  27.782  1.00  0.00    -0.237 OA
ATOM     92  O   UNL A   1      34.209  32.212  29.729  1.00  0.00    -0.744 OA
ENDBRANCH  88  89
ENDBRANCH  60  83
BRANCH  72  93
ATOM     93  C   UNL A   1      43.658  31.955  33.471  1.00  0.00    -0.014 A 
ATOM     94  C   UNL A   1      44.320  33.087  32.964  1.00  0.00     0.010 A 
ATOM     95  C   UNL A   1      43.249  31.943  34.816  1.00  0.00     0.010 A 
ATOM     96  C   UNL A   1      44.599  34.175  33.795  1.00  0.00     0.020 A 
ATOM     97  C   UNL A   1      43.504  33.040  35.644  1.00  0.00     0.020 A 
ATOM     98  C   UNL A   1      44.200  34.140  35.133  1.00  0.00     0.054 A 
BRANCH  98  99
ATOM     99  S   UNL A   1      44.593  35.549  36.205  1.00  0.00     0.124 S 
ATOM    100  O   UNL A   1      43.509  35.502  37.182  1.00  0.00    -0.237 OA
ATOM    101  O   UNL A   1      45.917  35.206  36.718  1.00  0.00    -0.237 OA
ATOM    102  O   UNL A   1      44.564  36.691  35.294  1.00  0.00    -0.744 OA
ENDBRANCH  98  99
ENDBRANCH  72  93
ENDBRANCH  46  47
ENDBRANCH  38  41
ENDBRANCH  36  37
ENDBRANCH  35  36
ENDBRANCH   1  35
TORSDOF 20
ENDMDL
