MODEL 1
REMARK VINA RESULT:     -11.9      0.000      0.000
REMARK SMILES O=C(NCCCCNC(=O)[C@@H](NC(=O)c1cscn1)c1ccccc1C(F)(F)F)c1ccc(-c2c3nc(c(-c4ccc(S(=O)(=O)[O-])cc4)c4ccc([nH]4)c(-c4ccc(S(=O)(=O)[O-])cc4)c4nc(c(-c5ccc(S(=O)(=O)[O-])cc5)c5ccc2[nH]5)C=C4)C=C3)cc1
REMARK SMILES IDX 5 1 4 2 3 3 1 4 2 5 30 7 31 8 89 9 32 10 88 11 33 12 34 13
REMARK SMILES IDX 35 14 82 15 36 16 87 17 81 18 83 19 37 20 86 21 80 22 79 23
REMARK SMILES IDX 38 25 68 26 49 27 67 28 50 29 53 30 66 31 84 32 51 33 52 34
REMARK SMILES IDX 65 36 85 37 54 38 39 39 40 40 48 41 41 42 47 43 42 44 43 45
REMARK SMILES IDX 44 46 45 47 46 48 69 49 70 50 78 51 71 52 77 53 72 54 73 55
REMARK SMILES IDX 74 56 75 57 76 58 55 59 56 60 64 61 57 62 63 63 58 64 59 65
REMARK SMILES IDX 60 66 61 67 62 68 6 69 7 70 8 71 9 72 10 74 11 75 12 76
REMARK SMILES IDX 13 77 14 79 15 80 16 81 19 82 17 83 18 84 20 85 21 86 25 87
REMARK SMILES IDX 22 88 24 89 23 90 26 91 27 92 28 93 29 94
REMARK H PARENT 3 6 83 24 53 35 8 73 12 78
REMARK Flexibility Score: inf
ROOT
ATOM      1  C   UNL A   1      34.428  28.884  26.888  1.00  0.00     0.023 C 
ENDROOT
BRANCH   1   2
ATOM      2  C   UNL A   1      35.580  29.620  27.567  1.00  0.00     0.116 C 
BRANCH   2   3
ATOM      3  N   UNL A   1      35.344  29.878  28.981  1.00  0.00    -0.352 N 
ATOM      4  O   UNL A   1      35.850  30.032  31.175  1.00  0.00    -0.269 OA
ATOM      5  C   UNL A   1      36.242  29.889  30.021  1.00  0.00     0.251 C 
ATOM      6  H   UNL A   1      34.410  30.072  29.226  1.00  0.00     0.163 HD
BRANCH   5   7
ATOM      7  C   UNL A   1      37.674  29.688  29.734  1.00  0.00     0.039 A 
ATOM      8  C   UNL A   1      38.173  29.901  28.446  1.00  0.00     0.014 A 
ATOM      9  C   UNL A   1      38.506  29.232  30.757  1.00  0.00     0.014 A 
ATOM     10  C   UNL A   1      39.480  29.528  28.147  1.00  0.00     0.010 A 
ATOM     11  C   UNL A   1      39.835  28.919  30.469  1.00  0.00     0.010 A 
ATOM     12  C   UNL A   1      40.319  29.029  29.155  1.00  0.00    -0.014 A 
BRANCH  12  13
ATOM     13  C   UNL A   1      41.716  28.648  28.841  1.00  0.00     0.031 A 
ATOM     14  C   UNL A   1      42.821  29.664  28.909  1.00  0.00     0.074 A 
ATOM     15  C   UNL A   1      41.980  27.382  28.472  1.00  0.00     0.049 A 
ATOM     16  N   UNL A   1      44.083  29.530  28.591  1.00  0.00    -0.248 NA
ATOM     17  C   UNL A   1      42.461  31.008  29.391  1.00  0.00     0.031 C 
ATOM     18  C   UNL A   1      40.989  26.308  28.379  1.00  0.00     0.029 A 
ATOM     19  N   UNL A   1      43.156  26.785  28.098  1.00  0.00    -0.354 N 
ATOM     20  C   UNL A   1      44.663  30.776  28.801  1.00  0.00     0.074 A 
ATOM     21  C   UNL A   1      43.611  31.656  29.266  1.00  0.00     0.031 C 
ATOM     22  C   UNL A   1      41.599  25.181  27.986  1.00  0.00     0.029 A 
ATOM     23  C   UNL A   1      43.009  25.467  27.741  1.00  0.00     0.049 A 
ATOM     24  H   UNL A   1      44.020  27.256  28.086  1.00  0.00     0.167 HD
ATOM     25  C   UNL A   1      45.952  31.150  28.619  1.00  0.00     0.031 A 
ATOM     26  C   UNL A   1      43.900  24.591  27.241  1.00  0.00     0.031 A 
ATOM     27  C   UNL A   1      46.990  30.267  28.153  1.00  0.00     0.049 A 
ATOM     28  C   UNL A   1      45.316  25.031  27.022  1.00  0.00     0.074 A 
ATOM     29  C   UNL A   1      48.332  30.543  27.960  1.00  0.00     0.029 A 
ATOM     30  N   UNL A   1      46.799  28.939  27.804  1.00  0.00    -0.354 N 
ATOM     31  N   UNL A   1      45.852  26.208  27.243  1.00  0.00    -0.248 NA
ATOM     32  C   UNL A   1      46.249  24.030  26.490  1.00  0.00     0.031 C 
ATOM     33  C   UNL A   1      48.944  29.391  27.453  1.00  0.00     0.029 A 
ATOM     34  C   UNL A   1      47.994  28.385  27.377  1.00  0.00     0.049 A 
ATOM     35  H   UNL A   1      45.941  28.459  27.852  1.00  0.00     0.167 HD
ATOM     36  C   UNL A   1      47.190  26.085  26.895  1.00  0.00     0.074 A 
ATOM     37  C   UNL A   1      47.383  24.718  26.453  1.00  0.00     0.031 C 
ATOM     38  C   UNL A   1      48.169  27.021  26.941  1.00  0.00     0.031 A 
BRANCH  25  39
ATOM     39  C   UNL A   1      46.296  32.592  28.882  1.00  0.00    -0.014 A 
ATOM     40  C   UNL A   1      46.672  33.033  30.163  1.00  0.00     0.010 A 
ATOM     41  C   UNL A   1      46.247  33.520  27.826  1.00  0.00     0.010 A 
ATOM     42  C   UNL A   1      46.935  34.386  30.396  1.00  0.00     0.020 A 
ATOM     43  C   UNL A   1      46.533  34.870  28.049  1.00  0.00     0.020 A 
ATOM     44  C   UNL A   1      46.850  35.298  29.339  1.00  0.00     0.054 A 
BRANCH  44  45
ATOM     45  S   UNL A   1      47.171  37.054  29.668  1.00  0.00     0.124 S 
ATOM     46  O   UNL A   1      46.118  37.700  28.889  1.00  0.00    -0.237 OA
ATOM     47  O   UNL A   1      47.024  37.145  31.118  1.00  0.00    -0.237 OA
ATOM     48  O   UNL A   1      48.529  37.257  29.169  1.00  0.00    -0.744 OA
ENDBRANCH  44  45
ENDBRANCH  25  39
BRANCH  26  49
ATOM     49  C   UNL A   1      43.443  23.218  26.908  1.00  0.00    -0.014 A 
ATOM     50  C   UNL A   1      43.742  22.651  25.657  1.00  0.00     0.010 A 
ATOM     51  C   UNL A   1      42.797  22.433  27.882  1.00  0.00     0.010 A 
ATOM     52  C   UNL A   1      43.414  21.318  25.392  1.00  0.00     0.020 A 
ATOM     53  C   UNL A   1      42.490  21.095  27.628  1.00  0.00     0.020 A 
ATOM     54  C   UNL A   1      42.800  20.546  26.383  1.00  0.00     0.054 A 
BRANCH  54  55
ATOM     55  S   UNL A   1      42.490  18.788  26.058  1.00  0.00     0.124 S 
ATOM     56  O   UNL A   1      42.808  18.181  27.346  1.00  0.00    -0.237 OA
ATOM     57  O   UNL A   1      41.078  18.778  25.684  1.00  0.00    -0.237 OA
ATOM     58  O   UNL A   1      43.415  18.475  24.970  1.00  0.00    -0.744 OA
ENDBRANCH  54  55
ENDBRANCH  26  49
BRANCH  38  59
ATOM     59  C   UNL A   1      49.552  26.596  26.537  1.00  0.00    -0.014 A 
ATOM     60  C   UNL A   1      50.419  25.979  27.456  1.00  0.00     0.010 A 
ATOM     61  C   UNL A   1      49.957  26.744  25.199  1.00  0.00     0.010 A 
ATOM     62  C   UNL A   1      51.675  25.525  27.043  1.00  0.00     0.020 A 
ATOM     63  C   UNL A   1      51.204  26.275  24.778  1.00  0.00     0.020 A 
ATOM     64  C   UNL A   1      52.058  25.673  25.705  1.00  0.00     0.054 A 
BRANCH  64  65
ATOM     65  S   UNL A   1      53.660  25.010  25.174  1.00  0.00     0.124 S 
ATOM     66  O   UNL A   1      53.768  25.529  23.814  1.00  0.00    -0.237 OA
ATOM     67  O   UNL A   1      54.587  25.589  26.144  1.00  0.00    -0.237 OA
ATOM     68  O   UNL A   1      53.485  23.562  25.278  1.00  0.00    -0.744 OA
ENDBRANCH  64  65
ENDBRANCH  38  59
ENDBRANCH  12  13
ENDBRANCH   5   7
ENDBRANCH   2   3
ENDBRANCH   1   2
BRANCH   1  69
ATOM     69  C   UNL A   1      33.163  29.710  26.648  1.00  0.00     0.023 C 
BRANCH  69  70
ATOM     70  C   UNL A   1      32.638  29.672  25.221  1.00  0.00     0.116 C 
BRANCH  70  71
ATOM     71  N   UNL A   1      33.652  29.355  24.238  1.00  0.00    -0.354 N 
ATOM     72  C   UNL A   1      33.650  28.433  23.230  1.00  0.00     0.247 C 
ATOM     73  H   UNL A   1      34.477  29.891  24.306  1.00  0.00     0.163 HD
ATOM     74  O   UNL A   1      34.460  28.621  22.314  1.00  0.00    -0.272 OA
BRANCH  72  75
ATOM     75  C   UNL A   1      32.627  27.251  23.145  1.00  0.00     0.203 C 
BRANCH  75  76
ATOM     76  N   UNL A   1      32.521  26.699  21.788  1.00  0.00    -0.335 N 
ATOM     77  C   UNL A   1      32.826  25.518  21.176  1.00  0.00     0.271 C 
ATOM     78  H   UNL A   1      32.129  27.347  21.158  1.00  0.00     0.165 HD
ATOM     79  O   UNL A   1      33.002  25.541  19.957  1.00  0.00    -0.267 OA
BRANCH  77  80
ATOM     80  C   UNL A   1      32.983  24.289  21.938  1.00  0.00     0.139 A 
ATOM     81  C   UNL A   1      31.909  23.599  22.478  1.00  0.00     0.100 A 
ATOM     82  N   UNL A   1      34.230  23.770  22.273  1.00  0.00    -0.240 NA
ATOM     83  S   UNL A   1      32.458  22.231  23.348  1.00  0.00    -0.130 S 
ATOM     84  C   UNL A   1      34.073  22.687  23.001  1.00  0.00     0.176 A 
ENDBRANCH  77  80
ENDBRANCH  75  76
BRANCH  75  85
ATOM     85  C   UNL A   1      32.715  26.325  24.354  1.00  0.00    -0.004 A 
ATOM     86  C   UNL A   1      33.983  25.904  24.812  1.00  0.00     0.007 A 
ATOM     87  C   UNL A   1      31.574  25.880  25.078  1.00  0.00     0.061 A 
ATOM     88  C   UNL A   1      34.136  25.058  25.911  1.00  0.00     0.000 A 
ATOM     89  C   UNL A   1      31.756  25.012  26.182  1.00  0.00     0.013 A 
ATOM     90  C   UNL A   1      33.021  24.605  26.595  1.00  0.00     0.001 A 
BRANCH  87  91
ATOM     91  C   UNL A   1      30.143  26.239  24.725  1.00  0.00     0.416 C 
ATOM     92  F   UNL A   1      29.723  25.660  23.568  1.00  0.00    -0.166 F 
ATOM     93  F   UNL A   1      29.248  25.837  25.678  1.00  0.00    -0.166 F 
ATOM     94  F   UNL A   1      29.914  27.574  24.586  1.00  0.00    -0.166 F 
ENDBRANCH  87  91
ENDBRANCH  75  85
ENDBRANCH  72  75
ENDBRANCH  70  71
ENDBRANCH  69  70
ENDBRANCH   1  69
TORSDOF 18
ENDMDL
MODEL 2
REMARK VINA RESULT:     -11.9      3.918      9.799
REMARK SMILES O=C(NCCCCNC(=O)[C@@H](NC(=O)c1cscn1)c1ccccc1C(F)(F)F)c1ccc(-c2c3nc(c(-c4ccc(S(=O)(=O)[O-])cc4)c4ccc([nH]4)c(-c4ccc(S(=O)(=O)[O-])cc4)c4nc(c(-c5ccc(S(=O)(=O)[O-])cc5)c5ccc2[nH]5)C=C4)C=C3)cc1
REMARK SMILES IDX 5 1 4 2 3 3 1 4 2 5 30 7 31 8 89 9 32 10 88 11 33 12 34 13
REMARK SMILES IDX 35 14 82 15 36 16 87 17 81 18 83 19 37 20 86 21 80 22 79 23
REMARK SMILES IDX 38 25 68 26 49 27 67 28 50 29 53 30 66 31 84 32 51 33 52 34
REMARK SMILES IDX 65 36 85 37 54 38 39 39 40 40 48 41 41 42 47 43 42 44 43 45
REMARK SMILES IDX 44 46 45 47 46 48 69 49 70 50 78 51 71 52 77 53 72 54 73 55
REMARK SMILES IDX 74 56 75 57 76 58 55 59 56 60 64 61 57 62 63 63 58 64 59 65
REMARK SMILES IDX 60 66 61 67 62 68 6 69 7 70 8 71 9 72 10 74 11 75 12 76
REMARK SMILES IDX 13 77 14 79 15 80 16 81 19 82 17 83 18 84 20 85 21 86 25 87
REMARK SMILES IDX 22 88 24 89 23 90 26 91 27 92 28 93 29 94
REMARK H PARENT 3 6 83 24 53 35 8 73 12 78
REMARK Flexibility Score: inf
ROOT
ATOM      1  C   UNL A   1      36.275  24.072  24.812  1.00  0.00     0.023 C 
ENDROOT
BRANCH   1   2
ATOM      2  C   UNL A   1      36.443  23.288  26.111  1.00  0.00     0.116 C 
BRANCH   2   3
ATOM      3  N   UNL A   1      37.614  22.421  26.113  1.00  0.00    -0.352 N 
ATOM      4  O   UNL A   1      39.798  21.884  26.293  1.00  0.00    -0.269 OA
ATOM      5  C   UNL A   1      38.914  22.721  26.442  1.00  0.00     0.251 C 
ATOM      6  H   UNL A   1      37.451  21.489  25.840  1.00  0.00     0.163 HD
BRANCH   5   7
ATOM      7  C   UNL A   1      39.233  24.072  26.938  1.00  0.00     0.039 A 
ATOM      8  C   UNL A   1      39.905  24.985  26.121  1.00  0.00     0.014 A 
ATOM      9  C   UNL A   1      38.898  24.402  28.252  1.00  0.00     0.014 A 
ATOM     10  C   UNL A   1      40.364  26.181  26.661  1.00  0.00     0.010 A 
ATOM     11  C   UNL A   1      39.303  25.630  28.773  1.00  0.00     0.010 A 
ATOM     12  C   UNL A   1      40.070  26.511  27.994  1.00  0.00    -0.014 A 
BRANCH  12  13
ATOM     13  C   UNL A   1      40.544  27.794  28.565  1.00  0.00     0.031 A 
ATOM     14  C   UNL A   1      41.954  27.935  29.066  1.00  0.00     0.074 A 
ATOM     15  C   UNL A   1      39.687  28.827  28.650  1.00  0.00     0.049 A 
ATOM     16  N   UNL A   1      42.514  28.952  29.668  1.00  0.00    -0.248 NA
ATOM     17  C   UNL A   1      42.848  26.783  28.871  1.00  0.00     0.031 C 
ATOM     18  C   UNL A   1      38.297  28.808  28.187  1.00  0.00     0.029 A 
ATOM     19  N   UNL A   1      39.852  30.088  29.160  1.00  0.00    -0.354 N 
ATOM     20  C   UNL A   1      43.816  28.554  29.955  1.00  0.00     0.074 A 
ATOM     21  C   UNL A   1      43.957  27.198  29.468  1.00  0.00     0.031 C 
ATOM     22  C   UNL A   1      37.740  30.004  28.425  1.00  0.00     0.029 A 
ATOM     23  C   UNL A   1      38.712  30.851  29.108  1.00  0.00     0.049 A 
ATOM     24  H   UNL A   1      40.705  30.413  29.528  1.00  0.00     0.167 HD
ATOM     25  C   UNL A   1      44.798  29.256  30.571  1.00  0.00     0.031 A 
ATOM     26  C   UNL A   1      38.461  32.085  29.585  1.00  0.00     0.031 A 
ATOM     27  C   UNL A   1      44.646  30.603  31.054  1.00  0.00     0.049 A 
ATOM     28  C   UNL A   1      39.553  32.834  30.287  1.00  0.00     0.074 A 
ATOM     29  C   UNL A   1      45.587  31.409  31.669  1.00  0.00     0.029 A 
ATOM     30  N   UNL A   1      43.473  31.341  30.981  1.00  0.00    -0.354 N 
ATOM     31  N   UNL A   1      40.783  32.450  30.533  1.00  0.00    -0.248 NA
ATOM     32  C   UNL A   1      39.229  34.181  30.773  1.00  0.00     0.031 C 
ATOM     33  C   UNL A   1      44.972  32.619  32.006  1.00  0.00     0.029 A 
ATOM     34  C   UNL A   1      43.660  32.586  31.557  1.00  0.00     0.049 A 
ATOM     35  H   UNL A   1      42.632  31.026  30.578  1.00  0.00     0.167 HD
ATOM     36  C   UNL A   1      41.388  33.515  31.187  1.00  0.00     0.074 A 
ATOM     37  C   UNL A   1      40.389  34.561  31.293  1.00  0.00     0.031 C 
ATOM     38  C   UNL A   1      42.656  33.616  31.653  1.00  0.00     0.031 A 
BRANCH  25  39
ATOM     39  C   UNL A   1      46.110  28.553  30.795  1.00  0.00    -0.014 A 
ATOM     40  C   UNL A   1      47.146  28.614  29.846  1.00  0.00     0.010 A 
ATOM     41  C   UNL A   1      46.312  27.822  31.980  1.00  0.00     0.010 A 
ATOM     42  C   UNL A   1      48.336  27.910  30.051  1.00  0.00     0.020 A 
ATOM     43  C   UNL A   1      47.510  27.136  32.201  1.00  0.00     0.020 A 
ATOM     44  C   UNL A   1      48.504  27.164  31.222  1.00  0.00     0.054 A 
BRANCH  44  45
ATOM     45  S   UNL A   1      50.046  26.237  31.457  1.00  0.00     0.124 S 
ATOM     46  O   UNL A   1      51.012  27.314  31.666  1.00  0.00    -0.237 OA
ATOM     47  O   UNL A   1      49.758  25.418  32.630  1.00  0.00    -0.237 OA
ATOM     48  O   UNL A   1      50.200  25.498  30.207  1.00  0.00    -0.744 OA
ENDBRANCH  44  45
ENDBRANCH  25  39
BRANCH  26  49
ATOM     49  C   UNL A   1      37.101  32.655  29.413  1.00  0.00    -0.014 A 
ATOM     50  C   UNL A   1      36.210  32.715  30.498  1.00  0.00     0.010 A 
ATOM     51  C   UNL A   1      36.730  33.237  28.185  1.00  0.00     0.010 A 
ATOM     52  C   UNL A   1      34.978  33.360  30.362  1.00  0.00     0.020 A 
ATOM     53  C   UNL A   1      35.510  33.902  28.054  1.00  0.00     0.020 A 
ATOM     54  C   UNL A   1      34.640  33.959  29.144  1.00  0.00     0.054 A 
BRANCH  54  55
ATOM     55  S   UNL A   1      33.087  34.890  29.026  1.00  0.00     0.124 S 
ATOM     56  O   UNL A   1      32.338  34.108  28.048  1.00  0.00    -0.237 OA
ATOM     57  O   UNL A   1      32.582  34.841  30.396  1.00  0.00    -0.237 OA
ATOM     58  O   UNL A   1      33.517  36.212  28.578  1.00  0.00    -0.744 OA
ENDBRANCH  54  55
ENDBRANCH  26  49
BRANCH  38  59
ATOM     59  C   UNL A   1      43.057  34.915  32.292  1.00  0.00    -0.014 A 
ATOM     60  C   UNL A   1      43.686  35.927  31.546  1.00  0.00     0.010 A 
ATOM     61  C   UNL A   1      42.725  35.155  33.637  1.00  0.00     0.010 A 
ATOM     62  C   UNL A   1      43.986  37.156  32.140  1.00  0.00     0.020 A 
ATOM     63  C   UNL A   1      43.005  36.389  34.229  1.00  0.00     0.020 A 
ATOM     64  C   UNL A   1      43.641  37.380  33.478  1.00  0.00     0.054 A 
BRANCH  64  65
ATOM     65  S   UNL A   1      43.970  39.008  34.207  1.00  0.00     0.124 S 
ATOM     66  O   UNL A   1      42.798  39.771  33.787  1.00  0.00    -0.237 OA
ATOM     67  O   UNL A   1      44.049  38.712  35.636  1.00  0.00    -0.237 OA
ATOM     68  O   UNL A   1      45.232  39.412  33.591  1.00  0.00    -0.744 OA
ENDBRANCH  64  65
ENDBRANCH  38  59
ENDBRANCH  12  13
ENDBRANCH   5   7
ENDBRANCH   2   3
ENDBRANCH   1   2
BRANCH   1  69
ATOM     69  C   UNL A   1      35.919  23.240  23.578  1.00  0.00     0.023 C 
BRANCH  69  70
ATOM     70  C   UNL A   1      34.483  22.740  23.540  1.00  0.00     0.116 C 
BRANCH  70  71
ATOM     71  N   UNL A   1      33.707  23.285  22.445  1.00  0.00    -0.354 N 
ATOM     72  C   UNL A   1      33.228  24.549  22.243  1.00  0.00     0.247 C 
ATOM     73  H   UNL A   1      33.491  22.642  21.731  1.00  0.00     0.163 HD
ATOM     74  O   UNL A   1      32.936  24.843  21.078  1.00  0.00    -0.272 OA
BRANCH  72  75
ATOM     75  C   UNL A   1      33.138  25.627  23.374  1.00  0.00     0.203 C 
BRANCH  75  76
ATOM     76  N   UNL A   1      33.917  26.833  23.060  1.00  0.00    -0.335 N 
ATOM     77  C   UNL A   1      33.944  28.129  23.486  1.00  0.00     0.271 C 
ATOM     78  H   UNL A   1      34.593  26.662  22.366  1.00  0.00     0.165 HD
ATOM     79  O   UNL A   1      34.424  28.966  22.721  1.00  0.00    -0.267 OA
BRANCH  77  80
ATOM     80  C   UNL A   1      33.385  28.516  24.773  1.00  0.00     0.139 A 
ATOM     81  C   UNL A   1      34.002  28.218  25.977  1.00  0.00     0.100 A 
ATOM     82  N   UNL A   1      32.138  29.120  24.896  1.00  0.00    -0.240 NA
ATOM     83  S   UNL A   1      33.051  28.777  27.286  1.00  0.00    -0.130 S 
ATOM     84  C   UNL A   1      31.867  29.311  26.168  1.00  0.00     0.176 A 
ENDBRANCH  77  80
ENDBRANCH  75  76
BRANCH  75  85
ATOM     85  C   UNL A   1      31.730  25.743  23.949  1.00  0.00    -0.004 A 
ATOM     86  C   UNL A   1      30.727  26.398  23.199  1.00  0.00     0.007 A 
ATOM     87  C   UNL A   1      31.354  25.190  25.204  1.00  0.00     0.061 A 
ATOM     88  C   UNL A   1      29.419  26.539  23.664  1.00  0.00     0.000 A 
ATOM     89  C   UNL A   1      30.023  25.357  25.660  1.00  0.00     0.013 A 
ATOM     90  C   UNL A   1      29.066  26.024  24.899  1.00  0.00     0.001 A 
BRANCH  87  91
ATOM     91  C   UNL A   1      32.301  24.455  26.133  1.00  0.00     0.416 C 
ATOM     92  F   UNL A   1      31.798  24.302  27.388  1.00  0.00    -0.166 F 
ATOM     93  F   UNL A   1      32.587  23.189  25.701  1.00  0.00    -0.166 F 
ATOM     94  F   UNL A   1      33.518  25.046  26.282  1.00  0.00    -0.166 F 
ENDBRANCH  87  91
ENDBRANCH  75  85
ENDBRANCH  72  75
ENDBRANCH  70  71
ENDBRANCH  69  70
ENDBRANCH   1  69
TORSDOF 18
ENDMDL
MODEL 3
REMARK VINA RESULT:     -11.8      4.123      9.840
REMARK SMILES O=C(NCCCCNC(=O)[C@@H](NC(=O)c1cscn1)c1ccccc1C(F)(F)F)c1ccc(-c2c3nc(c(-c4ccc(S(=O)(=O)[O-])cc4)c4ccc([nH]4)c(-c4ccc(S(=O)(=O)[O-])cc4)c4nc(c(-c5ccc(S(=O)(=O)[O-])cc5)c5ccc2[nH]5)C=C4)C=C3)cc1
REMARK SMILES IDX 5 1 4 2 3 3 1 4 2 5 30 7 31 8 89 9 32 10 88 11 33 12 34 13
REMARK SMILES IDX 35 14 82 15 36 16 87 17 81 18 83 19 37 20 86 21 80 22 79 23
REMARK SMILES IDX 38 25 68 26 49 27 67 28 50 29 53 30 66 31 84 32 51 33 52 34
REMARK SMILES IDX 65 36 85 37 54 38 39 39 40 40 48 41 41 42 47 43 42 44 43 45
REMARK SMILES IDX 44 46 45 47 46 48 69 49 70 50 78 51 71 52 77 53 72 54 73 55
REMARK SMILES IDX 74 56 75 57 76 58 55 59 56 60 64 61 57 62 63 63 58 64 59 65
REMARK SMILES IDX 60 66 61 67 62 68 6 69 7 70 8 71 9 72 10 74 11 75 12 76
REMARK SMILES IDX 13 77 14 79 15 80 16 81 19 82 17 83 18 84 20 85 21 86 25 87
REMARK SMILES IDX 22 88 24 89 23 90 26 91 27 92 28 93 29 94
REMARK H PARENT 3 6 83 24 53 35 8 73 12 78
REMARK Flexibility Score: inf
ROOT
ATOM      1  C   UNL A   1      34.975  23.628  26.756  1.00  0.00     0.023 C 
ENDROOT
BRANCH   1   2
ATOM      2  C   UNL A   1      36.271  24.032  26.058  1.00  0.00     0.116 C 
BRANCH   2   3
ATOM      3  N   UNL A   1      37.224  22.937  25.933  1.00  0.00    -0.352 N 
ATOM      4  O   UNL A   1      39.238  21.922  25.990  1.00  0.00    -0.269 OA
ATOM      5  C   UNL A   1      38.559  22.908  26.254  1.00  0.00     0.251 C 
ATOM      6  H   UNL A   1      36.859  22.099  25.566  1.00  0.00     0.163 HD
BRANCH   5   7
ATOM      7  C   UNL A   1      39.170  24.095  26.882  1.00  0.00     0.039 A 
ATOM      8  C   UNL A   1      38.942  24.376  28.231  1.00  0.00     0.014 A 
ATOM      9  C   UNL A   1      39.934  24.954  26.091  1.00  0.00     0.014 A 
ATOM     10  C   UNL A   1      39.367  25.591  28.759  1.00  0.00     0.010 A 
ATOM     11  C   UNL A   1      40.414  26.143  26.641  1.00  0.00     0.010 A 
ATOM     12  C   UNL A   1      40.102  26.486  27.966  1.00  0.00    -0.014 A 
BRANCH  12  13
ATOM     13  C   UNL A   1      40.570  27.773  28.533  1.00  0.00     0.031 A 
ATOM     14  C   UNL A   1      41.979  27.921  29.036  1.00  0.00     0.074 A 
ATOM     15  C   UNL A   1      39.709  28.803  28.613  1.00  0.00     0.049 A 
ATOM     16  N   UNL A   1      42.535  28.942  29.635  1.00  0.00    -0.248 NA
ATOM     17  C   UNL A   1      42.877  26.771  28.847  1.00  0.00     0.031 C 
ATOM     18  C   UNL A   1      38.321  28.777  28.148  1.00  0.00     0.029 A 
ATOM     19  N   UNL A   1      39.869  30.067  29.118  1.00  0.00    -0.354 N 
ATOM     20  C   UNL A   1      43.837  28.550  29.925  1.00  0.00     0.074 A 
ATOM     21  C   UNL A   1      43.984  27.193  29.444  1.00  0.00     0.031 C 
ATOM     22  C   UNL A   1      37.759  29.972  28.380  1.00  0.00     0.029 A 
ATOM     23  C   UNL A   1      38.727  30.826  29.062  1.00  0.00     0.049 A 
ATOM     24  H   UNL A   1      40.721  30.397  29.486  1.00  0.00     0.167 HD
ATOM     25  C   UNL A   1      44.815  29.257  30.541  1.00  0.00     0.031 A 
ATOM     26  C   UNL A   1      38.470  32.060  29.533  1.00  0.00     0.031 A 
ATOM     27  C   UNL A   1      44.658  30.606  31.018  1.00  0.00     0.049 A 
ATOM     28  C   UNL A   1      39.558  32.816  30.234  1.00  0.00     0.074 A 
ATOM     29  C   UNL A   1      45.595  31.417  31.632  1.00  0.00     0.029 A 
ATOM     30  N   UNL A   1      43.483  31.339  30.940  1.00  0.00    -0.354 N 
ATOM     31  N   UNL A   1      40.789  32.437  30.484  1.00  0.00    -0.248 NA
ATOM     32  C   UNL A   1      39.229  34.164  30.715  1.00  0.00     0.031 C 
ATOM     33  C   UNL A   1      44.975  32.627  31.963  1.00  0.00     0.029 A 
ATOM     34  C   UNL A   1      43.665  32.587  31.512  1.00  0.00     0.049 A 
ATOM     35  H   UNL A   1      42.643  31.020  30.538  1.00  0.00     0.167 HD
ATOM     36  C   UNL A   1      41.389  33.507  31.135  1.00  0.00     0.074 A 
ATOM     37  C   UNL A   1      40.387  34.550  31.236  1.00  0.00     0.031 C 
ATOM     38  C   UNL A   1      42.656  33.614  31.602  1.00  0.00     0.031 A 
BRANCH  25  39
ATOM     39  C   UNL A   1      46.130  28.560  30.770  1.00  0.00    -0.014 A 
ATOM     40  C   UNL A   1      47.164  28.615  29.819  1.00  0.00     0.010 A 
ATOM     41  C   UNL A   1      46.335  27.841  31.961  1.00  0.00     0.010 A 
ATOM     42  C   UNL A   1      48.357  27.916  30.029  1.00  0.00     0.020 A 
ATOM     43  C   UNL A   1      47.535  27.160  32.187  1.00  0.00     0.020 A 
ATOM     44  C   UNL A   1      48.528  27.182  31.206  1.00  0.00     0.054 A 
BRANCH  44  45
ATOM     45  S   UNL A   1      50.073  26.261  31.448  1.00  0.00     0.124 S 
ATOM     46  O   UNL A   1      49.581  24.984  31.958  1.00  0.00    -0.237 OA
ATOM     47  O   UNL A   1      50.641  26.221  30.103  1.00  0.00    -0.237 OA
ATOM     48  O   UNL A   1      50.813  27.073  32.410  1.00  0.00    -0.744 OA
ENDBRANCH  44  45
ENDBRANCH  25  39
BRANCH  26  49
ATOM     49  C   UNL A   1      37.108  32.625  29.357  1.00  0.00    -0.014 A 
ATOM     50  C   UNL A   1      36.202  32.650  30.430  1.00  0.00     0.010 A 
ATOM     51  C   UNL A   1      36.751  33.236  28.140  1.00  0.00     0.010 A 
ATOM     52  C   UNL A   1      34.967  33.290  30.294  1.00  0.00     0.020 A 
ATOM     53  C   UNL A   1      35.527  33.895  28.008  1.00  0.00     0.020 A 
ATOM     54  C   UNL A   1      34.642  33.917  29.088  1.00  0.00     0.054 A 
BRANCH  54  55
ATOM     55  S   UNL A   1      33.084  34.840  28.971  1.00  0.00     0.124 S 
ATOM     56  O   UNL A   1      32.347  34.068  27.976  1.00  0.00    -0.237 OA
ATOM     57  O   UNL A   1      32.569  34.767  30.336  1.00  0.00    -0.237 OA
ATOM     58  O   UNL A   1      33.508  36.172  28.547  1.00  0.00    -0.744 OA
ENDBRANCH  54  55
ENDBRANCH  26  49
BRANCH  38  59
ATOM     59  C   UNL A   1      43.052  34.917  32.237  1.00  0.00    -0.014 A 
ATOM     60  C   UNL A   1      43.773  35.886  31.518  1.00  0.00     0.010 A 
ATOM     61  C   UNL A   1      42.623  35.206  33.545  1.00  0.00     0.010 A 
ATOM     62  C   UNL A   1      44.068  37.121  32.101  1.00  0.00     0.020 A 
ATOM     63  C   UNL A   1      42.900  36.447  34.125  1.00  0.00     0.020 A 
ATOM     64  C   UNL A   1      43.627  37.394  33.401  1.00  0.00     0.054 A 
BRANCH  64  65
ATOM     65  S   UNL A   1      43.956  39.031  34.111  1.00  0.00     0.124 S 
ATOM     66  O   UNL A   1      44.160  38.714  35.521  1.00  0.00    -0.237 OA
ATOM     67  O   UNL A   1      45.147  39.465  33.385  1.00  0.00    -0.237 OA
ATOM     68  O   UNL A   1      42.742  39.787  33.810  1.00  0.00    -0.744 OA
ENDBRANCH  64  65
ENDBRANCH  38  59
ENDBRANCH  12  13
ENDBRANCH   5   7
ENDBRANCH   2   3
ENDBRANCH   1   2
BRANCH   1  69
ATOM     69  C   UNL A   1      34.391  22.277  26.340  1.00  0.00     0.023 C 
BRANCH  69  70
ATOM     70  C   UNL A   1      33.015  22.349  25.697  1.00  0.00     0.116 C 
BRANCH  70  71
ATOM     71  N   UNL A   1      31.987  22.857  26.580  1.00  0.00    -0.354 N 
ATOM     72  C   UNL A   1      31.054  23.836  26.381  1.00  0.00     0.247 C 
ATOM     73  H   UNL A   1      31.954  22.429  27.467  1.00  0.00     0.163 HD
ATOM     74  O   UNL A   1      30.070  23.814  27.130  1.00  0.00    -0.272 OA
BRANCH  72  75
ATOM     75  C   UNL A   1      31.133  24.878  25.216  1.00  0.00     0.203 C 
BRANCH  75  76
ATOM     76  N   UNL A   1      29.810  25.209  24.671  1.00  0.00    -0.335 N 
ATOM     77  C   UNL A   1      29.195  26.325  24.182  1.00  0.00     0.271 C 
ATOM     78  H   UNL A   1      29.214  24.426  24.652  1.00  0.00     0.165 HD
ATOM     79  O   UNL A   1      27.963  26.350  24.208  1.00  0.00    -0.267 OA
BRANCH  77  80
ATOM     80  C   UNL A   1      29.961  27.460  23.692  1.00  0.00     0.139 A 
ATOM     81  C   UNL A   1      30.562  27.476  22.443  1.00  0.00     0.100 A 
ATOM     82  N   UNL A   1      30.239  28.573  24.481  1.00  0.00    -0.240 NA
ATOM     83  S   UNL A   1      31.419  28.940  22.214  1.00  0.00    -0.130 S 
ATOM     84  C   UNL A   1      30.987  29.415  23.803  1.00  0.00     0.176 A 
ENDBRANCH  77  80
ENDBRANCH  75  76
BRANCH  75  85
ATOM     85  C   UNL A   1      32.153  25.978  25.495  1.00  0.00    -0.004 A 
ATOM     86  C   UNL A   1      32.031  26.753  26.670  1.00  0.00     0.007 A 
ATOM     87  C   UNL A   1      33.258  26.249  24.642  1.00  0.00     0.061 A 
ATOM     88  C   UNL A   1      32.928  27.774  26.987  1.00  0.00     0.000 A 
ATOM     89  C   UNL A   1      34.147  27.298  24.980  1.00  0.00     0.013 A 
ATOM     90  C   UNL A   1      33.985  28.052  26.138  1.00  0.00     0.001 A 
BRANCH  87  91
ATOM     91  C   UNL A   1      33.540  25.511  23.346  1.00  0.00     0.416 C 
ATOM     92  F   UNL A   1      32.434  24.913  22.827  1.00  0.00    -0.166 F 
ATOM     93  F   UNL A   1      34.003  26.337  22.359  1.00  0.00    -0.166 F 
ATOM     94  F   UNL A   1      34.486  24.537  23.446  1.00  0.00    -0.166 F 
ENDBRANCH  87  91
ENDBRANCH  75  85
ENDBRANCH  72  75
ENDBRANCH  70  71
ENDBRANCH  69  70
ENDBRANCH   1  69
TORSDOF 18
ENDMDL
