MODEL 1
REMARK VINA RESULT:     -11.6      0.000      0.000
REMARK SMILES NC(=O)c1cc(NC(=O)/C=C\C(=O)NCCCCNC(=O)c2ccc(-c3c4nc(c(-c5ccc(S(=O)(=O)[O-])cc5)c5ccc([nH]5)c(-c5ccc(S(=O)(=O)[O-])cc5)c5nc(c(-c6ccc(S(=O)(=O)[O-])cc6)c6ccc3[nH]6)C=C5)C=C4)cc2)ccc1N1CCOCC1
REMARK SMILES IDX 16 1 15 2 14 3 12 4 13 5 11 7 10 8 8 9 7 10 9 12 6 13 4 14
REMARK SMILES IDX 5 15 84 16 83 17 82 18 2 19 1 20 3 23 85 24 86 25 90 26
REMARK SMILES IDX 87 27 89 28 88 29 17 30 18 31 19 32 20 33 21 35 22 36 23 37
REMARK SMILES IDX 81 38 24 39 80 40 25 41 26 42 27 43 74 44 28 45 79 46 73 47
REMARK SMILES IDX 75 48 29 49 78 50 72 51 71 52 30 54 60 55 41 56 59 57 42 58
REMARK SMILES IDX 45 59 58 60 76 61 43 62 44 63 57 65 77 66 46 67 31 68 32 69
REMARK SMILES IDX 40 70 33 71 39 72 34 73 35 74 36 75 37 76 38 77 61 78 62 79
REMARK SMILES IDX 70 80 63 81 69 82 64 83 65 84 66 85 67 86 68 87 47 88 48 89
REMARK SMILES IDX 56 90 49 91 55 92 50 93 51 94 52 95 53 96 54 97
REMARK H PARENT 14 6 7 11 1 21 1 22 19 34 75 53 45 64
REMARK Flexibility Score: inf
ROOT
ATOM      1  C   UNL A   1      31.448  27.658  26.324  1.00  0.00     0.023 C 
ENDROOT
BRANCH   1   2
ATOM      2  C   UNL A   1      30.636  26.377  26.182  1.00  0.00     0.116 C 
BRANCH   2   3
ATOM      3  N   UNL A   1      31.345  25.154  26.480  1.00  0.00    -0.353 N 
ATOM      4  C   UNL A   1      31.848  24.275  25.578  1.00  0.00     0.244 C 
ATOM      5  O   UNL A   1      32.931  23.733  25.780  1.00  0.00    -0.270 OA
ATOM      6  H   UNL A   1      31.475  24.937  27.431  1.00  0.00     0.163 HD
BRANCH   4   7
ATOM      7  C   UNL A   1      31.133  23.985  24.323  1.00  0.00     0.077 C 
ATOM      8  C   UNL A   1      31.329  24.520  23.109  1.00  0.00     0.077 C 
BRANCH   8   9
ATOM      9  C   UNL A   1      32.384  25.412  22.569  1.00  0.00     0.248 C 
ATOM     10  N   UNL A   1      32.301  26.764  22.524  1.00  0.00    -0.322 N 
ATOM     11  H   UNL A   1      33.175  27.211  22.445  1.00  0.00     0.170 HD
ATOM     12  O   UNL A   1      33.429  24.871  22.193  1.00  0.00    -0.270 OA
BRANCH  10  13
ATOM     13  C   UNL A   1      31.222  27.652  22.567  1.00  0.00     0.042 A 
ATOM     14  C   UNL A   1      28.913  28.244  23.044  1.00  0.00     0.064 A 
ATOM     15  C   UNL A   1      29.951  27.293  22.994  1.00  0.00     0.042 A 
ATOM     16  C   UNL A   1      29.107  29.564  22.598  1.00  0.00     0.050 A 
ATOM     17  C   UNL A   1      30.408  29.892  22.169  1.00  0.00     0.029 A 
ATOM     18  C   UNL A   1      31.441  28.954  22.129  1.00  0.00     0.028 A 
BRANCH  14  19
ATOM     19  C   UNL A   1      27.625  27.710  23.531  1.00  0.00     0.250 C 
ATOM     20  N   UNL A   1      27.659  26.406  23.949  1.00  0.00    -0.366 N 
ATOM     21  H   UNL A   1      26.841  25.976  24.288  1.00  0.00     0.159 HD
ATOM     22  H   UNL A   1      28.502  25.899  23.911  1.00  0.00     0.159 HD
ATOM     23  O   UNL A   1      26.599  28.368  23.598  1.00  0.00    -0.269 OA
ENDBRANCH  14  19
BRANCH  16  24
ATOM     24  N   UNL A   1      28.142  30.541  22.426  1.00  0.00    -0.366 N 
ATOM     25  C   UNL A   1      27.656  31.026  21.125  1.00  0.00     0.145 C 
ATOM     26  C   UNL A   1      28.023  31.538  23.505  1.00  0.00     0.145 C 
ATOM     27  C   UNL A   1      28.226  32.419  20.787  1.00  0.00     0.181 C 
ATOM     28  C   UNL A   1      28.742  32.818  23.065  1.00  0.00     0.181 C 
ATOM     29  O   UNL A   1      28.127  33.354  21.881  1.00  0.00    -0.378 OA
ENDBRANCH  16  24
ENDBRANCH  10  13
ENDBRANCH   8   9
ENDBRANCH   4   7
ENDBRANCH   2   3
ENDBRANCH   1   2
BRANCH   1  30
ATOM     30  C   UNL A   1      32.939  27.552  26.002  1.00  0.00     0.023 C 
BRANCH  30  31
ATOM     31  C   UNL A   1      33.880  28.094  27.071  1.00  0.00     0.116 C 
BRANCH  31  32
ATOM     32  N   UNL A   1      33.658  29.509  27.305  1.00  0.00    -0.352 N 
ATOM     33  C   UNL A   1      34.437  30.409  27.982  1.00  0.00     0.251 C 
ATOM     34  H   UNL A   1      32.828  29.874  26.921  1.00  0.00     0.163 HD
ATOM     35  O   UNL A   1      33.959  31.490  28.316  1.00  0.00    -0.269 OA
BRANCH  33  36
ATOM     36  C   UNL A   1      35.844  30.088  28.301  1.00  0.00     0.039 A 
ATOM     37  C   UNL A   1      36.798  30.146  27.281  1.00  0.00     0.014 A 
ATOM     38  C   UNL A   1      36.211  29.664  29.582  1.00  0.00     0.014 A 
ATOM     39  C   UNL A   1      38.122  29.797  27.551  1.00  0.00     0.010 A 
ATOM     40  C   UNL A   1      37.543  29.384  29.867  1.00  0.00     0.010 A 
ATOM     41  C   UNL A   1      38.507  29.423  28.849  1.00  0.00    -0.014 A 
BRANCH  41  42
ATOM     42  C   UNL A   1      39.903  29.028  29.154  1.00  0.00     0.031 A 
ATOM     43  C   UNL A   1      40.840  30.020  29.790  1.00  0.00     0.074 A 
ATOM     44  C   UNL A   1      40.338  27.800  28.812  1.00  0.00     0.049 A 
ATOM     45  N   UNL A   1      42.109  29.889  30.078  1.00  0.00    -0.248 NA
ATOM     46  C   UNL A   1      40.285  31.344  30.120  1.00  0.00     0.031 C 
ATOM     47  C   UNL A   1      39.528  26.766  28.160  1.00  0.00     0.029 A 
ATOM     48  N   UNL A   1      41.570  27.214  28.957  1.00  0.00    -0.354 N 
ATOM     49  C   UNL A   1      42.507  31.114  30.603  1.00  0.00     0.074 A 
ATOM     50  C   UNL A   1      41.360  31.992  30.545  1.00  0.00     0.031 C 
ATOM     51  C   UNL A   1      40.279  25.667  27.985  1.00  0.00     0.029 A 
ATOM     52  C   UNL A   1      41.629  25.929  28.474  1.00  0.00     0.049 A 
ATOM     53  H   UNL A   1      42.338  27.672  29.368  1.00  0.00     0.167 HD
ATOM     54  C   UNL A   1      43.713  31.470  31.105  1.00  0.00     0.031 A 
ATOM     55  C   UNL A   1      42.657  25.062  28.424  1.00  0.00     0.031 A 
ATOM     56  C   UNL A   1      44.846  30.583  31.170  1.00  0.00     0.049 A 
ATOM     57  C   UNL A   1      43.990  25.480  28.984  1.00  0.00     0.074 A 
ATOM     58  C   UNL A   1      46.098  30.824  31.708  1.00  0.00     0.029 A 
ATOM     59  N   UNL A   1      44.861  29.285  30.681  1.00  0.00    -0.354 N 
ATOM     60  N   UNL A   1      44.330  26.623  29.530  1.00  0.00    -0.248 NA
ATOM     61  C   UNL A   1      45.072  24.488  28.932  1.00  0.00     0.031 C 
ATOM     62  C   UNL A   1      46.886  29.688  31.498  1.00  0.00     0.029 A 
ATOM     63  C   UNL A   1      46.107  28.719  30.885  1.00  0.00     0.049 A 
ATOM     64  H   UNL A   1      44.098  28.834  30.253  1.00  0.00     0.167 HD
ATOM     65  C   UNL A   1      45.659  26.478  29.913  1.00  0.00     0.074 A 
ATOM     66  C   UNL A   1      46.053  25.133  29.550  1.00  0.00     0.031 C 
ATOM     67  C   UNL A   1      46.478  27.377  30.514  1.00  0.00     0.031 A 
BRANCH  54  68
ATOM     68  C   UNL A   1      43.871  32.879  31.617  1.00  0.00    -0.014 A 
ATOM     69  C   UNL A   1      43.728  33.177  32.985  1.00  0.00     0.010 A 
ATOM     70  C   UNL A   1      44.199  33.916  30.725  1.00  0.00     0.010 A 
ATOM     71  C   UNL A   1      43.866  34.490  33.444  1.00  0.00     0.020 A 
ATOM     72  C   UNL A   1      44.368  35.227  31.185  1.00  0.00     0.020 A 
ATOM     73  C   UNL A   1      44.182  35.507  32.540  1.00  0.00     0.054 A 
BRANCH  73  74
ATOM     74  S   UNL A   1      44.374  37.198  33.167  1.00  0.00     0.124 S 
ATOM     75  O   UNL A   1      44.789  37.919  31.967  1.00  0.00    -0.237 OA
ATOM     76  O   UNL A   1      43.033  37.512  33.656  1.00  0.00    -0.237 OA
ATOM     77  O   UNL A   1      45.396  37.071  34.203  1.00  0.00    -0.744 OA
ENDBRANCH  73  74
ENDBRANCH  54  68
BRANCH  55  78
ATOM     78  C   UNL A   1      42.460  23.707  27.838  1.00  0.00    -0.014 A 
ATOM     79  C   UNL A   1      42.675  23.483  26.468  1.00  0.00     0.010 A 
ATOM     80  C   UNL A   1      42.076  22.627  28.655  1.00  0.00     0.010 A 
ATOM     81  C   UNL A   1      42.492  22.209  25.921  1.00  0.00     0.020 A 
ATOM     82  C   UNL A   1      41.920  21.347  28.117  1.00  0.00     0.020 A 
ATOM     83  C   UNL A   1      42.118  21.148  26.750  1.00  0.00     0.054 A 
BRANCH  83  84
ATOM     84  S   UNL A   1      41.936  19.494  26.027  1.00  0.00     0.124 S 
ATOM     85  O   UNL A   1      42.813  19.573  24.863  1.00  0.00    -0.237 OA
ATOM     86  O   UNL A   1      42.396  18.626  27.109  1.00  0.00    -0.237 OA
ATOM     87  O   UNL A   1      40.508  19.406  25.733  1.00  0.00    -0.744 OA
ENDBRANCH  83  84
ENDBRANCH  55  78
BRANCH  67  88
ATOM     88  C   UNL A   1      47.875  26.923  30.846  1.00  0.00    -0.014 A 
ATOM     89  C   UNL A   1      48.945  27.149  29.962  1.00  0.00     0.010 A 
ATOM     90  C   UNL A   1      48.127  26.313  32.089  1.00  0.00     0.010 A 
ATOM     91  C   UNL A   1      50.238  26.744  30.304  1.00  0.00     0.020 A 
ATOM     92  C   UNL A   1      49.422  25.935  32.445  1.00  0.00     0.020 A 
ATOM     93  C   UNL A   1      50.468  26.140  31.544  1.00  0.00     0.054 A 
BRANCH  93  94
ATOM     94  S   UNL A   1      52.163  25.666  31.982  1.00  0.00     0.124 S 
ATOM     95  O   UNL A   1      52.883  25.928  30.738  1.00  0.00    -0.237 OA
ATOM     96  O   UNL A   1      52.472  26.568  33.089  1.00  0.00    -0.237 OA
ATOM     97  O   UNL A   1      52.045  24.257  32.348  1.00  0.00    -0.744 OA
ENDBRANCH  93  94
ENDBRANCH  67  88
ENDBRANCH  41  42
ENDBRANCH  33  36
ENDBRANCH  31  32
ENDBRANCH  30  31
ENDBRANCH   1  30
TORSDOF 18
ENDMDL
MODEL 2
REMARK VINA RESULT:     -11.5      2.317      5.115
REMARK SMILES NC(=O)c1cc(NC(=O)/C=C\C(=O)NCCCCNC(=O)c2ccc(-c3c4nc(c(-c5ccc(S(=O)(=O)[O-])cc5)c5ccc([nH]5)c(-c5ccc(S(=O)(=O)[O-])cc5)c5nc(c(-c6ccc(S(=O)(=O)[O-])cc6)c6ccc3[nH]6)C=C5)C=C4)cc2)ccc1N1CCOCC1
REMARK SMILES IDX 16 1 15 2 14 3 12 4 13 5 11 7 10 8 8 9 7 10 9 12 6 13 4 14
REMARK SMILES IDX 5 15 84 16 83 17 82 18 2 19 1 20 3 23 85 24 86 25 90 26
REMARK SMILES IDX 87 27 89 28 88 29 17 30 18 31 19 32 20 33 21 35 22 36 23 37
REMARK SMILES IDX 81 38 24 39 80 40 25 41 26 42 27 43 74 44 28 45 79 46 73 47
REMARK SMILES IDX 75 48 29 49 78 50 72 51 71 52 30 54 60 55 41 56 59 57 42 58
REMARK SMILES IDX 45 59 58 60 76 61 43 62 44 63 57 65 77 66 46 67 31 68 32 69
REMARK SMILES IDX 40 70 33 71 39 72 34 73 35 74 36 75 37 76 38 77 61 78 62 79
REMARK SMILES IDX 70 80 63 81 69 82 64 83 65 84 66 85 67 86 68 87 47 88 48 89
REMARK SMILES IDX 56 90 49 91 55 92 50 93 51 94 52 95 53 96 54 97
REMARK H PARENT 14 6 7 11 1 21 1 22 19 34 75 53 45 64
REMARK Flexibility Score: inf
ROOT
ATOM      1  C   UNL A   1      32.185  28.794  24.590  1.00  0.00     0.023 C 
ENDROOT
BRANCH   1   2
ATOM      2  C   UNL A   1      31.031  27.871  24.957  1.00  0.00     0.116 C 
BRANCH   2   3
ATOM      3  N   UNL A   1      31.323  26.878  25.965  1.00  0.00    -0.353 N 
ATOM      4  C   UNL A   1      31.334  25.533  25.792  1.00  0.00     0.244 C 
ATOM      5  O   UNL A   1      32.186  24.845  26.345  1.00  0.00    -0.270 OA
ATOM      6  H   UNL A   1      31.535  27.211  26.867  1.00  0.00     0.163 HD
BRANCH   4   7
ATOM      7  C   UNL A   1      30.356  24.876  24.907  1.00  0.00     0.077 C 
ATOM      8  C   UNL A   1      30.464  24.611  23.596  1.00  0.00     0.077 C 
BRANCH   8   9
ATOM      9  C   UNL A   1      31.601  24.709  22.648  1.00  0.00     0.248 C 
ATOM     10  N   UNL A   1      32.479  23.709  22.395  1.00  0.00    -0.322 N 
ATOM     11  H   UNL A   1      32.958  23.811  21.540  1.00  0.00     0.170 HD
ATOM     12  O   UNL A   1      31.703  25.763  22.012  1.00  0.00    -0.270 OA
BRANCH  10  13
ATOM     13  C   UNL A   1      32.844  22.560  23.104  1.00  0.00     0.042 A 
ATOM     14  C   UNL A   1      34.118  21.363  24.794  1.00  0.00     0.064 A 
ATOM     15  C   UNL A   1      33.818  22.548  24.092  1.00  0.00     0.042 A 
ATOM     16  C   UNL A   1      33.497  20.144  24.468  1.00  0.00     0.050 A 
ATOM     17  C   UNL A   1      32.517  20.193  23.458  1.00  0.00     0.029 A 
ATOM     18  C   UNL A   1      32.210  21.368  22.770  1.00  0.00     0.028 A 
BRANCH  14  19
ATOM     19  C   UNL A   1      35.167  21.517  25.822  1.00  0.00     0.250 C 
ATOM     20  N   UNL A   1      34.723  21.466  27.116  1.00  0.00    -0.366 N 
ATOM     21  H   UNL A   1      35.361  21.560  27.860  1.00  0.00     0.159 HD
ATOM     22  H   UNL A   1      33.765  21.334  27.302  1.00  0.00     0.159 HD
ATOM     23  O   UNL A   1      36.354  21.647  25.566  1.00  0.00    -0.269 OA
ENDBRANCH  14  19
BRANCH  16  24
ATOM     24  N   UNL A   1      33.820  18.886  24.946  1.00  0.00    -0.366 N 
ATOM     25  C   UNL A   1      34.804  17.979  24.337  1.00  0.00     0.145 C 
ATOM     26  C   UNL A   1      32.765  18.185  25.701  1.00  0.00     0.145 C 
ATOM     27  C   UNL A   1      34.122  16.824  23.576  1.00  0.00     0.181 C 
ATOM     28  C   UNL A   1      32.104  17.159  24.773  1.00  0.00     0.181 C 
ATOM     29  O   UNL A   1      33.070  16.189  24.333  1.00  0.00    -0.378 OA
ENDBRANCH  16  24
ENDBRANCH  10  13
ENDBRANCH   8   9
ENDBRANCH   4   7
ENDBRANCH   2   3
ENDBRANCH   1   2
BRANCH   1  30
ATOM     30  C   UNL A   1      33.591  28.212  24.743  1.00  0.00     0.023 C 
BRANCH  30  31
ATOM     31  C   UNL A   1      34.240  28.416  26.105  1.00  0.00     0.116 C 
BRANCH  31  32
ATOM     32  N   UNL A   1      33.897  29.710  26.667  1.00  0.00    -0.352 N 
ATOM     33  C   UNL A   1      34.530  30.426  27.649  1.00  0.00     0.251 C 
ATOM     34  H   UNL A   1      33.094  30.135  26.287  1.00  0.00     0.163 HD
ATOM     35  O   UNL A   1      33.945  31.362  28.186  1.00  0.00    -0.269 OA
BRANCH  33  36
ATOM     36  C   UNL A   1      35.909  30.080  28.053  1.00  0.00     0.039 A 
ATOM     37  C   UNL A   1      36.940  30.214  27.119  1.00  0.00     0.014 A 
ATOM     38  C   UNL A   1      36.176  29.563  29.324  1.00  0.00     0.014 A 
ATOM     39  C   UNL A   1      38.240  29.845  27.466  1.00  0.00     0.010 A 
ATOM     40  C   UNL A   1      37.483  29.262  29.692  1.00  0.00     0.010 A 
ATOM     41  C   UNL A   1      38.524  29.375  28.758  1.00  0.00    -0.014 A 
BRANCH  41  42
ATOM     42  C   UNL A   1      39.894  28.957  29.143  1.00  0.00     0.031 A 
ATOM     43  C   UNL A   1      40.802  29.928  29.850  1.00  0.00     0.074 A 
ATOM     44  C   UNL A   1      40.333  27.729  28.810  1.00  0.00     0.049 A 
ATOM     45  N   UNL A   1      42.049  29.776  30.214  1.00  0.00    -0.248 NA
ATOM     46  C   UNL A   1      40.244  31.254  30.166  1.00  0.00     0.031 C 
ATOM     47  C   UNL A   1      39.553  26.716  28.094  1.00  0.00     0.029 A 
ATOM     48  N   UNL A   1      41.547  27.125  29.021  1.00  0.00    -0.354 N 
ATOM     49  C   UNL A   1      42.429  30.988  30.781  1.00  0.00     0.074 A 
ATOM     50  C   UNL A   1      41.298  31.882  30.666  1.00  0.00     0.031 C 
ATOM     51  C   UNL A   1      40.300  25.609  27.948  1.00  0.00     0.029 A 
ATOM     52  C   UNL A   1      41.620  25.846  28.523  1.00  0.00     0.049 A 
ATOM     53  H   UNL A   1      42.295  27.567  29.486  1.00  0.00     0.167 HD
ATOM     54  C   UNL A   1      43.606  31.321  31.362  1.00  0.00     0.031 A 
ATOM     55  C   UNL A   1      42.639  24.966  28.523  1.00  0.00     0.031 A 
ATOM     56  C   UNL A   1      44.721  30.419  31.483  1.00  0.00     0.049 A 
ATOM     57  C   UNL A   1      43.940  25.359  29.170  1.00  0.00     0.074 A 
ATOM     58  C   UNL A   1      45.941  30.635  32.099  1.00  0.00     0.029 A 
ATOM     59  N   UNL A   1      44.751  29.128  30.975  1.00  0.00    -0.354 N 
ATOM     60  N   UNL A   1      44.260  26.490  29.754  1.00  0.00    -0.248 NA
ATOM     61  C   UNL A   1      45.011  24.354  29.170  1.00  0.00     0.031 C 
ATOM     62  C   UNL A   1      46.727  29.492  31.921  1.00  0.00     0.029 A 
ATOM     63  C   UNL A   1      45.975  28.543  31.247  1.00  0.00     0.049 A 
ATOM     64  H   UNL A   1      44.010  28.692  30.494  1.00  0.00     0.167 HD
ATOM     65  C   UNL A   1      45.561  26.321  30.215  1.00  0.00     0.074 A 
ATOM     66  C   UNL A   1      45.960  24.977  29.856  1.00  0.00     0.031 C 
ATOM     67  C   UNL A   1      46.352  27.201  30.878  1.00  0.00     0.031 A 
BRANCH  54  68
ATOM     68  C   UNL A   1      43.749  32.721  31.903  1.00  0.00    -0.014 A 
ATOM     69  C   UNL A   1      44.269  33.759  31.108  1.00  0.00     0.010 A 
ATOM     70  C   UNL A   1      43.325  33.012  33.213  1.00  0.00     0.010 A 
ATOM     71  C   UNL A   1      44.406  35.049  31.626  1.00  0.00     0.020 A 
ATOM     72  C   UNL A   1      43.432  34.309  33.725  1.00  0.00     0.020 A 
ATOM     73  C   UNL A   1      43.989  35.316  32.933  1.00  0.00     0.054 A 
BRANCH  73  74
ATOM     74  S   UNL A   1      44.160  37.004  33.573  1.00  0.00     0.124 S 
ATOM     75  O   UNL A   1      45.234  36.849  34.549  1.00  0.00    -0.237 OA
ATOM     76  O   UNL A   1      44.506  37.766  32.375  1.00  0.00    -0.237 OA
ATOM     77  O   UNL A   1      42.845  37.299  34.135  1.00  0.00    -0.744 OA
ENDBRANCH  73  74
ENDBRANCH  54  68
BRANCH  55  78
ATOM     78  C   UNL A   1      42.462  23.624  27.906  1.00  0.00    -0.014 A 
ATOM     79  C   UNL A   1      42.826  23.398  26.567  1.00  0.00     0.010 A 
ATOM     80  C   UNL A   1      41.947  22.554  28.662  1.00  0.00     0.010 A 
ATOM     81  C   UNL A   1      42.661  22.135  25.991  1.00  0.00     0.020 A 
ATOM     82  C   UNL A   1      41.808  21.284  28.098  1.00  0.00     0.020 A 
ATOM     83  C   UNL A   1      42.156  21.084  26.761  1.00  0.00     0.054 A 
BRANCH  83  84
ATOM     84  S   UNL A   1      41.999  19.441  26.007  1.00  0.00     0.124 S 
ATOM     85  O   UNL A   1      42.530  18.575  27.054  1.00  0.00    -0.237 OA
ATOM     86  O   UNL A   1      40.561  19.341  25.768  1.00  0.00    -0.237 OA
ATOM     87  O   UNL A   1      42.816  19.542  24.800  1.00  0.00    -0.744 OA
ENDBRANCH  83  84
ENDBRANCH  55  78
BRANCH  67  88
ATOM     88  C   UNL A   1      47.720  26.724  31.289  1.00  0.00    -0.014 A 
ATOM     89  C   UNL A   1      47.941  26.139  32.548  1.00  0.00     0.010 A 
ATOM     90  C   UNL A   1      48.787  26.813  30.375  1.00  0.00     0.010 A 
ATOM     91  C   UNL A   1      49.214  25.679  32.897  1.00  0.00     0.020 A 
ATOM     92  C   UNL A   1      50.052  26.328  30.710  1.00  0.00     0.020 A 
ATOM     93  C   UNL A   1      50.261  25.776  31.975  1.00  0.00     0.054 A 
BRANCH  93  94
ATOM     94  S   UNL A   1      51.891  25.129  32.436  1.00  0.00     0.124 S 
ATOM     95  O   UNL A   1      52.738  25.650  31.367  1.00  0.00    -0.237 OA
ATOM     96  O   UNL A   1      52.109  25.720  33.754  1.00  0.00    -0.237 OA
ATOM     97  O   UNL A   1      51.703  23.680  32.432  1.00  0.00    -0.744 OA
ENDBRANCH  93  94
ENDBRANCH  67  88
ENDBRANCH  41  42
ENDBRANCH  33  36
ENDBRANCH  31  32
ENDBRANCH  30  31
ENDBRANCH   1  30
TORSDOF 18
ENDMDL
MODEL 3
REMARK VINA RESULT:     -11.4      1.303      2.417
REMARK SMILES NC(=O)c1cc(NC(=O)/C=C\C(=O)NCCCCNC(=O)c2ccc(-c3c4nc(c(-c5ccc(S(=O)(=O)[O-])cc5)c5ccc([nH]5)c(-c5ccc(S(=O)(=O)[O-])cc5)c5nc(c(-c6ccc(S(=O)(=O)[O-])cc6)c6ccc3[nH]6)C=C5)C=C4)cc2)ccc1N1CCOCC1
REMARK SMILES IDX 16 1 15 2 14 3 12 4 13 5 11 7 10 8 8 9 7 10 9 12 6 13 4 14
REMARK SMILES IDX 5 15 84 16 83 17 82 18 2 19 1 20 3 23 85 24 86 25 90 26
REMARK SMILES IDX 87 27 89 28 88 29 17 30 18 31 19 32 20 33 21 35 22 36 23 37
REMARK SMILES IDX 81 38 24 39 80 40 25 41 26 42 27 43 74 44 28 45 79 46 73 47
REMARK SMILES IDX 75 48 29 49 78 50 72 51 71 52 30 54 60 55 41 56 59 57 42 58
REMARK SMILES IDX 45 59 58 60 76 61 43 62 44 63 57 65 77 66 46 67 31 68 32 69
REMARK SMILES IDX 40 70 33 71 39 72 34 73 35 74 36 75 37 76 38 77 61 78 62 79
REMARK SMILES IDX 70 80 63 81 69 82 64 83 65 84 66 85 67 86 68 87 47 88 48 89
REMARK SMILES IDX 56 90 49 91 55 92 50 93 51 94 52 95 53 96 54 97
REMARK H PARENT 14 6 7 11 1 21 1 22 19 34 75 53 45 64
REMARK Flexibility Score: inf
ROOT
ATOM      1  C   UNL A   1      34.027  27.202  25.500  1.00  0.00     0.023 C 
ENDROOT
BRANCH   1   2
ATOM      2  C   UNL A   1      34.199  25.739  25.115  1.00  0.00     0.116 C 
BRANCH   2   3
ATOM      3  N   UNL A   1      33.992  24.785  26.181  1.00  0.00    -0.353 N 
ATOM      4  C   UNL A   1      34.355  23.479  26.176  1.00  0.00     0.244 C 
ATOM      5  O   UNL A   1      34.801  22.957  27.192  1.00  0.00    -0.270 OA
ATOM      6  H   UNL A   1      33.543  25.118  26.992  1.00  0.00     0.163 HD
BRANCH   4   7
ATOM      7  C   UNL A   1      34.265  22.674  24.945  1.00  0.00     0.077 C 
ATOM      8  C   UNL A   1      33.209  22.004  24.461  1.00  0.00     0.077 C 
BRANCH   8   9
ATOM      9  C   UNL A   1      31.781  21.970  24.860  1.00  0.00     0.248 C 
ATOM     10  N   UNL A   1      30.851  22.875  24.469  1.00  0.00    -0.322 N 
ATOM     11  H   UNL A   1      29.925  22.548  24.546  1.00  0.00     0.170 HD
ATOM     12  O   UNL A   1      31.419  21.011  25.550  1.00  0.00    -0.270 OA
BRANCH  10  13
ATOM     13  C   UNL A   1      30.942  24.181  23.978  1.00  0.00     0.042 A 
ATOM     14  C   UNL A   1      31.755  25.868  22.428  1.00  0.00     0.064 A 
ATOM     15  C   UNL A   1      31.732  24.539  22.895  1.00  0.00     0.042 A 
ATOM     16  C   UNL A   1      31.041  26.886  23.084  1.00  0.00     0.050 A 
ATOM     17  C   UNL A   1      30.253  26.488  24.182  1.00  0.00     0.029 A 
ATOM     18  C   UNL A   1      30.220  25.170  24.639  1.00  0.00     0.028 A 
BRANCH  14  19
ATOM     19  C   UNL A   1      32.635  26.085  21.261  1.00  0.00     0.250 C 
ATOM     20  N   UNL A   1      32.194  25.525  20.091  1.00  0.00    -0.366 N 
ATOM     21  H   UNL A   1      32.724  25.625  19.268  1.00  0.00     0.159 HD
ATOM     22  H   UNL A   1      31.347  25.023  20.074  1.00  0.00     0.159 HD
ATOM     23  O   UNL A   1      33.665  26.739  21.300  1.00  0.00    -0.269 OA
ENDBRANCH  14  19
BRANCH  16  24
ATOM     24  N   UNL A   1      31.114  28.248  22.846  1.00  0.00    -0.366 N 
ATOM     25  C   UNL A   1      31.823  29.216  23.696  1.00  0.00     0.145 C 
ATOM     26  C   UNL A   1      29.992  28.839  22.095  1.00  0.00     0.145 C 
ATOM     27  C   UNL A   1      30.845  30.055  24.544  1.00  0.00     0.181 C 
ATOM     28  C   UNL A   1      29.051  29.529  23.089  1.00  0.00     0.181 C 
ATOM     29  O   UNL A   1      29.741  30.583  23.780  1.00  0.00    -0.378 OA
ENDBRANCH  16  24
ENDBRANCH  10  13
ENDBRANCH   8   9
ENDBRANCH   4   7
ENDBRANCH   2   3
ENDBRANCH   1   2
BRANCH   1  30
ATOM     30  C   UNL A   1      32.880  27.517  26.462  1.00  0.00     0.023 C 
BRANCH  30  31
ATOM     31  C   UNL A   1      33.275  28.260  27.731  1.00  0.00     0.116 C 
BRANCH  31  32
ATOM     32  N   UNL A   1      33.277  29.697  27.525  1.00  0.00    -0.352 N 
ATOM     33  C   UNL A   1      34.240  30.618  27.844  1.00  0.00     0.251 C 
ATOM     34  H   UNL A   1      32.469  30.062  27.096  1.00  0.00     0.163 HD
ATOM     35  O   UNL A   1      33.953  31.812  27.851  1.00  0.00    -0.269 OA
BRANCH  33  36
ATOM     36  C   UNL A   1      35.614  30.181  28.165  1.00  0.00     0.039 A 
ATOM     37  C   UNL A   1      35.911  29.792  29.474  1.00  0.00     0.014 A 
ATOM     38  C   UNL A   1      36.624  30.219  27.198  1.00  0.00     0.014 A 
ATOM     39  C   UNL A   1      37.215  29.424  29.808  1.00  0.00     0.010 A 
ATOM     40  C   UNL A   1      37.907  29.785  27.515  1.00  0.00     0.010 A 
ATOM     41  C   UNL A   1      38.221  29.408  28.829  1.00  0.00    -0.014 A 
BRANCH  41  42
ATOM     42  C   UNL A   1      39.617  29.041  29.165  1.00  0.00     0.031 A 
ATOM     43  C   UNL A   1      40.520  30.051  29.823  1.00  0.00     0.074 A 
ATOM     44  C   UNL A   1      40.085  27.824  28.830  1.00  0.00     0.049 A 
ATOM     45  N   UNL A   1      41.784  29.945  30.140  1.00  0.00    -0.248 NA
ATOM     46  C   UNL A   1      39.930  31.362  30.143  1.00  0.00     0.031 C 
ATOM     47  C   UNL A   1      39.313  26.775  28.158  1.00  0.00     0.029 A 
ATOM     48  N   UNL A   1      41.326  27.263  29.002  1.00  0.00    -0.354 N 
ATOM     49  C   UNL A   1      42.144  31.178  30.676  1.00  0.00     0.074 A 
ATOM     50  C   UNL A   1      40.981  32.032  30.594  1.00  0.00     0.031 C 
ATOM     51  C   UNL A   1      40.089  25.692  27.998  1.00  0.00     0.029 A 
ATOM     52  C   UNL A   1      41.422  25.980  28.518  1.00  0.00     0.049 A 
ATOM     53  H   UNL A   1      42.075  27.736  29.431  1.00  0.00     0.167 HD
ATOM     54  C   UNL A   1      43.331  31.557  31.206  1.00  0.00     0.031 A 
ATOM     55  C   UNL A   1      42.470  25.135  28.489  1.00  0.00     0.031 A 
ATOM     56  C   UNL A   1      44.480  30.694  31.295  1.00  0.00     0.049 A 
ATOM     57  C   UNL A   1      43.780  25.579  29.080  1.00  0.00     0.074 A 
ATOM     58  C   UNL A   1      45.714  30.960  31.861  1.00  0.00     0.029 A 
ATOM     59  N   UNL A   1      44.533  29.398  30.804  1.00  0.00    -0.354 N 
ATOM     60  N   UNL A   1      44.084  26.728  29.636  1.00  0.00    -0.248 NA
ATOM     61  C   UNL A   1      44.883  24.610  29.051  1.00  0.00     0.031 C 
ATOM     62  C   UNL A   1      46.531  29.840  31.667  1.00  0.00     0.029 A 
ATOM     63  C   UNL A   1      45.786  28.857  31.035  1.00  0.00     0.049 A 
ATOM     64  H   UNL A   1      43.790  28.932  30.358  1.00  0.00     0.167 HD
ATOM     65  C   UNL A   1      45.407  26.610  30.049  1.00  0.00     0.074 A 
ATOM     66  C   UNL A   1      45.837  25.274  29.692  1.00  0.00     0.031 C 
ATOM     67  C   UNL A   1      46.193  27.524  30.669  1.00  0.00     0.031 A 
BRANCH  54  68
ATOM     68  C   UNL A   1      43.447  32.968  31.724  1.00  0.00    -0.014 A 
ATOM     69  C   UNL A   1      43.133  33.282  33.060  1.00  0.00     0.010 A 
ATOM     70  C   UNL A   1      43.910  33.990  30.875  1.00  0.00     0.010 A 
ATOM     71  C   UNL A   1      43.234  34.596  33.523  1.00  0.00     0.020 A 
ATOM     72  C   UNL A   1      44.042  35.302  31.344  1.00  0.00     0.020 A 
ATOM     73  C   UNL A   1      43.686  35.599  32.661  1.00  0.00     0.054 A 
BRANCH  73  74
ATOM     74  S   UNL A   1      43.827  37.292  33.296  1.00  0.00     0.124 S 
ATOM     75  O   UNL A   1      45.114  37.249  33.984  1.00  0.00    -0.237 OA
ATOM     76  O   UNL A   1      43.793  38.095  32.076  1.00  0.00    -0.237 OA
ATOM     77  O   UNL A   1      42.661  37.435  34.165  1.00  0.00    -0.744 OA
ENDBRANCH  73  74
ENDBRANCH  54  68
BRANCH  55  78
ATOM     78  C   UNL A   1      42.314  23.778  27.897  1.00  0.00    -0.014 A 
ATOM     79  C   UNL A   1      42.571  23.560  26.533  1.00  0.00     0.010 A 
ATOM     80  C   UNL A   1      41.928  22.690  28.701  1.00  0.00     0.010 A 
ATOM     81  C   UNL A   1      42.427  22.284  25.979  1.00  0.00     0.020 A 
ATOM     82  C   UNL A   1      41.810  21.408  28.158  1.00  0.00     0.020 A 
ATOM     83  C   UNL A   1      42.050  21.215  26.797  1.00  0.00     0.054 A 
BRANCH  83  84
ATOM     84  S   UNL A   1      41.919  19.558  26.067  1.00  0.00     0.124 S 
ATOM     85  O   UNL A   1      42.828  19.656  24.929  1.00  0.00    -0.237 OA
ATOM     86  O   UNL A   1      42.362  18.697  27.160  1.00  0.00    -0.237 OA
ATOM     87  O   UNL A   1      40.502  19.446  25.731  1.00  0.00    -0.744 OA
ENDBRANCH  83  84
ENDBRANCH  55  78
BRANCH  67  88
ATOM     88  C   UNL A   1      47.591  27.099  31.032  1.00  0.00    -0.014 A 
ATOM     89  C   UNL A   1      47.832  26.219  32.103  1.00  0.00     0.010 A 
ATOM     90  C   UNL A   1      48.674  27.544  30.252  1.00  0.00     0.010 A 
ATOM     91  C   UNL A   1      49.136  25.817  32.404  1.00  0.00     0.020 A 
ATOM     92  C   UNL A   1      49.974  27.120  30.532  1.00  0.00     0.020 A 
ATOM     93  C   UNL A   1      50.198  26.269  31.616  1.00  0.00     0.054 A 
BRANCH  93  94
ATOM     94  S   UNL A   1      51.875  25.695  32.000  1.00  0.00     0.124 S 
ATOM     95  O   UNL A   1      52.546  25.828  30.710  1.00  0.00    -0.237 OA
ATOM     96  O   UNL A   1      52.307  26.634  33.033  1.00  0.00    -0.237 OA
ATOM     97  O   UNL A   1      51.674  24.322  32.459  1.00  0.00    -0.744 OA
ENDBRANCH  93  94
ENDBRANCH  67  88
ENDBRANCH  41  42
ENDBRANCH  33  36
ENDBRANCH  31  32
ENDBRANCH  30  31
ENDBRANCH   1  30
TORSDOF 18
ENDMDL
