MODEL 1
REMARK VINA RESULT:     -10.8      0.000      0.000
REMARK SMILES CC[NH2+][C@]1(C(=O)NCCCCNC(=O)c2ccc(-c3c4nc(c(-c5ccc(S(=O)(=O)[O-])cc5)c5ccc([nH]5)c(-c5ccc(S(=O)(=O)[O-])cc5)c5nc(c(-c6ccc(S(=O)(=O)[O-])cc6)c6ccc3[nH]6)C=C5)C=C4)cc2)CC[C@@H]([N@H+]2C[C@@H](C)O[C@@H](C)C2)C1
REMARK SMILES IDX 10 1 9 2 8 3 7 4 5 5 6 6 4 8 75 9 86 10 76 11 77 12 3 13
REMARK SMILES IDX 2 16 1 17 78 18 79 19 85 20 80 22 83 23 81 24 82 25 84 26
REMARK SMILES IDX 11 27 12 28 13 29 14 31 15 32 16 33 74 34 17 35 73 36 18 37
REMARK SMILES IDX 19 38 20 39 67 40 21 41 72 42 66 43 68 44 22 45 71 46 65 47
REMARK SMILES IDX 64 48 23 50 53 51 34 52 52 53 35 54 38 55 51 56 69 57 36 58
REMARK SMILES IDX 37 59 50 61 70 62 39 63 24 64 25 65 33 66 26 67 32 68 27 69
REMARK SMILES IDX 28 70 29 71 30 72 31 73 54 74 55 75 63 76 56 77 62 78 57 79
REMARK SMILES IDX 58 80 59 81 60 82 61 83 40 84 41 85 49 86 42 87 48 88 43 89
REMARK SMILES IDX 44 90 45 91 46 92 47 93
REMARK H PARENT 7 7 3 14 3 15 78 21 12 30 68 49 38 60
REMARK Flexibility Score: inf
ROOT
ATOM      1  C   UNL A   1      32.257  28.191  26.289  1.00  0.00     0.023 C 
ENDROOT
BRANCH   1   2
ATOM      2  C   UNL A   1      31.350  27.041  26.731  1.00  0.00     0.023 C 
BRANCH   2   3
ATOM      3  C   UNL A   1      30.620  26.317  25.598  1.00  0.00     0.116 C 
BRANCH   3   4
ATOM      4  N   UNL A   1      30.407  24.918  25.918  1.00  0.00    -0.351 N 
ATOM      5  C   UNL A   1      30.837  23.767  25.328  1.00  0.00     0.281 C 
ATOM      6  O   UNL A   1      30.368  22.719  25.792  1.00  0.00    -0.268 OA
ATOM      7  H   UNL A   1      29.846  24.773  26.714  1.00  0.00     0.163 HD
BRANCH   5   8
ATOM      8  C   UNL A   1      31.945  23.725  24.222  1.00  0.00     0.181 C 
ATOM      9  C   UNL A   1      33.210  24.421  24.778  1.00  0.00     0.085 C 
ATOM     10  C   UNL A   1      32.513  22.332  23.894  1.00  0.00     0.144 C 
ATOM     11  C   UNL A   1      34.342  23.955  23.881  1.00  0.00     0.072 C 
ATOM     12  C   UNL A   1      34.017  22.483  23.580  1.00  0.00     0.191 C 
BRANCH   8  13
ATOM     13  N   UNL A   1      31.414  24.312  22.960  1.00  0.00    -0.334 N 
ATOM     14  H   UNL A   1      31.678  23.701  22.187  1.00  0.00     0.347 HD
ATOM     15  H   UNL A   1      30.403  24.389  23.076  1.00  0.00     0.347 HD
BRANCH  13  16
ATOM     16  C   UNL A   1      31.907  25.659  22.671  1.00  0.00     0.257 C 
ATOM     17  C   UNL A   1      32.432  25.730  21.244  1.00  0.00     0.071 C 
ENDBRANCH  13  16
ENDBRANCH   8  13
BRANCH  12  18
ATOM     18  N   UNL A   1      34.971  21.541  24.192  1.00  0.00    -0.328 N 
ATOM     19  C   UNL A   1      36.339  22.018  24.419  1.00  0.00     0.294 C 
ATOM     20  C   UNL A   1      34.479  20.861  25.397  1.00  0.00     0.294 C 
ATOM     21  H   UNL A   1      35.039  20.861  23.433  1.00  0.00     0.348 HD
ATOM     22  C   UNL A   1      36.641  22.674  25.789  1.00  0.00     0.170 C 
ATOM     23  C   UNL A   1      34.741  21.566  26.753  1.00  0.00     0.170 C 
ATOM     24  C   UNL A   1      37.195  24.086  25.607  1.00  0.00     0.045 C 
ATOM     25  O   UNL A   1      35.492  22.777  26.636  1.00  0.00    -0.364 OA
ATOM     26  C   UNL A   1      33.429  21.914  27.455  1.00  0.00     0.045 C 
ENDBRANCH  12  18
ENDBRANCH   5   8
ENDBRANCH   3   4
ENDBRANCH   2   3
ENDBRANCH   1   2
BRANCH   1  27
ATOM     27  C   UNL A   1      33.354  28.562  27.280  1.00  0.00     0.116 C 
BRANCH  27  28
ATOM     28  N   UNL A   1      33.363  29.972  27.650  1.00  0.00    -0.352 N 
ATOM     29  C   UNL A   1      34.395  30.727  28.167  1.00  0.00     0.251 C 
ATOM     30  H   UNL A   1      32.514  30.452  27.511  1.00  0.00     0.163 HD
ATOM     31  O   UNL A   1      34.210  31.885  28.494  1.00  0.00    -0.269 OA
BRANCH  29  32
ATOM     32  C   UNL A   1      35.717  30.090  28.362  1.00  0.00     0.039 A 
ATOM     33  C   UNL A   1      36.635  30.102  27.309  1.00  0.00     0.014 A 
ATOM     34  C   UNL A   1      36.068  29.550  29.600  1.00  0.00     0.014 A 
ATOM     35  C   UNL A   1      37.938  29.652  27.529  1.00  0.00     0.010 A 
ATOM     36  C   UNL A   1      37.387  29.190  29.842  1.00  0.00     0.010 A 
ATOM     37  C   UNL A   1      38.338  29.239  28.811  1.00  0.00    -0.014 A 
BRANCH  37  38
ATOM     38  C   UNL A   1      39.742  28.861  29.108  1.00  0.00     0.031 A 
ATOM     39  C   UNL A   1      40.664  29.856  29.758  1.00  0.00     0.074 A 
ATOM     40  C   UNL A   1      40.211  27.663  28.709  1.00  0.00     0.049 A 
ATOM     41  N   UNL A   1      41.942  29.751  30.015  1.00  0.00    -0.248 NA
ATOM     42  C   UNL A   1      40.080  31.155  30.129  1.00  0.00     0.031 C 
ATOM     43  C   UNL A   1      39.430  26.629  28.025  1.00  0.00     0.029 A 
ATOM     44  N   UNL A   1      41.463  27.113  28.817  1.00  0.00    -0.354 N 
ATOM     45  C   UNL A   1      42.320  30.979  30.547  1.00  0.00     0.074 A 
ATOM     46  C   UNL A   1      41.149  31.829  30.521  1.00  0.00     0.031 C 
ATOM     47  C   UNL A   1      40.209  25.555  27.816  1.00  0.00     0.029 A 
ATOM     48  C   UNL A   1      41.552  25.838  28.310  1.00  0.00     0.049 A 
ATOM     49  H   UNL A   1      42.226  27.586  29.221  1.00  0.00     0.167 HD
ATOM     50  C   UNL A   1      43.525  31.361  31.032  1.00  0.00     0.031 A 
ATOM     51  C   UNL A   1      42.597  24.990  28.253  1.00  0.00     0.031 A 
ATOM     52  C   UNL A   1      44.679  30.505  31.076  1.00  0.00     0.049 A 
ATOM     53  C   UNL A   1      43.924  25.427  28.807  1.00  0.00     0.074 A 
ATOM     54  C   UNL A   1      45.928  30.766  31.611  1.00  0.00     0.029 A 
ATOM     55  N   UNL A   1      44.724  29.217  30.562  1.00  0.00    -0.354 N 
ATOM     56  N   UNL A   1      44.247  26.569  29.365  1.00  0.00    -0.248 NA
ATOM     57  C   UNL A   1      45.024  24.456  28.732  1.00  0.00     0.031 C 
ATOM     58  C   UNL A   1      46.741  29.650  31.382  1.00  0.00     0.029 A 
ATOM     59  C   UNL A   1      45.984  28.676  30.749  1.00  0.00     0.049 A 
ATOM     60  H   UNL A   1      43.970  28.756  30.128  1.00  0.00     0.167 HD
ATOM     61  C   UNL A   1      45.582  26.446  29.732  1.00  0.00     0.074 A 
ATOM     62  C   UNL A   1      46.002  25.115  29.338  1.00  0.00     0.031 C 
ATOM     63  C   UNL A   1      46.386  27.351  30.344  1.00  0.00     0.031 A 
BRANCH  50  64
ATOM     64  C   UNL A   1      43.641  32.776  31.537  1.00  0.00    -0.014 A 
ATOM     65  C   UNL A   1      43.871  33.848  30.654  1.00  0.00     0.010 A 
ATOM     66  C   UNL A   1      43.551  33.035  32.916  1.00  0.00     0.010 A 
ATOM     67  C   UNL A   1      44.089  35.137  31.145  1.00  0.00     0.020 A 
ATOM     68  C   UNL A   1      43.735  34.330  33.410  1.00  0.00     0.020 A 
ATOM     69  C   UNL A   1      44.035  35.367  32.523  1.00  0.00     0.054 A 
BRANCH  69  70
ATOM     70  S   UNL A   1      44.359  37.040  33.142  1.00  0.00     0.124 S 
ATOM     71  O   UNL A   1      43.085  37.376  33.774  1.00  0.00    -0.237 OA
ATOM     72  O   UNL A   1      45.478  36.835  34.059  1.00  0.00    -0.237 OA
ATOM     73  O   UNL A   1      44.676  37.799  31.937  1.00  0.00    -0.744 OA
ENDBRANCH  69  70
ENDBRANCH  50  64
BRANCH  51  74
ATOM     74  C   UNL A   1      42.405  23.622  27.700  1.00  0.00    -0.014 A 
ATOM     75  C   UNL A   1      42.709  23.362  26.352  1.00  0.00     0.010 A 
ATOM     76  C   UNL A   1      41.974  22.565  28.521  1.00  0.00     0.010 A 
ATOM     77  C   UNL A   1      42.587  22.070  25.834  1.00  0.00     0.020 A 
ATOM     78  C   UNL A   1      41.873  21.266  28.012  1.00  0.00     0.020 A 
ATOM     79  C   UNL A   1      42.177  21.028  26.669  1.00  0.00     0.054 A 
BRANCH  79  80
ATOM     80  S   UNL A   1      42.110  19.345  25.994  1.00  0.00     0.124 S 
ATOM     81  O   UNL A   1      42.967  19.454  24.818  1.00  0.00    -0.237 OA
ATOM     82  O   UNL A   1      42.644  18.544  27.094  1.00  0.00    -0.237 OA
ATOM     83  O   UNL A   1      40.689  19.142  25.721  1.00  0.00    -0.744 OA
ENDBRANCH  79  80
ENDBRANCH  51  74
BRANCH  63  84
ATOM     84  C   UNL A   1      47.794  26.924  30.652  1.00  0.00    -0.014 A 
ATOM     85  C   UNL A   1      48.848  27.194  29.763  1.00  0.00     0.010 A 
ATOM     86  C   UNL A   1      48.073  26.294  31.879  1.00  0.00     0.010 A 
ATOM     87  C   UNL A   1      50.155  26.818  30.084  1.00  0.00     0.020 A 
ATOM     88  C   UNL A   1      49.381  25.940  32.215  1.00  0.00     0.020 A 
ATOM     89  C   UNL A   1      50.413  26.193  31.308  1.00  0.00     0.054 A 
BRANCH  89  90
ATOM     90  S   UNL A   1      52.124  25.759  31.725  1.00  0.00     0.124 S 
ATOM     91  O   UNL A   1      52.819  26.022  30.467  1.00  0.00    -0.237 OA
ATOM     92  O   UNL A   1      52.432  26.679  32.817  1.00  0.00    -0.237 OA
ATOM     93  O   UNL A   1      52.040  24.352  32.109  1.00  0.00    -0.744 OA
ENDBRANCH  89  90
ENDBRANCH  63  84
ENDBRANCH  37  38
ENDBRANCH  29  32
ENDBRANCH  27  28
ENDBRANCH   1  27
TORSDOF 17
ENDMDL
MODEL 2
REMARK VINA RESULT:     -10.6      2.658      9.350
REMARK SMILES CC[NH2+][C@]1(C(=O)NCCCCNC(=O)c2ccc(-c3c4nc(c(-c5ccc(S(=O)(=O)[O-])cc5)c5ccc([nH]5)c(-c5ccc(S(=O)(=O)[O-])cc5)c5nc(c(-c6ccc(S(=O)(=O)[O-])cc6)c6ccc3[nH]6)C=C5)C=C4)cc2)CC[C@@H]([N@H+]2C[C@@H](C)O[C@@H](C)C2)C1
REMARK SMILES IDX 10 1 9 2 8 3 7 4 5 5 6 6 4 8 75 9 86 10 76 11 77 12 3 13
REMARK SMILES IDX 2 16 1 17 78 18 79 19 85 20 80 22 83 23 81 24 82 25 84 26
REMARK SMILES IDX 11 27 12 28 13 29 14 31 15 32 16 33 74 34 17 35 73 36 18 37
REMARK SMILES IDX 19 38 20 39 67 40 21 41 72 42 66 43 68 44 22 45 71 46 65 47
REMARK SMILES IDX 64 48 23 50 53 51 34 52 52 53 35 54 38 55 51 56 69 57 36 58
REMARK SMILES IDX 37 59 50 61 70 62 39 63 24 64 25 65 33 66 26 67 32 68 27 69
REMARK SMILES IDX 28 70 29 71 30 72 31 73 54 74 55 75 63 76 56 77 62 78 57 79
REMARK SMILES IDX 58 80 59 81 60 82 61 83 40 84 41 85 49 86 42 87 48 88 43 89
REMARK SMILES IDX 44 90 45 91 46 92 47 93
REMARK H PARENT 7 7 3 14 3 15 78 21 12 30 68 49 38 60
REMARK Flexibility Score: inf
ROOT
ATOM      1  C   UNL A   1      36.016  22.608  24.599  1.00  0.00     0.023 C 
ENDROOT
BRANCH   1   2
ATOM      2  C   UNL A   1      35.161  23.413  23.620  1.00  0.00     0.023 C 
BRANCH   2   3
ATOM      3  C   UNL A   1      34.026  24.218  24.257  1.00  0.00     0.116 C 
BRANCH   3   4
ATOM      4  N   UNL A   1      32.757  23.942  23.609  1.00  0.00    -0.351 N 
ATOM      5  C   UNL A   1      31.472  24.238  23.950  1.00  0.00     0.281 C 
ATOM      6  O   UNL A   1      30.598  23.745  23.224  1.00  0.00    -0.268 OA
ATOM      7  H   UNL A   1      32.842  23.448  22.761  1.00  0.00     0.163 HD
BRANCH   5   8
ATOM      8  C   UNL A   1      31.088  25.235  25.096  1.00  0.00     0.181 C 
ATOM      9  C   UNL A   1      32.387  25.668  25.816  1.00  0.00     0.085 C 
ATOM     10  C   UNL A   1      30.548  26.603  24.643  1.00  0.00     0.144 C 
ATOM     11  C   UNL A   1      32.016  26.931  26.571  1.00  0.00     0.072 C 
ATOM     12  C   UNL A   1      31.054  27.675  25.632  1.00  0.00     0.191 C 
BRANCH   8  13
ATOM     13  N   UNL A   1      30.065  24.608  25.980  1.00  0.00    -0.334 N 
ATOM     14  H   UNL A   1      29.834  25.270  26.721  1.00  0.00     0.347 HD
ATOM     15  H   UNL A   1      29.265  24.382  25.388  1.00  0.00     0.347 HD
BRANCH  13  16
ATOM     16  C   UNL A   1      30.494  23.354  26.601  1.00  0.00     0.257 C 
ATOM     17  C   UNL A   1      29.330  22.710  27.339  1.00  0.00     0.071 C 
ENDBRANCH  13  16
ENDBRANCH   8  13
BRANCH  12  18
ATOM     18  N   UNL A   1      31.616  28.929  25.098  1.00  0.00    -0.328 N 
ATOM     19  C   UNL A   1      32.868  28.837  24.339  1.00  0.00     0.294 C 
ATOM     20  C   UNL A   1      30.659  29.774  24.372  1.00  0.00     0.294 C 
ATOM     21  H   UNL A   1      31.861  29.386  25.977  1.00  0.00     0.348 HD
ATOM     22  C   UNL A   1      32.752  28.641  22.806  1.00  0.00     0.170 C 
ATOM     23  C   UNL A   1      30.518  29.519  22.849  1.00  0.00     0.170 C 
ATOM     24  C   UNL A   1      33.500  27.386  22.360  1.00  0.00     0.045 C 
ATOM     25  O   UNL A   1      31.403  28.513  22.349  1.00  0.00    -0.364 OA
ATOM     26  C   UNL A   1      29.096  29.088  22.492  1.00  0.00     0.045 C 
ENDBRANCH  12  18
ENDBRANCH   5   8
ENDBRANCH   3   4
ENDBRANCH   2   3
ENDBRANCH   1   2
BRANCH   1  27
ATOM     27  C   UNL A   1      37.210  23.359  25.180  1.00  0.00     0.116 C 
BRANCH  27  28
ATOM     28  N   UNL A   1      38.325  22.497  25.550  1.00  0.00    -0.352 N 
ATOM     29  C   UNL A   1      39.460  22.808  26.270  1.00  0.00     0.251 C 
ATOM     30  H   UNL A   1      38.259  21.563  25.245  1.00  0.00     0.163 HD
ATOM     31  O   UNL A   1      40.339  21.980  26.427  1.00  0.00    -0.269 OA
BRANCH  29  32
ATOM     32  C   UNL A   1      39.613  24.180  26.805  1.00  0.00     0.039 A 
ATOM     33  C   UNL A   1      39.178  24.452  28.104  1.00  0.00     0.014 A 
ATOM     34  C   UNL A   1      40.245  25.169  26.049  1.00  0.00     0.014 A 
ATOM     35  C   UNL A   1      39.461  25.692  28.678  1.00  0.00     0.010 A 
ATOM     36  C   UNL A   1      40.606  26.366  26.652  1.00  0.00     0.010 A 
ATOM     37  C   UNL A   1      40.221  26.641  27.974  1.00  0.00    -0.014 A 
BRANCH  37  38
ATOM     38  C   UNL A   1      40.637  27.924  28.592  1.00  0.00     0.031 A 
ATOM     39  C   UNL A   1      42.037  28.084  29.118  1.00  0.00     0.074 A 
ATOM     40  C   UNL A   1      39.732  28.907  28.766  1.00  0.00     0.049 A 
ATOM     41  N   UNL A   1      42.565  29.087  29.771  1.00  0.00    -0.248 NA
ATOM     42  C   UNL A   1      42.952  26.948  28.919  1.00  0.00     0.031 C 
ATOM     43  C   UNL A   1      38.329  28.856  28.345  1.00  0.00     0.029 A 
ATOM     44  N   UNL A   1      39.856  30.143  29.350  1.00  0.00    -0.354 N 
ATOM     45  C   UNL A   1      43.859  28.690  30.088  1.00  0.00     0.074 A 
ATOM     46  C   UNL A   1      44.015  27.335  29.606  1.00  0.00     0.031 C 
ATOM     47  C   UNL A   1      37.738  30.024  28.643  1.00  0.00     0.029 A 
ATOM     48  C   UNL A   1      38.702  30.889  29.314  1.00  0.00     0.049 A 
ATOM     49  H   UNL A   1      40.693  30.465  29.755  1.00  0.00     0.167 HD
ATOM     50  C   UNL A   1      44.837  29.394  30.705  1.00  0.00     0.031 A 
ATOM     51  C   UNL A   1      38.450  32.132  29.767  1.00  0.00     0.031 A 
ATOM     52  C   UNL A   1      44.683  30.748  31.162  1.00  0.00     0.049 A 
ATOM     53  C   UNL A   1      39.551  32.903  30.439  1.00  0.00     0.074 A 
ATOM     54  C   UNL A   1      45.629  31.579  31.736  1.00  0.00     0.029 A 
ATOM     55  N   UNL A   1      43.501  31.472  31.097  1.00  0.00    -0.354 N 
ATOM     56  N   UNL A   1      40.788  32.536  30.673  1.00  0.00    -0.248 NA
ATOM     57  C   UNL A   1      39.224  34.258  30.899  1.00  0.00     0.031 C 
ATOM     58  C   UNL A   1      45.008  32.791  32.056  1.00  0.00     0.029 A 
ATOM     59  C   UNL A   1      43.687  32.733  31.637  1.00  0.00     0.049 A 
ATOM     60  H   UNL A   1      42.654  31.138  30.722  1.00  0.00     0.167 HD
ATOM     61  C   UNL A   1      41.396  33.625  31.286  1.00  0.00     0.074 A 
ATOM     62  C   UNL A   1      40.391  34.666  31.378  1.00  0.00     0.031 C 
ATOM     63  C   UNL A   1      42.672  33.754  31.727  1.00  0.00     0.031 A 
BRANCH  50  64
ATOM     64  C   UNL A   1      46.149  28.689  30.927  1.00  0.00    -0.014 A 
ATOM     65  C   UNL A   1      47.153  28.689  29.940  1.00  0.00     0.010 A 
ATOM     66  C   UNL A   1      46.371  27.988  32.126  1.00  0.00     0.010 A 
ATOM     67  C   UNL A   1      48.317  27.938  30.112  1.00  0.00     0.020 A 
ATOM     68  C   UNL A   1      47.551  27.261  32.316  1.00  0.00     0.020 A 
ATOM     69  C   UNL A   1      48.502  27.215  31.294  1.00  0.00     0.054 A 
BRANCH  69  70
ATOM     70  S   UNL A   1      50.003  26.215  31.481  1.00  0.00     0.124 S 
ATOM     71  O   UNL A   1      50.479  26.132  30.102  1.00  0.00    -0.237 OA
ATOM     72  O   UNL A   1      50.822  27.025  32.379  1.00  0.00    -0.237 OA
ATOM     73  O   UNL A   1      49.515  24.962  32.048  1.00  0.00    -0.744 OA
ENDBRANCH  69  70
ENDBRANCH  50  64
BRANCH  51  74
ATOM     74  C   UNL A   1      37.110  32.739  29.541  1.00  0.00    -0.014 A 
ATOM     75  C   UNL A   1      36.240  32.940  30.627  1.00  0.00     0.010 A 
ATOM     76  C   UNL A   1      36.718  33.170  28.261  1.00  0.00     0.010 A 
ATOM     77  C   UNL A   1      35.002  33.560  30.439  1.00  0.00     0.020 A 
ATOM     78  C   UNL A   1      35.489  33.812  28.073  1.00  0.00     0.020 A 
ATOM     79  C   UNL A   1      34.638  33.999  29.164  1.00  0.00     0.054 A 
BRANCH  79  80
ATOM     80  S   UNL A   1      33.064  34.879  28.962  1.00  0.00     0.124 S 
ATOM     81  O   UNL A   1      33.506  36.197  28.518  1.00  0.00    -0.237 OA
ATOM     82  O   UNL A   1      32.377  34.071  27.957  1.00  0.00    -0.237 OA
ATOM     83  O   UNL A   1      32.471  34.831  30.297  1.00  0.00    -0.744 OA
ENDBRANCH  79  80
ENDBRANCH  51  74
BRANCH  63  84
ATOM     84  C   UNL A   1      43.064  35.077  32.324  1.00  0.00    -0.014 A 
ATOM     85  C   UNL A   1      43.612  36.100  31.533  1.00  0.00     0.010 A 
ATOM     86  C   UNL A   1      42.825  35.317  33.690  1.00  0.00     0.010 A 
ATOM     87  C   UNL A   1      43.938  37.333  32.102  1.00  0.00     0.020 A 
ATOM     88  C   UNL A   1      43.126  36.556  34.257  1.00  0.00     0.020 A 
ATOM     89  C   UNL A   1      43.694  37.554  33.461  1.00  0.00     0.054 A 
BRANCH  89  90
ATOM     90  S   UNL A   1      44.079  39.180  34.167  1.00  0.00     0.124 S 
ATOM     91  O   UNL A   1      42.949  39.984  33.710  1.00  0.00    -0.237 OA
ATOM     92  O   UNL A   1      44.116  38.906  35.602  1.00  0.00    -0.237 OA
ATOM     93  O   UNL A   1      45.369  39.519  33.571  1.00  0.00    -0.744 OA
ENDBRANCH  89  90
ENDBRANCH  63  84
ENDBRANCH  37  38
ENDBRANCH  29  32
ENDBRANCH  27  28
ENDBRANCH   1  27
TORSDOF 17
ENDMDL
MODEL 3
REMARK VINA RESULT:     -10.6      4.625      9.640
REMARK SMILES CC[NH2+][C@]1(C(=O)NCCCCNC(=O)c2ccc(-c3c4nc(c(-c5ccc(S(=O)(=O)[O-])cc5)c5ccc([nH]5)c(-c5ccc(S(=O)(=O)[O-])cc5)c5nc(c(-c6ccc(S(=O)(=O)[O-])cc6)c6ccc3[nH]6)C=C5)C=C4)cc2)CC[C@@H]([N@H+]2C[C@@H](C)O[C@@H](C)C2)C1
REMARK SMILES IDX 10 1 9 2 8 3 7 4 5 5 6 6 4 8 75 9 86 10 76 11 77 12 3 13
REMARK SMILES IDX 2 16 1 17 78 18 79 19 85 20 80 22 83 23 81 24 82 25 84 26
REMARK SMILES IDX 11 27 12 28 13 29 14 31 15 32 16 33 74 34 17 35 73 36 18 37
REMARK SMILES IDX 19 38 20 39 67 40 21 41 72 42 66 43 68 44 22 45 71 46 65 47
REMARK SMILES IDX 64 48 23 50 53 51 34 52 52 53 35 54 38 55 51 56 69 57 36 58
REMARK SMILES IDX 37 59 50 61 70 62 39 63 24 64 25 65 33 66 26 67 32 68 27 69
REMARK SMILES IDX 28 70 29 71 30 72 31 73 54 74 55 75 63 76 56 77 62 78 57 79
REMARK SMILES IDX 58 80 59 81 60 82 61 83 40 84 41 85 49 86 42 87 48 88 43 89
REMARK SMILES IDX 44 90 45 91 46 92 47 93
REMARK H PARENT 7 7 3 14 3 15 78 21 12 30 68 49 38 60
REMARK Flexibility Score: inf
ROOT
ATOM      1  C   UNL A   1      38.937  22.930  26.369  1.00  0.00     0.023 C 
ENDROOT
BRANCH   1   2
ATOM      2  C   UNL A   1      37.698  23.810  26.194  1.00  0.00     0.023 C 
BRANCH   2   3
ATOM      3  C   UNL A   1      36.834  23.482  24.974  1.00  0.00     0.116 C 
BRANCH   3   4
ATOM      4  N   UNL A   1      36.669  22.049  24.816  1.00  0.00    -0.351 N 
ATOM      5  C   UNL A   1      35.663  21.199  25.168  1.00  0.00     0.281 C 
ATOM      6  O   UNL A   1      35.893  19.995  24.993  1.00  0.00    -0.268 OA
ATOM      7  H   UNL A   1      37.427  21.607  24.369  1.00  0.00     0.163 HD
BRANCH   5   8
ATOM      8  C   UNL A   1      34.251  21.681  25.643  1.00  0.00     0.181 C 
ATOM      9  C   UNL A   1      34.377  22.192  27.097  1.00  0.00     0.085 C 
ATOM     10  C   UNL A   1      33.701  22.940  24.949  1.00  0.00     0.144 C 
ATOM     11  C   UNL A   1      33.137  23.038  27.325  1.00  0.00     0.072 C 
ATOM     12  C   UNL A   1      32.910  23.761  25.989  1.00  0.00     0.191 C 
BRANCH   8  13
ATOM     13  N   UNL A   1      33.260  20.584  25.452  1.00  0.00    -0.334 N 
ATOM     14  H   UNL A   1      33.747  19.693  25.547  1.00  0.00     0.347 HD
ATOM     15  H   UNL A   1      32.536  20.717  26.158  1.00  0.00     0.347 HD
BRANCH  13  16
ATOM     16  C   UNL A   1      32.586  20.603  24.152  1.00  0.00     0.257 C 
ATOM     17  C   UNL A   1      32.545  19.200  23.563  1.00  0.00     0.071 C 
ENDBRANCH  13  16
ENDBRANCH   8  13
BRANCH  12  18
ATOM     18  N   UNL A   1      33.133  25.216  26.069  1.00  0.00    -0.328 N 
ATOM     19  C   UNL A   1      33.883  25.844  24.976  1.00  0.00     0.294 C 
ATOM     20  C   UNL A   1      31.932  26.009  26.364  1.00  0.00     0.294 C 
ATOM     21  H   UNL A   1      33.754  25.241  26.879  1.00  0.00     0.348 HD
ATOM     22  C   UNL A   1      33.065  26.386  23.778  1.00  0.00     0.170 C 
ATOM     23  C   UNL A   1      31.097  26.489  25.150  1.00  0.00     0.170 C 
ATOM     24  C   UNL A   1      33.537  25.757  22.468  1.00  0.00     0.045 C 
ATOM     25  O   UNL A   1      31.661  26.131  23.885  1.00  0.00    -0.364 OA
ATOM     26  C   UNL A   1      29.682  25.913  25.193  1.00  0.00     0.045 C 
ENDBRANCH  12  18
ENDBRANCH   5   8
ENDBRANCH   3   4
ENDBRANCH   2   3
ENDBRANCH   1   2
BRANCH   1  27
ATOM     27  C   UNL A   1      40.146  23.634  26.976  1.00  0.00     0.116 C 
BRANCH  27  28
ATOM     28  N   UNL A   1      40.995  24.298  25.995  1.00  0.00    -0.352 N 
ATOM     29  C   UNL A   1      41.424  25.609  25.965  1.00  0.00     0.251 C 
ATOM     30  H   UNL A   1      41.307  23.733  25.252  1.00  0.00     0.163 HD
ATOM     31  O   UNL A   1      42.075  26.025  25.024  1.00  0.00    -0.269 OA
BRANCH  29  32
ATOM     32  C   UNL A   1      41.037  26.512  27.072  1.00  0.00     0.039 A 
ATOM     33  C   UNL A   1      40.189  26.031  28.073  1.00  0.00     0.014 A 
ATOM     34  C   UNL A   1      41.568  27.801  27.153  1.00  0.00     0.014 A 
ATOM     35  C   UNL A   1      39.947  26.814  29.203  1.00  0.00     0.010 A 
ATOM     36  C   UNL A   1      41.400  28.539  28.318  1.00  0.00     0.010 A 
ATOM     37  C   UNL A   1      40.591  28.053  29.356  1.00  0.00    -0.014 A 
BRANCH  37  38
ATOM     38  C   UNL A   1      40.446  28.861  30.593  1.00  0.00     0.031 A 
ATOM     39  C   UNL A   1      39.378  29.917  30.677  1.00  0.00     0.074 A 
ATOM     40  C   UNL A   1      41.331  28.712  31.598  1.00  0.00     0.049 A 
ATOM     41  N   UNL A   1      39.148  30.785  31.628  1.00  0.00    -0.248 NA
ATOM     42  C   UNL A   1      38.476  30.039  29.520  1.00  0.00     0.031 C 
ATOM     43  C   UNL A   1      42.442  27.757  31.617  1.00  0.00     0.029 A 
ATOM     44  N   UNL A   1      41.439  29.368  32.798  1.00  0.00    -0.354 N 
ATOM     45  C   UNL A   1      38.099  31.575  31.170  1.00  0.00     0.074 A 
ATOM     46  C   UNL A   1      37.778  31.119  29.835  1.00  0.00     0.031 C 
ATOM     47  C   UNL A   1      43.089  27.858  32.789  1.00  0.00     0.029 A 
ATOM     48  C   UNL A   1      42.469  28.912  33.586  1.00  0.00     0.049 A 
ATOM     49  H   UNL A   1      40.834  30.095  33.070  1.00  0.00     0.167 HD
ATOM     50  C   UNL A   1      37.447  32.576  31.808  1.00  0.00     0.031 A 
ATOM     51  C   UNL A   1      42.868  29.296  34.813  1.00  0.00     0.031 A 
ATOM     52  C   UNL A   1      37.756  33.010  33.143  1.00  0.00     0.049 A 
ATOM     53  C   UNL A   1      42.125  30.400  35.511  1.00  0.00     0.074 A 
ATOM     54  C   UNL A   1      37.113  33.965  33.910  1.00  0.00     0.029 A 
ATOM     55  N   UNL A   1      38.800  32.515  33.910  1.00  0.00    -0.354 N 
ATOM     56  N   UNL A   1      41.094  31.094  35.089  1.00  0.00    -0.248 NA
ATOM     57  C   UNL A   1      42.593  30.768  36.853  1.00  0.00     0.031 C 
ATOM     58  C   UNL A   1      37.796  34.078  35.127  1.00  0.00     0.029 A 
ATOM     59  C   UNL A   1      38.833  33.157  35.136  1.00  0.00     0.049 A 
ATOM     60  H   UNL A   1      39.426  31.811  33.625  1.00  0.00     0.167 HD
ATOM     61  C   UNL A   1      40.773  31.963  36.125  1.00  0.00     0.074 A 
ATOM     62  C   UNL A   1      41.716  31.702  37.196  1.00  0.00     0.031 C 
ATOM     63  C   UNL A   1      39.784  32.889  36.187  1.00  0.00     0.031 A 
BRANCH  50  64
ATOM     64  C   UNL A   1      36.347  33.268  31.046  1.00  0.00    -0.014 A 
ATOM     65  C   UNL A   1      36.594  33.877  29.801  1.00  0.00     0.010 A 
ATOM     66  C   UNL A   1      35.055  33.340  31.596  1.00  0.00     0.010 A 
ATOM     67  C   UNL A   1      35.595  34.612  29.160  1.00  0.00     0.020 A 
ATOM     68  C   UNL A   1      34.042  34.046  30.942  1.00  0.00     0.020 A 
ATOM     69  C   UNL A   1      34.327  34.705  29.743  1.00  0.00     0.054 A 
BRANCH  69  70
ATOM     70  S   UNL A   1      33.055  35.696  28.914  1.00  0.00     0.124 S 
ATOM     71  O   UNL A   1      33.865  36.656  28.168  1.00  0.00    -0.237 OA
ATOM     72  O   UNL A   1      32.351  34.706  28.103  1.00  0.00    -0.237 OA
ATOM     73  O   UNL A   1      32.281  36.258  30.017  1.00  0.00    -0.744 OA
ENDBRANCH  69  70
ENDBRANCH  50  64
BRANCH  51  74
ATOM     74  C   UNL A   1      43.993  28.584  35.478  1.00  0.00    -0.014 A 
ATOM     75  C   UNL A   1      43.741  27.416  36.220  1.00  0.00     0.010 A 
ATOM     76  C   UNL A   1      45.318  29.031  35.332  1.00  0.00     0.010 A 
ATOM     77  C   UNL A   1      44.793  26.706  36.803  1.00  0.00     0.020 A 
ATOM     78  C   UNL A   1      46.376  28.310  35.896  1.00  0.00     0.020 A 
ATOM     79  C   UNL A   1      46.106  27.153  36.631  1.00  0.00     0.054 A 
BRANCH  79  80
ATOM     80  S   UNL A   1      47.461  26.166  37.325  1.00  0.00     0.124 S 
ATOM     81  O   UNL A   1      47.251  26.326  38.760  1.00  0.00    -0.237 OA
ATOM     82  O   UNL A   1      47.186  24.834  36.790  1.00  0.00    -0.237 OA
ATOM     83  O   UNL A   1      48.660  26.806  36.789  1.00  0.00    -0.744 OA
ENDBRANCH  79  80
ENDBRANCH  51  74
BRANCH  63  84
ATOM     84  C   UNL A   1      39.652  33.671  37.464  1.00  0.00    -0.014 A 
ATOM     85  C   UNL A   1      40.315  34.897  37.640  1.00  0.00     0.010 A 
ATOM     86  C   UNL A   1      38.803  33.196  38.481  1.00  0.00     0.010 A 
ATOM     87  C   UNL A   1      40.151  35.624  38.821  1.00  0.00     0.020 A 
ATOM     88  C   UNL A   1      38.617  33.932  39.653  1.00  0.00     0.020 A 
ATOM     89  C   UNL A   1      39.304  35.136  39.821  1.00  0.00     0.054 A 
BRANCH  89  90
ATOM     90  S   UNL A   1      39.068  36.122  41.326  1.00  0.00     0.124 S 
ATOM     91  O   UNL A   1      37.863  35.524  41.894  1.00  0.00    -0.237 OA
ATOM     92  O   UNL A   1      40.302  35.876  42.068  1.00  0.00    -0.237 OA
ATOM     93  O   UNL A   1      38.912  37.485  40.825  1.00  0.00    -0.744 OA
ENDBRANCH  89  90
ENDBRANCH  63  84
ENDBRANCH  37  38
ENDBRANCH  29  32
ENDBRANCH  27  28
ENDBRANCH   1  27
TORSDOF 17
ENDMDL
