MODEL 1
REMARK VINA RESULT:     -13.4      0.000      0.000
REMARK SMILES O=C(NCCCCNC(=O)c1nnn(-c2cccc(Br)c2)c1[C@@H]1COc2ccccc2O1)c1ccc(-c2c3nc(c(-c4ccc(S(=O)(=O)[O-])cc4)c4ccc([nH]4)c(-c4ccc(S(=O)(=O)[O-])cc4)c4nc(c(-c5ccc(S(=O)(=O)[O-])cc5)c5ccc2[nH]5)C=C4)C=C3)cc1
REMARK SMILES IDX 4 1 3 2 1 3 2 4 33 6 34 7 92 8 35 9 91 10 36 11 37 12 38 13
REMARK SMILES IDX 85 14 39 15 90 16 84 17 86 18 40 19 89 20 83 21 82 22 41 24
REMARK SMILES IDX 71 25 52 26 70 27 53 28 56 29 69 30 87 31 54 32 55 33 68 35
REMARK SMILES IDX 88 36 57 37 42 38 43 39 51 40 44 41 50 42 45 43 46 44 47 45
REMARK SMILES IDX 48 46 49 47 72 48 73 49 81 50 74 51 80 52 75 53 76 54 77 55
REMARK SMILES IDX 78 56 79 57 58 58 59 59 67 60 60 61 66 62 61 63 62 64 63 65
REMARK SMILES IDX 64 66 65 67 5 68 6 69 7 70 8 71 9 72 10 74 11 75 12 76 22 77
REMARK SMILES IDX 13 78 14 79 23 80 24 81 32 82 25 83 31 84 26 85 30 86 27 87
REMARK SMILES IDX 29 88 28 89 15 90 16 91 21 92 17 93 19 94 18 95 20 96
REMARK H PARENT 3 5 86 23 56 34 8 73
REMARK Flexibility Score: inf
ROOT
ATOM      1  C   UNL A   1      32.974  29.266  27.084  1.00  0.00     0.116 C 
ENDROOT
BRANCH   1   2
ATOM      2  N   UNL A   1      33.083  30.570  27.715  1.00  0.00    -0.352 N 
ATOM      3  O   UNL A   1      33.865  32.609  28.194  1.00  0.00    -0.269 OA
ATOM      4  C   UNL A   1      34.130  31.444  27.894  1.00  0.00     0.251 C 
ATOM      5  H   UNL A   1      32.234  30.894  28.094  1.00  0.00     0.163 HD
BRANCH   4   6
ATOM      6  C   UNL A   1      35.548  31.014  27.878  1.00  0.00     0.039 A 
ATOM      7  C   UNL A   1      35.992  29.800  27.364  1.00  0.00     0.014 A 
ATOM      8  C   UNL A   1      36.479  31.890  28.458  1.00  0.00     0.014 A 
ATOM      9  C   UNL A   1      37.282  29.364  27.646  1.00  0.00     0.010 A 
ATOM     10  C   UNL A   1      37.796  31.486  28.669  1.00  0.00     0.010 A 
ATOM     11  C   UNL A   1      38.175  30.184  28.348  1.00  0.00    -0.014 A 
BRANCH  11  12
ATOM     12  C   UNL A   1      39.493  29.622  28.667  1.00  0.00     0.031 A 
ATOM     13  C   UNL A   1      39.879  29.609  30.110  1.00  0.00     0.074 A 
ATOM     14  C   UNL A   1      40.331  29.051  27.777  1.00  0.00     0.049 A 
ATOM     15  N   UNL A   1      40.880  30.195  30.684  1.00  0.00    -0.248 NA
ATOM     16  C   UNL A   1      38.986  28.897  31.034  1.00  0.00     0.031 C 
ATOM     17  C   UNL A   1      40.057  28.671  26.389  1.00  0.00     0.029 A 
ATOM     18  N   UNL A   1      41.599  28.586  27.983  1.00  0.00    -0.354 N 
ATOM     19  C   UNL A   1      40.840  29.808  32.022  1.00  0.00     0.074 A 
ATOM     20  C   UNL A   1      39.599  29.092  32.201  1.00  0.00     0.031 C 
ATOM     21  C   UNL A   1      41.019  27.821  25.968  1.00  0.00     0.029 A 
ATOM     22  C   UNL A   1      42.044  27.723  26.994  1.00  0.00     0.049 A 
ATOM     23  H   UNL A   1      42.145  28.839  28.762  1.00  0.00     0.167 HD
ATOM     24  C   UNL A   1      41.889  29.957  32.878  1.00  0.00     0.031 A 
ATOM     25  C   UNL A   1      43.133  26.922  27.044  1.00  0.00     0.031 A 
ATOM     26  C   UNL A   1      42.901  30.842  32.379  1.00  0.00     0.049 A 
ATOM     27  C   UNL A   1      44.056  27.451  28.073  1.00  0.00     0.074 A 
ATOM     28  C   UNL A   1      42.965  32.181  32.058  1.00  0.00     0.029 A 
ATOM     29  N   UNL A   1      44.046  30.274  31.879  1.00  0.00    -0.354 N 
ATOM     30  N   UNL A   1      44.703  28.578  27.968  1.00  0.00    -0.248 NA
ATOM     31  C   UNL A   1      44.030  26.872  29.408  1.00  0.00     0.031 C 
ATOM     32  C   UNL A   1      43.925  32.272  31.010  1.00  0.00     0.029 A 
ATOM     33  C   UNL A   1      44.389  30.979  30.754  1.00  0.00     0.049 A 
ATOM     34  H   UNL A   1      44.531  29.506  32.256  1.00  0.00     0.167 HD
ATOM     35  C   UNL A   1      44.830  29.042  29.268  1.00  0.00     0.074 A 
ATOM     36  C   UNL A   1      44.517  27.896  30.112  1.00  0.00     0.031 C 
ATOM     37  C   UNL A   1      44.908  30.378  29.541  1.00  0.00     0.031 A 
BRANCH  24  38
ATOM     38  C   UNL A   1      42.151  29.044  34.052  1.00  0.00    -0.014 A 
ATOM     39  C   UNL A   1      42.717  27.772  33.827  1.00  0.00     0.010 A 
ATOM     40  C   UNL A   1      41.603  29.289  35.327  1.00  0.00     0.010 A 
ATOM     41  C   UNL A   1      42.680  26.776  34.812  1.00  0.00     0.020 A 
ATOM     42  C   UNL A   1      41.603  28.318  36.331  1.00  0.00     0.020 A 
ATOM     43  C   UNL A   1      42.104  27.053  36.053  1.00  0.00     0.054 A 
BRANCH  43  44
ATOM     44  S   UNL A   1      41.934  25.724  37.271  1.00  0.00     0.124 S 
ATOM     45  O   UNL A   1      42.979  26.067  38.232  1.00  0.00    -0.237 OA
ATOM     46  O   UNL A   1      40.562  25.899  37.738  1.00  0.00    -0.237 OA
ATOM     47  O   UNL A   1      42.171  24.513  36.491  1.00  0.00    -0.744 OA
ENDBRANCH  43  44
ENDBRANCH  24  38
BRANCH  25  48
ATOM     48  C   UNL A   1      43.260  25.562  26.467  1.00  0.00    -0.014 A 
ATOM     49  C   UNL A   1      43.947  25.344  25.261  1.00  0.00     0.010 A 
ATOM     50  C   UNL A   1      42.922  24.435  27.246  1.00  0.00     0.010 A 
ATOM     51  C   UNL A   1      44.326  24.048  24.873  1.00  0.00     0.020 A 
ATOM     52  C   UNL A   1      43.284  23.141  26.860  1.00  0.00     0.020 A 
ATOM     53  C   UNL A   1      44.004  22.956  25.684  1.00  0.00     0.054 A 
BRANCH  53  54
ATOM     54  S   UNL A   1      44.642  21.308  25.263  1.00  0.00     0.124 S 
ATOM     55  O   UNL A   1      46.017  21.375  25.749  1.00  0.00    -0.237 OA
ATOM     56  O   UNL A   1      43.750  20.423  26.007  1.00  0.00    -0.237 OA
ATOM     57  O   UNL A   1      44.500  21.246  23.810  1.00  0.00    -0.744 OA
ENDBRANCH  53  54
ENDBRANCH  25  48
BRANCH  37  58
ATOM     58  C   UNL A   1      45.233  31.331  28.416  1.00  0.00    -0.014 A 
ATOM     59  C   UNL A   1      44.273  31.771  27.487  1.00  0.00     0.010 A 
ATOM     60  C   UNL A   1      46.500  31.945  28.419  1.00  0.00     0.010 A 
ATOM     61  C   UNL A   1      44.571  32.799  26.582  1.00  0.00     0.020 A 
ATOM     62  C   UNL A   1      46.798  32.981  27.528  1.00  0.00     0.020 A 
ATOM     63  C   UNL A   1      45.831  33.404  26.616  1.00  0.00     0.054 A 
BRANCH  63  64
ATOM     64  S   UNL A   1      46.166  34.814  25.521  1.00  0.00     0.124 S 
ATOM     65  O   UNL A   1      47.584  34.646  25.215  1.00  0.00    -0.237 OA
ATOM     66  O   UNL A   1      45.250  34.584  24.406  1.00  0.00    -0.237 OA
ATOM     67  O   UNL A   1      45.844  35.978  26.346  1.00  0.00    -0.744 OA
ENDBRANCH  63  64
ENDBRANCH  37  58
ENDBRANCH  11  12
ENDBRANCH   4   6
ENDBRANCH   1   2
BRANCH   1  68
ATOM     68  C   UNL A   1      31.732  28.440  27.385  1.00  0.00     0.023 C 
BRANCH  68  69
ATOM     69  C   UNL A   1      31.311  27.387  26.361  1.00  0.00     0.023 C 
BRANCH  69  70
ATOM     70  C   UNL A   1      31.842  25.968  26.544  1.00  0.00     0.116 C 
BRANCH  70  71
ATOM     71  N   UNL A   1      30.838  24.923  26.488  1.00  0.00    -0.351 N 
ATOM     72  C   UNL A   1      31.052  23.555  26.574  1.00  0.00     0.273 C 
ATOM     73  H   UNL A   1      29.904  25.214  26.378  1.00  0.00     0.163 HD
ATOM     74  O   UNL A   1      30.112  22.781  26.584  1.00  0.00    -0.267 OA
BRANCH  72  75
ATOM     75  C   UNL A   1      32.439  23.107  26.569  1.00  0.00     0.178 A 
ATOM     76  N   UNL A   1      33.070  22.908  27.765  1.00  0.00    -0.124 NA
ATOM     77  C   UNL A   1      33.281  22.738  25.519  1.00  0.00     0.122 A 
ATOM     78  N   UNL A   1      34.232  22.341  27.525  1.00  0.00    -0.061 NA
ATOM     79  N   UNL A   1      34.382  22.201  26.188  1.00  0.00    -0.213 N 
BRANCH  77  80
ATOM     80  C   UNL A   1      33.108  22.732  24.025  1.00  0.00     0.262 C 
ATOM     81  C   UNL A   1      34.328  23.229  23.245  1.00  0.00     0.281 C 
ATOM     82  O   UNL A   1      31.906  23.419  23.655  1.00  0.00    -0.477 OA
ATOM     83  O   UNL A   1      34.526  24.636  23.384  1.00  0.00    -0.485 OA
ATOM     84  C   UNL A   1      32.105  24.702  23.220  1.00  0.00     0.162 A 
ATOM     85  C   UNL A   1      33.357  25.314  23.165  1.00  0.00     0.161 A 
ATOM     86  C   UNL A   1      30.959  25.433  22.924  1.00  0.00     0.050 A 
ATOM     87  C   UNL A   1      33.448  26.687  22.949  1.00  0.00     0.050 A 
ATOM     88  C   UNL A   1      31.047  26.807  22.702  1.00  0.00     0.004 A 
ATOM     89  C   UNL A   1      32.290  27.438  22.743  1.00  0.00     0.004 A 
ENDBRANCH  77  80
BRANCH  79  90
ATOM     90  C   UNL A   1      35.496  21.458  25.714  1.00  0.00     0.068 A 
ATOM     91  C   UNL A   1      35.364  20.242  25.038  1.00  0.00     0.028 A 
ATOM     92  C   UNL A   1      36.779  21.973  25.974  1.00  0.00     0.044 A 
ATOM     93  C   UNL A   1      36.505  19.513  24.688  1.00  0.00     0.003 A 
ATOM     94  C   UNL A   1      37.907  21.230  25.636  1.00  0.00     0.020 A 
ATOM     95  C   UNL A   1      37.775  19.997  25.004  1.00  0.00     0.016 A 
ATOM     96  Br  UNL A   1      39.625  21.885  26.074  1.00  0.00    -0.051 Br
ENDBRANCH  79  90
ENDBRANCH  72  75
ENDBRANCH  70  71
ENDBRANCH  69  70
ENDBRANCH  68  69
ENDBRANCH   1  68
TORSDOF 16
ENDMDL
MODEL 2
REMARK VINA RESULT:     -13.2      2.863      9.426
REMARK SMILES O=C(NCCCCNC(=O)c1nnn(-c2cccc(Br)c2)c1[C@@H]1COc2ccccc2O1)c1ccc(-c2c3nc(c(-c4ccc(S(=O)(=O)[O-])cc4)c4ccc([nH]4)c(-c4ccc(S(=O)(=O)[O-])cc4)c4nc(c(-c5ccc(S(=O)(=O)[O-])cc5)c5ccc2[nH]5)C=C4)C=C3)cc1
REMARK SMILES IDX 4 1 3 2 1 3 2 4 33 6 34 7 92 8 35 9 91 10 36 11 37 12 38 13
REMARK SMILES IDX 85 14 39 15 90 16 84 17 86 18 40 19 89 20 83 21 82 22 41 24
REMARK SMILES IDX 71 25 52 26 70 27 53 28 56 29 69 30 87 31 54 32 55 33 68 35
REMARK SMILES IDX 88 36 57 37 42 38 43 39 51 40 44 41 50 42 45 43 46 44 47 45
REMARK SMILES IDX 48 46 49 47 72 48 73 49 81 50 74 51 80 52 75 53 76 54 77 55
REMARK SMILES IDX 78 56 79 57 58 58 59 59 67 60 60 61 66 62 61 63 62 64 63 65
REMARK SMILES IDX 64 66 65 67 5 68 6 69 7 70 8 71 9 72 10 74 11 75 12 76 22 77
REMARK SMILES IDX 13 78 14 79 23 80 24 81 32 82 25 83 31 84 26 85 30 86 27 87
REMARK SMILES IDX 29 88 28 89 15 90 16 91 21 92 17 93 19 94 18 95 20 96
REMARK H PARENT 3 5 86 23 56 34 8 73
REMARK Flexibility Score: inf
ROOT
ATOM      1  C   UNL A   1      38.333  22.045  26.088  1.00  0.00     0.116 C 
ENDROOT
BRANCH   1   2
ATOM      2  N   UNL A   1      39.646  21.589  25.668  1.00  0.00    -0.352 N 
ATOM      3  O   UNL A   1      41.845  21.187  25.727  1.00  0.00    -0.269 OA
ATOM      4  C   UNL A   1      40.926  21.953  26.018  1.00  0.00     0.251 C 
ATOM      5  H   UNL A   1      39.615  20.872  24.993  1.00  0.00     0.163 HD
BRANCH   4   6
ATOM      6  C   UNL A   1      41.255  23.277  26.597  1.00  0.00     0.039 A 
ATOM      7  C   UNL A   1      41.821  23.463  27.854  1.00  0.00     0.014 A 
ATOM      8  C   UNL A   1      40.930  24.402  25.823  1.00  0.00     0.014 A 
ATOM      9  C   UNL A   1      41.830  24.730  28.424  1.00  0.00     0.010 A 
ATOM     10  C   UNL A   1      41.015  25.683  26.364  1.00  0.00     0.010 A 
ATOM     11  C   UNL A   1      41.376  25.842  27.701  1.00  0.00    -0.014 A 
BRANCH  11  12
ATOM     12  C   UNL A   1      41.353  27.133  28.399  1.00  0.00     0.031 A 
ATOM     13  C   UNL A   1      42.540  28.016  28.204  1.00  0.00     0.074 A 
ATOM     14  C   UNL A   1      40.318  27.605  29.124  1.00  0.00     0.049 A 
ATOM     15  N   UNL A   1      43.372  28.461  29.091  1.00  0.00    -0.248 NA
ATOM     16  C   UNL A   1      42.872  28.395  26.823  1.00  0.00     0.031 C 
ATOM     17  C   UNL A   1      38.954  27.078  29.208  1.00  0.00     0.029 A 
ATOM     18  N   UNL A   1      40.255  28.751  29.866  1.00  0.00    -0.354 N 
ATOM     19  C   UNL A   1      44.250  29.302  28.410  1.00  0.00     0.074 A 
ATOM     20  C   UNL A   1      43.958  29.145  27.006  1.00  0.00     0.031 C 
ATOM     21  C   UNL A   1      38.148  28.023  29.740  1.00  0.00     0.029 A 
ATOM     22  C   UNL A   1      38.963  29.148  30.170  1.00  0.00     0.049 A 
ATOM     23  H   UNL A   1      41.053  29.248  30.157  1.00  0.00     0.167 HD
ATOM     24  C   UNL A   1      45.065  30.198  29.034  1.00  0.00     0.031 A 
ATOM     25  C   UNL A   1      38.575  30.347  30.664  1.00  0.00     0.031 A 
ATOM     26  C   UNL A   1      45.186  29.963  30.444  1.00  0.00     0.049 A 
ATOM     27  C   UNL A   1      39.746  30.990  31.302  1.00  0.00     0.074 A 
ATOM     28  C   UNL A   1      45.685  28.949  31.233  1.00  0.00     0.029 A 
ATOM     29  N   UNL A   1      44.480  30.788  31.284  1.00  0.00    -0.354 N 
ATOM     30  N   UNL A   1      40.318  30.557  32.391  1.00  0.00    -0.248 NA
ATOM     31  C   UNL A   1      40.513  31.969  30.545  1.00  0.00     0.031 C 
ATOM     32  C   UNL A   1      44.900  28.974  32.421  1.00  0.00     0.029 A 
ATOM     33  C   UNL A   1      43.966  30.004  32.284  1.00  0.00     0.049 A 
ATOM     34  H   UNL A   1      44.365  31.760  31.188  1.00  0.00     0.167 HD
ATOM     35  C   UNL A   1      41.654  30.902  32.257  1.00  0.00     0.074 A 
ATOM     36  C   UNL A   1      41.686  31.876  31.173  1.00  0.00     0.031 C 
ATOM     37  C   UNL A   1      42.640  30.166  32.849  1.00  0.00     0.031 A 
BRANCH  24  38
ATOM     38  C   UNL A   1      45.517  31.497  28.412  1.00  0.00    -0.014 A 
ATOM     39  C   UNL A   1      44.556  32.467  28.059  1.00  0.00     0.010 A 
ATOM     40  C   UNL A   1      46.823  31.674  27.913  1.00  0.00     0.010 A 
ATOM     41  C   UNL A   1      44.874  33.526  27.198  1.00  0.00     0.020 A 
ATOM     42  C   UNL A   1      47.163  32.752  27.093  1.00  0.00     0.020 A 
ATOM     43  C   UNL A   1      46.174  33.649  26.706  1.00  0.00     0.054 A 
BRANCH  43  44
ATOM     44  S   UNL A   1      46.547  34.936  25.488  1.00  0.00     0.124 S 
ATOM     45  O   UNL A   1      47.944  34.651  25.173  1.00  0.00    -0.237 OA
ATOM     46  O   UNL A   1      45.587  34.650  24.425  1.00  0.00    -0.237 OA
ATOM     47  O   UNL A   1      46.308  36.177  26.219  1.00  0.00    -0.744 OA
ENDBRANCH  43  44
ENDBRANCH  24  38
BRANCH  25  48
ATOM     48  C   UNL A   1      37.331  31.081  30.334  1.00  0.00    -0.014 A 
ATOM     49  C   UNL A   1      36.589  31.742  31.328  1.00  0.00     0.010 A 
ATOM     50  C   UNL A   1      37.010  31.350  28.986  1.00  0.00     0.010 A 
ATOM     51  C   UNL A   1      35.596  32.675  30.985  1.00  0.00     0.020 A 
ATOM     52  C   UNL A   1      36.015  32.267  28.637  1.00  0.00     0.020 A 
ATOM     53  C   UNL A   1      35.327  32.942  29.639  1.00  0.00     0.054 A 
BRANCH  53  54
ATOM     54  S   UNL A   1      34.164  34.269  29.205  1.00  0.00     0.124 S 
ATOM     55  O   UNL A   1      33.542  34.568  30.491  1.00  0.00    -0.237 OA
ATOM     56  O   UNL A   1      35.046  35.302  28.672  1.00  0.00    -0.237 OA
ATOM     57  O   UNL A   1      33.283  33.643  28.221  1.00  0.00    -0.744 OA
ENDBRANCH  53  54
ENDBRANCH  25  48
BRANCH  37  58
ATOM     58  C   UNL A   1      42.267  29.204  33.950  1.00  0.00    -0.014 A 
ATOM     59  C   UNL A   1      41.618  27.979  33.705  1.00  0.00     0.010 A 
ATOM     60  C   UNL A   1      42.760  29.460  35.243  1.00  0.00     0.010 A 
ATOM     61  C   UNL A   1      41.465  27.034  34.730  1.00  0.00     0.020 A 
ATOM     62  C   UNL A   1      42.623  28.514  36.265  1.00  0.00     0.020 A 
ATOM     63  C   UNL A   1      41.977  27.305  36.002  1.00  0.00     0.054 A 
BRANCH  63  64
ATOM     64  S   UNL A   1      41.879  26.026  37.287  1.00  0.00     0.124 S 
ATOM     65  O   UNL A   1      42.855  26.490  38.269  1.00  0.00    -0.237 OA
ATOM     66  O   UNL A   1      40.482  26.095  37.708  1.00  0.00    -0.237 OA
ATOM     67  O   UNL A   1      42.244  24.798  36.583  1.00  0.00    -0.744 OA
ENDBRANCH  63  64
ENDBRANCH  37  58
ENDBRANCH  11  12
ENDBRANCH   4   6
ENDBRANCH   1   2
BRANCH   1  68
ATOM     68  C   UNL A   1      37.655  23.114  25.244  1.00  0.00     0.023 C 
BRANCH  68  69
ATOM     69  C   UNL A   1      36.887  22.661  24.004  1.00  0.00     0.023 C 
BRANCH  69  70
ATOM     70  C   UNL A   1      35.721  23.528  23.535  1.00  0.00     0.116 C 
BRANCH  70  71
ATOM     71  N   UNL A   1      34.625  22.806  22.918  1.00  0.00    -0.351 N 
ATOM     72  C   UNL A   1      33.473  23.349  22.370  1.00  0.00     0.273 C 
ATOM     73  H   UNL A   1      34.707  21.826  22.885  1.00  0.00     0.163 HD
ATOM     74  O   UNL A   1      32.656  22.636  21.816  1.00  0.00    -0.267 OA
BRANCH  72  75
ATOM     75  C   UNL A   1      33.266  24.779  22.563  1.00  0.00     0.178 A 
ATOM     76  N   UNL A   1      33.796  25.650  21.653  1.00  0.00    -0.124 NA
ATOM     77  C   UNL A   1      32.514  25.478  23.509  1.00  0.00     0.122 A 
ATOM     78  N   UNL A   1      33.337  26.852  21.922  1.00  0.00    -0.061 NA
ATOM     79  N   UNL A   1      32.545  26.784  23.016  1.00  0.00    -0.213 N 
BRANCH  77  80
ATOM     80  C   UNL A   1      31.713  25.040  24.703  1.00  0.00     0.262 C 
ATOM     81  C   UNL A   1      32.196  25.617  26.036  1.00  0.00     0.281 C 
ATOM     82  O   UNL A   1      31.599  23.611  24.736  1.00  0.00    -0.477 OA
ATOM     83  O   UNL A   1      33.439  25.054  26.454  1.00  0.00    -0.485 OA
ATOM     84  C   UNL A   1      32.465  23.000  25.602  1.00  0.00     0.162 A 
ATOM     85  C   UNL A   1      33.405  23.687  26.370  1.00  0.00     0.161 A 
ATOM     86  C   UNL A   1      32.445  21.609  25.609  1.00  0.00     0.050 A 
ATOM     87  C   UNL A   1      34.408  22.983  27.033  1.00  0.00     0.050 A 
ATOM     88  C   UNL A   1      33.444  20.900  26.277  1.00  0.00     0.004 A 
ATOM     89  C   UNL A   1      34.442  21.590  26.965  1.00  0.00     0.004 A 
ENDBRANCH  77  80
BRANCH  79  90
ATOM     90  C   UNL A   1      31.810  27.942  23.383  1.00  0.00     0.068 A 
ATOM     91  C   UNL A   1      32.217  28.806  24.403  1.00  0.00     0.028 A 
ATOM     92  C   UNL A   1      30.609  28.195  22.696  1.00  0.00     0.044 A 
ATOM     93  C   UNL A   1      31.395  29.872  24.781  1.00  0.00     0.003 A 
ATOM     94  C   UNL A   1      29.791  29.249  23.093  1.00  0.00     0.020 A 
ATOM     95  C   UNL A   1      30.174  30.083  24.139  1.00  0.00     0.016 A 
ATOM     96  Br  UNL A   1      28.133  29.525  22.227  1.00  0.00    -0.051 Br
ENDBRANCH  79  90
ENDBRANCH  72  75
ENDBRANCH  70  71
ENDBRANCH  69  70
ENDBRANCH  68  69
ENDBRANCH   1  68
TORSDOF 16
ENDMDL
MODEL 3
REMARK VINA RESULT:     -13.2      3.198      9.465
REMARK SMILES O=C(NCCCCNC(=O)c1nnn(-c2cccc(Br)c2)c1[C@@H]1COc2ccccc2O1)c1ccc(-c2c3nc(c(-c4ccc(S(=O)(=O)[O-])cc4)c4ccc([nH]4)c(-c4ccc(S(=O)(=O)[O-])cc4)c4nc(c(-c5ccc(S(=O)(=O)[O-])cc5)c5ccc2[nH]5)C=C4)C=C3)cc1
REMARK SMILES IDX 4 1 3 2 1 3 2 4 33 6 34 7 92 8 35 9 91 10 36 11 37 12 38 13
REMARK SMILES IDX 85 14 39 15 90 16 84 17 86 18 40 19 89 20 83 21 82 22 41 24
REMARK SMILES IDX 71 25 52 26 70 27 53 28 56 29 69 30 87 31 54 32 55 33 68 35
REMARK SMILES IDX 88 36 57 37 42 38 43 39 51 40 44 41 50 42 45 43 46 44 47 45
REMARK SMILES IDX 48 46 49 47 72 48 73 49 81 50 74 51 80 52 75 53 76 54 77 55
REMARK SMILES IDX 78 56 79 57 58 58 59 59 67 60 60 61 66 62 61 63 62 64 63 65
REMARK SMILES IDX 64 66 65 67 5 68 6 69 7 70 8 71 9 72 10 74 11 75 12 76 22 77
REMARK SMILES IDX 13 78 14 79 23 80 24 81 32 82 25 83 31 84 26 85 30 86 27 87
REMARK SMILES IDX 29 88 28 89 15 90 16 91 21 92 17 93 19 94 18 95 20 96
REMARK H PARENT 3 5 86 23 56 34 8 73
REMARK Flexibility Score: inf
ROOT
ATOM      1  C   UNL A   1      36.660  22.253  25.727  1.00  0.00     0.116 C 
ENDROOT
BRANCH   1   2
ATOM      2  N   UNL A   1      38.017  21.874  25.375  1.00  0.00    -0.352 N 
ATOM      3  O   UNL A   1      40.197  21.428  25.602  1.00  0.00    -0.269 OA
ATOM      4  C   UNL A   1      39.244  22.131  25.941  1.00  0.00     0.251 C 
ATOM      5  H   UNL A   1      38.070  21.318  24.563  1.00  0.00     0.163 HD
BRANCH   4   6
ATOM      6  C   UNL A   1      39.493  23.294  26.825  1.00  0.00     0.039 A 
ATOM      7  C   UNL A   1      38.714  24.447  26.840  1.00  0.00     0.014 A 
ATOM      8  C   UNL A   1      40.614  23.219  27.665  1.00  0.00     0.014 A 
ATOM      9  C   UNL A   1      39.182  25.585  27.486  1.00  0.00     0.010 A 
ATOM     10  C   UNL A   1      41.041  24.337  28.380  1.00  0.00     0.010 A 
ATOM     11  C   UNL A   1      40.377  25.551  28.216  1.00  0.00    -0.014 A 
BRANCH  11  12
ATOM     12  C   UNL A   1      40.838  26.813  28.809  1.00  0.00     0.031 A 
ATOM     13  C   UNL A   1      42.089  27.397  28.240  1.00  0.00     0.074 A 
ATOM     14  C   UNL A   1      40.180  27.512  29.756  1.00  0.00     0.049 A 
ATOM     15  N   UNL A   1      43.213  27.636  28.836  1.00  0.00    -0.248 NA
ATOM     16  C   UNL A   1      42.096  27.688  26.800  1.00  0.00     0.031 C 
ATOM     17  C   UNL A   1      38.812  27.316  30.242  1.00  0.00     0.029 A 
ATOM     18  N   UNL A   1      40.584  28.642  30.410  1.00  0.00    -0.354 N 
ATOM     19  C   UNL A   1      44.029  28.252  27.889  1.00  0.00     0.074 A 
ATOM     20  C   UNL A   1      43.328  28.166  26.630  1.00  0.00     0.031 C 
ATOM     21  C   UNL A   1      38.420  28.422  30.912  1.00  0.00     0.029 A 
ATOM     22  C   UNL A   1      39.551  29.327  31.029  1.00  0.00     0.049 A 
ATOM     23  H   UNL A   1      41.522  28.940  30.440  1.00  0.00     0.167 HD
ATOM     24  C   UNL A   1      45.165  28.933  28.207  1.00  0.00     0.031 A 
ATOM     25  C   UNL A   1      39.595  30.583  31.531  1.00  0.00     0.031 A 
ATOM     26  C   UNL A   1      45.620  28.677  29.542  1.00  0.00     0.049 A 
ATOM     27  C   UNL A   1      41.010  30.938  31.783  1.00  0.00     0.074 A 
ATOM     28  C   UNL A   1      46.082  27.574  30.230  1.00  0.00     0.029 A 
ATOM     29  N   UNL A   1      45.381  29.643  30.488  1.00  0.00    -0.354 N 
ATOM     30  N   UNL A   1      41.753  30.383  32.700  1.00  0.00    -0.248 NA
ATOM     31  C   UNL A   1      41.732  31.711  30.783  1.00  0.00     0.031 C 
ATOM     32  C   UNL A   1      45.688  27.781  31.582  1.00  0.00     0.029 A 
ATOM     33  C   UNL A   1      45.006  29.000  31.639  1.00  0.00     0.049 A 
ATOM     34  H   UNL A   1      45.463  30.615  30.364  1.00  0.00     0.167 HD
ATOM     35  C   UNL A   1      43.040  30.409  32.185  1.00  0.00     0.074 A 
ATOM     36  C   UNL A   1      42.983  31.349  31.072  1.00  0.00     0.031 C 
ATOM     37  C   UNL A   1      43.963  29.465  32.532  1.00  0.00     0.031 A 
BRANCH  24  38
ATOM     38  C   UNL A   1      45.702  30.092  27.402  1.00  0.00    -0.014 A 
ATOM     39  C   UNL A   1      47.096  30.262  27.278  1.00  0.00     0.010 A 
ATOM     40  C   UNL A   1      44.884  31.169  27.002  1.00  0.00     0.010 A 
ATOM     41  C   UNL A   1      47.644  31.473  26.833  1.00  0.00     0.020 A 
ATOM     42  C   UNL A   1      45.419  32.362  26.514  1.00  0.00     0.020 A 
ATOM     43  C   UNL A   1      46.798  32.522  26.472  1.00  0.00     0.054 A 
BRANCH  43  44
ATOM     44  S   UNL A   1      47.510  34.128  26.030  1.00  0.00     0.124 S 
ATOM     45  O   UNL A   1      48.805  33.738  25.480  1.00  0.00    -0.237 OA
ATOM     46  O   UNL A   1      46.543  34.646  25.066  1.00  0.00    -0.237 OA
ATOM     47  O   UNL A   1      47.557  34.842  27.303  1.00  0.00    -0.744 OA
ENDBRANCH  43  44
ENDBRANCH  24  38
BRANCH  25  48
ATOM     48  C   UNL A   1      38.504  31.587  31.506  1.00  0.00    -0.014 A 
ATOM     49  C   UNL A   1      37.834  31.904  30.312  1.00  0.00     0.010 A 
ATOM     50  C   UNL A   1      37.944  32.047  32.717  1.00  0.00     0.010 A 
ATOM     51  C   UNL A   1      36.622  32.614  30.333  1.00  0.00     0.020 A 
ATOM     52  C   UNL A   1      36.745  32.765  32.745  1.00  0.00     0.020 A 
ATOM     53  C   UNL A   1      36.078  33.026  31.554  1.00  0.00     0.054 A 
BRANCH  53  54
ATOM     54  S   UNL A   1      34.431  33.793  31.587  1.00  0.00     0.124 S 
ATOM     55  O   UNL A   1      33.694  32.903  32.481  1.00  0.00    -0.237 OA
ATOM     56  O   UNL A   1      34.712  35.126  32.111  1.00  0.00    -0.237 OA
ATOM     57  O   UNL A   1      34.007  33.756  30.189  1.00  0.00    -0.744 OA
ENDBRANCH  53  54
ENDBRANCH  25  48
BRANCH  37  58
ATOM     58  C   UNL A   1      43.708  28.615  33.753  1.00  0.00    -0.014 A 
ATOM     59  C   UNL A   1      43.831  29.108  35.065  1.00  0.00     0.010 A 
ATOM     60  C   UNL A   1      43.143  27.340  33.562  1.00  0.00     0.010 A 
ATOM     61  C   UNL A   1      43.400  28.345  36.159  1.00  0.00     0.020 A 
ATOM     62  C   UNL A   1      42.698  26.580  34.649  1.00  0.00     0.020 A 
ATOM     63  C   UNL A   1      42.827  27.088  35.942  1.00  0.00     0.054 A 
BRANCH  63  64
ATOM     64  S   UNL A   1      42.164  26.161  37.355  1.00  0.00     0.124 S 
ATOM     65  O   UNL A   1      42.163  24.787  36.859  1.00  0.00    -0.237 OA
ATOM     66  O   UNL A   1      43.131  26.446  38.413  1.00  0.00    -0.237 OA
ATOM     67  O   UNL A   1      40.841  26.746  37.564  1.00  0.00    -0.744 OA
ENDBRANCH  63  64
ENDBRANCH  37  58
ENDBRANCH  11  12
ENDBRANCH   4   6
ENDBRANCH   1   2
BRANCH   1  68
ATOM     68  C   UNL A   1      35.921  23.184  24.778  1.00  0.00     0.023 C 
BRANCH  68  69
ATOM     69  C   UNL A   1      35.222  24.404  25.377  1.00  0.00     0.023 C 
BRANCH  69  70
ATOM     70  C   UNL A   1      34.360  25.255  24.449  1.00  0.00     0.116 C 
BRANCH  70  71
ATOM     71  N   UNL A   1      34.070  24.659  23.158  1.00  0.00    -0.351 N 
ATOM     72  C   UNL A   1      33.243  25.172  22.170  1.00  0.00     0.273 C 
ATOM     73  H   UNL A   1      34.507  23.799  22.962  1.00  0.00     0.163 HD
ATOM     74  O   UNL A   1      33.137  24.607  21.097  1.00  0.00    -0.267 OA
BRANCH  72  75
ATOM     75  C   UNL A   1      32.464  26.355  22.516  1.00  0.00     0.178 A 
ATOM     76  N   UNL A   1      32.983  27.588  22.240  1.00  0.00    -0.124 NA
ATOM     77  C   UNL A   1      31.172  26.486  23.030  1.00  0.00     0.122 A 
ATOM     78  N   UNL A   1      32.048  28.485  22.465  1.00  0.00    -0.061 NA
ATOM     79  N   UNL A   1      30.939  27.857  22.917  1.00  0.00    -0.213 N 
BRANCH  77  80
ATOM     80  C   UNL A   1      30.147  25.483  23.482  1.00  0.00     0.262 C 
ATOM     81  C   UNL A   1      29.553  25.766  24.864  1.00  0.00     0.281 C 
ATOM     82  O   UNL A   1      30.663  24.150  23.373  1.00  0.00    -0.477 OA
ATOM     83  O   UNL A   1      30.488  25.534  25.917  1.00  0.00    -0.485 OA
ATOM     84  C   UNL A   1      31.108  23.622  24.555  1.00  0.00     0.162 A 
ATOM     85  C   UNL A   1      31.098  24.316  25.764  1.00  0.00     0.161 A 
ATOM     86  C   UNL A   1      31.690  22.360  24.482  1.00  0.00     0.050 A 
ATOM     87  C   UNL A   1      31.788  23.808  26.861  1.00  0.00     0.050 A 
ATOM     88  C   UNL A   1      32.377  21.846  25.581  1.00  0.00     0.004 A 
ATOM     89  C   UNL A   1      32.450  22.583  26.762  1.00  0.00     0.004 A 
ENDBRANCH  77  80
BRANCH  79  90
ATOM     90  C   UNL A   1      29.751  28.621  23.064  1.00  0.00     0.068 A 
ATOM     91  C   UNL A   1      28.479  28.045  23.099  1.00  0.00     0.028 A 
ATOM     92  C   UNL A   1      29.884  30.019  23.147  1.00  0.00     0.044 A 
ATOM     93  C   UNL A   1      27.346  28.863  23.145  1.00  0.00     0.003 A 
ATOM     94  C   UNL A   1      28.748  30.824  23.175  1.00  0.00     0.020 A 
ATOM     95  C   UNL A   1      27.479  30.252  23.163  1.00  0.00     0.016 A 
ATOM     96  Br  UNL A   1      28.933  32.705  23.190  1.00  0.00    -0.051 Br
ENDBRANCH  79  90
ENDBRANCH  72  75
ENDBRANCH  70  71
ENDBRANCH  69  70
ENDBRANCH  68  69
ENDBRANCH   1  68
TORSDOF 16
ENDMDL
