MODEL 1
REMARK VINA RESULT:     -10.6      0.000      0.000
REMARK SMILES CC(C)(C[N@H+]1C[C@@H]2C[NH2+]C[C@H]2C1(C)C)C(=O)NCCCCNC(=O)c1ccc(-c2c3nc(c(-c4ccc(S(=O)(=O)[O-])cc4)c4ccc([nH]4)c(-c4ccc(S(=O)(=O)[O-])cc4)c4nc(c(-c5ccc(S(=O)(=O)[O-])cc5)c5ccc2[nH]5)C=C4)C=C3)cc1
REMARK SMILES IDX 20 1 19 2 18 3 17 4 15 5 16 6 2 8 1 9 3 10 4 11 5 12 6 13
REMARK SMILES IDX 12 14 7 16 11 17 13 18 14 19 8 20 10 21 9 22 21 25 22 26
REMARK SMILES IDX 23 27 24 29 25 30 26 31 84 32 27 33 83 34 28 35 29 36 30 37
REMARK SMILES IDX 77 38 31 39 82 40 76 41 78 42 32 43 81 44 75 45 74 46 33 48
REMARK SMILES IDX 63 49 44 50 62 51 45 52 48 53 61 54 79 55 46 56 47 57 60 59
REMARK SMILES IDX 80 60 49 61 34 62 35 63 43 64 36 65 42 66 37 67 38 68 39 69
REMARK SMILES IDX 40 70 41 71 64 72 65 73 73 74 66 75 72 76 67 77 68 78 69 79
REMARK SMILES IDX 70 80 71 81 50 82 51 83 59 84 52 85 58 86 53 87 54 88 55 89
REMARK SMILES IDX 56 90 57 91
REMARK H PARENT 17 7 5 15 9 23 9 24 22 28 78 47 48 58
REMARK Flexibility Score: inf
ROOT
ATOM      1  C   UNL A   1      33.285  27.607  26.749  1.00  0.00     0.023 C 
ENDROOT
BRANCH   1   2
ATOM      2  C   UNL A   1      31.774  27.803  26.650  1.00  0.00     0.023 C 
BRANCH   2   3
ATOM      3  C   UNL A   1      31.063  26.807  25.743  1.00  0.00     0.116 C 
BRANCH   3   4
ATOM      4  N   UNL A   1      30.326  25.819  26.503  1.00  0.00    -0.355 N 
ATOM      5  C   UNL A   1      30.355  24.463  26.520  1.00  0.00     0.231 C 
ATOM      6  O   UNL A   1      29.552  23.927  27.295  1.00  0.00    -0.274 OA
ATOM      7  H   UNL A   1      29.676  26.208  27.131  1.00  0.00     0.163 HD
BRANCH   5   8
ATOM      8  C   UNL A   1      31.335  23.623  25.676  1.00  0.00     0.092 C 
ATOM      9  C   UNL A   1      31.038  23.930  24.189  1.00  0.00     0.027 C 
ATOM     10  C   UNL A   1      30.987  22.113  25.774  1.00  0.00     0.027 C 
BRANCH   8  11
ATOM     11  C   UNL A   1      32.834  23.847  26.115  1.00  0.00     0.279 C 
BRANCH  11  12
ATOM     12  N   UNL A   1      33.979  23.510  25.239  1.00  0.00    -0.329 N 
ATOM     13  C   UNL A   1      35.104  24.503  25.365  1.00  0.00     0.272 C 
ATOM     14  C   UNL A   1      34.582  22.129  25.319  1.00  0.00     0.101 C 
ATOM     15  H   UNL A   1      33.515  23.545  24.331  1.00  0.00     0.348 HD
ATOM     16  C   UNL A   1      36.232  23.698  25.957  1.00  0.00     0.114 C 
ATOM     17  C   UNL A   1      36.081  22.421  25.179  1.00  0.00     0.119 C 
ATOM     18  C   UNL A   1      34.344  21.343  26.623  1.00  0.00     0.079 C 
ATOM     19  C   UNL A   1      34.146  21.338  24.070  1.00  0.00     0.079 C 
ATOM     20  C   UNL A   1      37.703  23.954  25.763  1.00  0.00     0.270 C 
ATOM     21  C   UNL A   1      37.216  21.596  25.737  1.00  0.00     0.271 C 
ATOM     22  N   UNL A   1      38.294  22.597  25.953  1.00  0.00    -0.345 N 
ATOM     23  H   UNL A   1      38.664  22.510  26.899  1.00  0.00     0.346 HD
ATOM     24  H   UNL A   1      39.057  22.446  25.293  1.00  0.00     0.346 HD
ENDBRANCH  11  12
ENDBRANCH   8  11
ENDBRANCH   5   8
ENDBRANCH   3   4
ENDBRANCH   2   3
ENDBRANCH   1   2
BRANCH   1  25
ATOM     25  C   UNL A   1      34.121  28.791  26.280  1.00  0.00     0.116 C 
BRANCH  25  26
ATOM     26  N   UNL A   1      33.839  30.013  27.018  1.00  0.00    -0.352 N 
ATOM     27  C   UNL A   1      34.611  30.642  27.963  1.00  0.00     0.251 C 
ATOM     28  H   UNL A   1      32.980  30.447  26.813  1.00  0.00     0.163 HD
ATOM     29  O   UNL A   1      34.159  31.599  28.587  1.00  0.00    -0.269 OA
BRANCH  27  30
ATOM     30  C   UNL A   1      35.969  30.137  28.243  1.00  0.00     0.039 A 
ATOM     31  C   UNL A   1      36.950  30.257  27.258  1.00  0.00     0.014 A 
ATOM     32  C   UNL A   1      36.279  29.571  29.483  1.00  0.00     0.014 A 
ATOM     33  C   UNL A   1      38.254  29.848  27.534  1.00  0.00     0.010 A 
ATOM     34  C   UNL A   1      37.597  29.249  29.786  1.00  0.00     0.010 A 
ATOM     35  C   UNL A   1      38.595  29.365  28.808  1.00  0.00    -0.014 A 
BRANCH  35  36
ATOM     36  C   UNL A   1      39.986  28.947  29.118  1.00  0.00     0.031 A 
ATOM     37  C   UNL A   1      40.928  29.908  29.796  1.00  0.00     0.074 A 
ATOM     38  C   UNL A   1      40.409  27.717  28.763  1.00  0.00     0.049 A 
ATOM     39  N   UNL A   1      42.173  29.727  30.152  1.00  0.00    -0.248 NA
ATOM     40  C   UNL A   1      40.414  31.257  30.088  1.00  0.00     0.031 C 
ATOM     41  C   UNL A   1      39.608  26.716  28.053  1.00  0.00     0.029 A 
ATOM     42  N   UNL A   1      41.619  27.098  28.953  1.00  0.00    -0.354 N 
ATOM     43  C   UNL A   1      42.593  30.937  30.691  1.00  0.00     0.074 A 
ATOM     44  C   UNL A   1      41.491  31.863  30.564  1.00  0.00     0.031 C 
ATOM     45  C   UNL A   1      40.336  25.598  27.901  1.00  0.00     0.029 A 
ATOM     46  C   UNL A   1      41.664  25.812  28.467  1.00  0.00     0.049 A 
ATOM     47  H   UNL A   1      42.383  27.534  29.396  1.00  0.00     0.167 HD
ATOM     48  C   UNL A   1      43.781  31.245  31.265  1.00  0.00     0.031 A 
ATOM     49  C   UNL A   1      42.661  24.907  28.478  1.00  0.00     0.031 A 
ATOM     50  C   UNL A   1      44.869  30.314  31.405  1.00  0.00     0.049 A 
ATOM     51  C   UNL A   1      43.966  25.268  29.137  1.00  0.00     0.074 A 
ATOM     52  C   UNL A   1      46.090  30.507  32.025  1.00  0.00     0.029 A 
ATOM     53  N   UNL A   1      44.868  29.015  30.919  1.00  0.00    -0.354 N 
ATOM     54  N   UNL A   1      44.316  26.395  29.712  1.00  0.00    -0.248 NA
ATOM     55  C   UNL A   1      45.000  24.226  29.172  1.00  0.00     0.031 C 
ATOM     56  C   UNL A   1      46.850  29.345  31.864  1.00  0.00     0.029 A 
ATOM     57  C   UNL A   1      46.076  28.403  31.207  1.00  0.00     0.049 A 
ATOM     58  H   UNL A   1      44.119  28.592  30.440  1.00  0.00     0.167 HD
ATOM     59  C   UNL A   1      45.599  26.184  30.207  1.00  0.00     0.074 A 
ATOM     60  C   UNL A   1      45.951  24.817  29.882  1.00  0.00     0.031 C 
ATOM     61  C   UNL A   1      46.411  27.041  30.875  1.00  0.00     0.031 A 
BRANCH  48  62
ATOM     62  C   UNL A   1      43.968  32.648  31.782  1.00  0.00    -0.014 A 
ATOM     63  C   UNL A   1      43.658  32.983  33.113  1.00  0.00     0.010 A 
ATOM     64  C   UNL A   1      44.514  33.634  30.940  1.00  0.00     0.010 A 
ATOM     65  C   UNL A   1      43.861  34.283  33.582  1.00  0.00     0.020 A 
ATOM     66  C   UNL A   1      44.748  34.928  31.415  1.00  0.00     0.020 A 
ATOM     67  C   UNL A   1      44.408  35.247  32.730  1.00  0.00     0.054 A 
BRANCH  67  68
ATOM     68  S   UNL A   1      44.703  36.914  33.381  1.00  0.00     0.124 S 
ATOM     69  O   UNL A   1      43.907  37.737  32.474  1.00  0.00    -0.237 OA
ATOM     70  O   UNL A   1      44.195  36.816  34.748  1.00  0.00    -0.237 OA
ATOM     71  O   UNL A   1      46.148  37.081  33.267  1.00  0.00    -0.744 OA
ENDBRANCH  67  68
ENDBRANCH  48  62
BRANCH  49  72
ATOM     72  C   UNL A   1      42.462  23.565  27.863  1.00  0.00    -0.014 A 
ATOM     73  C   UNL A   1      41.739  22.563  28.535  1.00  0.00     0.010 A 
ATOM     74  C   UNL A   1      43.006  23.279  26.597  1.00  0.00     0.010 A 
ATOM     75  C   UNL A   1      41.593  21.292  27.970  1.00  0.00     0.020 A 
ATOM     76  C   UNL A   1      42.834  22.020  26.014  1.00  0.00     0.020 A 
ATOM     77  C   UNL A   1      42.143  21.030  26.712  1.00  0.00     0.054 A 
BRANCH  77  78
ATOM     78  S   UNL A   1      41.915  19.383  25.984  1.00  0.00     0.124 S 
ATOM     79  O   UNL A   1      40.473  19.345  25.764  1.00  0.00    -0.237 OA
ATOM     80  O   UNL A   1      42.739  19.454  24.780  1.00  0.00    -0.237 OA
ATOM     81  O   UNL A   1      42.415  18.479  27.018  1.00  0.00    -0.744 OA
ENDBRANCH  77  78
ENDBRANCH  49  72
BRANCH  61  82
ATOM     82  C   UNL A   1      47.739  26.507  31.347  1.00  0.00    -0.014 A 
ATOM     83  C   UNL A   1      48.905  26.633  30.571  1.00  0.00     0.010 A 
ATOM     84  C   UNL A   1      47.819  25.882  32.605  1.00  0.00     0.010 A 
ATOM     85  C   UNL A   1      50.112  26.090  31.017  1.00  0.00     0.020 A 
ATOM     86  C   UNL A   1      49.032  25.370  33.071  1.00  0.00     0.020 A 
ATOM     87  C   UNL A   1      50.166  25.455  32.262  1.00  0.00     0.054 A 
BRANCH  87  88
ATOM     88  S   UNL A   1      51.743  24.756  32.820  1.00  0.00     0.124 S 
ATOM     89  O   UNL A   1      51.847  25.290  34.175  1.00  0.00    -0.237 OA
ATOM     90  O   UNL A   1      51.506  23.316  32.728  1.00  0.00    -0.237 OA
ATOM     91  O   UNL A   1      52.715  25.283  31.865  1.00  0.00    -0.744 OA
ENDBRANCH  87  88
ENDBRANCH  61  82
ENDBRANCH  35  36
ENDBRANCH  27  30
ENDBRANCH  25  26
ENDBRANCH   1  25
TORSDOF 16
ENDMDL
MODEL 2
REMARK VINA RESULT:     -10.4      1.349      1.930
REMARK SMILES CC(C)(C[N@H+]1C[C@@H]2C[NH2+]C[C@H]2C1(C)C)C(=O)NCCCCNC(=O)c1ccc(-c2c3nc(c(-c4ccc(S(=O)(=O)[O-])cc4)c4ccc([nH]4)c(-c4ccc(S(=O)(=O)[O-])cc4)c4nc(c(-c5ccc(S(=O)(=O)[O-])cc5)c5ccc2[nH]5)C=C4)C=C3)cc1
REMARK SMILES IDX 20 1 19 2 18 3 17 4 15 5 16 6 2 8 1 9 3 10 4 11 5 12 6 13
REMARK SMILES IDX 12 14 7 16 11 17 13 18 14 19 8 20 10 21 9 22 21 25 22 26
REMARK SMILES IDX 23 27 24 29 25 30 26 31 84 32 27 33 83 34 28 35 29 36 30 37
REMARK SMILES IDX 77 38 31 39 82 40 76 41 78 42 32 43 81 44 75 45 74 46 33 48
REMARK SMILES IDX 63 49 44 50 62 51 45 52 48 53 61 54 79 55 46 56 47 57 60 59
REMARK SMILES IDX 80 60 49 61 34 62 35 63 43 64 36 65 42 66 37 67 38 68 39 69
REMARK SMILES IDX 40 70 41 71 64 72 65 73 73 74 66 75 72 76 67 77 68 78 69 79
REMARK SMILES IDX 70 80 71 81 50 82 51 83 59 84 52 85 58 86 53 87 54 88 55 89
REMARK SMILES IDX 56 90 57 91
REMARK H PARENT 17 7 5 15 9 23 9 24 22 28 78 47 48 58
REMARK Flexibility Score: inf
ROOT
ATOM      1  C   UNL A   1      33.043  27.661  26.665  1.00  0.00     0.023 C 
ENDROOT
BRANCH   1   2
ATOM      2  C   UNL A   1      31.614  28.061  26.307  1.00  0.00     0.023 C 
BRANCH   2   3
ATOM      3  C   UNL A   1      30.837  27.008  25.528  1.00  0.00     0.116 C 
BRANCH   3   4
ATOM      4  N   UNL A   1      30.535  27.448  24.182  1.00  0.00    -0.355 N 
ATOM      5  C   UNL A   1      31.104  27.186  22.978  1.00  0.00     0.231 C 
ATOM      6  O   UNL A   1      30.590  27.766  22.014  1.00  0.00    -0.274 OA
ATOM      7  H   UNL A   1      29.765  28.058  24.130  1.00  0.00     0.163 HD
BRANCH   5   8
ATOM      8  C   UNL A   1      32.283  26.209  22.791  1.00  0.00     0.092 C 
ATOM      9  C   UNL A   1      33.582  26.998  23.078  1.00  0.00     0.027 C 
ATOM     10  C   UNL A   1      32.451  25.835  21.294  1.00  0.00     0.027 C 
BRANCH   8  11
ATOM     11  C   UNL A   1      32.101  24.894  23.645  1.00  0.00     0.279 C 
BRANCH  11  12
ATOM     12  N   UNL A   1      33.224  24.250  24.363  1.00  0.00    -0.329 N 
ATOM     13  C   UNL A   1      32.972  24.155  25.845  1.00  0.00     0.272 C 
ATOM     14  C   UNL A   1      33.713  22.899  23.898  1.00  0.00     0.101 C 
ATOM     15  H   UNL A   1      33.973  24.899  24.125  1.00  0.00     0.348 HD
ATOM     16  C   UNL A   1      32.886  22.673  26.103  1.00  0.00     0.114 C 
ATOM     17  C   UNL A   1      34.005  22.187  25.225  1.00  0.00     0.119 C 
ATOM     18  C   UNL A   1      32.723  22.047  23.080  1.00  0.00     0.079 C 
ATOM     19  C   UNL A   1      35.057  23.096  23.172  1.00  0.00     0.079 C 
ATOM     20  C   UNL A   1      33.236  21.973  27.389  1.00  0.00     0.270 C 
ATOM     21  C   UNL A   1      33.958  20.699  25.478  1.00  0.00     0.271 C 
ATOM     22  N   UNL A   1      33.613  20.607  26.922  1.00  0.00    -0.345 N 
ATOM     23  H   UNL A   1      32.828  19.969  27.051  1.00  0.00     0.346 HD
ATOM     24  H   UNL A   1      34.407  20.255  27.456  1.00  0.00     0.346 HD
ENDBRANCH  11  12
ENDBRANCH   8  11
ENDBRANCH   5   8
ENDBRANCH   3   4
ENDBRANCH   2   3
ENDBRANCH   1   2
BRANCH   1  25
ATOM     25  C   UNL A   1      34.097  28.731  26.406  1.00  0.00     0.116 C 
BRANCH  25  26
ATOM     26  N   UNL A   1      33.823  29.979  27.102  1.00  0.00    -0.352 N 
ATOM     27  C   UNL A   1      34.610  30.646  28.007  1.00  0.00     0.251 C 
ATOM     28  H   UNL A   1      32.958  30.400  26.897  1.00  0.00     0.163 HD
ATOM     29  O   UNL A   1      34.166  31.625  28.603  1.00  0.00    -0.269 OA
BRANCH  27  30
ATOM     30  C   UNL A   1      35.976  30.159  28.279  1.00  0.00     0.039 A 
ATOM     31  C   UNL A   1      36.929  30.220  27.262  1.00  0.00     0.014 A 
ATOM     32  C   UNL A   1      36.321  29.668  29.542  1.00  0.00     0.014 A 
ATOM     33  C   UNL A   1      38.241  29.828  27.526  1.00  0.00     0.010 A 
ATOM     34  C   UNL A   1      37.647  29.364  29.827  1.00  0.00     0.010 A 
ATOM     35  C   UNL A   1      38.618  29.421  28.817  1.00  0.00    -0.014 A 
BRANCH  35  36
ATOM     36  C   UNL A   1      40.017  29.022  29.113  1.00  0.00     0.031 A 
ATOM     37  C   UNL A   1      40.956  30.000  29.771  1.00  0.00     0.074 A 
ATOM     38  C   UNL A   1      40.451  27.794  28.762  1.00  0.00     0.049 A 
ATOM     39  N   UNL A   1      42.208  29.836  30.113  1.00  0.00    -0.248 NA
ATOM     40  C   UNL A   1      40.430  31.345  30.059  1.00  0.00     0.031 C 
ATOM     41  C   UNL A   1      39.652  26.779  28.070  1.00  0.00     0.029 A 
ATOM     42  N   UNL A   1      41.670  27.191  28.943  1.00  0.00    -0.354 N 
ATOM     43  C   UNL A   1      42.620  31.055  30.638  1.00  0.00     0.074 A 
ATOM     44  C   UNL A   1      41.505  31.967  30.517  1.00  0.00     0.031 C 
ATOM     45  C   UNL A   1      40.392  25.667  27.918  1.00  0.00     0.029 A 
ATOM     46  C   UNL A   1      41.724  25.902  28.466  1.00  0.00     0.049 A 
ATOM     47  H   UNL A   1      42.434  27.639  29.372  1.00  0.00     0.167 HD
ATOM     48  C   UNL A   1      43.810  31.382  31.194  1.00  0.00     0.031 A 
ATOM     49  C   UNL A   1      42.732  25.009  28.472  1.00  0.00     0.031 A 
ATOM     50  C   UNL A   1      44.912  30.465  31.328  1.00  0.00     0.049 A 
ATOM     51  C   UNL A   1      44.040  25.391  29.112  1.00  0.00     0.074 A 
ATOM     52  C   UNL A   1      46.138  30.678  31.932  1.00  0.00     0.029 A 
ATOM     53  N   UNL A   1      44.919  29.162  30.852  1.00  0.00    -0.354 N 
ATOM     54  N   UNL A   1      44.384  26.526  29.673  1.00  0.00    -0.248 NA
ATOM     55  C   UNL A   1      45.087  24.361  29.142  1.00  0.00     0.031 C 
ATOM     56  C   UNL A   1      46.909  29.523  31.770  1.00  0.00     0.029 A 
ATOM     57  C   UNL A   1      46.138  28.566  31.130  1.00  0.00     0.049 A 
ATOM     58  H   UNL A   1      44.170  28.727  30.386  1.00  0.00     0.167 HD
ATOM     59  C   UNL A   1      45.676  26.334  30.154  1.00  0.00     0.074 A 
ATOM     60  C   UNL A   1      46.039  24.968  29.835  1.00  0.00     0.031 C 
ATOM     61  C   UNL A   1      46.485  27.206  30.805  1.00  0.00     0.031 A 
BRANCH  48  62
ATOM     62  C   UNL A   1      43.987  32.791  31.698  1.00  0.00    -0.014 A 
ATOM     63  C   UNL A   1      43.680  33.135  33.027  1.00  0.00     0.010 A 
ATOM     64  C   UNL A   1      44.521  33.774  30.844  1.00  0.00     0.010 A 
ATOM     65  C   UNL A   1      43.873  34.442  33.483  1.00  0.00     0.020 A 
ATOM     66  C   UNL A   1      44.745  35.075  31.306  1.00  0.00     0.020 A 
ATOM     67  C   UNL A   1      44.408  35.403  32.620  1.00  0.00     0.054 A 
BRANCH  67  68
ATOM     68  S   UNL A   1      44.691  37.078  33.254  1.00  0.00     0.124 S 
ATOM     69  O   UNL A   1      45.443  36.814  34.479  1.00  0.00    -0.237 OA
ATOM     70  O   UNL A   1      45.451  37.703  32.174  1.00  0.00    -0.237 OA
ATOM     71  O   UNL A   1      43.345  37.607  33.452  1.00  0.00    -0.744 OA
ENDBRANCH  67  68
ENDBRANCH  48  62
BRANCH  49  72
ATOM     72  C   UNL A   1      42.541  23.659  27.870  1.00  0.00    -0.014 A 
ATOM     73  C   UNL A   1      41.975  22.610  28.616  1.00  0.00     0.010 A 
ATOM     74  C   UNL A   1      42.935  23.415  26.542  1.00  0.00     0.010 A 
ATOM     75  C   UNL A   1      41.839  21.335  28.058  1.00  0.00     0.020 A 
ATOM     76  C   UNL A   1      42.770  22.150  25.969  1.00  0.00     0.020 A 
ATOM     77  C   UNL A   1      42.238  21.114  26.737  1.00  0.00     0.054 A 
BRANCH  77  78
ATOM     78  S   UNL A   1      42.024  19.459  26.023  1.00  0.00     0.124 S 
ATOM     79  O   UNL A   1      40.580  19.400  25.823  1.00  0.00    -0.237 OA
ATOM     80  O   UNL A   1      42.830  19.535  24.807  1.00  0.00    -0.237 OA
ATOM     81  O   UNL A   1      42.551  18.570  27.056  1.00  0.00    -0.744 OA
ENDBRANCH  77  78
ENDBRANCH  49  72
BRANCH  61  82
ATOM     82  C   UNL A   1      47.825  26.692  31.265  1.00  0.00    -0.014 A 
ATOM     83  C   UNL A   1      47.990  26.079  32.520  1.00  0.00     0.010 A 
ATOM     84  C   UNL A   1      48.937  26.812  30.411  1.00  0.00     0.010 A 
ATOM     85  C   UNL A   1      49.254  25.651  32.936  1.00  0.00     0.020 A 
ATOM     86  C   UNL A   1      50.194  26.352  30.807  1.00  0.00     0.020 A 
ATOM     87  C   UNL A   1      50.350  25.798  32.079  1.00  0.00     0.054 A 
BRANCH  87  88
ATOM     88  S   UNL A   1      51.980  25.238  32.640  1.00  0.00     0.124 S 
ATOM     89  O   UNL A   1      52.176  26.037  33.846  1.00  0.00    -0.237 OA
ATOM     90  O   UNL A   1      51.769  23.808  32.861  1.00  0.00    -0.237 OA
ATOM     91  O   UNL A   1      52.864  25.566  31.524  1.00  0.00    -0.744 OA
ENDBRANCH  87  88
ENDBRANCH  61  82
ENDBRANCH  35  36
ENDBRANCH  27  30
ENDBRANCH  25  26
ENDBRANCH   1  25
TORSDOF 16
ENDMDL
MODEL 3
REMARK VINA RESULT:     -10.4      2.538      3.072
REMARK SMILES CC(C)(C[N@H+]1C[C@@H]2C[NH2+]C[C@H]2C1(C)C)C(=O)NCCCCNC(=O)c1ccc(-c2c3nc(c(-c4ccc(S(=O)(=O)[O-])cc4)c4ccc([nH]4)c(-c4ccc(S(=O)(=O)[O-])cc4)c4nc(c(-c5ccc(S(=O)(=O)[O-])cc5)c5ccc2[nH]5)C=C4)C=C3)cc1
REMARK SMILES IDX 20 1 19 2 18 3 17 4 15 5 16 6 2 8 1 9 3 10 4 11 5 12 6 13
REMARK SMILES IDX 12 14 7 16 11 17 13 18 14 19 8 20 10 21 9 22 21 25 22 26
REMARK SMILES IDX 23 27 24 29 25 30 26 31 84 32 27 33 83 34 28 35 29 36 30 37
REMARK SMILES IDX 77 38 31 39 82 40 76 41 78 42 32 43 81 44 75 45 74 46 33 48
REMARK SMILES IDX 63 49 44 50 62 51 45 52 48 53 61 54 79 55 46 56 47 57 60 59
REMARK SMILES IDX 80 60 49 61 34 62 35 63 43 64 36 65 42 66 37 67 38 68 39 69
REMARK SMILES IDX 40 70 41 71 64 72 65 73 73 74 66 75 72 76 67 77 68 78 69 79
REMARK SMILES IDX 70 80 71 81 50 82 51 83 59 84 52 85 58 86 53 87 54 88 55 89
REMARK SMILES IDX 56 90 57 91
REMARK H PARENT 17 7 5 15 9 23 9 24 22 28 78 47 48 58
REMARK Flexibility Score: inf
ROOT
ATOM      1  C   UNL A   1      33.043  27.848  26.844  1.00  0.00     0.023 C 
ENDROOT
BRANCH   1   2
ATOM      2  C   UNL A   1      31.586  27.997  26.410  1.00  0.00     0.023 C 
BRANCH   2   3
ATOM      3  C   UNL A   1      31.052  26.842  25.574  1.00  0.00     0.116 C 
BRANCH   3   4
ATOM      4  N   UNL A   1      30.324  25.886  26.380  1.00  0.00    -0.355 N 
ATOM      5  C   UNL A   1      30.309  24.529  26.411  1.00  0.00     0.231 C 
ATOM      6  O   UNL A   1      29.530  24.028  27.232  1.00  0.00    -0.274 OA
ATOM      7  H   UNL A   1      29.720  26.302  27.037  1.00  0.00     0.163 HD
BRANCH   5   8
ATOM      8  C   UNL A   1      31.216  23.650  25.526  1.00  0.00     0.092 C 
ATOM      9  C   UNL A   1      30.997  24.095  24.061  1.00  0.00     0.027 C 
ATOM     10  C   UNL A   1      30.704  22.184  25.504  1.00  0.00     0.027 C 
BRANCH   8  11
ATOM     11  C   UNL A   1      32.718  23.675  26.012  1.00  0.00     0.279 C 
BRANCH  11  12
ATOM     12  N   UNL A   1      33.853  23.866  25.080  1.00  0.00    -0.329 N 
ATOM     13  C   UNL A   1      35.017  24.561  25.735  1.00  0.00     0.272 C 
ATOM     14  C   UNL A   1      34.398  22.671  24.336  1.00  0.00     0.101 C 
ATOM     15  H   UNL A   1      33.394  24.435  24.369  1.00  0.00     0.348 HD
ATOM     16  C   UNL A   1      36.108  23.522  25.731  1.00  0.00     0.114 C 
ATOM     17  C   UNL A   1      35.909  22.936  24.361  1.00  0.00     0.119 C 
ATOM     18  C   UNL A   1      34.122  21.285  24.951  1.00  0.00     0.079 C 
ATOM     19  C   UNL A   1      33.936  22.764  22.869  1.00  0.00     0.079 C 
ATOM     20  C   UNL A   1      37.589  23.789  25.692  1.00  0.00     0.270 C 
ATOM     21  C   UNL A   1      37.006  21.899  24.319  1.00  0.00     0.271 C 
ATOM     22  N   UNL A   1      38.123  22.552  25.052  1.00  0.00    -0.345 N 
ATOM     23  H   UNL A   1      38.484  21.921  25.767  1.00  0.00     0.346 HD
ATOM     24  H   UNL A   1      38.883  22.782  24.412  1.00  0.00     0.346 HD
ENDBRANCH  11  12
ENDBRANCH   8  11
ENDBRANCH   5   8
ENDBRANCH   3   4
ENDBRANCH   2   3
ENDBRANCH   1   2
BRANCH   1  25
ATOM     25  C   UNL A   1      34.005  28.860  26.233  1.00  0.00     0.116 C 
BRANCH  25  26
ATOM     26  N   UNL A   1      33.702  30.232  26.612  1.00  0.00    -0.352 N 
ATOM     27  C   UNL A   1      34.356  31.037  27.512  1.00  0.00     0.251 C 
ATOM     28  H   UNL A   1      32.925  30.636  26.164  1.00  0.00     0.163 HD
ATOM     29  O   UNL A   1      33.884  32.131  27.811  1.00  0.00    -0.269 OA
BRANCH  27  30
ATOM     30  C   UNL A   1      35.605  30.562  28.136  1.00  0.00     0.039 A 
ATOM     31  C   UNL A   1      36.824  31.049  27.662  1.00  0.00     0.014 A 
ATOM     32  C   UNL A   1      35.572  29.659  29.203  1.00  0.00     0.014 A 
ATOM     33  C   UNL A   1      38.008  30.663  28.288  1.00  0.00     0.010 A 
ATOM     34  C   UNL A   1      36.745  29.348  29.881  1.00  0.00     0.010 A 
ATOM     35  C   UNL A   1      37.978  29.829  29.419  1.00  0.00    -0.014 A 
BRANCH  35  36
ATOM     36  C   UNL A   1      39.232  29.430  30.105  1.00  0.00     0.031 A 
ATOM     37  C   UNL A   1      39.662  30.139  31.364  1.00  0.00     0.074 A 
ATOM     38  C   UNL A   1      39.999  28.452  29.582  1.00  0.00     0.049 A 
ATOM     39  N   UNL A   1      40.718  29.931  32.107  1.00  0.00    -0.248 NA
ATOM     40  C   UNL A   1      38.809  31.243  31.835  1.00  0.00     0.031 C 
ATOM     41  C   UNL A   1      39.718  27.728  28.339  1.00  0.00     0.029 A 
ATOM     42  N   UNL A   1      41.171  27.896  30.030  1.00  0.00    -0.354 N 
ATOM     43  C   UNL A   1      40.664  30.884  33.117  1.00  0.00     0.074 A 
ATOM     44  C   UNL A   1      39.504  31.708  32.861  1.00  0.00     0.031 C 
ATOM     45  C   UNL A   1      40.671  26.801  28.145  1.00  0.00     0.029 A 
ATOM     46  C   UNL A   1      41.647  26.888  29.226  1.00  0.00     0.049 A 
ATOM     47  H   UNL A   1      41.627  28.193  30.851  1.00  0.00     0.167 HD
ATOM     48  C   UNL A   1      41.490  31.044  34.178  1.00  0.00     0.031 A 
ATOM     49  C   UNL A   1      42.746  26.118  29.347  1.00  0.00     0.031 A 
ATOM     50  C   UNL A   1      42.634  30.210  34.438  1.00  0.00     0.049 A 
ATOM     51  C   UNL A   1      43.639  26.305  30.544  1.00  0.00     0.074 A 
ATOM     52  C   UNL A   1      43.498  30.249  35.517  1.00  0.00     0.029 A 
ATOM     53  N   UNL A   1      43.070  29.186  33.611  1.00  0.00    -0.354 N 
ATOM     54  N   UNL A   1      43.527  27.163  31.531  1.00  0.00    -0.248 NA
ATOM     55  C   UNL A   1      44.792  25.402  30.657  1.00  0.00     0.031 C 
ATOM     56  C   UNL A   1      44.493  29.287  35.314  1.00  0.00     0.029 A 
ATOM     57  C   UNL A   1      44.206  28.600  34.146  1.00  0.00     0.049 A 
ATOM     58  H   UNL A   1      42.638  28.916  32.769  1.00  0.00     0.167 HD
ATOM     59  C   UNL A   1      44.576  26.878  32.400  1.00  0.00     0.074 A 
ATOM     60  C   UNL A   1      45.295  25.757  31.830  1.00  0.00     0.031 C 
ATOM     61  C   UNL A   1      44.911  27.485  33.565  1.00  0.00     0.031 A 
BRANCH  48  62
ATOM     62  C   UNL A   1      41.191  32.167  35.137  1.00  0.00    -0.014 A 
ATOM     63  C   UNL A   1      40.396  31.959  36.280  1.00  0.00     0.010 A 
ATOM     64  C   UNL A   1      41.759  33.437  34.924  1.00  0.00     0.010 A 
ATOM     65  C   UNL A   1      40.149  33.006  37.171  1.00  0.00     0.020 A 
ATOM     66  C   UNL A   1      41.540  34.478  35.830  1.00  0.00     0.020 A 
ATOM     67  C   UNL A   1      40.725  34.259  36.942  1.00  0.00     0.054 A 
BRANCH  67  68
ATOM     68  S   UNL A   1      40.425  35.586  38.141  1.00  0.00     0.124 S 
ATOM     69  O   UNL A   1      39.421  34.982  39.014  1.00  0.00    -0.237 OA
ATOM     70  O   UNL A   1      41.744  35.777  38.741  1.00  0.00    -0.237 OA
ATOM     71  O   UNL A   1      39.950  36.695  37.321  1.00  0.00    -0.744 OA
ENDBRANCH  67  68
ENDBRANCH  48  62
BRANCH  49  72
ATOM     72  C   UNL A   1      43.055  25.087  28.317  1.00  0.00    -0.014 A 
ATOM     73  C   UNL A   1      42.603  23.763  28.463  1.00  0.00     0.010 A 
ATOM     74  C   UNL A   1      43.815  25.425  27.182  1.00  0.00     0.010 A 
ATOM     75  C   UNL A   1      42.934  22.791  27.514  1.00  0.00     0.020 A 
ATOM     76  C   UNL A   1      44.120  24.464  26.214  1.00  0.00     0.020 A 
ATOM     77  C   UNL A   1      43.691  23.149  26.395  1.00  0.00     0.054 A 
BRANCH  77  78
ATOM     78  S   UNL A   1      44.083  21.878  25.160  1.00  0.00     0.124 S 
ATOM     79  O   UNL A   1      43.938  22.616  23.909  1.00  0.00    -0.237 OA
ATOM     80  O   UNL A   1      45.448  21.500  25.519  1.00  0.00    -0.237 OA
ATOM     81  O   UNL A   1      43.076  20.846  25.399  1.00  0.00    -0.744 OA
ENDBRANCH  77  78
ENDBRANCH  49  72
BRANCH  61  82
ATOM     82  C   UNL A   1      46.077  26.914  34.331  1.00  0.00    -0.014 A 
ATOM     83  C   UNL A   1      47.393  27.358  34.114  1.00  0.00     0.010 A 
ATOM     84  C   UNL A   1      45.841  25.922  35.301  1.00  0.00     0.010 A 
ATOM     85  C   UNL A   1      48.458  26.778  34.809  1.00  0.00     0.020 A 
ATOM     86  C   UNL A   1      46.898  25.366  36.025  1.00  0.00     0.020 A 
ATOM     87  C   UNL A   1      48.203  25.779  35.755  1.00  0.00     0.054 A 
BRANCH  87  88
ATOM     88  S   UNL A   1      49.600  25.040  36.644  1.00  0.00     0.124 S 
ATOM     89  O   UNL A   1      48.931  24.055  37.490  1.00  0.00    -0.237 OA
ATOM     90  O   UNL A   1      50.413  24.489  35.561  1.00  0.00    -0.237 OA
ATOM     91  O   UNL A   1      50.198  26.168  37.353  1.00  0.00    -0.744 OA
ENDBRANCH  87  88
ENDBRANCH  61  82
ENDBRANCH  35  36
ENDBRANCH  27  30
ENDBRANCH  25  26
ENDBRANCH   1  25
TORSDOF 16
ENDMDL
