MODEL 1
REMARK VINA RESULT:     -12.2      0.000      0.000
REMARK SMILES O=C(NCCCCNC(=O)c1nccnc1C(=O)Nc1n[nH]c2ncccc12)c1ccc(-c2c3nc(c(-c4ccc(S(=O)(=O)[O-])cc4)c4ccc([nH]4)c(-c4ccc(S(=O)(=O)[O-])cc4)c4nc(c(-c5ccc(S(=O)(=O)[O-])cc5)c5ccc2[nH]5)C=C4)C=C3)cc1
REMARK SMILES IDX 5 1 4 2 3 3 1 4 2 5 29 7 30 8 88 9 31 10 87 11 32 12 33 13
REMARK SMILES IDX 34 14 81 15 35 16 86 17 80 18 82 19 36 20 85 21 79 22 78 23
REMARK SMILES IDX 37 25 67 26 48 27 66 28 49 29 52 30 65 31 83 32 50 33 51 34
REMARK SMILES IDX 64 36 84 37 53 38 38 39 39 40 47 41 40 42 46 43 41 44 42 45
REMARK SMILES IDX 43 46 44 47 45 48 68 49 69 50 77 51 70 52 76 53 71 54 72 55
REMARK SMILES IDX 73 56 74 57 75 58 54 59 55 60 63 61 56 62 62 63 57 64 58 65
REMARK SMILES IDX 59 66 60 67 61 68 6 69 7 70 8 71 9 72 10 74 11 75 12 76
REMARK SMILES IDX 16 77 13 78 15 79 14 80 17 81 18 82 19 83 20 85 21 86 28 87
REMARK SMILES IDX 22 88 23 89 27 90 24 92 26 93 25 94
REMARK H PARENT 3 6 82 24 52 35 8 73 19 84 22 91
REMARK Flexibility Score: inf
ROOT
ATOM      1  C   UNL A   1      33.148  27.765  26.047  1.00  0.00     0.023 C 
ENDROOT
BRANCH   1   2
ATOM      2  C   UNL A   1      33.339  28.321  27.453  1.00  0.00     0.116 C 
BRANCH   2   3
ATOM      3  N   UNL A   1      33.231  29.765  27.620  1.00  0.00    -0.352 N 
ATOM      4  O   UNL A   1      34.134  31.844  27.849  1.00  0.00    -0.269 OA
ATOM      5  C   UNL A   1      34.289  30.630  27.825  1.00  0.00     0.251 C 
ATOM      6  H   UNL A   1      32.328  30.156  27.586  1.00  0.00     0.163 HD
BRANCH   5   7
ATOM      7  C   UNL A   1      35.595  30.010  28.126  1.00  0.00     0.039 A 
ATOM      8  C   UNL A   1      35.925  29.708  29.446  1.00  0.00     0.014 A 
ATOM      9  C   UNL A   1      36.569  30.019  27.125  1.00  0.00     0.014 A 
ATOM     10  C   UNL A   1      37.264  29.639  29.801  1.00  0.00     0.010 A 
ATOM     11  C   UNL A   1      37.903  29.803  27.469  1.00  0.00     0.010 A 
ATOM     12  C   UNL A   1      38.268  29.656  28.816  1.00  0.00    -0.014 A 
BRANCH  12  13
ATOM     13  C   UNL A   1      39.679  29.418  29.210  1.00  0.00     0.031 A 
ATOM     14  C   UNL A   1      40.520  30.483  29.862  1.00  0.00     0.074 A 
ATOM     15  C   UNL A   1      40.199  28.202  28.949  1.00  0.00     0.049 A 
ATOM     16  N   UNL A   1      41.782  30.430  30.205  1.00  0.00    -0.248 NA
ATOM     17  C   UNL A   1      39.875  31.773  30.156  1.00  0.00     0.031 C 
ATOM     18  C   UNL A   1      39.473  27.096  28.313  1.00  0.00     0.029 A 
ATOM     19  N   UNL A   1      41.443  27.684  29.188  1.00  0.00    -0.354 N 
ATOM     20  C   UNL A   1      42.094  31.684  30.723  1.00  0.00     0.074 A 
ATOM     21  C   UNL A   1      40.890  32.483  30.635  1.00  0.00     0.031 C 
ATOM     22  C   UNL A   1      40.264  26.018  28.264  1.00  0.00     0.029 A 
ATOM     23  C   UNL A   1      41.581  26.384  28.761  1.00  0.00     0.049 A 
ATOM     24  H   UNL A   1      42.167  28.190  29.622  1.00  0.00     0.167 HD
ATOM     25  C   UNL A   1      43.278  32.122  31.218  1.00  0.00     0.031 A 
ATOM     26  C   UNL A   1      42.657  25.580  28.723  1.00  0.00     0.031 A 
ATOM     27  C   UNL A   1      44.469  31.308  31.289  1.00  0.00     0.049 A 
ATOM     28  C   UNL A   1      43.962  26.106  29.234  1.00  0.00     0.074 A 
ATOM     29  C   UNL A   1      45.708  31.642  31.809  1.00  0.00     0.029 A 
ATOM     30  N   UNL A   1      44.575  30.006  30.818  1.00  0.00    -0.354 N 
ATOM     31  N   UNL A   1      44.227  27.283  29.749  1.00  0.00    -0.248 NA
ATOM     32  C   UNL A   1      45.111  25.198  29.163  1.00  0.00     0.031 C 
ATOM     33  C   UNL A   1      46.582  30.575  31.580  1.00  0.00     0.029 A 
ATOM     34  C   UNL A   1      45.866  29.539  30.999  1.00  0.00     0.049 A 
ATOM     35  H   UNL A   1      43.840  29.491  30.413  1.00  0.00     0.167 HD
ATOM     36  C   UNL A   1      45.573  27.248  30.088  1.00  0.00     0.074 A 
ATOM     37  C   UNL A   1      46.056  25.926  29.739  1.00  0.00     0.031 C 
ATOM     38  C   UNL A   1      46.338  28.224  30.639  1.00  0.00     0.031 A 
BRANCH  25  39
ATOM     39  C   UNL A   1      43.372  33.555  31.687  1.00  0.00    -0.014 A 
ATOM     40  C   UNL A   1      43.137  33.912  33.027  1.00  0.00     0.010 A 
ATOM     41  C   UNL A   1      43.775  34.554  30.780  1.00  0.00     0.010 A 
ATOM     42  C   UNL A   1      43.270  35.242  33.441  1.00  0.00     0.020 A 
ATOM     43  C   UNL A   1      43.940  35.880  31.197  1.00  0.00     0.020 A 
ATOM     44  C   UNL A   1      43.672  36.217  32.524  1.00  0.00     0.054 A 
BRANCH  44  45
ATOM     45  S   UNL A   1      43.864  37.927  33.099  1.00  0.00     0.124 S 
ATOM     46  O   UNL A   1      45.174  37.883  33.744  1.00  0.00    -0.237 OA
ATOM     47  O   UNL A   1      43.802  38.690  31.855  1.00  0.00    -0.237 OA
ATOM     48  O   UNL A   1      42.732  38.120  34.003  1.00  0.00    -0.744 OA
ENDBRANCH  44  45
ENDBRANCH  25  39
BRANCH  26  49
ATOM     49  C   UNL A   1      42.532  24.216  28.145  1.00  0.00    -0.014 A 
ATOM     50  C   UNL A   1      42.279  23.108  28.969  1.00  0.00     0.010 A 
ATOM     51  C   UNL A   1      42.617  24.029  26.751  1.00  0.00     0.010 A 
ATOM     52  C   UNL A   1      42.131  21.834  28.412  1.00  0.00     0.020 A 
ATOM     53  C   UNL A   1      42.430  22.766  26.187  1.00  0.00     0.020 A 
ATOM     54  C   UNL A   1      42.201  21.674  27.024  1.00  0.00     0.054 A 
BRANCH  54  55
ATOM     55  S   UNL A   1      41.953  20.020  26.325  1.00  0.00     0.124 S 
ATOM     56  O   UNL A   1      42.339  19.160  27.438  1.00  0.00    -0.237 OA
ATOM     57  O   UNL A   1      40.530  20.031  25.994  1.00  0.00    -0.237 OA
ATOM     58  O   UNL A   1      42.852  19.996  25.174  1.00  0.00    -0.744 OA
ENDBRANCH  54  55
ENDBRANCH  26  49
BRANCH  38  59
ATOM     59  C   UNL A   1      47.772  27.880  30.938  1.00  0.00    -0.014 A 
ATOM     60  C   UNL A   1      48.147  27.279  32.154  1.00  0.00     0.010 A 
ATOM     61  C   UNL A   1      48.758  28.130  29.966  1.00  0.00     0.010 A 
ATOM     62  C   UNL A   1      49.487  26.971  32.404  1.00  0.00     0.020 A 
ATOM     63  C   UNL A   1      50.091  27.789  30.197  1.00  0.00     0.020 A 
ATOM     64  C   UNL A   1      50.449  27.225  31.422  1.00  0.00     0.054 A 
BRANCH  64  65
ATOM     65  S   UNL A   1      52.173  26.773  31.756  1.00  0.00     0.124 S 
ATOM     66  O   UNL A   1      52.795  26.960  30.447  1.00  0.00    -0.237 OA
ATOM     67  O   UNL A   1      52.561  27.739  32.781  1.00  0.00    -0.237 OA
ATOM     68  O   UNL A   1      52.088  25.387  32.212  1.00  0.00    -0.744 OA
ENDBRANCH  64  65
ENDBRANCH  38  59
ENDBRANCH  12  13
ENDBRANCH   5   7
ENDBRANCH   2   3
ENDBRANCH   1   2
BRANCH   1  69
ATOM     69  C   UNL A   1      32.844  26.096  25.766  1.00  0.00     0.023 C 
BRANCH  69  70
ATOM     70  C   UNL A   1      31.360  24.660  26.523  1.00  0.00     0.116 C 
BRANCH  70  71
ATOM     71  N   UNL A   1      31.162  23.075  26.301  1.00  0.00    -0.351 N 
ATOM     72  C   UNL A   1      31.985  22.159  25.671  1.00  0.00     0.272 C 
ATOM     73  H   UNL A   1      30.328  22.702  26.669  1.00  0.00     0.163 HD
ATOM     74  O   UNL A   1      31.638  21.004  25.463  1.00  0.00    -0.267 OA
BRANCH  72  75
ATOM     75  C   UNL A   1      33.324  22.627  25.276  1.00  0.00     0.159 A 
ATOM     76  N   UNL A   1      34.171  22.797  26.346  1.00  0.00    -0.247 NA
ATOM     77  C   UNL A   1      33.659  23.001  23.980  1.00  0.00     0.159 A 
ATOM     78  C   UNL A   1      35.369  23.342  26.071  1.00  0.00     0.132 A 
ATOM     79  N   UNL A   1      34.886  23.563  23.729  1.00  0.00    -0.247 NA
ATOM     80  C   UNL A   1      35.718  23.718  24.789  1.00  0.00     0.132 A 
BRANCH  77  81
ATOM     81  C   UNL A   1      32.828  22.789  22.754  1.00  0.00     0.277 C 
ATOM     82  O   UNL A   1      32.755  21.637  22.313  1.00  0.00    -0.267 OA
ATOM     83  N   UNL A   1      32.117  23.774  22.110  1.00  0.00    -0.303 N 
ATOM     84  H   UNL A   1      31.514  23.451  21.401  1.00  0.00     0.172 HD
BRANCH  83  85
ATOM     85  C   UNL A   1      32.112  25.131  22.292  1.00  0.00     0.164 A 
ATOM     86  N   UNL A   1      33.164  25.828  21.825  1.00  0.00    -0.155 NA
ATOM     87  C   UNL A   1      31.075  25.940  22.800  1.00  0.00     0.063 A 
ATOM     88  N   UNL A   1      32.792  27.126  21.622  1.00  0.00    -0.259 N 
ATOM     89  C   UNL A   1      31.555  27.451  22.103  1.00  0.00     0.157 A 
ATOM     90  C   UNL A   1      29.503  25.866  23.657  1.00  0.00     0.017 A 
ATOM     91  H   UNL A   1      33.371  27.778  21.163  1.00  0.00     0.192 HD
ATOM     92  N   UNL A   1      30.543  28.861  22.056  1.00  0.00    -0.237 NA
ATOM     93  C   UNL A   1      28.417  27.279  23.699  1.00  0.00     0.021 A 
ATOM     94  C   UNL A   1      28.984  28.748  22.925  1.00  0.00     0.113 A 
ENDBRANCH  83  85
ENDBRANCH  77  81
ENDBRANCH  72  75
ENDBRANCH  70  71
ENDBRANCH  69  70
ENDBRANCH   1  69
TORSDOF 16
ENDMDL
MODEL 2
REMARK VINA RESULT:     -12.2      0.879      8.134
REMARK SMILES O=C(NCCCCNC(=O)c1nccnc1C(=O)Nc1n[nH]c2ncccc12)c1ccc(-c2c3nc(c(-c4ccc(S(=O)(=O)[O-])cc4)c4ccc([nH]4)c(-c4ccc(S(=O)(=O)[O-])cc4)c4nc(c(-c5ccc(S(=O)(=O)[O-])cc5)c5ccc2[nH]5)C=C4)C=C3)cc1
REMARK SMILES IDX 5 1 4 2 3 3 1 4 2 5 29 7 30 8 88 9 31 10 87 11 32 12 33 13
REMARK SMILES IDX 34 14 81 15 35 16 86 17 80 18 82 19 36 20 85 21 79 22 78 23
REMARK SMILES IDX 37 25 67 26 48 27 66 28 49 29 52 30 65 31 83 32 50 33 51 34
REMARK SMILES IDX 64 36 84 37 53 38 38 39 39 40 47 41 40 42 46 43 41 44 42 45
REMARK SMILES IDX 43 46 44 47 45 48 68 49 69 50 77 51 70 52 76 53 71 54 72 55
REMARK SMILES IDX 73 56 74 57 75 58 54 59 55 60 63 61 56 62 62 63 57 64 58 65
REMARK SMILES IDX 59 66 60 67 61 68 6 69 7 70 8 71 9 72 10 74 11 75 12 76
REMARK SMILES IDX 16 77 13 78 15 79 14 80 17 81 18 82 19 83 20 85 21 86 28 87
REMARK SMILES IDX 22 88 23 89 27 90 24 92 26 93 25 94
REMARK H PARENT 3 6 82 24 52 35 8 73 19 84 22 91
REMARK Flexibility Score: inf
ROOT
ATOM      1  C   UNL A   1      32.533  28.483  26.073  1.00  0.00     0.023 C 
ENDROOT
BRANCH   1   2
ATOM      2  C   UNL A   1      33.750  28.969  26.852  1.00  0.00     0.116 C 
BRANCH   2   3
ATOM      3  N   UNL A   1      33.584  30.162  27.673  1.00  0.00    -0.352 N 
ATOM      4  O   UNL A   1      34.401  31.870  28.941  1.00  0.00    -0.269 OA
ATOM      5  C   UNL A   1      34.594  30.811  28.358  1.00  0.00     0.251 C 
ATOM      6  H   UNL A   1      32.677  30.537  27.746  1.00  0.00     0.163 HD
BRANCH   5   7
ATOM      7  C   UNL A   1      35.887  30.102  28.447  1.00  0.00     0.039 A 
ATOM      8  C   UNL A   1      36.283  29.542  29.661  1.00  0.00     0.014 A 
ATOM      9  C   UNL A   1      36.797  30.272  27.402  1.00  0.00     0.014 A 
ATOM     10  C   UNL A   1      37.636  29.363  29.904  1.00  0.00     0.010 A 
ATOM     11  C   UNL A   1      38.139  29.950  27.606  1.00  0.00     0.010 A 
ATOM     12  C   UNL A   1      38.578  29.536  28.873  1.00  0.00    -0.014 A 
BRANCH  12  13
ATOM     13  C   UNL A   1      39.998  29.181  29.118  1.00  0.00     0.031 A 
ATOM     14  C   UNL A   1      40.570  27.847  28.721  1.00  0.00     0.074 A 
ATOM     15  C   UNL A   1      40.771  30.101  29.730  1.00  0.00     0.049 A 
ATOM     16  N   UNL A   1      41.777  27.382  28.926  1.00  0.00    -0.248 NA
ATOM     17  C   UNL A   1      39.681  26.908  28.018  1.00  0.00     0.031 C 
ATOM     18  C   UNL A   1      40.316  31.427  30.164  1.00  0.00     0.029 A 
ATOM     19  N   UNL A   1      42.092  30.075  30.086  1.00  0.00    -0.354 N 
ATOM     20  C   UNL A   1      41.786  26.089  28.411  1.00  0.00     0.074 A 
ATOM     21  C   UNL A   1      40.456  25.836  27.896  1.00  0.00     0.031 C 
ATOM     22  C   UNL A   1      41.350  32.105  30.675  1.00  0.00     0.029 A 
ATOM     23  C   UNL A   1      42.511  31.227  30.706  1.00  0.00     0.049 A 
ATOM     24  H   UNL A   1      42.684  29.307  29.915  1.00  0.00     0.167 HD
ATOM     25  C   UNL A   1      42.809  25.200  28.380  1.00  0.00     0.031 A 
ATOM     26  C   UNL A   1      43.683  31.541  31.284  1.00  0.00     0.031 A 
ATOM     27  C   UNL A   1      44.125  25.472  28.907  1.00  0.00     0.049 A 
ATOM     28  C   UNL A   1      44.779  30.522  31.275  1.00  0.00     0.074 A 
ATOM     29  C   UNL A   1      45.244  24.655  28.891  1.00  0.00     0.029 A 
ATOM     30  N   UNL A   1      44.500  26.642  29.555  1.00  0.00    -0.354 N 
ATOM     31  N   UNL A   1      44.777  29.318  30.755  1.00  0.00    -0.248 NA
ATOM     32  C   UNL A   1      46.037  30.903  31.927  1.00  0.00     0.031 C 
ATOM     33  C   UNL A   1      46.266  25.297  29.596  1.00  0.00     0.029 A 
ATOM     34  C   UNL A   1      45.817  26.552  29.975  1.00  0.00     0.049 A 
ATOM     35  H   UNL A   1      43.914  27.421  29.696  1.00  0.00     0.167 HD
ATOM     36  C   UNL A   1      46.044  28.804  30.995  1.00  0.00     0.074 A 
ATOM     37  C   UNL A   1      46.789  29.838  31.687  1.00  0.00     0.031 C 
ATOM     38  C   UNL A   1      46.544  27.586  30.671  1.00  0.00     0.031 A 
BRANCH  25  39
ATOM     39  C   UNL A   1      42.550  23.830  27.798  1.00  0.00    -0.014 A 
ATOM     40  C   UNL A   1      42.787  23.547  26.441  1.00  0.00     0.010 A 
ATOM     41  C   UNL A   1      42.128  22.787  28.644  1.00  0.00     0.010 A 
ATOM     42  C   UNL A   1      42.575  22.258  25.937  1.00  0.00     0.020 A 
ATOM     43  C   UNL A   1      41.946  21.490  28.152  1.00  0.00     0.020 A 
ATOM     44  C   UNL A   1      42.158  21.237  26.796  1.00  0.00     0.054 A 
BRANCH  44  45
ATOM     45  S   UNL A   1      41.921  19.571  26.118  1.00  0.00     0.124 S 
ATOM     46  O   UNL A   1      42.756  19.612  24.920  1.00  0.00    -0.237 OA
ATOM     47  O   UNL A   1      42.410  18.717  27.196  1.00  0.00    -0.237 OA
ATOM     48  O   UNL A   1      40.483  19.496  25.870  1.00  0.00    -0.744 OA
ENDBRANCH  44  45
ENDBRANCH  25  39
BRANCH  26  49
ATOM     49  C   UNL A   1      43.844  32.864  31.944  1.00  0.00    -0.014 A 
ATOM     50  C   UNL A   1      43.569  33.022  33.311  1.00  0.00     0.010 A 
ATOM     51  C   UNL A   1      44.325  33.965  31.209  1.00  0.00     0.010 A 
ATOM     52  C   UNL A   1      43.755  34.262  33.929  1.00  0.00     0.020 A 
ATOM     53  C   UNL A   1      44.550  35.194  31.830  1.00  0.00     0.020 A 
ATOM     54  C   UNL A   1      44.250  35.338  33.184  1.00  0.00     0.054 A 
BRANCH  54  55
ATOM     55  S   UNL A   1      44.532  36.920  34.023  1.00  0.00     0.124 S 
ATOM     56  O   UNL A   1      45.967  36.875  34.280  1.00  0.00    -0.237 OA
ATOM     57  O   UNL A   1      44.096  37.888  33.019  1.00  0.00    -0.237 OA
ATOM     58  O   UNL A   1      43.681  36.837  35.208  1.00  0.00    -0.744 OA
ENDBRANCH  54  55
ENDBRANCH  26  49
BRANCH  38  59
ATOM     59  C   UNL A   1      47.983  27.321  31.026  1.00  0.00    -0.014 A 
ATOM     60  C   UNL A   1      48.343  26.738  32.255  1.00  0.00     0.010 A 
ATOM     61  C   UNL A   1      48.990  27.630  30.093  1.00  0.00     0.010 A 
ATOM     62  C   UNL A   1      49.687  26.504  32.557  1.00  0.00     0.020 A 
ATOM     63  C   UNL A   1      50.330  27.362  30.376  1.00  0.00     0.020 A 
ATOM     64  C   UNL A   1      50.671  26.814  31.613  1.00  0.00     0.054 A 
BRANCH  64  65
ATOM     65  S   UNL A   1      52.403  26.458  32.014  1.00  0.00     0.124 S 
ATOM     66  O   UNL A   1      53.036  27.760  31.813  1.00  0.00    -0.237 OA
ATOM     67  O   UNL A   1      52.321  26.005  33.400  1.00  0.00    -0.237 OA
ATOM     68  O   UNL A   1      52.779  25.428  31.048  1.00  0.00    -0.744 OA
ENDBRANCH  64  65
ENDBRANCH  38  59
ENDBRANCH  12  13
ENDBRANCH   5   7
ENDBRANCH   2   3
ENDBRANCH   1   2
BRANCH   1  69
ATOM     69  C   UNL A   1      31.677  27.062  26.524  1.00  0.00     0.023 C 
BRANCH  69  70
ATOM     70  C   UNL A   1      32.118  24.910  26.427  1.00  0.00     0.116 C 
BRANCH  70  71
ATOM     71  N   UNL A   1      31.176  23.605  26.341  1.00  0.00    -0.351 N 
ATOM     72  C   UNL A   1      31.451  22.345  25.843  1.00  0.00     0.272 C 
ATOM     73  H   UNL A   1      30.265  23.723  26.696  1.00  0.00     0.163 HD
ATOM     74  O   UNL A   1      30.587  21.486  25.724  1.00  0.00    -0.267 OA
BRANCH  72  75
ATOM     75  C   UNL A   1      32.850  22.062  25.480  1.00  0.00     0.159 A 
ATOM     76  N   UNL A   1      33.668  21.906  26.575  1.00  0.00    -0.247 NA
ATOM     77  C   UNL A   1      33.330  22.094  24.177  1.00  0.00     0.159 A 
ATOM     78  C   UNL A   1      34.980  21.770  26.317  1.00  0.00     0.132 A 
ATOM     79  N   UNL A   1      34.677  21.962  23.943  1.00  0.00    -0.247 NA
ATOM     80  C   UNL A   1      35.474  21.799  25.028  1.00  0.00     0.132 A 
BRANCH  77  81
ATOM     81  C   UNL A   1      32.506  22.190  22.932  1.00  0.00     0.277 C 
ATOM     82  O   UNL A   1      32.161  21.130  22.399  1.00  0.00    -0.267 OA
ATOM     83  N   UNL A   1      32.080  23.368  22.363  1.00  0.00    -0.303 N 
ATOM     84  H   UNL A   1      31.435  23.260  21.626  1.00  0.00     0.172 HD
BRANCH  83  85
ATOM     85  C   UNL A   1      32.407  24.665  22.653  1.00  0.00     0.164 A 
ATOM     86  N   UNL A   1      33.679  25.050  22.445  1.00  0.00    -0.155 NA
ATOM     87  C   UNL A   1      31.549  25.718  23.030  1.00  0.00     0.063 A 
ATOM     88  N   UNL A   1      33.721  26.406  22.286  1.00  0.00    -0.259 N 
ATOM     89  C   UNL A   1      32.549  27.053  22.560  1.00  0.00     0.157 A 
ATOM     90  C   UNL A   1      29.879  26.067  23.578  1.00  0.00     0.017 A 
ATOM     91  H   UNL A   1      34.534  26.881  21.996  1.00  0.00     0.192 HD
ATOM     92  N   UNL A   1      31.988  28.691  22.447  1.00  0.00    -0.237 NA
ATOM     93  C   UNL A   1      29.232  27.727  23.540  1.00  0.00     0.021 A 
ATOM     94  C   UNL A   1      30.317  28.998  23.007  1.00  0.00     0.113 A 
ENDBRANCH  83  85
ENDBRANCH  77  81
ENDBRANCH  72  75
ENDBRANCH  70  71
ENDBRANCH  69  70
ENDBRANCH   1  69
TORSDOF 16
ENDMDL
MODEL 3
REMARK VINA RESULT:     -12.1      4.455     10.007
REMARK SMILES O=C(NCCCCNC(=O)c1nccnc1C(=O)Nc1n[nH]c2ncccc12)c1ccc(-c2c3nc(c(-c4ccc(S(=O)(=O)[O-])cc4)c4ccc([nH]4)c(-c4ccc(S(=O)(=O)[O-])cc4)c4nc(c(-c5ccc(S(=O)(=O)[O-])cc5)c5ccc2[nH]5)C=C4)C=C3)cc1
REMARK SMILES IDX 5 1 4 2 3 3 1 4 2 5 29 7 30 8 88 9 31 10 87 11 32 12 33 13
REMARK SMILES IDX 34 14 81 15 35 16 86 17 80 18 82 19 36 20 85 21 79 22 78 23
REMARK SMILES IDX 37 25 67 26 48 27 66 28 49 29 52 30 65 31 83 32 50 33 51 34
REMARK SMILES IDX 64 36 84 37 53 38 38 39 39 40 47 41 40 42 46 43 41 44 42 45
REMARK SMILES IDX 43 46 44 47 45 48 68 49 69 50 77 51 70 52 76 53 71 54 72 55
REMARK SMILES IDX 73 56 74 57 75 58 54 59 55 60 63 61 56 62 62 63 57 64 58 65
REMARK SMILES IDX 59 66 60 67 61 68 6 69 7 70 8 71 9 72 10 74 11 75 12 76
REMARK SMILES IDX 16 77 13 78 15 79 14 80 17 81 18 82 19 83 20 85 21 86 28 87
REMARK SMILES IDX 22 88 23 89 27 90 24 92 26 93 25 94
REMARK H PARENT 3 6 82 24 52 35 8 73 19 84 22 91
REMARK Flexibility Score: inf
ROOT
ATOM      1  C   UNL A   1      37.013  23.549  25.621  1.00  0.00     0.023 C 
ENDROOT
BRANCH   1   2
ATOM      2  C   UNL A   1      38.072  24.261  26.454  1.00  0.00     0.116 C 
BRANCH   2   3
ATOM      3  N   UNL A   1      39.468  24.024  26.103  1.00  0.00    -0.352 N 
ATOM      4  O   UNL A   1      41.705  24.331  26.406  1.00  0.00    -0.269 OA
ATOM      5  C   UNL A   1      40.555  24.657  26.673  1.00  0.00     0.251 C 
ATOM      6  H   UNL A   1      39.650  23.359  25.401  1.00  0.00     0.163 HD
BRANCH   5   7
ATOM      7  C   UNL A   1      40.261  25.822  27.533  1.00  0.00     0.039 A 
ATOM      8  C   UNL A   1      41.060  26.961  27.445  1.00  0.00     0.014 A 
ATOM      9  C   UNL A   1      39.387  25.637  28.606  1.00  0.00     0.014 A 
ATOM     10  C   UNL A   1      41.147  27.802  28.544  1.00  0.00     0.010 A 
ATOM     11  C   UNL A   1      39.374  26.569  29.644  1.00  0.00     0.010 A 
ATOM     12  C   UNL A   1      40.286  27.634  29.645  1.00  0.00    -0.014 A 
BRANCH  12  13
ATOM     13  C   UNL A   1      40.290  28.644  30.732  1.00  0.00     0.031 A 
ATOM     14  C   UNL A   1      41.225  28.551  31.909  1.00  0.00     0.074 A 
ATOM     15  C   UNL A   1      39.407  29.658  30.642  1.00  0.00     0.049 A 
ATOM     16  N   UNL A   1      41.297  29.329  32.959  1.00  0.00    -0.248 NA
ATOM     17  C   UNL A   1      42.193  27.442  31.922  1.00  0.00     0.031 C 
ATOM     18  C   UNL A   1      38.448  29.842  29.545  1.00  0.00     0.029 A 
ATOM     19  N   UNL A   1      39.170  30.724  31.466  1.00  0.00    -0.354 N 
ATOM     20  C   UNL A   1      42.289  28.791  33.772  1.00  0.00     0.074 A 
ATOM     21  C   UNL A   1      42.782  27.607  33.100  1.00  0.00     0.031 C 
ATOM     22  C   UNL A   1      37.770  30.979  29.736  1.00  0.00     0.029 A 
ATOM     23  C   UNL A   1      38.164  31.546  31.017  1.00  0.00     0.049 A 
ATOM     24  H   UNL A   1      39.671  30.887  32.298  1.00  0.00     0.167 HD
ATOM     25  C   UNL A   1      42.737  29.244  34.970  1.00  0.00     0.031 A 
ATOM     26  C   UNL A   1      37.579  32.614  31.586  1.00  0.00     0.031 A 
ATOM     27  C   UNL A   1      42.223  30.423  35.625  1.00  0.00     0.049 A 
ATOM     28  C   UNL A   1      38.064  33.063  32.929  1.00  0.00     0.074 A 
ATOM     29  C   UNL A   1      42.634  30.991  36.820  1.00  0.00     0.029 A 
ATOM     30  N   UNL A   1      41.182  31.211  35.151  1.00  0.00    -0.354 N 
ATOM     31  N   UNL A   1      39.024  32.559  33.666  1.00  0.00    -0.248 NA
ATOM     32  C   UNL A   1      37.390  34.225  33.517  1.00  0.00     0.031 C 
ATOM     33  C   UNL A   1      41.793  32.069  37.105  1.00  0.00     0.029 A 
ATOM     34  C   UNL A   1      40.913  32.233  36.046  1.00  0.00     0.049 A 
ATOM     35  H   UNL A   1      40.705  31.063  34.302  1.00  0.00     0.167 HD
ATOM     36  C   UNL A   1      39.087  33.360  34.799  1.00  0.00     0.074 A 
ATOM     37  C   UNL A   1      38.082  34.393  34.634  1.00  0.00     0.031 C 
ATOM     38  C   UNL A   1      39.904  33.249  35.875  1.00  0.00     0.031 A 
BRANCH  25  39
ATOM     39  C   UNL A   1      43.805  28.448  35.682  1.00  0.00    -0.014 A 
ATOM     40  C   UNL A   1      45.172  28.741  35.527  1.00  0.00     0.010 A 
ATOM     41  C   UNL A   1      43.428  27.432  36.581  1.00  0.00     0.010 A 
ATOM     42  C   UNL A   1      46.139  28.012  36.229  1.00  0.00     0.020 A 
ATOM     43  C   UNL A   1      44.389  26.723  37.310  1.00  0.00     0.020 A 
ATOM     44  C   UNL A   1      45.741  27.009  37.118  1.00  0.00     0.054 A 
BRANCH  44  45
ATOM     45  S   UNL A   1      47.017  26.103  38.036  1.00  0.00     0.124 S 
ATOM     46  O   UNL A   1      48.178  26.977  37.881  1.00  0.00    -0.237 OA
ATOM     47  O   UNL A   1      46.455  26.038  39.382  1.00  0.00    -0.237 OA
ATOM     48  O   UNL A   1      47.106  24.822  37.338  1.00  0.00    -0.744 OA
ENDBRANCH  44  45
ENDBRANCH  25  39
BRANCH  26  49
ATOM     49  C   UNL A   1      36.453  33.290  30.890  1.00  0.00    -0.014 A 
ATOM     50  C   UNL A   1      35.164  33.295  31.446  1.00  0.00     0.010 A 
ATOM     51  C   UNL A   1      36.682  33.980  29.683  1.00  0.00     0.010 A 
ATOM     52  C   UNL A   1      34.119  33.961  30.799  1.00  0.00     0.020 A 
ATOM     53  C   UNL A   1      35.651  34.680  29.055  1.00  0.00     0.020 A 
ATOM     54  C   UNL A   1      34.373  34.654  29.611  1.00  0.00     0.054 A 
BRANCH  54  55
ATOM     55  S   UNL A   1      33.011  35.554  28.822  1.00  0.00     0.124 S 
ATOM     56  O   UNL A   1      33.725  36.561  28.043  1.00  0.00    -0.237 OA
ATOM     57  O   UNL A   1      32.349  34.506  28.050  1.00  0.00    -0.237 OA
ATOM     58  O   UNL A   1      32.239  36.068  29.951  1.00  0.00    -0.744 OA
ENDBRANCH  54  55
ENDBRANCH  26  49
BRANCH  38  59
ATOM     59  C   UNL A   1      39.772  34.302  36.944  1.00  0.00    -0.014 A 
ATOM     60  C   UNL A   1      39.032  34.070  38.117  1.00  0.00     0.010 A 
ATOM     61  C   UNL A   1      40.435  35.532  36.784  1.00  0.00     0.010 A 
ATOM     62  C   UNL A   1      38.927  35.065  39.092  1.00  0.00     0.020 A 
ATOM     63  C   UNL A   1      40.364  36.514  37.773  1.00  0.00     0.020 A 
ATOM     64  C   UNL A   1      39.597  36.279  38.915  1.00  0.00     0.054 A 
BRANCH  64  65
ATOM     65  S   UNL A   1      39.480  37.536  40.217  1.00  0.00     0.124 S 
ATOM     66  O   UNL A   1      40.873  37.955  40.361  1.00  0.00    -0.237 OA
ATOM     67  O   UNL A   1      38.584  38.525  39.623  1.00  0.00    -0.237 OA
ATOM     68  O   UNL A   1      38.928  36.806  41.356  1.00  0.00    -0.744 OA
ENDBRANCH  64  65
ENDBRANCH  38  59
ENDBRANCH  12  13
ENDBRANCH   5   7
ENDBRANCH   2   3
ENDBRANCH   1   2
BRANCH   1  69
ATOM     69  C   UNL A   1      35.645  24.379  24.993  1.00  0.00     0.023 C 
BRANCH  69  70
ATOM     70  C   UNL A   1      34.259  24.009  23.326  1.00  0.00     0.116 C 
BRANCH  70  71
ATOM     71  N   UNL A   1      33.455  24.995  22.334  1.00  0.00    -0.351 N 
ATOM     72  C   UNL A   1      32.660  26.087  22.625  1.00  0.00     0.272 C 
ATOM     73  H   UNL A   1      33.543  24.786  21.376  1.00  0.00     0.163 HD
ATOM     74  O   UNL A   1      32.003  26.664  21.768  1.00  0.00    -0.267 OA
BRANCH  72  75
ATOM     75  C   UNL A   1      32.652  26.554  24.021  1.00  0.00     0.159 A 
ATOM     76  N   UNL A   1      33.766  27.292  24.348  1.00  0.00    -0.247 NA
ATOM     77  C   UNL A   1      31.699  26.172  24.957  1.00  0.00     0.159 A 
ATOM     78  C   UNL A   1      33.885  27.644  25.639  1.00  0.00     0.132 A 
ATOM     79  N   UNL A   1      31.850  26.537  26.272  1.00  0.00    -0.247 NA
ATOM     80  C   UNL A   1      32.947  27.272  26.582  1.00  0.00     0.132 A 
BRANCH  77  81
ATOM     81  C   UNL A   1      30.430  25.431  24.677  1.00  0.00     0.277 C 
ATOM     82  O   UNL A   1      29.430  26.106  24.409  1.00  0.00    -0.267 OA
ATOM     83  N   UNL A   1      30.308  24.061  24.663  1.00  0.00    -0.303 N 
ATOM     84  H   UNL A   1      29.443  23.728  24.330  1.00  0.00     0.172 HD
BRANCH  83  85
ATOM     85  C   UNL A   1      31.192  23.086  25.039  1.00  0.00     0.164 A 
ATOM     86  N   UNL A   1      31.569  23.048  26.330  1.00  0.00    -0.155 NA
ATOM     87  C   UNL A   1      31.681  22.009  24.272  1.00  0.00     0.063 A 
ATOM     88  N   UNL A   1      32.004  21.790  26.638  1.00  0.00    -0.259 N 
ATOM     89  C   UNL A   1      32.139  20.952  25.567  1.00  0.00     0.157 A 
ATOM     90  C   UNL A   1      31.772  21.380  22.597  1.00  0.00     0.017 A 
ATOM     91  H   UNL A   1      32.205  21.510  27.560  1.00  0.00     0.192 HD
ATOM     92  N   UNL A   1      32.541  19.277  25.354  1.00  0.00    -0.237 NA
ATOM     93  C   UNL A   1      32.221  19.685  22.279  1.00  0.00     0.021 A 
ATOM     94  C   UNL A   1      32.626  18.690  23.666  1.00  0.00     0.113 A 
ENDBRANCH  83  85
ENDBRANCH  77  81
ENDBRANCH  72  75
ENDBRANCH  70  71
ENDBRANCH  69  70
ENDBRANCH   1  69
TORSDOF 16
ENDMDL
