MODEL 1
REMARK VINA RESULT:      -8.6      0.000      0.000
REMARK SMILES COc1cccc(-c2ccc(=O)n(CC(=O)N[C@@H](C(=O)NCCCCNC(=O)c3ccc(-c4c5nc(c(-c6ccc(S(=O)(=O)[O-])cc6)c6ccc([nH]6)c(-c6ccc(S(=O)(=O)[O-])cc6)c6nc(c(-c7ccc(S(=O)(=O)[O-])cc7)c7ccc4[nH]7)C=C6)C=C5)cc3)C(C)C)n2)c1
REMARK SMILES IDX 22 1 21 2 19 3 20 4 18 6 17 7 15 8 16 9 14 11 13 12 8 13
REMARK SMILES IDX 9 14 92 15 10 16 11 17 12 18 7 19 3 20 4 21 93 22 5 23 6 24
REMARK SMILES IDX 2 25 1 26 89 27 90 28 91 29 23 30 24 31 25 32 26 33 27 34
REMARK SMILES IDX 28 36 29 37 30 38 88 39 31 40 87 41 32 42 33 43 34 44 81 45
REMARK SMILES IDX 35 46 86 47 80 48 82 49 36 50 85 51 79 52 78 53 37 55 67 56
REMARK SMILES IDX 48 57 66 58 49 59 52 60 65 61 83 62 50 63 51 64 64 66 84 67
REMARK SMILES IDX 53 68 38 69 39 70 47 71 40 72 46 73 41 74 42 75 43 76 44 77
REMARK SMILES IDX 45 78 68 79 69 80 77 81 70 82 76 83 71 84 72 85 73 86 74 87
REMARK SMILES IDX 75 88 54 89 55 90 63 91 56 92 62 93 57 94 58 95 59 96 60 97
REMARK SMILES IDX 61 98
REMARK H PARENT 21 5 17 10 26 35 82 54 52 65
REMARK Flexibility Score: inf
ROOT
ATOM      1  C   UNL A   1      35.256  34.695  29.404  1.00  0.00     0.116 C 
ENDROOT
BRANCH   1   2
ATOM      2  N   UNL A   1      34.530  33.932  30.393  1.00  0.00    -0.354 N 
ATOM      3  C   UNL A   1      34.451  34.137  31.744  1.00  0.00     0.242 C 
ATOM      4  O   UNL A   1      33.629  33.452  32.358  1.00  0.00    -0.273 OA
ATOM      5  H   UNL A   1      34.023  33.162  30.049  1.00  0.00     0.163 HD
BRANCH   3   6
ATOM      6  C   UNL A   1      35.289  35.265  32.437  1.00  0.00     0.173 C 
BRANCH   6   7
ATOM      7  N   UNL A   1      35.768  34.772  33.735  1.00  0.00    -0.342 N 
ATOM      8  C   UNL A   1      36.437  33.630  34.073  1.00  0.00     0.242 C 
ATOM      9  O   UNL A   1      36.801  33.538  35.250  1.00  0.00    -0.273 OA
ATOM     10  H   UNL A   1      35.573  35.370  34.493  1.00  0.00     0.164 HD
BRANCH   8  11
ATOM     11  C   UNL A   1      36.848  32.567  33.040  1.00  0.00     0.248 C 
BRANCH  11  12
ATOM     12  N   UNL A   1      38.270  32.231  33.000  1.00  0.00    -0.220 N 
ATOM     13  C   UNL A   1      40.344  32.790  32.225  1.00  0.00     0.091 A 
ATOM     14  C   UNL A   1      40.982  31.619  32.847  1.00  0.00     0.036 A 
ATOM     15  N   UNL A   1      39.086  33.087  32.296  1.00  0.00    -0.169 NA
ATOM     16  C   UNL A   1      40.190  30.852  33.600  1.00  0.00     0.075 A 
ATOM     17  C   UNL A   1      38.742  31.141  33.726  1.00  0.00     0.267 A 
ATOM     18  O   UNL A   1      38.042  30.385  34.391  1.00  0.00    -0.268 OA
BRANCH  13  19
ATOM     19  C   UNL A   1      41.248  33.706  31.520  1.00  0.00     0.006 A 
ATOM     20  C   UNL A   1      43.106  35.232  31.657  1.00  0.00     0.119 A 
ATOM     21  C   UNL A   1      42.938  35.520  30.299  1.00  0.00     0.046 A 
ATOM     22  C   UNL A   1      42.244  34.331  32.274  1.00  0.00     0.056 A 
ATOM     23  C   UNL A   1      41.934  34.895  29.552  1.00  0.00     0.005 A 
ATOM     24  C   UNL A   1      41.078  33.980  30.162  1.00  0.00     0.011 A 
BRANCH  20  25
ATOM     25  O   UNL A   1      44.118  35.906  32.283  1.00  0.00    -0.497 OA
ATOM     26  C   UNL A   1      44.866  35.157  33.237  1.00  0.00     0.278 C 
ENDBRANCH  20  25
ENDBRANCH  13  19
ENDBRANCH  11  12
ENDBRANCH   8  11
ENDBRANCH   6   7
BRANCH   6  27
ATOM     27  C   UNL A   1      34.445  36.564  32.590  1.00  0.00     0.015 C 
ATOM     28  C   UNL A   1      33.402  36.764  31.485  1.00  0.00     0.010 C 
ATOM     29  C   UNL A   1      33.719  36.585  33.946  1.00  0.00     0.010 C 
ENDBRANCH   6  27
ENDBRANCH   3   6
ENDBRANCH   1   2
BRANCH   1  30
ATOM     30  C   UNL A   1      36.542  34.020  28.942  1.00  0.00     0.023 C 
BRANCH  30  31
ATOM     31  C   UNL A   1      36.413  32.514  28.710  1.00  0.00     0.023 C 
BRANCH  31  32
ATOM     32  C   UNL A   1      37.471  31.648  29.393  1.00  0.00     0.116 C 
BRANCH  32  33
ATOM     33  N   UNL A   1      36.931  30.579  30.217  1.00  0.00    -0.352 N 
ATOM     34  C   UNL A   1      37.510  29.372  30.545  1.00  0.00     0.251 C 
ATOM     35  H   UNL A   1      36.034  30.739  30.591  1.00  0.00     0.163 HD
ATOM     36  O   UNL A   1      36.907  28.569  31.244  1.00  0.00    -0.269 OA
BRANCH  34  37
ATOM     37  C   UNL A   1      38.849  29.033  30.010  1.00  0.00     0.039 A 
ATOM     38  C   UNL A   1      39.049  29.097  28.629  1.00  0.00     0.014 A 
ATOM     39  C   UNL A   1      39.906  28.694  30.858  1.00  0.00     0.014 A 
ATOM     40  C   UNL A   1      40.329  28.900  28.106  1.00  0.00     0.010 A 
ATOM     41  C   UNL A   1      41.195  28.562  30.341  1.00  0.00     0.010 A 
ATOM     42  C   UNL A   1      41.422  28.673  28.961  1.00  0.00    -0.014 A 
BRANCH  42  43
ATOM     43  C   UNL A   1      42.803  28.593  28.418  1.00  0.00     0.031 A 
ATOM     44  C   UNL A   1      43.743  29.762  28.526  1.00  0.00     0.074 A 
ATOM     45  C   UNL A   1      43.200  27.469  27.786  1.00  0.00     0.049 A 
ATOM     46  N   UNL A   1      44.988  29.856  28.132  1.00  0.00    -0.248 NA
ATOM     47  C   UNL A   1      43.212  30.992  29.132  1.00  0.00     0.031 C 
ATOM     48  C   UNL A   1      42.365  26.285  27.560  1.00  0.00     0.029 A 
ATOM     49  N   UNL A   1      44.406  27.136  27.222  1.00  0.00    -0.354 N 
ATOM     50  C   UNL A   1      45.387  31.151  28.438  1.00  0.00     0.074 A 
ATOM     51  C   UNL A   1      44.234  31.824  29.000  1.00  0.00     0.031 C 
ATOM     52  C   UNL A   1      43.097  25.344  26.943  1.00  0.00     0.029 A 
ATOM     53  C   UNL A   1      44.440  25.863  26.704  1.00  0.00     0.049 A 
ATOM     54  H   UNL A   1      45.175  27.750  27.193  1.00  0.00     0.167 HD
ATOM     55  C   UNL A   1      46.606  31.725  28.286  1.00  0.00     0.031 A 
ATOM     56  C   UNL A   1      45.440  25.182  26.111  1.00  0.00     0.031 A 
ATOM     57  C   UNL A   1      47.753  31.056  27.731  1.00  0.00     0.049 A 
ATOM     58  C   UNL A   1      46.788  25.834  25.970  1.00  0.00     0.074 A 
ATOM     59  C   UNL A   1      49.043  31.535  27.585  1.00  0.00     0.029 A 
ATOM     60  N   UNL A   1      47.749  29.764  27.228  1.00  0.00    -0.354 N 
ATOM     61  N   UNL A   1      47.165  27.036  26.335  1.00  0.00    -0.248 NA
ATOM     62  C   UNL A   1      47.852  25.027  25.355  1.00  0.00     0.031 C 
ATOM     63  C   UNL A   1      49.808  30.548  26.954  1.00  0.00     0.029 A 
ATOM     64  C   UNL A   1      49.009  29.435  26.755  1.00  0.00     0.049 A 
ATOM     65  H   UNL A   1      46.966  29.167  27.210  1.00  0.00     0.167 HD
ATOM     66  C   UNL A   1      48.516  27.122  26.016  1.00  0.00     0.074 A 
ATOM     67  C   UNL A   1      48.892  25.843  25.447  1.00  0.00     0.031 C 
ATOM     68  C   UNL A   1      49.368  28.164  26.179  1.00  0.00     0.031 A 
BRANCH  55  69
ATOM     69  C   UNL A   1      46.757  33.155  28.733  1.00  0.00    -0.014 A 
ATOM     70  C   UNL A   1      46.523  34.220  27.845  1.00  0.00     0.010 A 
ATOM     71  C   UNL A   1      47.109  33.442  30.065  1.00  0.00     0.010 A 
ATOM     72  C   UNL A   1      46.681  35.544  28.265  1.00  0.00     0.020 A 
ATOM     73  C   UNL A   1      47.242  34.765  30.498  1.00  0.00     0.020 A 
ATOM     74  C   UNL A   1      47.047  35.807  29.588  1.00  0.00     0.054 A 
BRANCH  74  75
ATOM     75  S   UNL A   1      47.237  37.533  30.111  1.00  0.00     0.124 S 
ATOM     76  O   UNL A   1      46.216  38.202  29.308  1.00  0.00    -0.237 OA
ATOM     77  O   UNL A   1      46.965  37.467  31.545  1.00  0.00    -0.237 OA
ATOM     78  O   UNL A   1      48.617  37.853  29.757  1.00  0.00    -0.744 OA
ENDBRANCH  74  75
ENDBRANCH  55  69
BRANCH  56  79
ATOM     79  C   UNL A   1      45.214  23.789  25.639  1.00  0.00    -0.014 A 
ATOM     80  C   UNL A   1      45.815  22.705  26.305  1.00  0.00     0.010 A 
ATOM     81  C   UNL A   1      44.387  23.538  24.530  1.00  0.00     0.010 A 
ATOM     82  C   UNL A   1      45.609  21.397  25.858  1.00  0.00     0.020 A 
ATOM     83  C   UNL A   1      44.157  22.229  24.097  1.00  0.00     0.020 A 
ATOM     84  C   UNL A   1      44.780  21.167  24.757  1.00  0.00     0.054 A 
BRANCH  84  85
ATOM     85  S   UNL A   1      44.482  19.458  24.225  1.00  0.00     0.124 S 
ATOM     86  O   UNL A   1      44.656  19.555  22.780  1.00  0.00    -0.237 OA
ATOM     87  O   UNL A   1      45.519  18.719  24.940  1.00  0.00    -0.237 OA
ATOM     88  O   UNL A   1      43.117  19.195  24.677  1.00  0.00    -0.744 OA
ENDBRANCH  84  85
ENDBRANCH  56  79
BRANCH  68  89
ATOM     89  C   UNL A   1      50.797  27.953  25.758  1.00  0.00    -0.014 A 
ATOM     90  C   UNL A   1      51.755  27.447  26.656  1.00  0.00     0.010 A 
ATOM     91  C   UNL A   1      51.184  28.249  24.438  1.00  0.00     0.010 A 
ATOM     92  C   UNL A   1      53.085  27.291  26.255  1.00  0.00     0.020 A 
ATOM     93  C   UNL A   1      52.506  28.068  24.027  1.00  0.00     0.020 A 
ATOM     94  C   UNL A   1      53.454  27.610  24.945  1.00  0.00     0.054 A 
BRANCH  94  95
ATOM     95  S   UNL A   1      55.182  27.389  24.443  1.00  0.00     0.124 S 
ATOM     96  O   UNL A   1      55.051  26.503  23.289  1.00  0.00    -0.237 OA
ATOM     97  O   UNL A   1      55.608  28.754  24.142  1.00  0.00    -0.237 OA
ATOM     98  O   UNL A   1      55.811  26.792  25.619  1.00  0.00    -0.744 OA
ENDBRANCH  94  95
ENDBRANCH  68  89
ENDBRANCH  42  43
ENDBRANCH  34  37
ENDBRANCH  32  33
ENDBRANCH  31  32
ENDBRANCH  30  31
ENDBRANCH   1  30
TORSDOF 20
ENDMDL
MODEL 2
REMARK VINA RESULT:      -8.6      1.532      2.347
REMARK SMILES COc1cccc(-c2ccc(=O)n(CC(=O)N[C@@H](C(=O)NCCCCNC(=O)c3ccc(-c4c5nc(c(-c6ccc(S(=O)(=O)[O-])cc6)c6ccc([nH]6)c(-c6ccc(S(=O)(=O)[O-])cc6)c6nc(c(-c7ccc(S(=O)(=O)[O-])cc7)c7ccc4[nH]7)C=C6)C=C5)cc3)C(C)C)n2)c1
REMARK SMILES IDX 22 1 21 2 19 3 20 4 18 6 17 7 15 8 16 9 14 11 13 12 8 13
REMARK SMILES IDX 9 14 92 15 10 16 11 17 12 18 7 19 3 20 4 21 93 22 5 23 6 24
REMARK SMILES IDX 2 25 1 26 89 27 90 28 91 29 23 30 24 31 25 32 26 33 27 34
REMARK SMILES IDX 28 36 29 37 30 38 88 39 31 40 87 41 32 42 33 43 34 44 81 45
REMARK SMILES IDX 35 46 86 47 80 48 82 49 36 50 85 51 79 52 78 53 37 55 67 56
REMARK SMILES IDX 48 57 66 58 49 59 52 60 65 61 83 62 50 63 51 64 64 66 84 67
REMARK SMILES IDX 53 68 38 69 39 70 47 71 40 72 46 73 41 74 42 75 43 76 44 77
REMARK SMILES IDX 45 78 68 79 69 80 77 81 70 82 76 83 71 84 72 85 73 86 74 87
REMARK SMILES IDX 75 88 54 89 55 90 63 91 56 92 62 93 57 94 58 95 59 96 60 97
REMARK SMILES IDX 61 98
REMARK H PARENT 21 5 17 10 26 35 82 54 52 65
REMARK Flexibility Score: inf
ROOT
ATOM      1  C   UNL A   1      34.136  33.367  29.416  1.00  0.00     0.116 C 
ENDROOT
BRANCH   1   2
ATOM      2  N   UNL A   1      34.043  32.890  30.776  1.00  0.00    -0.354 N 
ATOM      3  C   UNL A   1      34.230  33.584  31.942  1.00  0.00     0.242 C 
ATOM      4  O   UNL A   1      33.928  32.999  32.985  1.00  0.00    -0.273 OA
ATOM      5  H   UNL A   1      33.812  31.939  30.879  1.00  0.00     0.163 HD
BRANCH   3   6
ATOM      6  C   UNL A   1      34.700  35.078  31.922  1.00  0.00     0.173 C 
BRANCH   6   7
ATOM      7  N   UNL A   1      35.884  35.215  32.780  1.00  0.00    -0.342 N 
ATOM      8  C   UNL A   1      37.132  34.670  32.683  1.00  0.00     0.242 C 
ATOM      9  O   UNL A   1      37.964  35.057  33.512  1.00  0.00    -0.273 OA
ATOM     10  H   UNL A   1      35.755  35.804  33.559  1.00  0.00     0.164 HD
BRANCH   8  11
ATOM     11  C   UNL A   1      37.548  33.732  31.538  1.00  0.00     0.248 C 
BRANCH  11  12
ATOM     12  N   UNL A   1      38.986  33.547  31.352  1.00  0.00    -0.220 N 
ATOM     13  C   UNL A   1      40.860  32.401  31.976  1.00  0.00     0.091 A 
ATOM     14  C   UNL A   1      41.732  33.176  31.079  1.00  0.00     0.036 A 
ATOM     15  N   UNL A   1      39.583  32.560  32.105  1.00  0.00    -0.169 NA
ATOM     16  C   UNL A   1      41.120  34.065  30.293  1.00  0.00     0.075 A 
ATOM     17  C   UNL A   1      39.659  34.292  30.389  1.00  0.00     0.267 A 
ATOM     18  O   UNL A   1      39.143  35.149  29.679  1.00  0.00    -0.268 OA
BRANCH  13  19
ATOM     19  C   UNL A   1      41.518  31.328  32.730  1.00  0.00     0.006 A 
ATOM     20  C   UNL A   1      43.562  30.159  33.237  1.00  0.00     0.119 A 
ATOM     21  C   UNL A   1      42.830  29.276  34.037  1.00  0.00     0.046 A 
ATOM     22  C   UNL A   1      42.898  31.182  32.567  1.00  0.00     0.056 A 
ATOM     23  C   UNL A   1      41.447  29.425  34.190  1.00  0.00     0.005 A 
ATOM     24  C   UNL A   1      40.781  30.457  33.533  1.00  0.00     0.011 A 
BRANCH  20  25
ATOM     25  O   UNL A   1      44.905  29.912  33.160  1.00  0.00    -0.497 OA
ATOM     26  C   UNL A   1      45.453  29.125  34.213  1.00  0.00     0.278 C 
ENDBRANCH  20  25
ENDBRANCH  13  19
ENDBRANCH  11  12
ENDBRANCH   8  11
ENDBRANCH   6   7
BRANCH   6  27
ATOM     27  C   UNL A   1      33.549  36.023  32.375  1.00  0.00     0.015 C 
ATOM     28  C   UNL A   1      34.027  37.377  32.910  1.00  0.00     0.010 C 
ATOM     29  C   UNL A   1      32.569  36.281  31.219  1.00  0.00     0.010 C 
ENDBRANCH   6  27
ENDBRANCH   3   6
ENDBRANCH   1   2
BRANCH   1  30
ATOM     30  C   UNL A   1      34.822  32.384  28.475  1.00  0.00     0.023 C 
BRANCH  30  31
ATOM     31  C   UNL A   1      36.205  32.830  28.000  1.00  0.00     0.023 C 
BRANCH  31  32
ATOM     32  C   UNL A   1      37.377  31.980  28.487  1.00  0.00     0.116 C 
BRANCH  32  33
ATOM     33  N   UNL A   1      36.995  30.688  29.034  1.00  0.00    -0.352 N 
ATOM     34  C   UNL A   1      37.768  29.556  29.181  1.00  0.00     0.251 C 
ATOM     35  H   UNL A   1      36.062  30.611  29.340  1.00  0.00     0.163 HD
ATOM     36  O   UNL A   1      37.283  28.534  29.649  1.00  0.00    -0.269 OA
BRANCH  34  37
ATOM     37  C   UNL A   1      39.178  29.568  28.727  1.00  0.00     0.039 A 
ATOM     38  C   UNL A   1      40.175  29.854  29.663  1.00  0.00     0.014 A 
ATOM     39  C   UNL A   1      39.521  29.264  27.408  1.00  0.00     0.014 A 
ATOM     40  C   UNL A   1      41.518  29.756  29.295  1.00  0.00     0.010 A 
ATOM     41  C   UNL A   1      40.861  29.102  27.059  1.00  0.00     0.010 A 
ATOM     42  C   UNL A   1      41.874  29.337  28.001  1.00  0.00    -0.014 A 
BRANCH  42  43
ATOM     43  C   UNL A   1      43.299  29.106  27.645  1.00  0.00     0.031 A 
ATOM     44  C   UNL A   1      44.318  30.203  27.794  1.00  0.00     0.074 A 
ATOM     45  C   UNL A   1      43.670  27.909  27.147  1.00  0.00     0.049 A 
ATOM     46  N   UNL A   1      45.605  30.168  27.558  1.00  0.00    -0.248 NA
ATOM     47  C   UNL A   1      43.826  31.514  28.243  1.00  0.00     0.031 C 
ATOM     48  C   UNL A   1      42.768  26.780  26.895  1.00  0.00     0.029 A 
ATOM     49  N   UNL A   1      44.902  27.439  26.765  1.00  0.00    -0.354 N 
ATOM     50  C   UNL A   1      46.075  31.448  27.824  1.00  0.00     0.074 A 
ATOM     51  C   UNL A   1      44.926  32.250  28.188  1.00  0.00     0.031 C 
ATOM     52  C   UNL A   1      43.485  25.739  26.442  1.00  0.00     0.029 A 
ATOM     53  C   UNL A   1      44.887  26.131  26.342  1.00  0.00     0.049 A 
ATOM     54  H   UNL A   1      45.719  27.987  26.794  1.00  0.00     0.167 HD
ATOM     55  C   UNL A   1      47.349  31.910  27.792  1.00  0.00     0.031 A 
ATOM     56  C   UNL A   1      45.888  25.330  25.929  1.00  0.00     0.031 A 
ATOM     57  C   UNL A   1      48.492  31.112  27.434  1.00  0.00     0.049 A 
ATOM     58  C   UNL A   1      47.295  25.861  25.919  1.00  0.00     0.074 A 
ATOM     59  C   UNL A   1      49.828  31.475  27.423  1.00  0.00     0.029 A 
ATOM     60  N   UNL A   1      48.436  29.789  27.023  1.00  0.00    -0.354 N 
ATOM     61  N   UNL A   1      47.729  27.054  26.247  1.00  0.00    -0.248 NA
ATOM     62  C   UNL A   1      48.351  24.927  25.501  1.00  0.00     0.031 C 
ATOM     63  C   UNL A   1      50.574  30.386  26.962  1.00  0.00     0.029 A 
ATOM     64  C   UNL A   1      49.711  29.327  26.738  1.00  0.00     0.049 A 
ATOM     65  H   UNL A   1      47.612  29.256  26.944  1.00  0.00     0.167 HD
ATOM     66  C   UNL A   1      49.111  27.009  26.099  1.00  0.00     0.074 A 
ATOM     67  C   UNL A   1      49.440  25.664  25.670  1.00  0.00     0.031 C 
ATOM     68  C   UNL A   1      50.025  27.990  26.299  1.00  0.00     0.031 A 
BRANCH  55  69
ATOM     69  C   UNL A   1      47.569  33.354  28.157  1.00  0.00    -0.014 A 
ATOM     70  C   UNL A   1      47.277  34.385  27.245  1.00  0.00     0.010 A 
ATOM     71  C   UNL A   1      48.047  33.690  29.437  1.00  0.00     0.010 A 
ATOM     72  C   UNL A   1      47.500  35.721  27.589  1.00  0.00     0.020 A 
ATOM     73  C   UNL A   1      48.246  35.028  29.795  1.00  0.00     0.020 A 
ATOM     74  C   UNL A   1      47.989  36.033  28.860  1.00  0.00     0.054 A 
BRANCH  74  75
ATOM     75  S   UNL A   1      48.262  37.776  29.284  1.00  0.00     0.124 S 
ATOM     76  O   UNL A   1      47.822  37.817  30.676  1.00  0.00    -0.237 OA
ATOM     77  O   UNL A   1      49.698  37.937  29.074  1.00  0.00    -0.237 OA
ATOM     78  O   UNL A   1      47.413  38.498  28.340  1.00  0.00    -0.744 OA
ENDBRANCH  74  75
ENDBRANCH  55  69
BRANCH  56  79
ATOM     79  C   UNL A   1      45.601  23.927  25.528  1.00  0.00    -0.014 A 
ATOM     80  C   UNL A   1      45.506  22.912  26.498  1.00  0.00     0.010 A 
ATOM     81  C   UNL A   1      45.407  23.599  24.174  1.00  0.00     0.010 A 
ATOM     82  C   UNL A   1      45.242  21.593  26.120  1.00  0.00     0.020 A 
ATOM     83  C   UNL A   1      45.117  22.285  23.795  1.00  0.00     0.020 A 
ATOM     84  C   UNL A   1      45.048  21.287  24.771  1.00  0.00     0.054 A 
BRANCH  84  85
ATOM     85  S   UNL A   1      44.654  19.578  24.306  1.00  0.00     0.124 S 
ATOM     86  O   UNL A   1      44.479  19.689  22.862  1.00  0.00    -0.237 OA
ATOM     87  O   UNL A   1      45.840  18.849  24.746  1.00  0.00    -0.237 OA
ATOM     88  O   UNL A   1      43.439  19.292  25.065  1.00  0.00    -0.744 OA
ENDBRANCH  84  85
ENDBRANCH  56  79
BRANCH  68  89
ATOM     89  C   UNL A   1      51.471  27.635  26.080  1.00  0.00    -0.014 A 
ATOM     90  C   UNL A   1      52.212  26.955  27.063  1.00  0.00     0.010 A 
ATOM     91  C   UNL A   1      52.092  27.974  24.865  1.00  0.00     0.010 A 
ATOM     92  C   UNL A   1      53.563  26.665  26.853  1.00  0.00     0.020 A 
ATOM     93  C   UNL A   1      53.435  27.661  24.641  1.00  0.00     0.020 A 
ATOM     94  C   UNL A   1      54.168  27.027  25.647  1.00  0.00     0.054 A 
BRANCH  94  95
ATOM     95  S   UNL A   1      55.920  26.631  25.391  1.00  0.00     0.124 S 
ATOM     96  O   UNL A   1      56.131  25.557  26.358  1.00  0.00    -0.237 OA
ATOM     97  O   UNL A   1      55.959  26.230  23.987  1.00  0.00    -0.237 OA
ATOM     98  O   UNL A   1      56.605  27.886  25.693  1.00  0.00    -0.744 OA
ENDBRANCH  94  95
ENDBRANCH  68  89
ENDBRANCH  42  43
ENDBRANCH  34  37
ENDBRANCH  32  33
ENDBRANCH  31  32
ENDBRANCH  30  31
ENDBRANCH   1  30
TORSDOF 20
ENDMDL
MODEL 3
REMARK VINA RESULT:      -8.1      4.911     13.174
REMARK SMILES COc1cccc(-c2ccc(=O)n(CC(=O)N[C@@H](C(=O)NCCCCNC(=O)c3ccc(-c4c5nc(c(-c6ccc(S(=O)(=O)[O-])cc6)c6ccc([nH]6)c(-c6ccc(S(=O)(=O)[O-])cc6)c6nc(c(-c7ccc(S(=O)(=O)[O-])cc7)c7ccc4[nH]7)C=C6)C=C5)cc3)C(C)C)n2)c1
REMARK SMILES IDX 22 1 21 2 19 3 20 4 18 6 17 7 15 8 16 9 14 11 13 12 8 13
REMARK SMILES IDX 9 14 92 15 10 16 11 17 12 18 7 19 3 20 4 21 93 22 5 23 6 24
REMARK SMILES IDX 2 25 1 26 89 27 90 28 91 29 23 30 24 31 25 32 26 33 27 34
REMARK SMILES IDX 28 36 29 37 30 38 88 39 31 40 87 41 32 42 33 43 34 44 81 45
REMARK SMILES IDX 35 46 86 47 80 48 82 49 36 50 85 51 79 52 78 53 37 55 67 56
REMARK SMILES IDX 48 57 66 58 49 59 52 60 65 61 83 62 50 63 51 64 64 66 84 67
REMARK SMILES IDX 53 68 38 69 39 70 47 71 40 72 46 73 41 74 42 75 43 76 44 77
REMARK SMILES IDX 45 78 68 79 69 80 77 81 70 82 76 83 71 84 72 85 73 86 74 87
REMARK SMILES IDX 75 88 54 89 55 90 63 91 56 92 62 93 57 94 58 95 59 96 60 97
REMARK SMILES IDX 61 98
REMARK H PARENT 21 5 17 10 26 35 82 54 52 65
REMARK Flexibility Score: inf
ROOT
ATOM      1  C   UNL A   1      46.099  25.098  28.492  1.00  0.00     0.116 C 
ENDROOT
BRANCH   1   2
ATOM      2  N   UNL A   1      47.245  24.912  27.632  1.00  0.00    -0.354 N 
ATOM      3  C   UNL A   1      48.141  25.845  27.185  1.00  0.00     0.242 C 
ATOM      4  O   UNL A   1      49.137  25.416  26.597  1.00  0.00    -0.273 OA
ATOM      5  H   UNL A   1      47.404  23.989  27.328  1.00  0.00     0.163 HD
BRANCH   3   6
ATOM      6  C   UNL A   1      47.948  27.365  27.509  1.00  0.00     0.173 C 
BRANCH   6   7
ATOM      7  N   UNL A   1      47.621  28.079  26.268  1.00  0.00    -0.342 N 
ATOM      8  C   UNL A   1      46.504  28.771  25.896  1.00  0.00     0.242 C 
ATOM      9  O   UNL A   1      46.561  29.359  24.811  1.00  0.00    -0.273 OA
ATOM     10  H   UNL A   1      48.331  28.054  25.585  1.00  0.00     0.164 HD
BRANCH   8  11
ATOM     11  C   UNL A   1      45.283  28.942  26.815  1.00  0.00     0.248 C 
BRANCH  11  12
ATOM     12  N   UNL A   1      45.380  30.001  27.818  1.00  0.00    -0.220 N 
ATOM     13  C   UNL A   1      45.351  32.246  28.235  1.00  0.00     0.091 A 
ATOM     14  C   UNL A   1      45.602  32.065  29.674  1.00  0.00     0.036 A 
ATOM     15  N   UNL A   1      45.239  31.293  27.366  1.00  0.00    -0.169 NA
ATOM     16  C   UNL A   1      45.645  30.803  30.106  1.00  0.00     0.075 A 
ATOM     17  C   UNL A   1      45.519  29.667  29.162  1.00  0.00     0.267 A 
ATOM     18  O   UNL A   1      45.609  28.523  29.595  1.00  0.00    -0.268 OA
BRANCH  13  19
ATOM     19  C   UNL A   1      45.161  33.632  27.792  1.00  0.00     0.006 A 
ATOM     20  C   UNL A   1      43.640  35.470  27.467  1.00  0.00     0.119 A 
ATOM     21  C   UNL A   1      44.685  36.204  26.898  1.00  0.00     0.046 A 
ATOM     22  C   UNL A   1      43.877  34.171  27.903  1.00  0.00     0.056 A 
ATOM     23  C   UNL A   1      45.968  35.655  26.785  1.00  0.00     0.005 A 
ATOM     24  C   UNL A   1      46.213  34.359  27.234  1.00  0.00     0.011 A 
BRANCH  20  25
ATOM     25  O   UNL A   1      42.431  36.109  27.521  1.00  0.00    -0.497 OA
ATOM     26  C   UNL A   1      42.354  37.352  26.829  1.00  0.00     0.278 C 
ENDBRANCH  20  25
ENDBRANCH  13  19
ENDBRANCH  11  12
ENDBRANCH   8  11
ENDBRANCH   6   7
BRANCH   6  27
ATOM     27  C   UNL A   1      49.221  27.949  28.189  1.00  0.00     0.015 C 
ATOM     28  C   UNL A   1      49.347  29.472  28.074  1.00  0.00     0.010 C 
ATOM     29  C   UNL A   1      49.262  27.574  29.680  1.00  0.00     0.010 C 
ENDBRANCH   6  27
ENDBRANCH   3   6
ENDBRANCH   1   2
BRANCH   1  30
ATOM     30  C   UNL A   1      45.167  23.893  28.528  1.00  0.00     0.023 C 
BRANCH  30  31
ATOM     31  C   UNL A   1      44.520  23.559  27.183  1.00  0.00     0.023 C 
BRANCH  31  32
ATOM     32  C   UNL A   1      42.998  23.417  27.199  1.00  0.00     0.116 C 
BRANCH  32  33
ATOM     33  N   UNL A   1      42.321  24.107  26.112  1.00  0.00    -0.352 N 
ATOM     34  C   UNL A   1      41.654  25.313  26.146  1.00  0.00     0.251 C 
ATOM     35  H   UNL A   1      42.342  23.654  25.238  1.00  0.00     0.163 HD
ATOM     36  O   UNL A   1      41.119  25.750  25.136  1.00  0.00    -0.269 OA
BRANCH  34  37
ATOM     37  C   UNL A   1      41.550  26.057  27.423  1.00  0.00     0.039 A 
ATOM     38  C   UNL A   1      42.463  27.086  27.670  1.00  0.00     0.014 A 
ATOM     39  C   UNL A   1      40.544  25.774  28.350  1.00  0.00     0.014 A 
ATOM     40  C   UNL A   1      42.316  27.882  28.807  1.00  0.00     0.010 A 
ATOM     41  C   UNL A   1      40.360  26.611  29.451  1.00  0.00     0.010 A 
ATOM     42  C   UNL A   1      41.238  27.679  29.686  1.00  0.00    -0.014 A 
BRANCH  42  43
ATOM     43  C   UNL A   1      41.005  28.606  30.825  1.00  0.00     0.031 A 
ATOM     44  C   UNL A   1      41.856  28.533  32.064  1.00  0.00     0.074 A 
ATOM     45  C   UNL A   1      39.993  29.494  30.758  1.00  0.00     0.049 A 
ATOM     46  N   UNL A   1      41.810  29.279  33.138  1.00  0.00    -0.248 NA
ATOM     47  C   UNL A   1      42.873  27.472  32.113  1.00  0.00     0.031 C 
ATOM     48  C   UNL A   1      39.055  29.626  29.638  1.00  0.00     0.029 A 
ATOM     49  N   UNL A   1      39.584  30.457  31.646  1.00  0.00    -0.354 N 
ATOM     50  C   UNL A   1      42.785  28.778  33.991  1.00  0.00     0.074 A 
ATOM     51  C   UNL A   1      43.370  27.629  33.332  1.00  0.00     0.031 C 
ATOM     52  C   UNL A   1      38.210  30.638  29.891  1.00  0.00     0.029 A 
ATOM     53  C   UNL A   1      38.523  31.208  31.197  1.00  0.00     0.049 A 
ATOM     54  H   UNL A   1      40.012  30.598  32.522  1.00  0.00     0.167 HD
ATOM     55  C   UNL A   1      43.176  29.242  35.204  1.00  0.00     0.031 A 
ATOM     56  C   UNL A   1      37.879  32.246  31.765  1.00  0.00     0.031 A 
ATOM     57  C   UNL A   1      42.597  30.386  35.858  1.00  0.00     0.049 A 
ATOM     58  C   UNL A   1      38.343  32.753  33.103  1.00  0.00     0.074 A 
ATOM     59  C   UNL A   1      42.961  30.965  37.062  1.00  0.00     0.029 A 
ATOM     60  N   UNL A   1      41.533  31.126  35.365  1.00  0.00    -0.354 N 
ATOM     61  N   UNL A   1      39.318  32.311  33.860  1.00  0.00    -0.248 NA
ATOM     62  C   UNL A   1      37.630  33.916  33.652  1.00  0.00     0.031 C 
ATOM     63  C   UNL A   1      42.087  32.027  37.318  1.00  0.00     0.029 A 
ATOM     64  C   UNL A   1      41.215  32.144  36.249  1.00  0.00     0.049 A 
ATOM     65  H   UNL A   1      41.072  30.953  34.514  1.00  0.00     0.167 HD
ATOM     66  C   UNL A   1      39.351  33.155  34.965  1.00  0.00     0.074 A 
ATOM     67  C   UNL A   1      38.312  34.145  34.766  1.00  0.00     0.031 C 
ATOM     68  C   UNL A   1      40.169  33.115  36.046  1.00  0.00     0.031 A 
BRANCH  55  69
ATOM     69  C   UNL A   1      44.289  28.504  35.900  1.00  0.00    -0.014 A 
ATOM     70  C   UNL A   1      44.078  27.228  36.452  1.00  0.00     0.010 A 
ATOM     71  C   UNL A   1      45.570  29.079  35.979  1.00  0.00     0.010 A 
ATOM     72  C   UNL A   1      45.114  26.558  37.110  1.00  0.00     0.020 A 
ATOM     73  C   UNL A   1      46.617  28.401  36.612  1.00  0.00     0.020 A 
ATOM     74  C   UNL A   1      46.376  27.154  37.191  1.00  0.00     0.054 A 
BRANCH  74  75
ATOM     75  S   UNL A   1      47.705  26.260  38.043  1.00  0.00     0.124 S 
ATOM     76  O   UNL A   1      48.091  25.272  37.039  1.00  0.00    -0.237 OA
ATOM     77  O   UNL A   1      48.686  27.311  38.299  1.00  0.00    -0.237 OA
ATOM     78  O   UNL A   1      47.052  25.719  39.232  1.00  0.00    -0.744 OA
ENDBRANCH  74  75
ENDBRANCH  55  69
BRANCH  56  79
ATOM     79  C   UNL A   1      36.749  32.900  31.052  1.00  0.00    -0.014 A 
ATOM     80  C   UNL A   1      36.996  33.814  30.012  1.00  0.00     0.010 A 
ATOM     81  C   UNL A   1      35.419  32.602  31.401  1.00  0.00     0.010 A 
ATOM     82  C   UNL A   1      35.935  34.433  29.346  1.00  0.00     0.020 A 
ATOM     83  C   UNL A   1      34.355  33.200  30.720  1.00  0.00     0.020 A 
ATOM     84  C   UNL A   1      34.620  34.122  29.704  1.00  0.00     0.054 A 
BRANCH  84  85
ATOM     85  S   UNL A   1      33.256  34.896  28.792  1.00  0.00     0.124 S 
ATOM     86  O   UNL A   1      32.348  35.275  29.869  1.00  0.00    -0.237 OA
ATOM     87  O   UNL A   1      33.921  36.000  28.105  1.00  0.00    -0.237 OA
ATOM     88  O   UNL A   1      32.781  33.826  27.918  1.00  0.00    -0.744 OA
ENDBRANCH  84  85
ENDBRANCH  56  79
BRANCH  68  89
ATOM     89  C   UNL A   1      39.986  34.189  37.084  1.00  0.00    -0.014 A 
ATOM     90  C   UNL A   1      39.148  33.993  38.197  1.00  0.00     0.010 A 
ATOM     91  C   UNL A   1      40.676  35.408  36.951  1.00  0.00     0.010 A 
ATOM     92  C   UNL A   1      38.964  35.016  39.131  1.00  0.00     0.020 A 
ATOM     93  C   UNL A   1      40.515  36.422  37.898  1.00  0.00     0.020 A 
ATOM     94  C   UNL A   1      39.643  36.227  38.972  1.00  0.00     0.054 A 
BRANCH  94  95
ATOM     95  S   UNL A   1      39.399  37.537  40.202  1.00  0.00     0.124 S 
ATOM     96  O   UNL A   1      40.746  38.088  40.328  1.00  0.00    -0.237 OA
ATOM     97  O   UNL A   1      38.421  38.410  39.555  1.00  0.00    -0.237 OA
ATOM     98  O   UNL A   1      38.906  36.822  41.376  1.00  0.00    -0.744 OA
ENDBRANCH  94  95
ENDBRANCH  68  89
ENDBRANCH  42  43
ENDBRANCH  34  37
ENDBRANCH  32  33
ENDBRANCH  31  32
ENDBRANCH  30  31
ENDBRANCH   1  30
TORSDOF 20
ENDMDL
