MODEL 1
REMARK VINA RESULT:     -11.3      0.000      0.000
REMARK SMILES CC(C)CCOc1ccccc1-c1cc(C(=O)NCCCCNC(=O)c2ccc(-c3c4nc(c(-c5ccc(S(=O)(=O)[O-])cc5)c5ccc([nH]5)c(-c5ccc(S(=O)(=O)[O-])cc5)c5nc(c(-c6ccc(S(=O)(=O)[O-])cc6)c6ccc3[nH]6)C=C5)C=C4)cc2)no1
REMARK SMILES IDX 19 1 18 2 16 3 17 4 15 6 13 7 14 8 87 9 86 10 12 11 7 12
REMARK SMILES IDX 8 13 9 14 11 15 10 16 6 17 5 18 4 19 2 20 1 21 3 22 20 23
REMARK SMILES IDX 21 24 22 25 23 26 24 27 25 29 26 30 27 31 85 32 28 33 84 34
REMARK SMILES IDX 29 35 30 36 31 37 78 38 32 39 83 40 77 41 79 42 33 43 82 44
REMARK SMILES IDX 76 45 75 46 34 48 64 49 45 50 63 51 46 52 49 53 62 54 80 55
REMARK SMILES IDX 47 56 48 57 61 59 81 60 50 61 35 62 36 63 44 64 37 65 43 66
REMARK SMILES IDX 38 67 39 68 40 69 41 70 42 71 65 72 66 73 74 74 67 75 73 76
REMARK SMILES IDX 68 77 69 78 70 79 71 80 72 81 51 82 52 83 60 84 53 85 59 86
REMARK SMILES IDX 54 87 55 88 56 89 57 90 58 91
REMARK H PARENT 18 5 23 28 79 47 49 58
REMARK Flexibility Score: inf
ROOT
ATOM      1  C   UNL A   1      31.097  26.628  25.571  1.00  0.00     0.116 C 
ENDROOT
BRANCH   1   2
ATOM      2  N   UNL A   1      30.267  25.711  26.338  1.00  0.00    -0.351 N 
ATOM      3  C   UNL A   1      30.237  24.330  26.431  1.00  0.00     0.273 C 
ATOM      4  O   UNL A   1      29.590  23.848  27.360  1.00  0.00    -0.267 OA
ATOM      5  H   UNL A   1      29.593  26.160  26.899  1.00  0.00     0.163 HD
BRANCH   3   6
ATOM      6  C   UNL A   1      30.906  23.483  25.428  1.00  0.00     0.171 A 
ATOM      7  C   UNL A   1      32.825  21.553  24.468  1.00  0.00     0.171 A 
ATOM      8  C   UNL A   1      32.166  22.188  25.799  1.00  0.00     0.088 A 
ATOM      9  O   UNL A   1      32.121  22.483  22.987  1.00  0.00    -0.355 OA
ATOM     10  N   UNL A   1      30.784  23.774  23.767  1.00  0.00    -0.074 NA
BRANCH   7  11
ATOM     11  C   UNL A   1      33.292  20.193  24.263  1.00  0.00     0.062 A 
ATOM     12  C   UNL A   1      34.568  19.854  24.783  1.00  0.00     0.130 A 
ATOM     13  C   UNL A   1      35.045  18.556  24.675  1.00  0.00     0.047 A 
ATOM     14  C   UNL A   1      34.259  17.594  24.041  1.00  0.00     0.004 A 
ATOM     15  C   UNL A   1      32.514  19.233  23.627  1.00  0.00     0.016 A 
ATOM     16  C   UNL A   1      33.009  17.934  23.506  1.00  0.00     0.001 A 
BRANCH  12  17
ATOM     17  O   UNL A   1      35.432  20.809  25.286  1.00  0.00    -0.493 OA
BRANCH  17  18
ATOM     18  C   UNL A   1      36.759  20.784  24.731  1.00  0.00     0.230 C 
BRANCH  18  19
ATOM     19  C   UNL A   1      37.714  21.785  25.430  1.00  0.00     0.044 C 
BRANCH  19  20
ATOM     20  C   UNL A   1      36.933  23.222  25.797  1.00  0.00    -0.014 C 
ATOM     21  C   UNL A   1      38.289  24.104  26.518  1.00  0.00     0.007 C 
ATOM     22  C   UNL A   1      35.167  24.342  24.918  1.00  0.00     0.007 C 
ENDBRANCH  19  20
ENDBRANCH  18  19
ENDBRANCH  17  18
ENDBRANCH  12  17
ENDBRANCH   7  11
ENDBRANCH   3   6
ENDBRANCH   1   2
BRANCH   1  23
ATOM     23  C   UNL A   1      31.649  27.792  26.393  1.00  0.00     0.023 C 
BRANCH  23  24
ATOM     24  C   UNL A   1      33.141  27.691  26.695  1.00  0.00     0.023 C 
BRANCH  24  25
ATOM     25  C   UNL A   1      34.006  28.749  26.017  1.00  0.00     0.116 C 
BRANCH  25  26
ATOM     26  N   UNL A   1      33.764  30.099  26.507  1.00  0.00    -0.352 N 
ATOM     27  C   UNL A   1      34.471  30.791  27.464  1.00  0.00     0.251 C 
ATOM     28  H   UNL A   1      33.001  30.575  26.105  1.00  0.00     0.163 HD
ATOM     29  O   UNL A   1      34.070  31.874  27.872  1.00  0.00    -0.269 OA
BRANCH  27  30
ATOM     30  C   UNL A   1      35.697  30.182  28.020  1.00  0.00     0.039 A 
ATOM     31  C   UNL A   1      36.892  30.301  27.310  1.00  0.00     0.014 A 
ATOM     32  C   UNL A   1      35.676  29.569  29.276  1.00  0.00     0.014 A 
ATOM     33  C   UNL A   1      38.083  29.874  27.899  1.00  0.00     0.010 A 
ATOM     34  C   UNL A   1      36.873  29.229  29.896  1.00  0.00     0.010 A 
ATOM     35  C   UNL A   1      38.090  29.382  29.216  1.00  0.00    -0.014 A 
BRANCH  35  36
ATOM     36  C   UNL A   1      39.366  29.059  29.906  1.00  0.00     0.031 A 
ATOM     37  C   UNL A   1      39.802  29.847  31.111  1.00  0.00     0.074 A 
ATOM     38  C   UNL A   1      40.158  28.085  29.412  1.00  0.00     0.049 A 
ATOM     39  N   UNL A   1      40.892  29.723  31.824  1.00  0.00    -0.248 NA
ATOM     40  C   UNL A   1      38.910  30.928  31.562  1.00  0.00     0.031 C 
ATOM     41  C   UNL A   1      39.866  27.276  28.225  1.00  0.00     0.029 A 
ATOM     42  N   UNL A   1      41.371  27.608  29.845  1.00  0.00    -0.354 N 
ATOM     43  C   UNL A   1      40.819  30.709  32.801  1.00  0.00     0.074 A 
ATOM     44  C   UNL A   1      39.610  31.462  32.553  1.00  0.00     0.031 C 
ATOM     45  C   UNL A   1      40.848  26.378  28.052  1.00  0.00     0.029 A 
ATOM     46  C   UNL A   1      41.868  26.583  29.074  1.00  0.00     0.049 A 
ATOM     47  H   UNL A   1      41.840  27.966  30.632  1.00  0.00     0.167 HD
ATOM     48  C   UNL A   1      41.673  30.953  33.824  1.00  0.00     0.031 A 
ATOM     49  C   UNL A   1      43.021  25.890  29.169  1.00  0.00     0.031 A 
ATOM     50  C   UNL A   1      42.882  30.206  34.059  1.00  0.00     0.049 A 
ATOM     51  C   UNL A   1      43.975  26.214  30.286  1.00  0.00     0.074 A 
ATOM     52  C   UNL A   1      43.789  30.347  35.094  1.00  0.00     0.029 A 
ATOM     53  N   UNL A   1      43.359  29.190  33.244  1.00  0.00    -0.354 N 
ATOM     54  N   UNL A   1      43.850  27.098  31.247  1.00  0.00    -0.248 NA
ATOM     55  C   UNL A   1      45.223  25.441  30.336  1.00  0.00     0.031 C 
ATOM     56  C   UNL A   1      44.854  29.473  34.862  1.00  0.00     0.029 A 
ATOM     57  C   UNL A   1      44.571  28.725  33.730  1.00  0.00     0.049 A 
ATOM     58  H   UNL A   1      42.906  28.850  32.440  1.00  0.00     0.167 HD
ATOM     59  C   UNL A   1      44.991  26.968  32.032  1.00  0.00     0.074 A 
ATOM     60  C   UNL A   1      45.780  25.905  31.446  1.00  0.00     0.031 C 
ATOM     61  C   UNL A   1      45.353  27.669  33.135  1.00  0.00     0.031 A 
BRANCH  48  62
ATOM     62  C   UNL A   1      41.339  32.087  34.760  1.00  0.00    -0.014 A 
ATOM     63  C   UNL A   1      41.756  33.405  34.491  1.00  0.00     0.010 A 
ATOM     64  C   UNL A   1      40.553  31.842  35.902  1.00  0.00     0.010 A 
ATOM     65  C   UNL A   1      41.425  34.445  35.363  1.00  0.00     0.020 A 
ATOM     66  C   UNL A   1      40.191  32.886  36.758  1.00  0.00     0.020 A 
ATOM     67  C   UNL A   1      40.644  34.179  36.491  1.00  0.00     0.054 A 
BRANCH  67  68
ATOM     68  S   UNL A   1      40.207  35.556  37.587  1.00  0.00     0.124 S 
ATOM     69  O   UNL A   1      39.894  36.615  36.630  1.00  0.00    -0.237 OA
ATOM     70  O   UNL A   1      39.067  35.023  38.328  1.00  0.00    -0.237 OA
ATOM     71  O   UNL A   1      41.417  35.770  38.378  1.00  0.00    -0.744 OA
ENDBRANCH  67  68
ENDBRANCH  48  62
BRANCH  49  72
ATOM     72  C   UNL A   1      43.337  24.825  28.176  1.00  0.00    -0.014 A 
ATOM     73  C   UNL A   1      42.933  23.496  28.392  1.00  0.00     0.010 A 
ATOM     74  C   UNL A   1      44.047  25.137  27.001  1.00  0.00     0.010 A 
ATOM     75  C   UNL A   1      43.249  22.498  27.466  1.00  0.00     0.020 A 
ATOM     76  C   UNL A   1      44.333  24.151  26.054  1.00  0.00     0.020 A 
ATOM     77  C   UNL A   1      43.942  22.834  26.299  1.00  0.00     0.054 A 
BRANCH  77  78
ATOM     78  S   UNL A   1      44.296  21.530  25.088  1.00  0.00     0.124 S 
ATOM     79  O   UNL A   1      44.238  22.261  23.827  1.00  0.00    -0.237 OA
ATOM     80  O   UNL A   1      45.623  21.077  25.498  1.00  0.00    -0.237 OA
ATOM     81  O   UNL A   1      43.222  20.563  25.302  1.00  0.00    -0.744 OA
ENDBRANCH  77  78
ENDBRANCH  49  72
BRANCH  61  82
ATOM     82  C   UNL A   1      46.650  27.291  33.803  1.00  0.00    -0.014 A 
ATOM     83  C   UNL A   1      47.857  27.937  33.480  1.00  0.00     0.010 A 
ATOM     84  C   UNL A   1      46.650  26.310  34.812  1.00  0.00     0.010 A 
ATOM     85  C   UNL A   1      49.044  27.583  34.127  1.00  0.00     0.020 A 
ATOM     86  C   UNL A   1      47.827  25.980  35.489  1.00  0.00     0.020 A 
ATOM     87  C   UNL A   1      49.020  26.611  35.132  1.00  0.00     0.054 A 
BRANCH  87  88
ATOM     88  S   UNL A   1      50.567  26.209  35.990  1.00  0.00     0.124 S 
ATOM     89  O   UNL A   1      50.086  25.478  37.159  1.00  0.00    -0.237 OA
ATOM     90  O   UNL A   1      51.281  25.409  34.999  1.00  0.00    -0.237 OA
ATOM     91  O   UNL A   1      51.157  27.515  36.273  1.00  0.00    -0.744 OA
ENDBRANCH  87  88
ENDBRANCH  61  82
ENDBRANCH  35  36
ENDBRANCH  27  30
ENDBRANCH  25  26
ENDBRANCH  24  25
ENDBRANCH  23  24
ENDBRANCH   1  23
TORSDOF 19
ENDMDL
MODEL 2
REMARK VINA RESULT:     -10.5      3.120      9.423
REMARK SMILES CC(C)CCOc1ccccc1-c1cc(C(=O)NCCCCNC(=O)c2ccc(-c3c4nc(c(-c5ccc(S(=O)(=O)[O-])cc5)c5ccc([nH]5)c(-c5ccc(S(=O)(=O)[O-])cc5)c5nc(c(-c6ccc(S(=O)(=O)[O-])cc6)c6ccc3[nH]6)C=C5)C=C4)cc2)no1
REMARK SMILES IDX 19 1 18 2 16 3 17 4 15 6 13 7 14 8 87 9 86 10 12 11 7 12
REMARK SMILES IDX 8 13 9 14 11 15 10 16 6 17 5 18 4 19 2 20 1 21 3 22 20 23
REMARK SMILES IDX 21 24 22 25 23 26 24 27 25 29 26 30 27 31 85 32 28 33 84 34
REMARK SMILES IDX 29 35 30 36 31 37 78 38 32 39 83 40 77 41 79 42 33 43 82 44
REMARK SMILES IDX 76 45 75 46 34 48 64 49 45 50 63 51 46 52 49 53 62 54 80 55
REMARK SMILES IDX 47 56 48 57 61 59 81 60 50 61 35 62 36 63 44 64 37 65 43 66
REMARK SMILES IDX 38 67 39 68 40 69 41 70 42 71 65 72 66 73 74 74 67 75 73 76
REMARK SMILES IDX 68 77 69 78 70 79 71 80 72 81 51 82 52 83 60 84 53 85 59 86
REMARK SMILES IDX 54 87 55 88 56 89 57 90 58 91
REMARK H PARENT 18 5 23 28 79 47 49 58
REMARK Flexibility Score: inf
ROOT
ATOM      1  C   UNL A   1      33.785  22.404  23.143  1.00  0.00     0.116 C 
ENDROOT
BRANCH   1   2
ATOM      2  N   UNL A   1      33.318  21.479  24.163  1.00  0.00    -0.351 N 
ATOM      3  C   UNL A   1      32.265  21.529  25.061  1.00  0.00     0.273 C 
ATOM      4  O   UNL A   1      31.966  20.480  25.630  1.00  0.00    -0.267 OA
ATOM      5  H   UNL A   1      33.855  20.657  24.230  1.00  0.00     0.163 HD
BRANCH   3   6
ATOM      6  C   UNL A   1      31.576  22.798  25.359  1.00  0.00     0.171 A 
ATOM      7  C   UNL A   1      30.729  25.513  24.871  1.00  0.00     0.171 A 
ATOM      8  C   UNL A   1      31.388  24.208  24.185  1.00  0.00     0.088 A 
ATOM      9  O   UNL A   1      30.493  25.134  26.703  1.00  0.00    -0.355 OA
ATOM     10  N   UNL A   1      31.086  23.220  26.922  1.00  0.00    -0.074 NA
BRANCH   7  11
ATOM     11  C   UNL A   1      29.856  26.500  24.259  1.00  0.00     0.062 A 
ATOM     12  C   UNL A   1      30.470  27.576  23.566  1.00  0.00     0.130 A 
ATOM     13  C   UNL A   1      29.692  28.517  22.908  1.00  0.00     0.047 A 
ATOM     14  C   UNL A   1      28.303  28.397  22.944  1.00  0.00     0.004 A 
ATOM     15  C   UNL A   1      28.471  26.386  24.298  1.00  0.00     0.016 A 
ATOM     16  C   UNL A   1      27.696  27.348  23.649  1.00  0.00     0.001 A 
BRANCH  12  17
ATOM     17  O   UNL A   1      31.830  27.807  23.630  1.00  0.00    -0.493 OA
BRANCH  17  18
ATOM     18  C   UNL A   1      32.208  29.087  24.168  1.00  0.00     0.230 C 
BRANCH  18  19
ATOM     19  C   UNL A   1      31.848  29.229  25.669  1.00  0.00     0.044 C 
BRANCH  19  20
ATOM     20  C   UNL A   1      32.592  30.567  26.353  1.00  0.00    -0.014 C 
ATOM     21  C   UNL A   1      31.203  31.664  26.413  1.00  0.00     0.007 C 
ATOM     22  C   UNL A   1      34.357  30.864  27.748  1.00  0.00     0.007 C 
ENDBRANCH  19  20
ENDBRANCH  18  19
ENDBRANCH  17  18
ENDBRANCH  12  17
ENDBRANCH   7  11
ENDBRANCH   3   6
ENDBRANCH   1   2
BRANCH   1  23
ATOM     23  C   UNL A   1      35.189  22.951  23.404  1.00  0.00     0.023 C 
BRANCH  23  24
ATOM     24  C   UNL A   1      35.559  23.040  24.881  1.00  0.00     0.023 C 
BRANCH  24  25
ATOM     25  C   UNL A   1      36.910  23.688  25.166  1.00  0.00     0.116 C 
BRANCH  25  26
ATOM     26  N   UNL A   1      37.962  22.728  25.472  1.00  0.00    -0.352 N 
ATOM     27  C   UNL A   1      39.126  22.945  26.174  1.00  0.00     0.251 C 
ATOM     28  H   UNL A   1      37.824  21.813  25.135  1.00  0.00     0.163 HD
ATOM     29  O   UNL A   1      39.985  22.072  26.240  1.00  0.00    -0.269 OA
BRANCH  27  30
ATOM     30  C   UNL A   1      39.339  24.262  26.809  1.00  0.00     0.039 A 
ATOM     31  C   UNL A   1      38.885  24.464  28.112  1.00  0.00     0.014 A 
ATOM     32  C   UNL A   1      40.055  25.261  26.143  1.00  0.00     0.014 A 
ATOM     33  C   UNL A   1      39.222  25.644  28.779  1.00  0.00     0.010 A 
ATOM     34  C   UNL A   1      40.466  26.393  26.839  1.00  0.00     0.010 A 
ATOM     35  C   UNL A   1      40.058  26.594  28.166  1.00  0.00    -0.014 A 
BRANCH  35  36
ATOM     36  C   UNL A   1      40.541  27.784  28.913  1.00  0.00     0.031 A 
ATOM     37  C   UNL A   1      41.905  27.785  29.546  1.00  0.00     0.074 A 
ATOM     38  C   UNL A   1      39.724  28.848  29.064  1.00  0.00     0.049 A 
ATOM     39  N   UNL A   1      42.483  28.721  30.254  1.00  0.00    -0.248 NA
ATOM     40  C   UNL A   1      42.720  26.569  29.382  1.00  0.00     0.031 C 
ATOM     41  C   UNL A   1      38.363  28.953  28.532  1.00  0.00     0.029 A 
ATOM     42  N   UNL A   1      39.919  30.045  29.708  1.00  0.00    -0.354 N 
ATOM     43  C   UNL A   1      43.720  28.208  30.623  1.00  0.00     0.074 A 
ATOM     44  C   UNL A   1      43.787  26.856  30.113  1.00  0.00     0.031 C 
ATOM     45  C   UNL A   1      37.864  30.162  28.834  1.00  0.00     0.029 A 
ATOM     46  C   UNL A   1      38.841  30.895  29.630  1.00  0.00     0.049 A 
ATOM     47  H   UNL A   1      40.752  30.272  30.181  1.00  0.00     0.167 HD
ATOM     48  C   UNL A   1      44.720  28.814  31.307  1.00  0.00     0.031 A 
ATOM     49  C   UNL A   1      38.652  32.125  30.151  1.00  0.00     0.031 A 
ATOM     50  C   UNL A   1      44.643  30.157  31.822  1.00  0.00     0.049 A 
ATOM     51  C   UNL A   1      39.760  32.757  30.949  1.00  0.00     0.074 A 
ATOM     52  C   UNL A   1      45.618  30.877  32.489  1.00  0.00     0.029 A 
ATOM     53  N   UNL A   1      43.527  30.977  31.740  1.00  0.00    -0.354 N 
ATOM     54  N   UNL A   1      40.954  32.286  31.219  1.00  0.00    -0.248 NA
ATOM     55  C   UNL A   1      39.497  34.090  31.506  1.00  0.00     0.031 C 
ATOM     56  C   UNL A   1      45.067  32.100  32.880  1.00  0.00     0.029 A 
ATOM     57  C   UNL A   1      43.776  32.179  32.383  1.00  0.00     0.049 A 
ATOM     58  H   UNL A   1      42.683  30.740  31.293  1.00  0.00     0.167 HD
ATOM     59  C   UNL A   1      41.594  33.276  31.955  1.00  0.00     0.074 A 
ATOM     60  C   UNL A   1      40.663  34.381  32.065  1.00  0.00     0.031 C 
ATOM     61  C   UNL A   1      42.839  33.271  32.493  1.00  0.00     0.031 A 
BRANCH  48  62
ATOM     62  C   UNL A   1      45.980  28.024  31.556  1.00  0.00    -0.014 A 
ATOM     63  C   UNL A   1      46.207  27.377  32.785  1.00  0.00     0.010 A 
ATOM     64  C   UNL A   1      46.930  27.882  30.527  1.00  0.00     0.010 A 
ATOM     65  C   UNL A   1      47.374  26.637  32.993  1.00  0.00     0.020 A 
ATOM     66  C   UNL A   1      48.082  27.114  30.718  1.00  0.00     0.020 A 
ATOM     67  C   UNL A   1      48.304  26.510  31.956  1.00  0.00     0.054 A 
BRANCH  67  68
ATOM     68  S   UNL A   1      49.794  25.519  32.247  1.00  0.00     0.124 S 
ATOM     69  O   UNL A   1      50.687  26.492  32.872  1.00  0.00    -0.237 OA
ATOM     70  O   UNL A   1      49.305  24.461  33.127  1.00  0.00    -0.237 OA
ATOM     71  O   UNL A   1      50.189  25.082  30.910  1.00  0.00    -0.744 OA
ENDBRANCH  67  68
ENDBRANCH  48  62
BRANCH  49  72
ATOM     72  C   UNL A   1      37.361  32.837  29.935  1.00  0.00    -0.014 A 
ATOM     73  C   UNL A   1      37.048  33.400  28.686  1.00  0.00     0.010 A 
ATOM     74  C   UNL A   1      36.431  32.954  30.986  1.00  0.00     0.010 A 
ATOM     75  C   UNL A   1      35.843  34.083  28.496  1.00  0.00     0.020 A 
ATOM     76  C   UNL A   1      35.209  33.603  30.790  1.00  0.00     0.020 A 
ATOM     77  C   UNL A   1      34.928  34.174  29.549  1.00  0.00     0.054 A 
BRANCH  77  78
ATOM     78  S   UNL A   1      33.349  35.021  29.263  1.00  0.00     0.124 S 
ATOM     79  O   UNL A   1      32.728  34.961  30.581  1.00  0.00    -0.237 OA
ATOM     80  O   UNL A   1      33.782  36.346  28.825  1.00  0.00    -0.237 OA
ATOM     81  O   UNL A   1      32.707  34.210  28.230  1.00  0.00    -0.744 OA
ENDBRANCH  77  78
ENDBRANCH  49  72
BRANCH  61  82
ATOM     82  C   UNL A   1      43.283  34.509  33.229  1.00  0.00    -0.014 A 
ATOM     83  C   UNL A   1      43.193  34.601  34.629  1.00  0.00     0.010 A 
ATOM     84  C   UNL A   1      43.852  35.577  32.510  1.00  0.00     0.010 A 
ATOM     85  C   UNL A   1      43.630  35.752  35.292  1.00  0.00     0.020 A 
ATOM     86  C   UNL A   1      44.326  36.712  33.171  1.00  0.00     0.020 A 
ATOM     87  C   UNL A   1      44.199  36.798  34.559  1.00  0.00     0.054 A 
BRANCH  87  88
ATOM     88  S   UNL A   1      44.803  38.256  35.451  1.00  0.00     0.124 S 
ATOM     89  O   UNL A   1      46.184  37.883  35.746  1.00  0.00    -0.237 OA
ATOM     90  O   UNL A   1      44.638  39.322  34.466  1.00  0.00    -0.237 OA
ATOM     91  O   UNL A   1      43.921  38.345  36.612  1.00  0.00    -0.744 OA
ENDBRANCH  87  88
ENDBRANCH  61  82
ENDBRANCH  35  36
ENDBRANCH  27  30
ENDBRANCH  25  26
ENDBRANCH  24  25
ENDBRANCH  23  24
ENDBRANCH   1  23
TORSDOF 19
ENDMDL
MODEL 3
REMARK VINA RESULT:     -10.4      4.446      9.992
REMARK SMILES CC(C)CCOc1ccccc1-c1cc(C(=O)NCCCCNC(=O)c2ccc(-c3c4nc(c(-c5ccc(S(=O)(=O)[O-])cc5)c5ccc([nH]5)c(-c5ccc(S(=O)(=O)[O-])cc5)c5nc(c(-c6ccc(S(=O)(=O)[O-])cc6)c6ccc3[nH]6)C=C5)C=C4)cc2)no1
REMARK SMILES IDX 19 1 18 2 16 3 17 4 15 6 13 7 14 8 87 9 86 10 12 11 7 12
REMARK SMILES IDX 8 13 9 14 11 15 10 16 6 17 5 18 4 19 2 20 1 21 3 22 20 23
REMARK SMILES IDX 21 24 22 25 23 26 24 27 25 29 26 30 27 31 85 32 28 33 84 34
REMARK SMILES IDX 29 35 30 36 31 37 78 38 32 39 83 40 77 41 79 42 33 43 82 44
REMARK SMILES IDX 76 45 75 46 34 48 64 49 45 50 63 51 46 52 49 53 62 54 80 55
REMARK SMILES IDX 47 56 48 57 61 59 81 60 50 61 35 62 36 63 44 64 37 65 43 66
REMARK SMILES IDX 38 67 39 68 40 69 41 70 42 71 65 72 66 73 74 74 67 75 73 76
REMARK SMILES IDX 68 77 69 78 70 79 71 80 72 81 51 82 52 83 60 84 53 85 59 86
REMARK SMILES IDX 54 87 55 88 56 89 57 90 58 91
REMARK H PARENT 18 5 23 28 79 47 49 58
REMARK Flexibility Score: inf
ROOT
ATOM      1  C   UNL A   1      33.999  22.552  23.308  1.00  0.00     0.116 C 
ENDROOT
BRANCH   1   2
ATOM      2  N   UNL A   1      33.352  21.534  24.120  1.00  0.00    -0.351 N 
ATOM      3  C   UNL A   1      32.173  21.524  24.846  1.00  0.00     0.273 C 
ATOM      4  O   UNL A   1      31.760  20.428  25.224  1.00  0.00    -0.267 OA
ATOM      5  H   UNL A   1      33.850  20.685  24.164  1.00  0.00     0.163 HD
BRANCH   3   6
ATOM      6  C   UNL A   1      31.480  22.778  25.192  1.00  0.00     0.171 A 
ATOM      7  C   UNL A   1      30.761  25.557  24.901  1.00  0.00     0.171 A 
ATOM      8  C   UNL A   1      31.473  24.309  24.165  1.00  0.00     0.088 A 
ATOM      9  O   UNL A   1      30.287  24.996  26.638  1.00  0.00    -0.355 OA
ATOM     10  N   UNL A   1      30.805  23.050  26.719  1.00  0.00    -0.074 NA
BRANCH   7  11
ATOM     11  C   UNL A   1      29.993  26.633  24.296  1.00  0.00     0.062 A 
ATOM     12  C   UNL A   1      30.696  27.809  23.927  1.00  0.00     0.130 A 
ATOM     13  C   UNL A   1      30.033  28.848  23.290  1.00  0.00     0.047 A 
ATOM     14  C   UNL A   1      28.669  28.724  23.027  1.00  0.00     0.004 A 
ATOM     15  C   UNL A   1      28.633  26.515  24.038  1.00  0.00     0.016 A 
ATOM     16  C   UNL A   1      27.970  27.572  23.414  1.00  0.00     0.001 A 
BRANCH  12  17
ATOM     17  O   UNL A   1      32.009  28.026  24.299  1.00  0.00    -0.493 OA
BRANCH  17  18
ATOM     18  C   UNL A   1      32.374  29.407  24.476  1.00  0.00     0.230 C 
BRANCH  18  19
ATOM     19  C   UNL A   1      31.862  29.989  25.817  1.00  0.00     0.044 C 
BRANCH  19  20
ATOM     20  C   UNL A   1      32.748  29.407  27.116  1.00  0.00    -0.014 C 
ATOM     21  C   UNL A   1      31.617  28.174  27.698  1.00  0.00     0.007 C 
ATOM     22  C   UNL A   1      34.960  29.259  27.594  1.00  0.00     0.007 C 
ENDBRANCH  19  20
ENDBRANCH  18  19
ENDBRANCH  17  18
ENDBRANCH  12  17
ENDBRANCH   7  11
ENDBRANCH   3   6
ENDBRANCH   1   2
BRANCH   1  23
ATOM     23  C   UNL A   1      35.422  22.884  23.756  1.00  0.00     0.023 C 
BRANCH  23  24
ATOM     24  C   UNL A   1      35.664  22.706  25.252  1.00  0.00     0.023 C 
BRANCH  24  25
ATOM     25  C   UNL A   1      36.932  23.366  25.781  1.00  0.00     0.116 C 
BRANCH  25  26
ATOM     26  N   UNL A   1      37.995  22.419  26.089  1.00  0.00    -0.352 N 
ATOM     27  C   UNL A   1      39.257  22.691  26.568  1.00  0.00     0.251 C 
ATOM     28  H   UNL A   1      37.787  21.469  25.934  1.00  0.00     0.163 HD
ATOM     29  O   UNL A   1      40.095  21.801  26.655  1.00  0.00    -0.269 OA
BRANCH  27  30
ATOM     30  C   UNL A   1      39.594  24.082  26.935  1.00  0.00     0.039 A 
ATOM     31  C   UNL A   1      39.480  24.475  28.269  1.00  0.00     0.014 A 
ATOM     32  C   UNL A   1      40.095  24.965  25.975  1.00  0.00     0.014 A 
ATOM     33  C   UNL A   1      39.948  25.733  28.654  1.00  0.00     0.010 A 
ATOM     34  C   UNL A   1      40.643  26.179  26.376  1.00  0.00     0.010 A 
ATOM     35  C   UNL A   1      40.580  26.573  27.721  1.00  0.00    -0.014 A 
BRANCH  35  36
ATOM     36  C   UNL A   1      41.209  27.851  28.145  1.00  0.00     0.031 A 
ATOM     37  C   UNL A   1      42.699  28.034  28.053  1.00  0.00     0.074 A 
ATOM     38  C   UNL A   1      40.438  28.829  28.663  1.00  0.00     0.049 A 
ATOM     39  N   UNL A   1      43.424  29.068  28.398  1.00  0.00    -0.248 NA
ATOM     40  C   UNL A   1      43.481  26.903  27.525  1.00  0.00     0.031 C 
ATOM     41  C   UNL A   1      38.985  28.758  28.843  1.00  0.00     0.029 A 
ATOM     42  N   UNL A   1      40.767  30.077  29.133  1.00  0.00    -0.354 N 
ATOM     43  C   UNL A   1      44.741  28.711  28.135  1.00  0.00     0.074 A 
ATOM     44  C   UNL A   1      44.723  27.346  27.659  1.00  0.00     0.031 C 
ATOM     45  C   UNL A   1      38.546  29.923  29.342  1.00  0.00     0.029 A 
ATOM     46  C   UNL A   1      39.685  30.803  29.575  1.00  0.00     0.049 A 
ATOM     47  H   UNL A   1      41.689  30.419  29.153  1.00  0.00     0.167 HD
ATOM     48  C   UNL A   1      45.863  29.460  28.259  1.00  0.00     0.031 A 
ATOM     49  C   UNL A   1      39.615  32.035  30.119  1.00  0.00     0.031 A 
ATOM     50  C   UNL A   1      45.875  30.816  28.744  1.00  0.00     0.049 A 
ATOM     51  C   UNL A   1      40.883  32.827  30.293  1.00  0.00     0.074 A 
ATOM     52  C   UNL A   1      46.954  31.674  28.865  1.00  0.00     0.029 A 
ATOM     53  N   UNL A   1      44.762  31.507  29.201  1.00  0.00    -0.354 N 
ATOM     54  N   UNL A   1      42.110  32.502  29.963  1.00  0.00    -0.248 NA
ATOM     55  C   UNL A   1      40.754  34.156  30.904  1.00  0.00     0.031 C 
ATOM     56  C   UNL A   1      46.508  32.854  29.468  1.00  0.00     0.029 A 
ATOM     57  C   UNL A   1      45.137  32.765  29.644  1.00  0.00     0.049 A 
ATOM     58  H   UNL A   1      43.843  31.156  29.210  1.00  0.00     0.167 HD
ATOM     59  C   UNL A   1      42.896  33.598  30.303  1.00  0.00     0.074 A 
ATOM     60  C   UNL A   1      42.001  34.602  30.839  1.00  0.00     0.031 C 
ATOM     61  C   UNL A   1      44.237  33.756  30.184  1.00  0.00     0.031 A 
BRANCH  48  62
ATOM     62  C   UNL A   1      47.177  28.824  27.881  1.00  0.00    -0.014 A 
ATOM     63  C   UNL A   1      47.991  28.199  28.844  1.00  0.00     0.010 A 
ATOM     64  C   UNL A   1      47.580  28.804  26.532  1.00  0.00     0.010 A 
ATOM     65  C   UNL A   1      49.199  27.603  28.472  1.00  0.00     0.020 A 
ATOM     66  C   UNL A   1      48.770  28.178  26.151  1.00  0.00     0.020 A 
ATOM     67  C   UNL A   1      49.580  27.595  27.127  1.00  0.00     0.054 A 
BRANCH  67  68
ATOM     68  S   UNL A   1      51.139  26.787  26.673  1.00  0.00     0.124 S 
ATOM     69  O   UNL A   1      51.624  27.650  25.599  1.00  0.00    -0.237 OA
ATOM     70  O   UNL A   1      51.901  26.845  27.918  1.00  0.00    -0.237 OA
ATOM     71  O   UNL A   1      50.729  25.447  26.258  1.00  0.00    -0.744 OA
ENDBRANCH  67  68
ENDBRANCH  48  62
BRANCH  49  72
ATOM     72  C   UNL A   1      38.300  32.592  30.543  1.00  0.00    -0.014 A 
ATOM     73  C   UNL A   1      37.832  32.416  31.857  1.00  0.00     0.010 A 
ATOM     74  C   UNL A   1      37.503  33.306  29.627  1.00  0.00     0.010 A 
ATOM     75  C   UNL A   1      36.588  32.925  32.242  1.00  0.00     0.020 A 
ATOM     76  C   UNL A   1      36.277  33.849  30.018  1.00  0.00     0.020 A 
ATOM     77  C   UNL A   1      35.822  33.644  31.321  1.00  0.00     0.054 A 
BRANCH  77  78
ATOM     78  S   UNL A   1      34.234  34.338  31.859  1.00  0.00     0.124 S 
ATOM     79  O   UNL A   1      33.717  33.283  32.723  1.00  0.00    -0.237 OA
ATOM     80  O   UNL A   1      34.645  35.567  32.535  1.00  0.00    -0.237 OA
ATOM     81  O   UNL A   1      33.506  34.538  30.608  1.00  0.00    -0.744 OA
ENDBRANCH  77  78
ENDBRANCH  49  72
BRANCH  61  82
ATOM     82  C   UNL A   1      44.822  35.077  30.616  1.00  0.00    -0.014 A 
ATOM     83  C   UNL A   1      45.320  35.267  31.917  1.00  0.00     0.010 A 
ATOM     84  C   UNL A   1      44.924  36.128  29.686  1.00  0.00     0.010 A 
ATOM     85  C   UNL A   1      45.876  36.495  32.290  1.00  0.00     0.020 A 
ATOM     86  C   UNL A   1      45.514  37.343  30.042  1.00  0.00     0.020 A 
ATOM     87  C   UNL A   1      45.974  37.523  31.347  1.00  0.00     0.054 A 
BRANCH  87  88
ATOM     88  S   UNL A   1      46.747  39.086  31.844  1.00  0.00     0.124 S 
ATOM     89  O   UNL A   1      47.889  38.626  32.630  1.00  0.00    -0.237 OA
ATOM     90  O   UNL A   1      47.074  39.701  30.561  1.00  0.00    -0.237 OA
ATOM     91  O   UNL A   1      45.701  39.765  32.606  1.00  0.00    -0.744 OA
ENDBRANCH  87  88
ENDBRANCH  61  82
ENDBRANCH  35  36
ENDBRANCH  27  30
ENDBRANCH  25  26
ENDBRANCH  24  25
ENDBRANCH  23  24
ENDBRANCH   1  23
TORSDOF 19
ENDMDL
