MODEL 1
REMARK VINA RESULT:      -9.6      0.000      0.000
REMARK SMILES CCc1nsc(NC[C@H](CC(C)C)C(=O)NCCCCNC(=O)c2ccc(-c3c4nc(c(-c5ccc(S(=O)(=O)[O-])cc5)c5ccc([nH]5)c(-c5ccc(S(=O)(=O)[O-])cc5)c5nc(c(-c6ccc(S(=O)(=O)[O-])cc6)c6ccc3[nH]6)C=C5)C=C4)cc2)n1
REMARK SMILES IDX 18 1 17 2 16 3 14 4 15 5 9 7 8 8 7 9 6 11 3 12 4 13 84 14
REMARK SMILES IDX 5 15 2 16 1 17 10 18 11 19 12 20 13 21 19 22 20 23 21 24
REMARK SMILES IDX 22 25 23 27 24 28 25 29 83 30 26 31 82 32 27 33 28 34 29 35
REMARK SMILES IDX 76 36 30 37 81 38 75 39 77 40 31 41 80 42 74 43 73 44 32 46
REMARK SMILES IDX 62 47 43 48 61 49 44 50 47 51 60 52 78 53 45 54 46 55 59 57
REMARK SMILES IDX 79 58 48 59 33 60 34 61 42 62 35 63 41 64 36 65 37 66 38 67
REMARK SMILES IDX 39 68 40 69 63 70 64 71 72 72 65 73 71 74 66 75 67 76 68 77
REMARK SMILES IDX 69 78 70 79 49 80 50 81 58 82 51 83 57 84 52 85 53 86 54 87
REMARK SMILES IDX 55 88 56 89
REMARK H PARENT 16 6 7 10 21 26 77 45 47 56
REMARK Flexibility Score: inf
ROOT
ATOM      1  C   UNL A   1      31.926  28.090  25.891  1.00  0.00     0.023 C 
ENDROOT
BRANCH   1   2
ATOM      2  C   UNL A   1      31.318  26.887  25.176  1.00  0.00     0.116 C 
BRANCH   2   3
ATOM      3  N   UNL A   1      30.689  25.974  26.115  1.00  0.00    -0.356 N 
ATOM      4  C   UNL A   1      30.889  24.644  26.326  1.00  0.00     0.224 C 
ATOM      5  O   UNL A   1      30.224  24.097  27.208  1.00  0.00    -0.275 OA
ATOM      6  H   UNL A   1      30.007  26.385  26.693  1.00  0.00     0.163 HD
BRANCH   4   7
ATOM      7  C   UNL A   1      31.934  23.858  25.541  1.00  0.00     0.098 C 
BRANCH   7   8
ATOM      8  C   UNL A   1      31.415  22.415  25.364  1.00  0.00     0.128 C 
BRANCH   8   9
ATOM      9  N   UNL A   1      32.041  21.789  24.219  1.00  0.00    -0.359 N 
ATOM     10  H   UNL A   1      31.907  22.216  23.342  1.00  0.00     0.162 HD
BRANCH   9  11
ATOM     11  C   UNL A   1      32.794  20.673  24.251  1.00  0.00     0.202 A 
ATOM     12  C   UNL A   1      33.398  18.600  23.814  1.00  0.00     0.144 A 
ATOM     13  N   UNL A   1      34.480  18.871  24.547  1.00  0.00    -0.174 NA
ATOM     14  N   UNL A   1      32.432  19.577  23.625  1.00  0.00    -0.204 NA
ATOM     15  S   UNL A   1      34.312  20.452  25.051  1.00  0.00     0.004 S 
BRANCH  12  16
ATOM     16  C   UNL A   1      33.212  17.259  23.195  1.00  0.00     0.075 C 
ATOM     17  C   UNL A   1      34.143  16.217  23.796  1.00  0.00     0.012 C 
ENDBRANCH  12  16
ENDBRANCH   9  11
ENDBRANCH   8   9
ENDBRANCH   7   8
BRANCH   7  18
ATOM     18  C   UNL A   1      33.343  23.921  26.174  1.00  0.00     0.018 C 
BRANCH  18  19
ATOM     19  C   UNL A   1      34.411  24.683  25.362  1.00  0.00    -0.017 C 
ATOM     20  C   UNL A   1      35.813  24.086  25.467  1.00  0.00     0.007 C 
ATOM     21  C   UNL A   1      33.983  24.718  23.889  1.00  0.00     0.007 C 
ENDBRANCH  18  19
ENDBRANCH   7  18
ENDBRANCH   4   7
ENDBRANCH   2   3
ENDBRANCH   1   2
BRANCH   1  22
ATOM     22  C   UNL A   1      33.207  27.777  26.661  1.00  0.00     0.023 C 
BRANCH  22  23
ATOM     23  C   UNL A   1      34.335  28.776  26.451  1.00  0.00     0.116 C 
BRANCH  23  24
ATOM     24  N   UNL A   1      33.952  30.135  26.798  1.00  0.00    -0.352 N 
ATOM     25  C   UNL A   1      34.526  30.983  27.711  1.00  0.00     0.251 C 
ATOM     26  H   UNL A   1      33.176  30.497  26.312  1.00  0.00     0.163 HD
ATOM     27  O   UNL A   1      33.968  32.042  27.993  1.00  0.00    -0.269 OA
BRANCH  25  28
ATOM     28  C   UNL A   1      35.795  30.606  28.365  1.00  0.00     0.039 A 
ATOM     29  C   UNL A   1      35.765  29.701  29.427  1.00  0.00     0.014 A 
ATOM     30  C   UNL A   1      37.012  31.141  27.932  1.00  0.00     0.014 A 
ATOM     31  C   UNL A   1      36.958  29.310  30.033  1.00  0.00     0.010 A 
ATOM     32  C   UNL A   1      38.206  30.675  28.471  1.00  0.00     0.010 A 
ATOM     33  C   UNL A   1      38.192  29.780  29.548  1.00  0.00    -0.014 A 
BRANCH  33  34
ATOM     34  C   UNL A   1      39.465  29.381  30.197  1.00  0.00     0.031 A 
ATOM     35  C   UNL A   1      39.925  30.082  31.450  1.00  0.00     0.074 A 
ATOM     36  C   UNL A   1      40.215  28.401  29.655  1.00  0.00     0.049 A 
ATOM     37  N   UNL A   1      40.991  29.861  32.174  1.00  0.00    -0.248 NA
ATOM     38  C   UNL A   1      39.093  31.196  31.937  1.00  0.00     0.031 C 
ATOM     39  C   UNL A   1      39.905  27.683  28.416  1.00  0.00     0.029 A 
ATOM     40  N   UNL A   1      41.390  27.834  30.081  1.00  0.00    -0.354 N 
ATOM     41  C   UNL A   1      40.959  30.807  33.192  1.00  0.00     0.074 A 
ATOM     42  C   UNL A   1      39.811  31.650  32.952  1.00  0.00     0.031 C 
ATOM     43  C   UNL A   1      40.841  26.743  28.208  1.00  0.00     0.029 A 
ATOM     44  C   UNL A   1      41.835  26.815  29.275  1.00  0.00     0.049 A 
ATOM     45  H   UNL A   1      41.868  28.131  30.889  1.00  0.00     0.167 HD
ATOM     46  C   UNL A   1      41.790  30.943  34.254  1.00  0.00     0.031 A 
ATOM     47  C   UNL A   1      42.919  26.022  29.384  1.00  0.00     0.031 A 
ATOM     48  C   UNL A   1      42.927  30.096  34.495  1.00  0.00     0.049 A 
ATOM     49  C   UNL A   1      43.830  26.193  30.570  1.00  0.00     0.074 A 
ATOM     50  C   UNL A   1      43.806  30.118  35.564  1.00  0.00     0.029 A 
ATOM     51  N   UNL A   1      43.345  29.075  33.655  1.00  0.00    -0.354 N 
ATOM     52  N   UNL A   1      43.740  27.047  31.564  1.00  0.00    -0.248 NA
ATOM     53  C   UNL A   1      44.978  25.282  30.658  1.00  0.00     0.031 C 
ATOM     54  C   UNL A   1      44.787  29.147  35.341  1.00  0.00     0.029 A 
ATOM     55  C   UNL A   1      44.483  28.475  34.168  1.00  0.00     0.049 A 
ATOM     56  H   UNL A   1      42.898  28.814  32.817  1.00  0.00     0.167 HD
ATOM     57  C   UNL A   1      44.807  26.757  32.408  1.00  0.00     0.074 A 
ATOM     58  C   UNL A   1      45.509  25.633  31.821  1.00  0.00     0.031 C 
ATOM     59  C   UNL A   1      45.176  27.365  33.563  1.00  0.00     0.031 A 
BRANCH  46  60
ATOM     60  C   UNL A   1      41.490  32.048  35.233  1.00  0.00    -0.014 A 
ATOM     61  C   UNL A   1      40.693  31.816  36.370  1.00  0.00     0.010 A 
ATOM     62  C   UNL A   1      42.034  33.331  35.033  1.00  0.00     0.010 A 
ATOM     63  C   UNL A   1      40.408  32.854  37.262  1.00  0.00     0.020 A 
ATOM     64  C   UNL A   1      41.778  34.363  35.941  1.00  0.00     0.020 A 
ATOM     65  C   UNL A   1      40.952  34.122  37.040  1.00  0.00     0.054 A 
BRANCH  65  66
ATOM     66  S   UNL A   1      40.583  35.443  38.227  1.00  0.00     0.124 S 
ATOM     67  O   UNL A   1      41.222  34.943  39.442  1.00  0.00    -0.237 OA
ATOM     68  O   UNL A   1      41.220  36.607  37.617  1.00  0.00    -0.237 OA
ATOM     69  O   UNL A   1      39.123  35.481  38.262  1.00  0.00    -0.744 OA
ENDBRANCH  65  66
ENDBRANCH  46  60
BRANCH  47  70
ATOM     70  C   UNL A   1      43.188  24.980  28.354  1.00  0.00    -0.014 A 
ATOM     71  C   UNL A   1      42.657  23.685  28.486  1.00  0.00     0.010 A 
ATOM     72  C   UNL A   1      43.977  25.284  27.230  1.00  0.00     0.010 A 
ATOM     73  C   UNL A   1      42.929  22.707  27.524  1.00  0.00     0.020 A 
ATOM     74  C   UNL A   1      44.224  24.318  26.250  1.00  0.00     0.020 A 
ATOM     75  C   UNL A   1      43.709  23.030  26.411  1.00  0.00     0.054 A 
BRANCH  75  76
ATOM     76  S   UNL A   1      44.010  21.757  25.153  1.00  0.00     0.124 S 
ATOM     77  O   UNL A   1      42.954  20.792  25.439  1.00  0.00    -0.237 OA
ATOM     78  O   UNL A   1      43.866  22.506  23.907  1.00  0.00    -0.237 OA
ATOM     79  O   UNL A   1      45.369  21.305  25.444  1.00  0.00    -0.744 OA
ENDBRANCH  75  76
ENDBRANCH  47  70
BRANCH  59  80
ATOM     80  C   UNL A   1      46.380  26.809  34.279  1.00  0.00    -0.014 A 
ATOM     81  C   UNL A   1      47.673  27.300  34.025  1.00  0.00     0.010 A 
ATOM     82  C   UNL A   1      46.209  25.794  35.239  1.00  0.00     0.010 A 
ATOM     83  C   UNL A   1      48.778  26.748  34.677  1.00  0.00     0.020 A 
ATOM     84  C   UNL A   1      47.308  25.265  35.919  1.00  0.00     0.020 A 
ATOM     85  C   UNL A   1      48.589  25.730  35.616  1.00  0.00     0.054 A 
BRANCH  85  86
ATOM     86  S   UNL A   1      50.039  25.037  36.456  1.00  0.00     0.124 S 
ATOM     87  O   UNL A   1      50.351  26.080  37.430  1.00  0.00    -0.237 OA
ATOM     88  O   UNL A   1      49.522  23.790  37.013  1.00  0.00    -0.237 OA
ATOM     89  O   UNL A   1      51.017  24.875  35.382  1.00  0.00    -0.744 OA
ENDBRANCH  85  86
ENDBRANCH  59  80
ENDBRANCH  33  34
ENDBRANCH  25  28
ENDBRANCH  23  24
ENDBRANCH  22  23
ENDBRANCH   1  22
TORSDOF 20
ENDMDL
MODEL 2
REMARK VINA RESULT:      -9.6      3.956      9.937
REMARK SMILES CCc1nsc(NC[C@H](CC(C)C)C(=O)NCCCCNC(=O)c2ccc(-c3c4nc(c(-c5ccc(S(=O)(=O)[O-])cc5)c5ccc([nH]5)c(-c5ccc(S(=O)(=O)[O-])cc5)c5nc(c(-c6ccc(S(=O)(=O)[O-])cc6)c6ccc3[nH]6)C=C5)C=C4)cc2)n1
REMARK SMILES IDX 18 1 17 2 16 3 14 4 15 5 9 7 8 8 7 9 6 11 3 12 4 13 84 14
REMARK SMILES IDX 5 15 2 16 1 17 10 18 11 19 12 20 13 21 19 22 20 23 21 24
REMARK SMILES IDX 22 25 23 27 24 28 25 29 83 30 26 31 82 32 27 33 28 34 29 35
REMARK SMILES IDX 76 36 30 37 81 38 75 39 77 40 31 41 80 42 74 43 73 44 32 46
REMARK SMILES IDX 62 47 43 48 61 49 44 50 47 51 60 52 78 53 45 54 46 55 59 57
REMARK SMILES IDX 79 58 48 59 33 60 34 61 42 62 35 63 41 64 36 65 37 66 38 67
REMARK SMILES IDX 39 68 40 69 63 70 64 71 72 72 65 73 71 74 66 75 67 76 68 77
REMARK SMILES IDX 69 78 70 79 49 80 50 81 58 82 51 83 57 84 52 85 53 86 54 87
REMARK SMILES IDX 55 88 56 89
REMARK H PARENT 16 6 7 10 21 26 77 45 47 56
REMARK Flexibility Score: inf
ROOT
ATOM      1  C   UNL A   1      34.012  24.597  24.989  1.00  0.00     0.023 C 
ENDROOT
BRANCH   1   2
ATOM      2  C   UNL A   1      33.083  24.605  23.778  1.00  0.00     0.116 C 
BRANCH   2   3
ATOM      3  N   UNL A   1      33.200  25.844  23.028  1.00  0.00    -0.356 N 
ATOM      4  C   UNL A   1      32.656  27.071  23.253  1.00  0.00     0.224 C 
ATOM      5  O   UNL A   1      32.927  27.974  22.459  1.00  0.00    -0.275 OA
ATOM      6  H   UNL A   1      33.766  25.785  22.225  1.00  0.00     0.163 HD
BRANCH   4   7
ATOM      7  C   UNL A   1      31.782  27.347  24.472  1.00  0.00     0.098 C 
BRANCH   7   8
ATOM      8  C   UNL A   1      30.315  27.065  24.083  1.00  0.00     0.128 C 
BRANCH   8   9
ATOM      9  N   UNL A   1      29.972  27.764  22.863  1.00  0.00    -0.359 N 
ATOM     10  H   UNL A   1      30.393  27.450  22.030  1.00  0.00     0.162 HD
BRANCH   9  11
ATOM     11  C   UNL A   1      29.125  28.807  22.769  1.00  0.00     0.202 A 
ATOM     12  C   UNL A   1      28.451  30.865  22.367  1.00  0.00     0.144 A 
ATOM     13  N   UNL A   1      27.238  30.424  22.707  1.00  0.00    -0.174 NA
ATOM     14  N   UNL A   1      29.531  29.995  22.389  1.00  0.00    -0.204 NA
ATOM     15  S   UNL A   1      27.424  28.810  23.087  1.00  0.00     0.004 S 
BRANCH  12  16
ATOM     16  C   UNL A   1      28.661  32.282  21.963  1.00  0.00     0.075 C 
ATOM     17  C   UNL A   1      29.042  33.164  23.143  1.00  0.00     0.012 C 
ENDBRANCH  12  16
ENDBRANCH   9  11
ENDBRANCH   8   9
ENDBRANCH   7   8
BRANCH   7  18
ATOM     18  C   UNL A   1      31.990  28.759  25.063  1.00  0.00     0.018 C 
BRANCH  18  19
ATOM     19  C   UNL A   1      32.590  28.812  26.484  1.00  0.00    -0.017 C 
ATOM     20  C   UNL A   1      31.728  28.132  27.546  1.00  0.00     0.007 C 
ATOM     21  C   UNL A   1      33.978  28.160  26.462  1.00  0.00     0.007 C 
ENDBRANCH  18  19
ENDBRANCH   7  18
ENDBRANCH   4   7
ENDBRANCH   2   3
ENDBRANCH   1   2
BRANCH   1  22
ATOM     22  C   UNL A   1      35.146  23.578  24.900  1.00  0.00     0.023 C 
BRANCH  22  23
ATOM     23  C   UNL A   1      36.487  24.072  25.421  1.00  0.00     0.116 C 
BRANCH  23  24
ATOM     24  N   UNL A   1      37.447  22.995  25.607  1.00  0.00    -0.352 N 
ATOM     25  C   UNL A   1      38.697  23.046  26.169  1.00  0.00     0.251 C 
ATOM     26  H   UNL A   1      37.161  22.109  25.287  1.00  0.00     0.163 HD
ATOM     27  O   UNL A   1      39.439  22.068  26.095  1.00  0.00    -0.269 OA
BRANCH  25  28
ATOM     28  C   UNL A   1      39.151  24.283  26.836  1.00  0.00     0.039 A 
ATOM     29  C   UNL A   1      38.802  24.498  28.171  1.00  0.00     0.014 A 
ATOM     30  C   UNL A   1      39.918  25.228  26.149  1.00  0.00     0.014 A 
ATOM     31  C   UNL A   1      39.251  25.645  28.823  1.00  0.00     0.010 A 
ATOM     32  C   UNL A   1      40.446  26.321  26.829  1.00  0.00     0.010 A 
ATOM     33  C   UNL A   1      40.093  26.558  28.164  1.00  0.00    -0.014 A 
BRANCH  33  34
ATOM     34  C   UNL A   1      40.562  27.789  28.847  1.00  0.00     0.031 A 
ATOM     35  C   UNL A   1      41.970  27.866  29.380  1.00  0.00     0.074 A 
ATOM     36  C   UNL A   1      39.721  28.831  29.001  1.00  0.00     0.049 A 
ATOM     37  N   UNL A   1      42.570  28.860  29.982  1.00  0.00    -0.248 NA
ATOM     38  C   UNL A   1      42.804  26.659  29.244  1.00  0.00     0.031 C 
ATOM     39  C   UNL A   1      38.319  28.860  28.577  1.00  0.00     0.029 A 
ATOM     40  N   UNL A   1      39.925  30.071  29.551  1.00  0.00    -0.354 N 
ATOM     41  C   UNL A   1      43.842  28.397  30.299  1.00  0.00     0.074 A 
ATOM     42  C   UNL A   1      43.903  27.012  29.891  1.00  0.00     0.031 C 
ATOM     43  C   UNL A   1      37.805  30.072  28.841  1.00  0.00     0.029 A 
ATOM     44  C   UNL A   1      38.825  30.892  29.487  1.00  0.00     0.049 A 
ATOM     45  H   UNL A   1      40.781  30.347  29.954  1.00  0.00     0.167 HD
ATOM     46  C   UNL A   1      44.881  29.071  30.849  1.00  0.00     0.031 A 
ATOM     47  C   UNL A   1      38.657  32.165  29.895  1.00  0.00     0.031 A 
ATOM     48  C   UNL A   1      44.819  30.452  31.246  1.00  0.00     0.049 A 
ATOM     49  C   UNL A   1      39.824  32.893  30.507  1.00  0.00     0.074 A 
ATOM     50  C   UNL A   1      45.827  31.243  31.769  1.00  0.00     0.029 A 
ATOM     51  N   UNL A   1      43.686  31.249  31.164  1.00  0.00    -0.354 N 
ATOM     52  N   UNL A   1      41.043  32.460  30.730  1.00  0.00    -0.248 NA
ATOM     53  C   UNL A   1      39.597  34.289  30.904  1.00  0.00     0.031 C 
ATOM     54  C   UNL A   1      45.288  32.502  32.057  1.00  0.00     0.029 A 
ATOM     55  C   UNL A   1      43.963  32.516  31.650  1.00  0.00     0.049 A 
ATOM     56  H   UNL A   1      42.815  30.957  30.812  1.00  0.00     0.167 HD
ATOM     57  C   UNL A   1      41.734  33.539  31.272  1.00  0.00     0.074 A 
ATOM     58  C   UNL A   1      40.805  34.649  31.314  1.00  0.00     0.031 C 
ATOM     59  C   UNL A   1      43.020  33.606  31.697  1.00  0.00     0.031 A 
BRANCH  46  60
ATOM     60  C   UNL A   1      46.170  28.318  31.048  1.00  0.00    -0.014 A 
ATOM     61  C   UNL A   1      47.167  28.309  30.054  1.00  0.00     0.010 A 
ATOM     62  C   UNL A   1      46.405  27.631  32.253  1.00  0.00     0.010 A 
ATOM     63  C   UNL A   1      48.353  27.593  30.242  1.00  0.00     0.020 A 
ATOM     64  C   UNL A   1      47.603  26.941  32.459  1.00  0.00     0.020 A 
ATOM     65  C   UNL A   1      48.562  26.912  31.444  1.00  0.00     0.054 A 
BRANCH  65  66
ATOM     66  S   UNL A   1      50.120  26.010  31.669  1.00  0.00     0.124 S 
ATOM     67  O   UNL A   1      51.111  27.057  31.435  1.00  0.00    -0.237 OA
ATOM     68  O   UNL A   1      50.018  25.539  33.048  1.00  0.00    -0.237 OA
ATOM     69  O   UNL A   1      50.066  24.964  30.651  1.00  0.00    -0.744 OA
ENDBRANCH  65  66
ENDBRANCH  46  60
BRANCH  47  70
ATOM     70  C   UNL A   1      37.341  32.838  29.717  1.00  0.00    -0.014 A 
ATOM     71  C   UNL A   1      36.501  33.078  30.819  1.00  0.00     0.010 A 
ATOM     72  C   UNL A   1      36.923  33.248  28.438  1.00  0.00     0.010 A 
ATOM     73  C   UNL A   1      35.258  33.693  30.642  1.00  0.00     0.020 A 
ATOM     74  C   UNL A   1      35.695  33.893  28.262  1.00  0.00     0.020 A 
ATOM     75  C   UNL A   1      34.864  34.099  29.364  1.00  0.00     0.054 A 
BRANCH  75  76
ATOM     76  S   UNL A   1      33.267  34.938  29.166  1.00  0.00     0.124 S 
ATOM     77  O   UNL A   1      32.726  34.884  30.519  1.00  0.00    -0.237 OA
ATOM     78  O   UNL A   1      33.664  36.262  28.692  1.00  0.00    -0.237 OA
ATOM     79  O   UNL A   1      32.570  34.116  28.179  1.00  0.00    -0.744 OA
ENDBRANCH  75  76
ENDBRANCH  47  70
BRANCH  59  80
ATOM     80  C   UNL A   1      43.502  34.934  32.223  1.00  0.00    -0.014 A 
ATOM     81  C   UNL A   1      43.372  35.273  33.582  1.00  0.00     0.010 A 
ATOM     82  C   UNL A   1      44.117  35.847  31.346  1.00  0.00     0.010 A 
ATOM     83  C   UNL A   1      43.797  36.521  34.042  1.00  0.00     0.020 A 
ATOM     84  C   UNL A   1      44.575  37.081  31.810  1.00  0.00     0.020 A 
ATOM     85  C   UNL A   1      44.391  37.420  33.151  1.00  0.00     0.054 A 
BRANCH  85  86
ATOM     86  S   UNL A   1      44.942  39.031  33.775  1.00  0.00     0.124 S 
ATOM     87  O   UNL A   1      45.033  39.816  32.546  1.00  0.00    -0.237 OA
ATOM     88  O   UNL A   1      43.863  39.409  34.684  1.00  0.00    -0.237 OA
ATOM     89  O   UNL A   1      46.218  38.734  34.421  1.00  0.00    -0.744 OA
ENDBRANCH  85  86
ENDBRANCH  59  80
ENDBRANCH  33  34
ENDBRANCH  25  28
ENDBRANCH  23  24
ENDBRANCH  22  23
ENDBRANCH   1  22
TORSDOF 20
ENDMDL
MODEL 3
REMARK VINA RESULT:      -9.5      3.139      9.585
REMARK SMILES CCc1nsc(NC[C@H](CC(C)C)C(=O)NCCCCNC(=O)c2ccc(-c3c4nc(c(-c5ccc(S(=O)(=O)[O-])cc5)c5ccc([nH]5)c(-c5ccc(S(=O)(=O)[O-])cc5)c5nc(c(-c6ccc(S(=O)(=O)[O-])cc6)c6ccc3[nH]6)C=C5)C=C4)cc2)n1
REMARK SMILES IDX 18 1 17 2 16 3 14 4 15 5 9 7 8 8 7 9 6 11 3 12 4 13 84 14
REMARK SMILES IDX 5 15 2 16 1 17 10 18 11 19 12 20 13 21 19 22 20 23 21 24
REMARK SMILES IDX 22 25 23 27 24 28 25 29 83 30 26 31 82 32 27 33 28 34 29 35
REMARK SMILES IDX 76 36 30 37 81 38 75 39 77 40 31 41 80 42 74 43 73 44 32 46
REMARK SMILES IDX 62 47 43 48 61 49 44 50 47 51 60 52 78 53 45 54 46 55 59 57
REMARK SMILES IDX 79 58 48 59 33 60 34 61 42 62 35 63 41 64 36 65 37 66 38 67
REMARK SMILES IDX 39 68 40 69 63 70 64 71 72 72 65 73 71 74 66 75 67 76 68 77
REMARK SMILES IDX 69 78 70 79 49 80 50 81 58 82 51 83 57 84 52 85 53 86 54 87
REMARK SMILES IDX 55 88 56 89
REMARK H PARENT 16 6 7 10 21 26 77 45 47 56
REMARK Flexibility Score: inf
ROOT
ATOM      1  C   UNL A   1      36.105  23.649  25.963  1.00  0.00     0.023 C 
ENDROOT
BRANCH   1   2
ATOM      2  C   UNL A   1      35.560  22.229  26.094  1.00  0.00     0.116 C 
BRANCH   2   3
ATOM      3  N   UNL A   1      34.652  22.112  27.222  1.00  0.00    -0.356 N 
ATOM      4  C   UNL A   1      33.324  22.395  27.324  1.00  0.00     0.224 C 
ATOM      5  O   UNL A   1      32.775  22.191  28.408  1.00  0.00    -0.275 OA
ATOM      6  H   UNL A   1      35.065  21.771  28.048  1.00  0.00     0.163 HD
BRANCH   4   7
ATOM      7  C   UNL A   1      32.520  22.899  26.129  1.00  0.00     0.098 C 
BRANCH   7   8
ATOM      8  C   UNL A   1      31.566  24.006  26.626  1.00  0.00     0.128 C 
BRANCH   8   9
ATOM      9  N   UNL A   1      31.993  25.299  26.136  1.00  0.00    -0.359 N 
ATOM     10  H   UNL A   1      32.794  25.695  26.548  1.00  0.00     0.162 HD
BRANCH   9  11
ATOM     11  C   UNL A   1      31.387  26.007  25.163  1.00  0.00     0.202 A 
ATOM     12  C   UNL A   1      30.696  27.776  24.049  1.00  0.00     0.144 A 
ATOM     13  N   UNL A   1      30.196  26.902  23.174  1.00  0.00    -0.174 NA
ATOM     14  N   UNL A   1      31.368  27.319  25.173  1.00  0.00    -0.204 NA
ATOM     15  S   UNL A   1      30.573  25.389  23.767  1.00  0.00     0.004 S 
BRANCH  12  16
ATOM     16  C   UNL A   1      30.544  29.242  23.834  1.00  0.00     0.075 C 
ATOM     17  C   UNL A   1      30.310  29.584  22.370  1.00  0.00     0.012 C 
ENDBRANCH  12  16
ENDBRANCH   9  11
ENDBRANCH   8   9
ENDBRANCH   7   8
BRANCH   7  18
ATOM     18  C   UNL A   1      31.792  21.769  25.368  1.00  0.00     0.018 C 
BRANCH  18  19
ATOM     19  C   UNL A   1      32.283  21.503  23.929  1.00  0.00    -0.017 C 
ATOM     20  C   UNL A   1      33.244  22.563  23.396  1.00  0.00     0.007 C 
ATOM     21  C   UNL A   1      32.964  20.129  23.883  1.00  0.00     0.007 C 
ENDBRANCH  18  19
ENDBRANCH   7  18
ENDBRANCH   4   7
ENDBRANCH   2   3
ENDBRANCH   1   2
BRANCH   1  22
ATOM     22  C   UNL A   1      37.561  23.719  25.507  1.00  0.00     0.023 C 
BRANCH  22  23
ATOM     23  C   UNL A   1      38.528  24.258  26.551  1.00  0.00     0.116 C 
BRANCH  23  24
ATOM     24  N   UNL A   1      39.910  24.233  26.100  1.00  0.00    -0.352 N 
ATOM     25  C   UNL A   1      40.949  25.050  26.468  1.00  0.00     0.251 C 
ATOM     26  H   UNL A   1      40.131  23.535  25.442  1.00  0.00     0.163 HD
ATOM     27  O   UNL A   1      42.017  24.989  25.861  1.00  0.00    -0.269 OA
BRANCH  25  28
ATOM     28  C   UNL A   1      40.768  26.012  27.574  1.00  0.00     0.039 A 
ATOM     29  C   UNL A   1      39.821  25.737  28.561  1.00  0.00     0.014 A 
ATOM     30  C   UNL A   1      41.531  27.181  27.638  1.00  0.00     0.014 A 
ATOM     31  C   UNL A   1      39.662  26.620  29.628  1.00  0.00     0.010 A 
ATOM     32  C   UNL A   1      41.442  28.009  28.753  1.00  0.00     0.010 A 
ATOM     33  C   UNL A   1      40.485  27.755  29.744  1.00  0.00    -0.014 A 
BRANCH  33  34
ATOM     34  C   UNL A   1      40.312  28.707  30.869  1.00  0.00     0.031 A 
ATOM     35  C   UNL A   1      41.167  28.579  32.103  1.00  0.00     0.074 A 
ATOM     36  C   UNL A   1      39.378  29.675  30.789  1.00  0.00     0.049 A 
ATOM     37  N   UNL A   1      41.182  29.327  33.177  1.00  0.00    -0.248 NA
ATOM     38  C   UNL A   1      42.110  27.448  32.151  1.00  0.00     0.031 C 
ATOM     39  C   UNL A   1      38.452  29.871  29.670  1.00  0.00     0.029 A 
ATOM     40  N   UNL A   1      39.059  30.684  31.662  1.00  0.00    -0.354 N 
ATOM     41  C   UNL A   1      42.125  28.755  34.023  1.00  0.00     0.074 A 
ATOM     42  C   UNL A   1      42.608  27.557  33.372  1.00  0.00     0.031 C 
ATOM     43  C   UNL A   1      37.702  30.959  29.906  1.00  0.00     0.029 A 
ATOM     44  C   UNL A   1      38.065  31.516  31.205  1.00  0.00     0.049 A 
ATOM     45  H   UNL A   1      39.501  30.801  32.534  1.00  0.00     0.167 HD
ATOM     46  C   UNL A   1      42.578  29.201  35.219  1.00  0.00     0.031 A 
ATOM     47  C   UNL A   1      37.512  32.609  31.765  1.00  0.00     0.031 A 
ATOM     48  C   UNL A   1      42.102  30.398  35.859  1.00  0.00     0.049 A 
ATOM     49  C   UNL A   1      38.028  33.085  33.097  1.00  0.00     0.074 A 
ATOM     50  C   UNL A   1      42.526  30.964  37.049  1.00  0.00     0.029 A 
ATOM     51  N   UNL A   1      41.095  31.212  35.365  1.00  0.00    -0.354 N 
ATOM     52  N   UNL A   1      38.974  32.571  33.848  1.00  0.00    -0.248 NA
ATOM     53  C   UNL A   1      37.413  34.300  33.648  1.00  0.00     0.031 C 
ATOM     54  C   UNL A   1      41.736  32.091  37.301  1.00  0.00     0.029 A 
ATOM     55  C   UNL A   1      40.866  32.265  36.236  1.00  0.00     0.049 A 
ATOM     56  H   UNL A   1      40.614  31.065  34.519  1.00  0.00     0.167 HD
ATOM     57  C   UNL A   1      39.084  33.415  34.948  1.00  0.00     0.074 A 
ATOM     58  C   UNL A   1      38.129  34.486  34.748  1.00  0.00     0.031 C 
ATOM     59  C   UNL A   1      39.900  33.314  36.027  1.00  0.00     0.031 A 
BRANCH  46  60
ATOM     60  C   UNL A   1      43.644  28.387  35.906  1.00  0.00    -0.014 A 
ATOM     61  C   UNL A   1      45.002  28.747  35.817  1.00  0.00     0.010 A 
ATOM     62  C   UNL A   1      43.286  27.264  36.674  1.00  0.00     0.010 A 
ATOM     63  C   UNL A   1      45.984  27.975  36.444  1.00  0.00     0.020 A 
ATOM     64  C   UNL A   1      44.262  26.509  37.331  1.00  0.00     0.020 A 
ATOM     65  C   UNL A   1      45.607  26.859  37.196  1.00  0.00     0.054 A 
BRANCH  65  66
ATOM     66  S   UNL A   1      46.902  25.890  38.018  1.00  0.00     0.124 S 
ATOM     67  O   UNL A   1      47.949  26.889  38.211  1.00  0.00    -0.237 OA
ATOM     68  O   UNL A   1      46.235  25.436  39.236  1.00  0.00    -0.237 OA
ATOM     69  O   UNL A   1      47.214  24.838  37.053  1.00  0.00    -0.744 OA
ENDBRANCH  65  66
ENDBRANCH  46  60
BRANCH  47  70
ATOM     70  C   UNL A   1      36.424  33.341  31.058  1.00  0.00    -0.014 A 
ATOM     71  C   UNL A   1      36.623  33.846  29.761  1.00  0.00     0.010 A 
ATOM     72  C   UNL A   1      35.178  33.531  31.682  1.00  0.00     0.010 A 
ATOM     73  C   UNL A   1      35.603  34.547  29.110  1.00  0.00     0.020 A 
ATOM     74  C   UNL A   1      34.145  34.204  31.022  1.00  0.00     0.020 A 
ATOM     75  C   UNL A   1      34.370  34.720  29.745  1.00  0.00     0.054 A 
BRANCH  75  76
ATOM     76  S   UNL A   1      33.047  35.594  28.862  1.00  0.00     0.124 S 
ATOM     77  O   UNL A   1      32.193  36.040  29.957  1.00  0.00    -0.237 OA
ATOM     78  O   UNL A   1      33.779  36.645  28.158  1.00  0.00    -0.237 OA
ATOM     79  O   UNL A   1      32.473  34.563  27.999  1.00  0.00    -0.744 OA
ENDBRANCH  75  76
ENDBRANCH  47  70
BRANCH  59  80
ATOM     80  C   UNL A   1      39.809  34.406  37.062  1.00  0.00    -0.014 A 
ATOM     81  C   UNL A   1      40.552  35.594  36.940  1.00  0.00     0.010 A 
ATOM     82  C   UNL A   1      38.946  34.249  38.163  1.00  0.00     0.010 A 
ATOM     83  C   UNL A   1      40.476  36.579  37.927  1.00  0.00     0.020 A 
ATOM     84  C   UNL A   1      38.841  35.247  39.134  1.00  0.00     0.020 A 
ATOM     85  C   UNL A   1      39.625  36.397  39.021  1.00  0.00     0.054 A 
BRANCH  85  86
ATOM     86  S   UNL A   1      39.538  37.695  40.284  1.00  0.00     0.124 S 
ATOM     87  O   UNL A   1      40.727  38.488  39.984  1.00  0.00    -0.237 OA
ATOM     88  O   UNL A   1      38.260  38.341  39.993  1.00  0.00    -0.237 OA
ATOM     89  O   UNL A   1      39.584  36.957  41.544  1.00  0.00    -0.744 OA
ENDBRANCH  85  86
ENDBRANCH  59  80
ENDBRANCH  33  34
ENDBRANCH  25  28
ENDBRANCH  23  24
ENDBRANCH  22  23
ENDBRANCH   1  22
TORSDOF 20
ENDMDL
