MODEL 1
REMARK VINA RESULT:     -11.9      0.000      0.000
REMARK SMILES N#Cc1ccc2c(c1)C=C(C(=O)NCCCCNC(=O)c1ccc(-c3c4nc(c(-c5ccc(S(=O)(=O)[O-])cc5)c5ccc([nH]5)c(-c5ccc(S(=O)(=O)[O-])cc5)c5nc(c(-c6ccc(S(=O)(=O)[O-])cc6)c6ccc3[nH]6)C=C5)C=C4)cc1)[C@@H](C(F)(F)F)O2
REMARK SMILES IDX 16 1 15 2 14 3 13 4 11 5 12 6 10 8 3 9 4 10 8 11 5 12 7 13
REMARK SMILES IDX 6 14 9 15 86 16 81 17 2 18 1 19 82 20 83 21 84 22 85 23
REMARK SMILES IDX 17 24 18 25 19 26 20 28 21 29 22 30 80 31 23 32 79 33 24 34
REMARK SMILES IDX 25 35 26 36 73 37 27 38 78 39 72 40 74 41 28 42 77 43 71 44
REMARK SMILES IDX 70 45 29 47 59 48 40 49 58 50 41 51 44 52 57 53 75 54 42 55
REMARK SMILES IDX 43 56 56 58 76 59 45 60 30 61 31 62 39 63 32 64 38 65 33 66
REMARK SMILES IDX 34 67 35 68 36 69 37 70 60 71 61 72 69 73 62 74 68 75 63 76
REMARK SMILES IDX 64 77 65 78 66 79 67 80 46 81 47 82 55 83 48 84 54 85 49 86
REMARK SMILES IDX 50 87 51 88 52 89 53 90
REMARK H PARENT 13 7 18 27 74 46 44 57
REMARK Flexibility Score: inf
ROOT
ATOM      1  C   UNL A   1      33.124  29.155  25.539  1.00  0.00     0.023 C 
ENDROOT
BRANCH   1   2
ATOM      2  C   UNL A   1      33.968  28.262  24.641  1.00  0.00     0.023 C 
BRANCH   2   3
ATOM      3  C   UNL A   1      33.785  26.779  24.929  1.00  0.00     0.116 C 
BRANCH   3   4
ATOM      4  N   UNL A   1      33.442  26.021  23.736  1.00  0.00    -0.352 N 
ATOM      5  C   UNL A   1      32.372  25.910  22.911  1.00  0.00     0.251 C 
ATOM      6  O   UNL A   1      32.516  25.162  21.940  1.00  0.00    -0.270 OA
ATOM      7  H   UNL A   1      34.181  25.435  23.455  1.00  0.00     0.163 HD
BRANCH   5   8
ATOM      8  C   UNL A   1      31.070  26.614  23.110  1.00  0.00     0.067 C 
ATOM      9  C   UNL A   1      28.361  30.581  22.531  1.00  0.00     0.053 A 
ATOM     10  C   UNL A   1      27.241  29.879  22.990  1.00  0.00     0.023 A 
ATOM     11  C   UNL A   1      29.603  29.936  22.424  1.00  0.00     0.031 A 
ATOM     12  C   UNL A   1      27.362  28.540  23.346  1.00  0.00     0.048 A 
ATOM     13  C   UNL A   1      29.724  28.590  22.782  1.00  0.00     0.018 A 
ATOM     14  C   UNL A   1      28.599  27.909  23.247  1.00  0.00     0.128 A 
ATOM     15  C   UNL A   1      30.982  27.867  22.630  1.00  0.00     0.025 C 
ATOM     16  O   UNL A   1      28.611  26.594  23.592  1.00  0.00    -0.475 OA
ATOM     17  C   UNL A   1      29.908  25.993  23.828  1.00  0.00     0.314 C 
BRANCH   9  18
ATOM     18  C   UNL A   1      28.223  31.958  22.160  1.00  0.00     0.099 C 
ATOM     19  N   UNL A   1      28.134  33.078  21.863  1.00  0.00    -0.192 NA
ENDBRANCH   9  18
BRANCH  17  20
ATOM     20  C   UNL A   1      30.142  25.893  25.348  1.00  0.00     0.429 C 
ATOM     21  F   UNL A   1      31.009  24.887  25.626  1.00  0.00    -0.167 F 
ATOM     22  F   UNL A   1      30.678  27.017  25.877  1.00  0.00    -0.167 F 
ATOM     23  F   UNL A   1      29.000  25.645  26.030  1.00  0.00    -0.167 F 
ENDBRANCH  17  20
ENDBRANCH   5   8
ENDBRANCH   3   4
ENDBRANCH   2   3
ENDBRANCH   1   2
BRANCH   1  24
ATOM     24  C   UNL A   1      33.480  29.081  27.017  1.00  0.00     0.116 C 
BRANCH  24  25
ATOM     25  N   UNL A   1      33.506  30.376  27.690  1.00  0.00    -0.352 N 
ATOM     26  C   UNL A   1      34.552  30.938  28.390  1.00  0.00     0.251 C 
ATOM     27  H   UNL A   1      32.680  30.910  27.639  1.00  0.00     0.163 HD
ATOM     28  O   UNL A   1      34.415  31.990  29.003  1.00  0.00    -0.269 OA
BRANCH  26  29
ATOM     29  C   UNL A   1      35.828  30.197  28.419  1.00  0.00     0.039 A 
ATOM     30  C   UNL A   1      36.208  29.550  29.596  1.00  0.00     0.014 A 
ATOM     31  C   UNL A   1      36.715  30.316  27.348  1.00  0.00     0.014 A 
ATOM     32  C   UNL A   1      37.544  29.238  29.787  1.00  0.00     0.010 A 
ATOM     33  C   UNL A   1      38.030  29.871  27.501  1.00  0.00     0.010 A 
ATOM     34  C   UNL A   1      38.474  29.391  28.743  1.00  0.00    -0.014 A 
BRANCH  34  35
ATOM     35  C   UNL A   1      39.898  29.032  28.980  1.00  0.00     0.031 A 
ATOM     36  C   UNL A   1      40.842  29.986  29.667  1.00  0.00     0.074 A 
ATOM     37  C   UNL A   1      40.324  27.806  28.613  1.00  0.00     0.049 A 
ATOM     38  N   UNL A   1      42.108  29.816  29.955  1.00  0.00    -0.248 NA
ATOM     39  C   UNL A   1      40.310  31.295  30.081  1.00  0.00     0.031 C 
ATOM     40  C   UNL A   1      39.490  26.788  27.967  1.00  0.00     0.029 A 
ATOM     41  N   UNL A   1      41.541  27.190  28.756  1.00  0.00    -0.354 N 
ATOM     42  C   UNL A   1      42.526  30.995  30.563  1.00  0.00     0.074 A 
ATOM     43  C   UNL A   1      41.390  31.890  30.569  1.00  0.00     0.031 C 
ATOM     44  C   UNL A   1      40.195  25.660  27.835  1.00  0.00     0.029 A 
ATOM     45  C   UNL A   1      41.560  25.896  28.289  1.00  0.00     0.049 A 
ATOM     46  H   UNL A   1      42.325  27.631  29.156  1.00  0.00     0.167 HD
ATOM     47  C   UNL A   1      43.741  31.293  31.082  1.00  0.00     0.031 A 
ATOM     48  C   UNL A   1      42.562  24.999  28.209  1.00  0.00     0.031 A 
ATOM     49  C   UNL A   1      44.857  30.380  31.085  1.00  0.00     0.049 A 
ATOM     50  C   UNL A   1      43.915  25.377  28.734  1.00  0.00     0.074 A 
ATOM     51  C   UNL A   1      46.121  30.579  31.613  1.00  0.00     0.029 A 
ATOM     52  N   UNL A   1      44.851  29.101  30.543  1.00  0.00    -0.354 N 
ATOM     53  N   UNL A   1      44.281  26.486  29.330  1.00  0.00    -0.248 NA
ATOM     54  C   UNL A   1      44.989  24.388  28.585  1.00  0.00     0.031 C 
ATOM     55  C   UNL A   1      46.904  29.465  31.308  1.00  0.00     0.029 A 
ATOM     56  C   UNL A   1      46.102  28.522  30.686  1.00  0.00     0.049 A 
ATOM     57  H   UNL A   1      44.073  28.671  30.120  1.00  0.00     0.167 HD
ATOM     58  C   UNL A   1      45.624  26.321  29.646  1.00  0.00     0.074 A 
ATOM     59  C   UNL A   1      45.997  24.994  29.200  1.00  0.00     0.031 C 
ATOM     60  C   UNL A   1      46.469  27.195  30.245  1.00  0.00     0.031 A 
BRANCH  47  61
ATOM     61  C   UNL A   1      43.956  32.654  31.706  1.00  0.00    -0.014 A 
ATOM     62  C   UNL A   1      43.573  32.877  33.043  1.00  0.00     0.010 A 
ATOM     63  C   UNL A   1      44.391  33.747  30.935  1.00  0.00     0.010 A 
ATOM     64  C   UNL A   1      43.566  34.169  33.580  1.00  0.00     0.020 A 
ATOM     65  C   UNL A   1      44.424  35.036  31.480  1.00  0.00     0.020 A 
ATOM     66  C   UNL A   1      43.983  35.242  32.788  1.00  0.00     0.054 A 
BRANCH  66  67
ATOM     67  S   UNL A   1      43.909  36.917  33.481  1.00  0.00     0.124 S 
ATOM     68  O   UNL A   1      45.098  36.957  34.325  1.00  0.00    -0.237 OA
ATOM     69  O   UNL A   1      43.954  37.756  32.286  1.00  0.00    -0.237 OA
ATOM     70  O   UNL A   1      42.635  36.937  34.196  1.00  0.00    -0.744 OA
ENDBRANCH  66  67
ENDBRANCH  47  61
BRANCH  48  71
ATOM     71  C   UNL A   1      42.283  23.656  27.623  1.00  0.00    -0.014 A 
ATOM     72  C   UNL A   1      41.845  22.597  28.443  1.00  0.00     0.010 A 
ATOM     73  C   UNL A   1      42.560  23.397  26.270  1.00  0.00     0.010 A 
ATOM     74  C   UNL A   1      41.774  21.294  27.946  1.00  0.00     0.020 A 
ATOM     75  C   UNL A   1      42.445  22.101  25.756  1.00  0.00     0.020 A 
ATOM     76  C   UNL A   1      42.090  21.053  26.608  1.00  0.00     0.054 A 
BRANCH  76  77
ATOM     77  S   UNL A   1      42.070  19.340  26.010  1.00  0.00     0.124 S 
ATOM     78  O   UNL A   1      40.655  19.147  25.707  1.00  0.00    -0.237 OA
ATOM     79  O   UNL A   1      42.961  19.399  24.854  1.00  0.00    -0.237 OA
ATOM     80  O   UNL A   1      42.575  18.575  27.147  1.00  0.00    -0.744 OA
ENDBRANCH  76  77
ENDBRANCH  48  71
BRANCH  60  81
ATOM     81  C   UNL A   1      47.899  26.769  30.470  1.00  0.00    -0.014 A 
ATOM     82  C   UNL A   1      48.246  26.078  31.646  1.00  0.00     0.010 A 
ATOM     83  C   UNL A   1      48.922  27.185  29.598  1.00  0.00     0.010 A 
ATOM     84  C   UNL A   1      49.586  25.863  31.977  1.00  0.00     0.020 A 
ATOM     85  C   UNL A   1      50.263  26.934  29.905  1.00  0.00     0.020 A 
ATOM     86  C   UNL A   1      50.586  26.305  31.108  1.00  0.00     0.054 A 
BRANCH  86  87
ATOM     87  S   UNL A   1      52.320  26.082  31.593  1.00  0.00     0.124 S 
ATOM     88  O   UNL A   1      52.286  24.788  32.268  1.00  0.00    -0.237 OA
ATOM     89  O   UNL A   1      53.015  26.105  30.307  1.00  0.00    -0.237 OA
ATOM     90  O   UNL A   1      52.586  27.230  32.457  1.00  0.00    -0.744 OA
ENDBRANCH  86  87
ENDBRANCH  60  81
ENDBRANCH  34  35
ENDBRANCH  26  29
ENDBRANCH  24  25
ENDBRANCH   1  24
TORSDOF 16
ENDMDL
MODEL 2
REMARK VINA RESULT:     -11.7      0.278      8.181
REMARK SMILES N#Cc1ccc2c(c1)C=C(C(=O)NCCCCNC(=O)c1ccc(-c3c4nc(c(-c5ccc(S(=O)(=O)[O-])cc5)c5ccc([nH]5)c(-c5ccc(S(=O)(=O)[O-])cc5)c5nc(c(-c6ccc(S(=O)(=O)[O-])cc6)c6ccc3[nH]6)C=C5)C=C4)cc1)[C@@H](C(F)(F)F)O2
REMARK SMILES IDX 16 1 15 2 14 3 13 4 11 5 12 6 10 8 3 9 4 10 8 11 5 12 7 13
REMARK SMILES IDX 6 14 9 15 86 16 81 17 2 18 1 19 82 20 83 21 84 22 85 23
REMARK SMILES IDX 17 24 18 25 19 26 20 28 21 29 22 30 80 31 23 32 79 33 24 34
REMARK SMILES IDX 25 35 26 36 73 37 27 38 78 39 72 40 74 41 28 42 77 43 71 44
REMARK SMILES IDX 70 45 29 47 59 48 40 49 58 50 41 51 44 52 57 53 75 54 42 55
REMARK SMILES IDX 43 56 56 58 76 59 45 60 30 61 31 62 39 63 32 64 38 65 33 66
REMARK SMILES IDX 34 67 35 68 36 69 37 70 60 71 61 72 69 73 62 74 68 75 63 76
REMARK SMILES IDX 64 77 65 78 66 79 67 80 46 81 47 82 55 83 48 84 54 85 49 86
REMARK SMILES IDX 50 87 51 88 52 89 53 90
REMARK H PARENT 13 7 18 27 74 46 44 57
REMARK Flexibility Score: inf
ROOT
ATOM      1  C   UNL A   1      33.225  29.210  25.578  1.00  0.00     0.023 C 
ENDROOT
BRANCH   1   2
ATOM      2  C   UNL A   1      34.030  28.304  24.657  1.00  0.00     0.023 C 
BRANCH   2   3
ATOM      3  C   UNL A   1      33.844  26.824  24.961  1.00  0.00     0.116 C 
BRANCH   3   4
ATOM      4  N   UNL A   1      33.508  26.053  23.775  1.00  0.00    -0.352 N 
ATOM      5  C   UNL A   1      32.441  25.929  22.947  1.00  0.00     0.251 C 
ATOM      6  O   UNL A   1      32.591  25.171  21.984  1.00  0.00    -0.270 OA
ATOM      7  H   UNL A   1      34.250  25.467  23.501  1.00  0.00     0.163 HD
BRANCH   5   8
ATOM      8  C   UNL A   1      31.136  26.630  23.135  1.00  0.00     0.067 C 
ATOM      9  C   UNL A   1      28.404  30.569  22.477  1.00  0.00     0.053 A 
ATOM     10  C   UNL A   1      27.289  29.871  22.955  1.00  0.00     0.023 A 
ATOM     11  C   UNL A   1      29.649  29.929  22.380  1.00  0.00     0.031 A 
ATOM     12  C   UNL A   1      27.419  28.540  23.339  1.00  0.00     0.048 A 
ATOM     13  C   UNL A   1      29.778  28.591  22.767  1.00  0.00     0.018 A 
ATOM     14  C   UNL A   1      28.658  27.914  23.250  1.00  0.00     0.128 A 
ATOM     15  C   UNL A   1      31.040  27.872  22.627  1.00  0.00     0.025 C 
ATOM     16  O   UNL A   1      28.679  26.607  23.624  1.00  0.00    -0.475 OA
ATOM     17  C   UNL A   1      29.979  26.018  23.868  1.00  0.00     0.314 C 
BRANCH   9  18
ATOM     18  C   UNL A   1      28.257  31.936  22.077  1.00  0.00     0.099 C 
ATOM     19  N   UNL A   1      28.141  33.040  21.730  1.00  0.00    -0.192 NA
ENDBRANCH   9  18
BRANCH  17  20
ATOM     20  C   UNL A   1      30.218  25.952  25.390  1.00  0.00     0.429 C 
ATOM     21  F   UNL A   1      29.066  25.647  26.035  1.00  0.00    -0.167 F 
ATOM     22  F   UNL A   1      31.118  25.006  25.745  1.00  0.00    -0.167 F 
ATOM     23  F   UNL A   1      30.667  27.127  25.892  1.00  0.00    -0.167 F 
ENDBRANCH  17  20
ENDBRANCH   5   8
ENDBRANCH   3   4
ENDBRANCH   2   3
ENDBRANCH   1   2
BRANCH   1  24
ATOM     24  C   UNL A   1      33.655  29.166  27.038  1.00  0.00     0.116 C 
BRANCH  24  25
ATOM     25  N   UNL A   1      33.724  30.476  27.679  1.00  0.00    -0.352 N 
ATOM     26  C   UNL A   1      34.776  31.007  28.394  1.00  0.00     0.251 C 
ATOM     27  H   UNL A   1      32.926  31.047  27.590  1.00  0.00     0.163 HD
ATOM     28  O   UNL A   1      34.672  32.080  28.976  1.00  0.00    -0.269 OA
BRANCH  26  29
ATOM     29  C   UNL A   1      36.014  30.209  28.478  1.00  0.00     0.039 A 
ATOM     30  C   UNL A   1      36.359  29.622  29.696  1.00  0.00     0.014 A 
ATOM     31  C   UNL A   1      36.908  30.214  27.407  1.00  0.00     0.014 A 
ATOM     32  C   UNL A   1      37.677  29.258  29.915  1.00  0.00     0.010 A 
ATOM     33  C   UNL A   1      38.199  29.717  27.596  1.00  0.00     0.010 A 
ATOM     34  C   UNL A   1      38.616  29.297  28.869  1.00  0.00    -0.014 A 
BRANCH  34  35
ATOM     35  C   UNL A   1      40.020  28.886  29.137  1.00  0.00     0.031 A 
ATOM     36  C   UNL A   1      40.531  27.529  28.726  1.00  0.00     0.074 A 
ATOM     37  C   UNL A   1      40.854  29.776  29.713  1.00  0.00     0.049 A 
ATOM     38  N   UNL A   1      41.730  27.026  28.881  1.00  0.00    -0.248 NA
ATOM     39  C   UNL A   1      39.585  26.614  28.064  1.00  0.00     0.031 C 
ATOM     40  C   UNL A   1      40.477  31.131  30.126  1.00  0.00     0.029 A 
ATOM     41  N   UNL A   1      42.188  29.698  30.022  1.00  0.00    -0.354 N 
ATOM     42  C   UNL A   1      41.679  25.738  28.356  1.00  0.00     0.074 A 
ATOM     43  C   UNL A   1      40.320  25.520  27.912  1.00  0.00     0.031 C 
ATOM     44  C   UNL A   1      41.564  31.775  30.565  1.00  0.00     0.029 A 
ATOM     45  C   UNL A   1      42.695  30.856  30.565  1.00  0.00     0.049 A 
ATOM     46  H   UNL A   1      42.731  28.891  29.868  1.00  0.00     0.167 HD
ATOM     47  C   UNL A   1      42.679  24.833  28.240  1.00  0.00     0.031 A 
ATOM     48  C   UNL A   1      43.923  31.150  31.035  1.00  0.00     0.031 A 
ATOM     49  C   UNL A   1      44.034  25.076  28.670  1.00  0.00     0.049 A 
ATOM     50  C   UNL A   1      44.997  30.107  30.953  1.00  0.00     0.074 A 
ATOM     51  C   UNL A   1      45.126  24.230  28.570  1.00  0.00     0.029 A 
ATOM     52  N   UNL A   1      44.489  26.241  29.275  1.00  0.00    -0.354 N 
ATOM     53  N   UNL A   1      44.935  28.907  30.427  1.00  0.00    -0.248 NA
ATOM     54  C   UNL A   1      46.307  30.452  31.518  1.00  0.00     0.031 C 
ATOM     55  C   UNL A   1      46.212  24.843  29.196  1.00  0.00     0.029 A 
ATOM     56  C   UNL A   1      45.832  26.115  29.592  1.00  0.00     0.049 A 
ATOM     57  H   UNL A   1      43.938  27.037  29.452  1.00  0.00     0.167 HD
ATOM     58  C   UNL A   1      46.203  28.360  30.580  1.00  0.00     0.074 A 
ATOM     59  C   UNL A   1      47.018  29.371  31.222  1.00  0.00     0.031 C 
ATOM     60  C   UNL A   1      46.645  27.128  30.226  1.00  0.00     0.031 A 
BRANCH  47  61
ATOM     61  C   UNL A   1      42.379  23.486  27.621  1.00  0.00    -0.014 A 
ATOM     62  C   UNL A   1      42.024  22.402  28.447  1.00  0.00     0.010 A 
ATOM     63  C   UNL A   1      42.595  23.251  26.251  1.00  0.00     0.010 A 
ATOM     64  C   UNL A   1      41.944  21.105  27.930  1.00  0.00     0.020 A 
ATOM     65  C   UNL A   1      42.479  21.961  25.722  1.00  0.00     0.020 A 
ATOM     66  C   UNL A   1      42.184  20.892  26.571  1.00  0.00     0.054 A 
BRANCH  66  67
ATOM     67  S   UNL A   1      42.138  19.195  25.931  1.00  0.00     0.124 S 
ATOM     68  O   UNL A   1      42.975  19.290  24.739  1.00  0.00    -0.237 OA
ATOM     69  O   UNL A   1      42.700  18.425  27.038  1.00  0.00    -0.237 OA
ATOM     70  O   UNL A   1      40.718  18.961  25.680  1.00  0.00    -0.744 OA
ENDBRANCH  66  67
ENDBRANCH  47  61
BRANCH  48  71
ATOM     71  C   UNL A   1      44.175  32.508  31.597  1.00  0.00    -0.014 A 
ATOM     72  C   UNL A   1      43.984  32.759  32.971  1.00  0.00     0.010 A 
ATOM     73  C   UNL A   1      44.495  33.583  30.749  1.00  0.00     0.010 A 
ATOM     74  C   UNL A   1      44.022  34.062  33.470  1.00  0.00     0.020 A 
ATOM     75  C   UNL A   1      44.580  34.885  31.254  1.00  0.00     0.020 A 
ATOM     76  C   UNL A   1      44.305  35.119  32.603  1.00  0.00     0.054 A 
BRANCH  76  77
ATOM     77  S   UNL A   1      44.266  36.809  33.260  1.00  0.00     0.124 S 
ATOM     78  O   UNL A   1      43.428  36.649  34.445  1.00  0.00    -0.237 OA
ATOM     79  O   UNL A   1      45.677  37.082  33.517  1.00  0.00    -0.237 OA
ATOM     80  O   UNL A   1      43.669  37.585  32.175  1.00  0.00    -0.744 OA
ENDBRANCH  76  77
ENDBRANCH  48  71
BRANCH  60  81
ATOM     81  C   UNL A   1      48.083  26.773  30.513  1.00  0.00    -0.014 A 
ATOM     82  C   UNL A   1      48.450  26.328  31.797  1.00  0.00     0.010 A 
ATOM     83  C   UNL A   1      49.092  27.025  29.566  1.00  0.00     0.010 A 
ATOM     84  C   UNL A   1      49.795  26.199  32.149  1.00  0.00     0.020 A 
ATOM     85  C   UNL A   1      50.439  26.856  29.901  1.00  0.00     0.020 A 
ATOM     86  C   UNL A   1      50.782  26.478  31.200  1.00  0.00     0.054 A 
BRANCH  86  87
ATOM     87  S   UNL A   1      52.522  26.375  31.700  1.00  0.00     0.124 S 
ATOM     88  O   UNL A   1      53.212  26.374  30.413  1.00  0.00    -0.237 OA
ATOM     89  O   UNL A   1      52.694  27.581  32.507  1.00  0.00    -0.237 OA
ATOM     90  O   UNL A   1      52.592  25.119  32.445  1.00  0.00    -0.744 OA
ENDBRANCH  86  87
ENDBRANCH  60  81
ENDBRANCH  34  35
ENDBRANCH  26  29
ENDBRANCH  24  25
ENDBRANCH   1  24
TORSDOF 16
ENDMDL
MODEL 3
REMARK VINA RESULT:     -11.4      1.982      3.946
REMARK SMILES N#Cc1ccc2c(c1)C=C(C(=O)NCCCCNC(=O)c1ccc(-c3c4nc(c(-c5ccc(S(=O)(=O)[O-])cc5)c5ccc([nH]5)c(-c5ccc(S(=O)(=O)[O-])cc5)c5nc(c(-c6ccc(S(=O)(=O)[O-])cc6)c6ccc3[nH]6)C=C5)C=C4)cc1)[C@@H](C(F)(F)F)O2
REMARK SMILES IDX 16 1 15 2 14 3 13 4 11 5 12 6 10 8 3 9 4 10 8 11 5 12 7 13
REMARK SMILES IDX 6 14 9 15 86 16 81 17 2 18 1 19 82 20 83 21 84 22 85 23
REMARK SMILES IDX 17 24 18 25 19 26 20 28 21 29 22 30 80 31 23 32 79 33 24 34
REMARK SMILES IDX 25 35 26 36 73 37 27 38 78 39 72 40 74 41 28 42 77 43 71 44
REMARK SMILES IDX 70 45 29 47 59 48 40 49 58 50 41 51 44 52 57 53 75 54 42 55
REMARK SMILES IDX 43 56 56 58 76 59 45 60 30 61 31 62 39 63 32 64 38 65 33 66
REMARK SMILES IDX 34 67 35 68 36 69 37 70 60 71 61 72 69 73 62 74 68 75 63 76
REMARK SMILES IDX 64 77 65 78 66 79 67 80 46 81 47 82 55 83 48 84 54 85 49 86
REMARK SMILES IDX 50 87 51 88 52 89 53 90
REMARK H PARENT 13 7 18 27 74 46 44 57
REMARK Flexibility Score: inf
ROOT
ATOM      1  C   UNL A   1      32.382  28.593  26.239  1.00  0.00     0.023 C 
ENDROOT
BRANCH   1   2
ATOM      2  C   UNL A   1      32.780  27.722  25.056  1.00  0.00     0.023 C 
BRANCH   2   3
ATOM      3  C   UNL A   1      31.607  26.965  24.449  1.00  0.00     0.116 C 
BRANCH   3   4
ATOM      4  N   UNL A   1      30.875  26.192  25.439  1.00  0.00    -0.352 N 
ATOM      5  C   UNL A   1      30.960  24.954  25.985  1.00  0.00     0.251 C 
ATOM      6  O   UNL A   1      30.139  24.697  26.870  1.00  0.00    -0.270 OA
ATOM      7  H   UNL A   1      30.118  26.701  25.809  1.00  0.00     0.163 HD
BRANCH   5   8
ATOM      8  C   UNL A   1      31.955  23.915  25.582  1.00  0.00     0.067 C 
ATOM      9  C   UNL A   1      36.508  22.280  25.646  1.00  0.00     0.053 A 
ATOM     10  C   UNL A   1      36.083  21.084  25.057  1.00  0.00     0.023 A 
ATOM     11  C   UNL A   1      35.579  23.287  25.947  1.00  0.00     0.031 A 
ATOM     12  C   UNL A   1      34.736  20.897  24.766  1.00  0.00     0.048 A 
ATOM     13  C   UNL A   1      34.225  23.099  25.654  1.00  0.00     0.018 A 
ATOM     14  C   UNL A   1      33.821  21.904  25.057  1.00  0.00     0.128 A 
ATOM     15  C   UNL A   1      33.219  24.096  26.004  1.00  0.00     0.025 C 
ATOM     16  O   UNL A   1      32.525  21.618  24.761  1.00  0.00    -0.475 OA
ATOM     17  C   UNL A   1      31.601  22.733  24.729  1.00  0.00     0.314 C 
BRANCH   9  18
ATOM     18  C   UNL A   1      37.897  22.458  25.948  1.00  0.00     0.099 C 
ATOM     19  N   UNL A   1      39.028  22.582  26.185  1.00  0.00    -0.192 NA
ENDBRANCH   9  18
BRANCH  17  20
ATOM     20  C   UNL A   1      31.342  23.125  23.261  1.00  0.00     0.429 C 
ATOM     21  F   UNL A   1      30.100  23.651  23.126  1.00  0.00    -0.167 F 
ATOM     22  F   UNL A   1      32.206  24.059  22.801  1.00  0.00    -0.167 F 
ATOM     23  F   UNL A   1      31.428  22.066  22.422  1.00  0.00    -0.167 F 
ENDBRANCH  17  20
ENDBRANCH   5   8
ENDBRANCH   3   4
ENDBRANCH   2   3
ENDBRANCH   1   2
BRANCH   1  24
ATOM     24  C   UNL A   1      33.494  28.824  27.254  1.00  0.00     0.116 C 
BRANCH  24  25
ATOM     25  N   UNL A   1      33.554  30.188  27.772  1.00  0.00    -0.352 N 
ATOM     26  C   UNL A   1      34.634  30.819  28.352  1.00  0.00     0.251 C 
ATOM     27  H   UNL A   1      32.728  30.718  27.700  1.00  0.00     0.163 HD
ATOM     28  O   UNL A   1      34.528  31.935  28.846  1.00  0.00    -0.269 OA
BRANCH  26  29
ATOM     29  C   UNL A   1      35.909  30.077  28.405  1.00  0.00     0.039 A 
ATOM     30  C   UNL A   1      36.283  29.458  29.598  1.00  0.00     0.014 A 
ATOM     31  C   UNL A   1      36.800  30.168  27.334  1.00  0.00     0.014 A 
ATOM     32  C   UNL A   1      37.617  29.149  29.803  1.00  0.00     0.010 A 
ATOM     33  C   UNL A   1      38.114  29.726  27.504  1.00  0.00     0.010 A 
ATOM     34  C   UNL A   1      38.551  29.275  28.760  1.00  0.00    -0.014 A 
BRANCH  34  35
ATOM     35  C   UNL A   1      39.974  28.920  29.012  1.00  0.00     0.031 A 
ATOM     36  C   UNL A   1      40.903  29.869  29.723  1.00  0.00     0.074 A 
ATOM     37  C   UNL A   1      40.411  27.700  28.636  1.00  0.00     0.049 A 
ATOM     38  N   UNL A   1      42.166  29.702  30.027  1.00  0.00    -0.248 NA
ATOM     39  C   UNL A   1      40.360  31.171  30.147  1.00  0.00     0.031 C 
ATOM     40  C   UNL A   1      39.591  26.687  27.965  1.00  0.00     0.029 A 
ATOM     41  N   UNL A   1      41.629  27.089  28.788  1.00  0.00    -0.354 N 
ATOM     42  C   UNL A   1      42.571  30.876  30.655  1.00  0.00     0.074 A 
ATOM     43  C   UNL A   1      41.430  31.765  30.657  1.00  0.00     0.031 C 
ATOM     44  C   UNL A   1      40.304  25.564  27.829  1.00  0.00     0.029 A 
ATOM     45  C   UNL A   1      41.661  25.802  28.305  1.00  0.00     0.049 A 
ATOM     46  H   UNL A   1      42.405  27.529  29.203  1.00  0.00     0.167 HD
ATOM     47  C   UNL A   1      43.776  31.173  31.195  1.00  0.00     0.031 A 
ATOM     48  C   UNL A   1      42.668  24.910  28.227  1.00  0.00     0.031 A 
ATOM     49  C   UNL A   1      44.897  30.265  31.202  1.00  0.00     0.049 A 
ATOM     50  C   UNL A   1      44.012  25.287  28.775  1.00  0.00     0.074 A 
ATOM     51  C   UNL A   1      46.153  30.464  31.750  1.00  0.00     0.029 A 
ATOM     52  N   UNL A   1      44.905  28.993  30.644  1.00  0.00    -0.354 N 
ATOM     53  N   UNL A   1      44.364  26.391  29.390  1.00  0.00    -0.248 NA
ATOM     54  C   UNL A   1      45.093  24.306  28.628  1.00  0.00     0.031 C 
ATOM     55  C   UNL A   1      46.945  29.357  31.441  1.00  0.00     0.029 A 
ATOM     56  C   UNL A   1      46.157  28.418  30.797  1.00  0.00     0.049 A 
ATOM     57  H   UNL A   1      44.135  28.564  30.205  1.00  0.00     0.167 HD
ATOM     58  C   UNL A   1      45.704  26.228  29.723  1.00  0.00     0.074 A 
ATOM     59  C   UNL A   1      46.089  24.909  29.265  1.00  0.00     0.031 C 
ATOM     60  C   UNL A   1      46.536  27.098  30.344  1.00  0.00     0.031 A 
BRANCH  47  61
ATOM     61  C   UNL A   1      43.977  32.526  31.839  1.00  0.00    -0.014 A 
ATOM     62  C   UNL A   1      43.609  32.720  33.185  1.00  0.00     0.010 A 
ATOM     63  C   UNL A   1      44.381  33.640  31.081  1.00  0.00     0.010 A 
ATOM     64  C   UNL A   1      43.587  34.002  33.744  1.00  0.00     0.020 A 
ATOM     65  C   UNL A   1      44.399  34.920  31.647  1.00  0.00     0.020 A 
ATOM     66  C   UNL A   1      43.973  35.096  32.965  1.00  0.00     0.054 A 
BRANCH  66  67
ATOM     67  S   UNL A   1      43.878  36.758  33.687  1.00  0.00     0.124 S 
ATOM     68  O   UNL A   1      42.569  36.742  34.332  1.00  0.00    -0.237 OA
ATOM     69  O   UNL A   1      45.027  36.776  34.589  1.00  0.00    -0.237 OA
ATOM     70  O   UNL A   1      43.993  37.642  32.530  1.00  0.00    -0.744 OA
ENDBRANCH  66  67
ENDBRANCH  47  61
BRANCH  48  71
ATOM     71  C   UNL A   1      42.404  23.573  27.620  1.00  0.00    -0.014 A 
ATOM     72  C   UNL A   1      41.898  22.519  28.407  1.00  0.00     0.010 A 
ATOM     73  C   UNL A   1      42.760  23.313  26.285  1.00  0.00     0.010 A 
ATOM     74  C   UNL A   1      41.837  21.219  27.903  1.00  0.00     0.020 A 
ATOM     75  C   UNL A   1      42.656  22.020  25.762  1.00  0.00     0.020 A 
ATOM     76  C   UNL A   1      42.231  20.976  26.586  1.00  0.00     0.054 A 
BRANCH  76  77
ATOM     77  S   UNL A   1      42.221  19.266  25.983  1.00  0.00     0.124 S 
ATOM     78  O   UNL A   1      40.797  19.041  25.749  1.00  0.00    -0.237 OA
ATOM     79  O   UNL A   1      43.051  19.348  24.784  1.00  0.00    -0.237 OA
ATOM     80  O   UNL A   1      42.799  18.508  27.090  1.00  0.00    -0.744 OA
ENDBRANCH  76  77
ENDBRANCH  48  71
BRANCH  60  81
ATOM     81  C   UNL A   1      47.965  26.677  30.583  1.00  0.00    -0.014 A 
ATOM     82  C   UNL A   1      48.333  26.126  31.825  1.00  0.00     0.010 A 
ATOM     83  C   UNL A   1      48.970  26.966  29.642  1.00  0.00     0.010 A 
ATOM     84  C   UNL A   1      49.678  25.928  32.146  1.00  0.00     0.020 A 
ATOM     85  C   UNL A   1      50.315  26.730  29.944  1.00  0.00     0.020 A 
ATOM     86  C   UNL A   1      50.661  26.244  31.206  1.00  0.00     0.054 A 
BRANCH  86  87
ATOM     87  S   UNL A   1      52.403  26.049  31.671  1.00  0.00     0.124 S 
ATOM     88  O   UNL A   1      52.463  24.643  32.058  1.00  0.00    -0.237 OA
ATOM     89  O   UNL A   1      53.103  26.394  30.435  1.00  0.00    -0.237 OA
ATOM     90  O   UNL A   1      52.577  27.004  32.764  1.00  0.00    -0.744 OA
ENDBRANCH  86  87
ENDBRANCH  60  81
ENDBRANCH  34  35
ENDBRANCH  26  29
ENDBRANCH  24  25
ENDBRANCH   1  24
TORSDOF 16
ENDMDL
