MODEL 1
REMARK VINA RESULT:     -11.7      0.000      0.000
REMARK SMILES CC[NH2+][C@H](C)c1cccn1Cc1ccc(C(=O)NCCCCNC(=O)c2ccc(-c3c4nc(c(-c5ccc(S(=O)(=O)[O-])cc5)c5ccc([nH]5)c(-c5ccc(S(=O)(=O)[O-])cc5)c5nc(c(-c6ccc(S(=O)(=O)[O-])cc6)c6ccc3[nH]6)C=C5)C=C4)cc2)cc1
REMARK SMILES IDX 19 1 18 2 16 3 17 4 15 6 12 7 13 8 87 9 14 10 86 11 11 12
REMARK SMILES IDX 10 13 6 14 7 15 8 16 9 17 4 18 5 19 3 20 2 23 1 24 20 25
REMARK SMILES IDX 21 26 22 27 23 28 24 29 25 31 26 32 27 33 85 34 28 35 84 36
REMARK SMILES IDX 29 37 30 38 31 39 78 40 32 41 83 42 77 43 79 44 33 45 82 46
REMARK SMILES IDX 76 47 75 48 34 50 64 51 45 52 63 53 46 54 49 55 62 56 80 57
REMARK SMILES IDX 47 58 48 59 61 61 81 62 50 63 35 64 36 65 44 66 37 67 43 68
REMARK SMILES IDX 38 69 39 70 40 71 41 72 42 73 65 74 66 75 74 76 67 77 73 78
REMARK SMILES IDX 68 79 69 80 70 81 71 82 72 83 51 84 52 85 60 86 53 87 59 88
REMARK SMILES IDX 54 89 55 90 56 91 57 92 58 93
REMARK H PARENT 18 5 3 21 3 22 23 30 79 49 49 60
REMARK Flexibility Score: inf
ROOT
ATOM      1  C   UNL A   1      31.375  28.796  24.920  1.00  0.00     0.116 C 
ENDROOT
BRANCH   1   2
ATOM      2  N   UNL A   1      31.406  28.062  23.668  1.00  0.00    -0.352 N 
ATOM      3  C   UNL A   1      31.864  26.810  23.343  1.00  0.00     0.251 C 
ATOM      4  O   UNL A   1      31.754  26.437  22.175  1.00  0.00    -0.269 OA
ATOM      5  H   UNL A   1      31.026  28.557  22.907  1.00  0.00     0.163 HD
BRANCH   3   6
ATOM      6  C   UNL A   1      32.438  25.868  24.341  1.00  0.00     0.039 A 
ATOM      7  C   UNL A   1      33.697  24.044  26.101  1.00  0.00    -0.028 A 
ATOM      8  C   UNL A   1      34.459  24.923  25.321  1.00  0.00     0.006 A 
ATOM      9  C   UNL A   1      32.300  24.153  26.051  1.00  0.00     0.006 A 
ATOM     10  C   UNL A   1      33.835  25.822  24.449  1.00  0.00     0.014 A 
ATOM     11  C   UNL A   1      31.677  25.068  25.194  1.00  0.00     0.014 A 
BRANCH   7  12
ATOM     12  C   UNL A   1      34.356  22.979  26.951  1.00  0.00     0.157 C 
BRANCH  12  13
ATOM     13  N   UNL A   1      35.061  21.982  26.140  1.00  0.00    -0.342 N 
ATOM     14  C   UNL A   1      34.544  20.817  25.588  1.00  0.00     0.076 A 
ATOM     15  C   UNL A   1      35.613  20.154  24.999  1.00  0.00     0.029 A 
ATOM     16  C   UNL A   1      36.754  20.977  25.083  1.00  0.00     0.020 A 
ATOM     17  C   UNL A   1      36.376  22.115  25.751  1.00  0.00     0.086 A 
BRANCH  14  18
ATOM     18  C   UNL A   1      33.089  20.418  25.642  1.00  0.00     0.227 C 
ATOM     19  C   UNL A   1      32.440  20.469  24.250  1.00  0.00     0.082 C 
BRANCH  18  20
ATOM     20  N   UNL A   1      32.980  19.073  26.202  1.00  0.00    -0.339 N 
ATOM     21  H   UNL A   1      33.896  18.791  26.551  1.00  0.00     0.346 HD
ATOM     22  H   UNL A   1      32.281  19.108  26.944  1.00  0.00     0.346 HD
BRANCH  20  23
ATOM     23  C   UNL A   1      32.530  18.081  25.231  1.00  0.00     0.257 C 
ATOM     24  C   UNL A   1      33.275  16.771  25.432  1.00  0.00     0.071 C 
ENDBRANCH  20  23
ENDBRANCH  18  20
ENDBRANCH  14  18
ENDBRANCH  12  13
ENDBRANCH   7  12
ENDBRANCH   3   6
ENDBRANCH   1   2
BRANCH   1  25
ATOM     25  C   UNL A   1      32.790  29.223  25.326  1.00  0.00     0.023 C 
BRANCH  25  26
ATOM     26  C   UNL A   1      33.310  28.543  26.602  1.00  0.00     0.023 C 
BRANCH  26  27
ATOM     27  C   UNL A   1      34.798  28.775  26.873  1.00  0.00     0.116 C 
BRANCH  27  28
ATOM     28  N   UNL A   1      35.053  30.154  27.258  1.00  0.00    -0.352 N 
ATOM     29  C   UNL A   1      35.990  30.659  28.125  1.00  0.00     0.251 C 
ATOM     30  H   UNL A   1      34.466  30.823  26.836  1.00  0.00     0.163 HD
ATOM     31  O   UNL A   1      35.812  31.771  28.609  1.00  0.00    -0.269 OA
BRANCH  29  32
ATOM     32  C   UNL A   1      37.196  29.884  28.491  1.00  0.00     0.039 A 
ATOM     33  C   UNL A   1      38.295  29.933  27.625  1.00  0.00     0.014 A 
ATOM     34  C   UNL A   1      37.219  29.045  29.611  1.00  0.00     0.014 A 
ATOM     35  C   UNL A   1      39.437  29.191  27.915  1.00  0.00     0.010 A 
ATOM     36  C   UNL A   1      38.366  28.314  29.913  1.00  0.00     0.010 A 
ATOM     37  C   UNL A   1      39.482  28.400  29.074  1.00  0.00    -0.014 A 
BRANCH  37  38
ATOM     38  C   UNL A   1      40.790  27.828  29.487  1.00  0.00     0.031 A 
ATOM     39  C   UNL A   1      41.147  26.588  28.617  1.00  0.00     0.074 A 
ATOM     40  C   UNL A   1      41.407  28.411  30.564  1.00  0.00     0.049 A 
ATOM     41  N   UNL A   1      41.843  25.532  28.904  1.00  0.00    -0.248 NA
ATOM     42  C   UNL A   1      40.570  26.473  27.244  1.00  0.00     0.031 C 
ATOM     43  C   UNL A   1      40.953  29.654  31.241  1.00  0.00     0.029 A 
ATOM     44  N   UNL A   1      42.521  28.103  31.320  1.00  0.00    -0.354 N 
ATOM     45  C   UNL A   1      41.908  24.711  27.745  1.00  0.00     0.074 A 
ATOM     46  C   UNL A   1      41.043  25.312  26.779  1.00  0.00     0.031 C 
ATOM     47  C   UNL A   1      41.711  29.930  32.329  1.00  0.00     0.029 A 
ATOM     48  C   UNL A   1      42.724  28.906  32.482  1.00  0.00     0.049 A 
ATOM     49  H   UNL A   1      43.136  27.376  31.072  1.00  0.00     0.167 HD
ATOM     50  C   UNL A   1      42.737  23.628  27.629  1.00  0.00     0.031 A 
ATOM     51  C   UNL A   1      43.598  28.712  33.524  1.00  0.00     0.031 A 
ATOM     52  C   UNL A   1      43.421  23.414  28.856  1.00  0.00     0.049 A 
ATOM     53  C   UNL A   1      44.363  27.516  33.145  1.00  0.00     0.074 A 
ATOM     54  C   UNL A   1      43.026  22.882  30.054  1.00  0.00     0.029 A 
ATOM     55  N   UNL A   1      44.594  24.105  29.029  1.00  0.00    -0.354 N 
ATOM     56  N   UNL A   1      45.292  27.474  32.242  1.00  0.00    -0.248 NA
ATOM     57  C   UNL A   1      43.992  26.232  33.754  1.00  0.00     0.031 C 
ATOM     58  C   UNL A   1      43.675  23.711  30.992  1.00  0.00     0.029 A 
ATOM     59  C   UNL A   1      44.597  24.532  30.333  1.00  0.00     0.049 A 
ATOM     60  H   UNL A   1      45.292  24.263  28.353  1.00  0.00     0.167 HD
ATOM     61  C   UNL A   1      45.339  26.140  31.931  1.00  0.00     0.074 A 
ATOM     62  C   UNL A   1      44.800  25.430  33.070  1.00  0.00     0.031 C 
ATOM     63  C   UNL A   1      45.325  25.738  30.636  1.00  0.00     0.031 A 
BRANCH  50  64
ATOM     64  C   UNL A   1      43.183  22.778  26.463  1.00  0.00    -0.014 A 
ATOM     65  C   UNL A   1      42.520  21.532  26.285  1.00  0.00     0.010 A 
ATOM     66  C   UNL A   1      44.391  22.962  25.778  1.00  0.00     0.010 A 
ATOM     67  C   UNL A   1      43.099  20.472  25.585  1.00  0.00     0.020 A 
ATOM     68  C   UNL A   1      44.965  21.908  25.037  1.00  0.00     0.020 A 
ATOM     69  C   UNL A   1      44.341  20.656  24.992  1.00  0.00     0.054 A 
BRANCH  69  70
ATOM     70  S   UNL A   1      45.143  19.214  24.234  1.00  0.00     0.124 S 
ATOM     71  O   UNL A   1      44.544  19.190  22.902  1.00  0.00    -0.237 OA
ATOM     72  O   UNL A   1      46.558  19.582  24.274  1.00  0.00    -0.237 OA
ATOM     73  O   UNL A   1      44.769  18.110  25.114  1.00  0.00    -0.744 OA
ENDBRANCH  69  70
ENDBRANCH  50  64
BRANCH  51  74
ATOM     74  C   UNL A   1      43.871  29.240  34.926  1.00  0.00    -0.014 A 
ATOM     75  C   UNL A   1      45.110  29.350  35.568  1.00  0.00     0.010 A 
ATOM     76  C   UNL A   1      42.762  29.747  35.670  1.00  0.00     0.010 A 
ATOM     77  C   UNL A   1      45.239  30.059  36.798  1.00  0.00     0.020 A 
ATOM     78  C   UNL A   1      42.878  30.486  36.850  1.00  0.00     0.020 A 
ATOM     79  C   UNL A   1      44.130  30.667  37.401  1.00  0.00     0.054 A 
BRANCH  79  80
ATOM     80  S   UNL A   1      44.310  31.797  38.815  1.00  0.00     0.124 S 
ATOM     81  O   UNL A   1      44.423  30.879  39.943  1.00  0.00    -0.237 OA
ATOM     82  O   UNL A   1      45.522  32.541  38.479  1.00  0.00    -0.237 OA
ATOM     83  O   UNL A   1      43.081  32.591  38.778  1.00  0.00    -0.744 OA
ENDBRANCH  79  80
ENDBRANCH  51  74
BRANCH  63  84
ATOM     84  C   UNL A   1      45.761  26.782  29.617  1.00  0.00    -0.014 A 
ATOM     85  C   UNL A   1      44.781  27.457  28.870  1.00  0.00     0.010 A 
ATOM     86  C   UNL A   1      47.112  27.071  29.325  1.00  0.00     0.010 A 
ATOM     87  C   UNL A   1      45.127  28.390  27.882  1.00  0.00     0.020 A 
ATOM     88  C   UNL A   1      47.469  28.007  28.335  1.00  0.00     0.020 A 
ATOM     89  C   UNL A   1      46.470  28.667  27.621  1.00  0.00     0.054 A 
BRANCH  89  90
ATOM     90  S   UNL A   1      46.871  29.900  26.347  1.00  0.00     0.124 S 
ATOM     91  O   UNL A   1      46.079  31.057  26.758  1.00  0.00    -0.237 OA
ATOM     92  O   UNL A   1      48.316  30.048  26.498  1.00  0.00    -0.237 OA
ATOM     93  O   UNL A   1      46.439  29.271  25.100  1.00  0.00    -0.744 OA
ENDBRANCH  89  90
ENDBRANCH  63  84
ENDBRANCH  37  38
ENDBRANCH  29  32
ENDBRANCH  27  28
ENDBRANCH  26  27
ENDBRANCH  25  26
ENDBRANCH   1  25
TORSDOF 19
ENDMDL
MODEL 2
REMARK VINA RESULT:     -11.5      2.817      9.046
REMARK SMILES CC[NH2+][C@H](C)c1cccn1Cc1ccc(C(=O)NCCCCNC(=O)c2ccc(-c3c4nc(c(-c5ccc(S(=O)(=O)[O-])cc5)c5ccc([nH]5)c(-c5ccc(S(=O)(=O)[O-])cc5)c5nc(c(-c6ccc(S(=O)(=O)[O-])cc6)c6ccc3[nH]6)C=C5)C=C4)cc2)cc1
REMARK SMILES IDX 19 1 18 2 16 3 17 4 15 6 12 7 13 8 87 9 14 10 86 11 11 12
REMARK SMILES IDX 10 13 6 14 7 15 8 16 9 17 4 18 5 19 3 20 2 23 1 24 20 25
REMARK SMILES IDX 21 26 22 27 23 28 24 29 25 31 26 32 27 33 85 34 28 35 84 36
REMARK SMILES IDX 29 37 30 38 31 39 78 40 32 41 83 42 77 43 79 44 33 45 82 46
REMARK SMILES IDX 76 47 75 48 34 50 64 51 45 52 63 53 46 54 49 55 62 56 80 57
REMARK SMILES IDX 47 58 48 59 61 61 81 62 50 63 35 64 36 65 44 66 37 67 43 68
REMARK SMILES IDX 38 69 39 70 40 71 41 72 42 73 65 74 66 75 74 76 67 77 73 78
REMARK SMILES IDX 68 79 69 80 70 81 71 82 72 83 51 84 52 85 60 86 53 87 59 88
REMARK SMILES IDX 54 89 55 90 56 91 57 92 58 93
REMARK H PARENT 18 5 3 21 3 22 23 30 79 49 49 60
REMARK Flexibility Score: inf
ROOT
ATOM      1  C   UNL A   1      31.298  28.343  23.527  1.00  0.00     0.116 C 
ENDROOT
BRANCH   1   2
ATOM      2  N   UNL A   1      31.682  27.584  22.351  1.00  0.00    -0.352 N 
ATOM      3  C   UNL A   1      32.319  26.378  22.198  1.00  0.00     0.251 C 
ATOM      4  O   UNL A   1      32.512  25.965  21.054  1.00  0.00    -0.269 OA
ATOM      5  H   UNL A   1      31.438  28.016  21.501  1.00  0.00     0.163 HD
BRANCH   3   6
ATOM      6  C   UNL A   1      32.739  25.528  23.344  1.00  0.00     0.039 A 
ATOM      7  C   UNL A   1      33.731  23.882  25.421  1.00  0.00    -0.028 A 
ATOM      8  C   UNL A   1      34.580  24.769  24.748  1.00  0.00     0.006 A 
ATOM      9  C   UNL A   1      32.366  23.896  25.100  1.00  0.00     0.006 A 
ATOM     10  C   UNL A   1      34.089  25.579  23.719  1.00  0.00     0.014 A 
ATOM     11  C   UNL A   1      31.873  24.723  24.084  1.00  0.00     0.014 A 
BRANCH   7  12
ATOM     12  C   UNL A   1      34.270  22.908  26.446  1.00  0.00     0.157 C 
BRANCH  12  13
ATOM     13  N   UNL A   1      35.025  21.814  25.827  1.00  0.00    -0.342 N 
ATOM     14  C   UNL A   1      34.539  20.592  25.383  1.00  0.00     0.076 A 
ATOM     15  C   UNL A   1      35.643  19.857  24.971  1.00  0.00     0.029 A 
ATOM     16  C   UNL A   1      36.785  20.679  25.046  1.00  0.00     0.020 A 
ATOM     17  C   UNL A   1      36.369  21.893  25.535  1.00  0.00     0.086 A 
BRANCH  14  18
ATOM     18  C   UNL A   1      33.079  20.207  25.365  1.00  0.00     0.227 C 
ATOM     19  C   UNL A   1      32.557  20.048  23.928  1.00  0.00     0.082 C 
BRANCH  18  20
ATOM     20  N   UNL A   1      32.900  18.963  26.109  1.00  0.00    -0.339 N 
ATOM     21  H   UNL A   1      33.785  18.721  26.555  1.00  0.00     0.346 HD
ATOM     22  H   UNL A   1      32.158  19.121  26.790  1.00  0.00     0.346 HD
BRANCH  20  23
ATOM     23  C   UNL A   1      32.485  17.845  25.268  1.00  0.00     0.257 C 
ATOM     24  C   UNL A   1      33.440  16.674  25.439  1.00  0.00     0.071 C 
ENDBRANCH  20  23
ENDBRANCH  18  20
ENDBRANCH  14  18
ENDBRANCH  12  13
ENDBRANCH   7  12
ENDBRANCH   3   6
ENDBRANCH   1   2
BRANCH   1  25
ATOM     25  C   UNL A   1      32.541  28.828  24.281  1.00  0.00     0.023 C 
BRANCH  25  26
ATOM     26  C   UNL A   1      32.634  28.324  25.730  1.00  0.00     0.023 C 
BRANCH  26  27
ATOM     27  C   UNL A   1      33.901  28.763  26.465  1.00  0.00     0.116 C 
BRANCH  27  28
ATOM     28  N   UNL A   1      33.783  30.131  26.944  1.00  0.00    -0.352 N 
ATOM     29  C   UNL A   1      34.521  30.789  27.897  1.00  0.00     0.251 C 
ATOM     30  H   UNL A   1      33.068  30.662  26.525  1.00  0.00     0.163 HD
ATOM     31  O   UNL A   1      34.046  31.784  28.431  1.00  0.00    -0.269 OA
BRANCH  29  32
ATOM     32  C   UNL A   1      35.864  30.312  28.295  1.00  0.00     0.039 A 
ATOM     33  C   UNL A   1      36.874  30.314  27.326  1.00  0.00     0.014 A 
ATOM     34  C   UNL A   1      36.108  29.780  29.566  1.00  0.00     0.014 A 
ATOM     35  C   UNL A   1      38.143  29.840  27.650  1.00  0.00     0.010 A 
ATOM     36  C   UNL A   1      37.381  29.321  29.899  1.00  0.00     0.010 A 
ATOM     37  C   UNL A   1      38.404  29.367  28.946  1.00  0.00    -0.014 A 
BRANCH  37  38
ATOM     38  C   UNL A   1      39.816  29.111  29.332  1.00  0.00     0.031 A 
ATOM     39  C   UNL A   1      40.476  30.406  29.889  1.00  0.00     0.074 A 
ATOM     40  C   UNL A   1      40.308  27.856  29.080  1.00  0.00     0.049 A 
ATOM     41  N   UNL A   1      41.712  30.798  29.860  1.00  0.00    -0.248 NA
ATOM     42  C   UNL A   1      39.609  31.458  30.500  1.00  0.00     0.031 C 
ATOM     43  C   UNL A   1      39.503  26.701  28.603  1.00  0.00     0.029 A 
ATOM     44  N   UNL A   1      41.560  27.278  29.158  1.00  0.00    -0.354 N 
ATOM     45  C   UNL A   1      41.802  32.040  30.547  1.00  0.00     0.074 A 
ATOM     46  C   UNL A   1      40.460  32.427  30.853  1.00  0.00     0.031 C 
ATOM     47  C   UNL A   1      40.284  25.622  28.356  1.00  0.00     0.029 A 
ATOM     48  C   UNL A   1      41.666  25.955  28.635  1.00  0.00     0.049 A 
ATOM     49  H   UNL A   1      42.330  27.749  29.550  1.00  0.00     0.167 HD
ATOM     50  C   UNL A   1      42.987  32.632  30.891  1.00  0.00     0.031 A 
ATOM     51  C   UNL A   1      42.795  25.216  28.379  1.00  0.00     0.031 A 
ATOM     52  C   UNL A   1      44.070  31.870  30.374  1.00  0.00     0.049 A 
ATOM     53  C   UNL A   1      43.903  26.061  28.846  1.00  0.00     0.074 A 
ATOM     54  C   UNL A   1      44.592  31.742  29.115  1.00  0.00     0.029 A 
ATOM     55  N   UNL A   1      44.525  30.844  31.163  1.00  0.00    -0.354 N 
ATOM     56  N   UNL A   1      44.214  26.272  30.087  1.00  0.00    -0.248 NA
ATOM     57  C   UNL A   1      44.669  26.819  27.847  1.00  0.00     0.031 C 
ATOM     58  C   UNL A   1      44.902  30.368  29.045  1.00  0.00     0.029 A 
ATOM     59  C   UNL A   1      44.779  29.794  30.316  1.00  0.00     0.049 A 
ATOM     60  H   UNL A   1      44.645  30.858  32.140  1.00  0.00     0.167 HD
ATOM     61  C   UNL A   1      44.938  27.433  30.015  1.00  0.00     0.074 A 
ATOM     62  C   UNL A   1      45.445  27.522  28.664  1.00  0.00     0.031 C 
ATOM     63  C   UNL A   1      44.665  28.463  30.854  1.00  0.00     0.031 A 
BRANCH  50  64
ATOM     64  C   UNL A   1      43.355  33.766  31.817  1.00  0.00    -0.014 A 
ATOM     65  C   UNL A   1      43.215  33.527  33.213  1.00  0.00     0.010 A 
ATOM     66  C   UNL A   1      43.487  35.099  31.407  1.00  0.00     0.010 A 
ATOM     67  C   UNL A   1      43.064  34.564  34.135  1.00  0.00     0.020 A 
ATOM     68  C   UNL A   1      43.374  36.152  32.340  1.00  0.00     0.020 A 
ATOM     69  C   UNL A   1      43.109  35.877  33.686  1.00  0.00     0.054 A 
BRANCH  69  70
ATOM     70  S   UNL A   1      42.743  37.197  34.878  1.00  0.00     0.124 S 
ATOM     71  O   UNL A   1      42.792  38.393  34.042  1.00  0.00    -0.237 OA
ATOM     72  O   UNL A   1      41.413  36.828  35.359  1.00  0.00    -0.237 OA
ATOM     73  O   UNL A   1      43.811  37.073  35.867  1.00  0.00    -0.744 OA
ENDBRANCH  69  70
ENDBRANCH  50  64
BRANCH  51  74
ATOM     74  C   UNL A   1      43.212  23.942  27.657  1.00  0.00    -0.014 A 
ATOM     75  C   UNL A   1      42.378  22.943  27.141  1.00  0.00     0.010 A 
ATOM     76  C   UNL A   1      44.605  23.748  27.405  1.00  0.00     0.010 A 
ATOM     77  C   UNL A   1      42.896  21.913  26.303  1.00  0.00     0.020 A 
ATOM     78  C   UNL A   1      45.123  22.775  26.547  1.00  0.00     0.020 A 
ATOM     79  C   UNL A   1      44.256  21.870  25.969  1.00  0.00     0.054 A 
BRANCH  79  80
ATOM     80  S   UNL A   1      44.893  20.737  24.696  1.00  0.00     0.124 S 
ATOM     81  O   UNL A   1      46.253  20.475  25.155  1.00  0.00    -0.237 OA
ATOM     82  O   UNL A   1      43.968  19.610  24.778  1.00  0.00    -0.237 OA
ATOM     83  O   UNL A   1      44.791  21.517  23.462  1.00  0.00    -0.744 OA
ENDBRANCH  79  80
ENDBRANCH  51  74
BRANCH  63  84
ATOM     84  C   UNL A   1      43.930  28.092  32.135  1.00  0.00    -0.014 A 
ATOM     85  C   UNL A   1      44.676  27.681  33.254  1.00  0.00     0.010 A 
ATOM     86  C   UNL A   1      42.523  28.070  32.251  1.00  0.00     0.010 A 
ATOM     87  C   UNL A   1      44.050  27.278  34.442  1.00  0.00     0.020 A 
ATOM     88  C   UNL A   1      41.886  27.668  33.441  1.00  0.00     0.020 A 
ATOM     89  C   UNL A   1      42.658  27.279  34.535  1.00  0.00     0.054 A 
BRANCH  89  90
ATOM     90  S   UNL A   1      41.891  26.771  36.103  1.00  0.00     0.124 S 
ATOM     91  O   UNL A   1      42.959  26.017  36.755  1.00  0.00    -0.237 OA
ATOM     92  O   UNL A   1      41.566  28.053  36.723  1.00  0.00    -0.237 OA
ATOM     93  O   UNL A   1      40.739  25.973  35.689  1.00  0.00    -0.744 OA
ENDBRANCH  89  90
ENDBRANCH  63  84
ENDBRANCH  37  38
ENDBRANCH  29  32
ENDBRANCH  27  28
ENDBRANCH  26  27
ENDBRANCH  25  26
ENDBRANCH   1  25
TORSDOF 19
ENDMDL
MODEL 3
REMARK VINA RESULT:     -11.1      3.149      8.904
REMARK SMILES CC[NH2+][C@H](C)c1cccn1Cc1ccc(C(=O)NCCCCNC(=O)c2ccc(-c3c4nc(c(-c5ccc(S(=O)(=O)[O-])cc5)c5ccc([nH]5)c(-c5ccc(S(=O)(=O)[O-])cc5)c5nc(c(-c6ccc(S(=O)(=O)[O-])cc6)c6ccc3[nH]6)C=C5)C=C4)cc2)cc1
REMARK SMILES IDX 19 1 18 2 16 3 17 4 15 6 12 7 13 8 87 9 14 10 86 11 11 12
REMARK SMILES IDX 10 13 6 14 7 15 8 16 9 17 4 18 5 19 3 20 2 23 1 24 20 25
REMARK SMILES IDX 21 26 22 27 23 28 24 29 25 31 26 32 27 33 85 34 28 35 84 36
REMARK SMILES IDX 29 37 30 38 31 39 78 40 32 41 83 42 77 43 79 44 33 45 82 46
REMARK SMILES IDX 76 47 75 48 34 50 64 51 45 52 63 53 46 54 49 55 62 56 80 57
REMARK SMILES IDX 47 58 48 59 61 61 81 62 50 63 35 64 36 65 44 66 37 67 43 68
REMARK SMILES IDX 38 69 39 70 40 71 41 72 42 73 65 74 66 75 74 76 67 77 73 78
REMARK SMILES IDX 68 79 69 80 70 81 71 82 72 83 51 84 52 85 60 86 53 87 59 88
REMARK SMILES IDX 54 89 55 90 56 91 57 92 58 93
REMARK H PARENT 18 5 3 21 3 22 23 30 79 49 49 60
REMARK Flexibility Score: inf
ROOT
ATOM      1  C   UNL A   1      31.238  29.898  25.180  1.00  0.00     0.116 C 
ENDROOT
BRANCH   1   2
ATOM      2  N   UNL A   1      30.743  29.727  23.826  1.00  0.00    -0.352 N 
ATOM      3  C   UNL A   1      30.532  28.612  23.054  1.00  0.00     0.251 C 
ATOM      4  O   UNL A   1      30.088  28.769  21.916  1.00  0.00    -0.269 OA
ATOM      5  H   UNL A   1      30.514  30.572  23.376  1.00  0.00     0.163 HD
BRANCH   3   6
ATOM      6  C   UNL A   1      30.766  27.226  23.543  1.00  0.00     0.039 A 
ATOM      7  C   UNL A   1      31.264  24.537  24.268  1.00  0.00    -0.028 A 
ATOM      8  C   UNL A   1      32.048  25.169  23.295  1.00  0.00     0.006 A 
ATOM      9  C   UNL A   1      30.289  25.296  24.931  1.00  0.00     0.006 A 
ATOM     10  C   UNL A   1      31.799  26.499  22.935  1.00  0.00     0.014 A 
ATOM     11  C   UNL A   1      30.055  26.631  24.585  1.00  0.00     0.014 A 
BRANCH   7  12
ATOM     12  C   UNL A   1      31.435  23.065  24.575  1.00  0.00     0.157 C 
BRANCH  12  13
ATOM     13  N   UNL A   1      32.339  22.837  25.707  1.00  0.00    -0.342 N 
ATOM     14  C   UNL A   1      33.698  22.557  25.666  1.00  0.00     0.076 A 
ATOM     15  C   UNL A   1      34.091  22.322  26.977  1.00  0.00     0.029 A 
ATOM     16  C   UNL A   1      32.998  22.584  27.828  1.00  0.00     0.020 A 
ATOM     17  C   UNL A   1      31.944  22.942  27.023  1.00  0.00     0.086 A 
BRANCH  14  18
ATOM     18  C   UNL A   1      34.530  22.543  24.406  1.00  0.00     0.227 C 
ATOM     19  C   UNL A   1      35.229  23.892  24.178  1.00  0.00     0.082 C 
BRANCH  18  20
ATOM     20  N   UNL A   1      35.518  21.470  24.495  1.00  0.00    -0.339 N 
ATOM     21  H   UNL A   1      35.466  21.057  25.426  1.00  0.00     0.346 HD
ATOM     22  H   UNL A   1      35.299  20.794  23.763  1.00  0.00     0.346 HD
BRANCH  20  23
ATOM     23  C   UNL A   1      36.885  21.927  24.267  1.00  0.00     0.257 C 
ATOM     24  C   UNL A   1      37.864  21.082  25.067  1.00  0.00     0.071 C 
ENDBRANCH  20  23
ENDBRANCH  18  20
ENDBRANCH  14  18
ENDBRANCH  12  13
ENDBRANCH   7  12
ENDBRANCH   3   6
ENDBRANCH   1   2
BRANCH   1  25
ATOM     25  C   UNL A   1      32.747  29.634  25.236  1.00  0.00     0.023 C 
BRANCH  25  26
ATOM     26  C   UNL A   1      33.146  28.464  26.149  1.00  0.00     0.023 C 
BRANCH  26  27
ATOM     27  C   UNL A   1      34.162  28.833  27.232  1.00  0.00     0.116 C 
BRANCH  27  28
ATOM     28  N   UNL A   1      34.009  30.219  27.644  1.00  0.00    -0.352 N 
ATOM     29  C   UNL A   1      34.788  30.969  28.490  1.00  0.00     0.251 C 
ATOM     30  H   UNL A   1      33.232  30.688  27.262  1.00  0.00     0.163 HD
ATOM     31  O   UNL A   1      34.306  31.969  29.010  1.00  0.00    -0.269 OA
BRANCH  29  32
ATOM     32  C   UNL A   1      36.185  30.586  28.792  1.00  0.00     0.039 A 
ATOM     33  C   UNL A   1      36.460  30.056  30.059  1.00  0.00     0.014 A 
ATOM     34  C   UNL A   1      37.227  30.830  27.890  1.00  0.00     0.014 A 
ATOM     35  C   UNL A   1      37.768  29.716  30.396  1.00  0.00     0.010 A 
ATOM     36  C   UNL A   1      38.533  30.475  28.217  1.00  0.00     0.010 A 
ATOM     37  C   UNL A   1      38.802  29.902  29.465  1.00  0.00    -0.014 A 
BRANCH  37  38
ATOM     38  C   UNL A   1      40.129  29.298  29.754  1.00  0.00     0.031 A 
ATOM     39  C   UNL A   1      41.098  30.361  30.348  1.00  0.00     0.074 A 
ATOM     40  C   UNL A   1      40.301  27.984  29.400  1.00  0.00     0.049 A 
ATOM     41  N   UNL A   1      42.390  30.457  30.272  1.00  0.00    -0.248 NA
ATOM     42  C   UNL A   1      40.530  31.540  31.069  1.00  0.00     0.031 C 
ATOM     43  C   UNL A   1      39.227  27.085  28.903  1.00  0.00     0.029 A 
ATOM     44  N   UNL A   1      41.383  27.127  29.372  1.00  0.00    -0.354 N 
ATOM     45  C   UNL A   1      42.798  31.591  31.025  1.00  0.00     0.074 A 
ATOM     46  C   UNL A   1      41.600  32.257  31.429  1.00  0.00     0.031 C 
ATOM     47  C   UNL A   1      39.721  25.874  28.548  1.00  0.00     0.029 A 
ATOM     48  C   UNL A   1      41.153  25.856  28.767  1.00  0.00     0.049 A 
ATOM     49  H   UNL A   1      42.258  27.378  29.747  1.00  0.00     0.167 HD
ATOM     50  C   UNL A   1      44.103  31.866  31.334  1.00  0.00     0.031 A 
ATOM     51  C   UNL A   1      42.064  24.895  28.403  1.00  0.00     0.031 A 
ATOM     52  C   UNL A   1      44.953  30.912  30.712  1.00  0.00     0.049 A 
ATOM     53  C   UNL A   1      43.358  25.424  28.855  1.00  0.00     0.074 A 
ATOM     54  C   UNL A   1      45.377  30.756  29.420  1.00  0.00     0.029 A 
ATOM     55  N   UNL A   1      45.186  29.755  31.412  1.00  0.00    -0.354 N 
ATOM     56  N   UNL A   1      43.762  25.468  30.087  1.00  0.00    -0.248 NA
ATOM     57  C   UNL A   1      44.238  26.052  27.861  1.00  0.00     0.031 C 
ATOM     58  C   UNL A   1      45.352  29.355  29.251  1.00  0.00     0.029 A 
ATOM     59  C   UNL A   1      45.150  28.738  30.491  1.00  0.00     0.049 A 
ATOM     60  H   UNL A   1      45.347  29.671  32.379  1.00  0.00     0.167 HD
ATOM     61  C   UNL A   1      44.735  26.432  30.042  1.00  0.00     0.074 A 
ATOM     62  C   UNL A   1      45.192  26.496  28.671  1.00  0.00     0.031 C 
ATOM     63  C   UNL A   1      44.748  27.434  30.955  1.00  0.00     0.031 A 
BRANCH  50  64
ATOM     64  C   UNL A   1      44.766  32.815  32.304  1.00  0.00    -0.014 A 
ATOM     65  C   UNL A   1      46.150  33.077  32.101  1.00  0.00     0.010 A 
ATOM     66  C   UNL A   1      44.223  33.169  33.546  1.00  0.00     0.010 A 
ATOM     67  C   UNL A   1      46.981  33.529  33.128  1.00  0.00     0.020 A 
ATOM     68  C   UNL A   1      45.051  33.663  34.577  1.00  0.00     0.020 A 
ATOM     69  C   UNL A   1      46.430  33.786  34.376  1.00  0.00     0.054 A 
BRANCH  69  70
ATOM     70  S   UNL A   1      47.560  34.210  35.733  1.00  0.00     0.124 S 
ATOM     71  O   UNL A   1      48.196  32.927  36.019  1.00  0.00    -0.237 OA
ATOM     72  O   UNL A   1      48.429  35.212  35.118  1.00  0.00    -0.237 OA
ATOM     73  O   UNL A   1      46.673  34.721  36.774  1.00  0.00    -0.744 OA
ENDBRANCH  69  70
ENDBRANCH  50  64
BRANCH  51  74
ATOM     74  C   UNL A   1      42.138  23.614  27.584  1.00  0.00    -0.014 A 
ATOM     75  C   UNL A   1      43.244  23.111  26.888  1.00  0.00     0.010 A 
ATOM     76  C   UNL A   1      40.981  22.776  27.558  1.00  0.00     0.010 A 
ATOM     77  C   UNL A   1      43.231  21.794  26.341  1.00  0.00     0.020 A 
ATOM     78  C   UNL A   1      40.967  21.466  27.071  1.00  0.00     0.020 A 
ATOM     79  C   UNL A   1      42.111  20.964  26.485  1.00  0.00     0.054 A 
BRANCH  79  80
ATOM     80  S   UNL A   1      42.164  19.201  26.039  1.00  0.00     0.124 S 
ATOM     81  O   UNL A   1      42.653  18.578  27.264  1.00  0.00    -0.237 OA
ATOM     82  O   UNL A   1      40.774  18.915  25.693  1.00  0.00    -0.237 OA
ATOM     83  O   UNL A   1      43.091  19.162  24.908  1.00  0.00    -0.744 OA
ENDBRANCH  79  80
ENDBRANCH  51  74
BRANCH  63  84
ATOM     84  C   UNL A   1      44.001  27.154  32.252  1.00  0.00    -0.014 A 
ATOM     85  C   UNL A   1      42.793  27.829  32.502  1.00  0.00     0.010 A 
ATOM     86  C   UNL A   1      44.486  26.297  33.263  1.00  0.00     0.010 A 
ATOM     87  C   UNL A   1      42.089  27.649  33.701  1.00  0.00     0.020 A 
ATOM     88  C   UNL A   1      43.786  26.109  34.471  1.00  0.00     0.020 A 
ATOM     89  C   UNL A   1      42.584  26.785  34.680  1.00  0.00     0.054 A 
BRANCH  89  90
ATOM     90  S   UNL A   1      41.626  26.566  36.209  1.00  0.00     0.124 S 
ATOM     91  O   UNL A   1      41.041  27.888  36.417  1.00  0.00    -0.237 OA
ATOM     92  O   UNL A   1      40.680  25.517  35.839  1.00  0.00    -0.237 OA
ATOM     93  O   UNL A   1      42.629  26.175  37.199  1.00  0.00    -0.744 OA
ENDBRANCH  89  90
ENDBRANCH  63  84
ENDBRANCH  37  38
ENDBRANCH  29  32
ENDBRANCH  27  28
ENDBRANCH  26  27
ENDBRANCH  25  26
ENDBRANCH   1  25
TORSDOF 19
ENDMDL
