MODEL 1
REMARK VINA RESULT:     -11.0      0.000      0.000
REMARK SMILES C[C@H]1CC[C@@]1(C(=O)NCCCCNC(=O)c1ccc(-c2c3nc(c(-c4ccc(S(=O)(=O)[O-])cc4)c4ccc([nH]4)c(-c4ccc(S(=O)(=O)[O-])cc4)c4nc(c(-c5ccc(S(=O)(=O)[O-])cc5)c5ccc2[nH]5)C=C4)C=C3)cc1)c1ccc(Cl)cc1Cl
REMARK SMILES IDX 11 1 10 2 9 3 8 4 6 5 7 6 5 8 1 9 2 10 3 11 4 12 76 13 77 14
REMARK SMILES IDX 82 15 78 16 81 17 83 18 79 19 80 20 12 21 13 22 14 23 15 25
REMARK SMILES IDX 16 26 17 27 75 28 18 29 74 30 19 31 20 32 21 33 68 34 22 35
REMARK SMILES IDX 73 36 67 37 69 38 23 39 72 40 66 41 65 42 24 44 54 45 35 46
REMARK SMILES IDX 53 47 36 48 39 49 52 50 70 51 37 52 38 53 51 55 71 56 40 57
REMARK SMILES IDX 25 58 26 59 34 60 27 61 33 62 28 63 29 64 30 65 31 66 32 67
REMARK SMILES IDX 55 68 56 69 64 70 57 71 63 72 58 73 59 74 60 75 61 76 62 77
REMARK SMILES IDX 41 78 42 79 50 80 43 81 49 82 44 83 45 84 46 85 47 86 48 87
REMARK H PARENT 8 7 13 24 69 43 39 54
REMARK Flexibility Score: inf
ROOT
ATOM      1  C   UNL A   1      33.499  28.912  25.478  1.00  0.00     0.023 C 
ENDROOT
BRANCH   1   2
ATOM      2  C   UNL A   1      33.803  27.566  24.820  1.00  0.00     0.023 C 
BRANCH   2   3
ATOM      3  C   UNL A   1      32.661  26.947  24.019  1.00  0.00     0.116 C 
BRANCH   3   4
ATOM      4  N   UNL A   1      33.068  26.441  22.725  1.00  0.00    -0.355 N 
ATOM      5  C   UNL A   1      33.212  25.142  22.289  1.00  0.00     0.230 C 
ATOM      6  O   UNL A   1      33.420  25.000  21.077  1.00  0.00    -0.274 OA
ATOM      7  H   UNL A   1      33.273  27.131  22.054  1.00  0.00     0.163 HD
BRANCH   5   8
ATOM      8  C   UNL A   1      33.045  23.930  23.329  1.00  0.00     0.078 C 
ATOM      9  C   UNL A   1      32.486  21.281  23.374  1.00  0.00     0.009 C 
ATOM     10  C   UNL A   1      32.294  22.650  22.728  1.00  0.00     0.006 C 
ATOM     11  C   UNL A   1      30.962  23.330  23.123  1.00  0.00     0.006 C 
ATOM     12  C   UNL A   1      31.731  24.103  24.206  1.00  0.00     0.022 C 
BRANCH   8  13
ATOM     13  C   UNL A   1      34.485  23.609  24.073  1.00  0.00    -0.013 A 
ATOM     14  C   UNL A   1      35.606  23.193  23.311  1.00  0.00     0.008 A 
ATOM     15  C   UNL A   1      34.735  23.731  25.467  1.00  0.00     0.046 A 
ATOM     16  C   UNL A   1      36.844  22.873  23.880  1.00  0.00     0.021 A 
ATOM     17  C   UNL A   1      35.961  23.370  26.050  1.00  0.00     0.041 A 
ATOM     18  Cl  UNL A   1      33.560  24.365  26.566  1.00  0.00    -0.084 Cl
ATOM     19  C   UNL A   1      37.008  22.939  25.253  1.00  0.00     0.042 A 
ATOM     20  Cl  UNL A   1      38.514  22.507  25.959  1.00  0.00    -0.084 Cl
ENDBRANCH   8  13
ENDBRANCH   5   8
ENDBRANCH   3   4
ENDBRANCH   2   3
ENDBRANCH   1   2
BRANCH   1  21
ATOM     21  C   UNL A   1      33.466  28.915  27.002  1.00  0.00     0.116 C 
BRANCH  21  22
ATOM     22  N   UNL A   1      33.462  30.254  27.575  1.00  0.00    -0.352 N 
ATOM     23  C   UNL A   1      34.438  30.907  28.289  1.00  0.00     0.251 C 
ATOM     24  H   UNL A   1      32.635  30.769  27.429  1.00  0.00     0.163 HD
ATOM     25  O   UNL A   1      34.199  32.007  28.781  1.00  0.00    -0.269 OA
BRANCH  23  26
ATOM     26  C   UNL A   1      35.755  30.268  28.502  1.00  0.00     0.039 A 
ATOM     27  C   UNL A   1      36.661  30.229  27.439  1.00  0.00     0.014 A 
ATOM     28  C   UNL A   1      36.110  29.743  29.748  1.00  0.00     0.014 A 
ATOM     29  C   UNL A   1      37.959  29.760  27.654  1.00  0.00     0.010 A 
ATOM     30  C   UNL A   1      37.423  29.336  29.976  1.00  0.00     0.010 A 
ATOM     31  C   UNL A   1      38.366  29.364  28.938  1.00  0.00    -0.014 A 
BRANCH  31  32
ATOM     32  C   UNL A   1      39.787  29.047  29.234  1.00  0.00     0.031 A 
ATOM     33  C   UNL A   1      40.704  30.092  29.805  1.00  0.00     0.074 A 
ATOM     34  C   UNL A   1      40.274  27.834  28.901  1.00  0.00     0.049 A 
ATOM     35  N   UNL A   1      41.989  30.021  30.038  1.00  0.00    -0.248 NA
ATOM     36  C   UNL A   1      40.103  31.394  30.136  1.00  0.00     0.031 C 
ATOM     37  C   UNL A   1      39.497  26.745  28.301  1.00  0.00     0.029 A 
ATOM     38  N   UNL A   1      41.541  27.318  29.002  1.00  0.00    -0.354 N 
ATOM     39  C   UNL A   1      42.355  31.267  30.529  1.00  0.00     0.074 A 
ATOM     40  C   UNL A   1      41.163  32.089  30.525  1.00  0.00     0.031 C 
ATOM     41  C   UNL A   1      40.300  25.688  28.104  1.00  0.00     0.029 A 
ATOM     42  C   UNL A   1      41.655  26.034  28.520  1.00  0.00     0.049 A 
ATOM     43  H   UNL A   1      42.298  27.818  29.384  1.00  0.00     0.167 HD
ATOM     44  C   UNL A   1      43.571  31.686  30.956  1.00  0.00     0.031 A 
ATOM     45  C   UNL A   1      42.729  25.230  28.406  1.00  0.00     0.031 A 
ATOM     46  C   UNL A   1      44.755  30.867  30.963  1.00  0.00     0.049 A 
ATOM     47  C   UNL A   1      44.071  25.727  28.863  1.00  0.00     0.074 A 
ATOM     48  C   UNL A   1      46.015  31.183  31.438  1.00  0.00     0.029 A 
ATOM     49  N   UNL A   1      44.828  29.575  30.465  1.00  0.00    -0.354 N 
ATOM     50  N   UNL A   1      44.383  26.887  29.388  1.00  0.00    -0.248 NA
ATOM     51  C   UNL A   1      45.206  24.806  28.710  1.00  0.00     0.031 C 
ATOM     52  C   UNL A   1      46.864  30.101  31.180  1.00  0.00     0.029 A 
ATOM     53  C   UNL A   1      46.119  29.091  30.591  1.00  0.00     0.049 A 
ATOM     54  H   UNL A   1      44.072  29.076  30.080  1.00  0.00     0.167 HD
ATOM     55  C   UNL A   1      45.749  26.833  29.640  1.00  0.00     0.074 A 
ATOM     56  C   UNL A   1      46.199  25.518  29.230  1.00  0.00     0.031 C 
ATOM     57  C   UNL A   1      46.556  27.787  30.163  1.00  0.00     0.031 A 
BRANCH  44  58
ATOM     58  C   UNL A   1      43.682  33.106  31.447  1.00  0.00    -0.014 A 
ATOM     59  C   UNL A   1      43.808  34.177  30.545  1.00  0.00     0.010 A 
ATOM     60  C   UNL A   1      43.619  33.376  32.827  1.00  0.00     0.010 A 
ATOM     61  C   UNL A   1      43.910  35.489  31.014  1.00  0.00     0.020 A 
ATOM     62  C   UNL A   1      43.697  34.690  33.299  1.00  0.00     0.020 A 
ATOM     63  C   UNL A   1      43.858  35.736  32.389  1.00  0.00     0.054 A 
BRANCH  63  64
ATOM     64  S   UNL A   1      43.975  37.451  32.968  1.00  0.00     0.124 S 
ATOM     65  O   UNL A   1      43.867  38.199  31.718  1.00  0.00    -0.237 OA
ATOM     66  O   UNL A   1      42.832  37.566  33.870  1.00  0.00    -0.237 OA
ATOM     67  O   UNL A   1      45.284  37.510  33.617  1.00  0.00    -0.744 OA
ENDBRANCH  63  64
ENDBRANCH  44  58
BRANCH  45  68
ATOM     68  C   UNL A   1      42.576  23.867  27.831  1.00  0.00    -0.014 A 
ATOM     69  C   UNL A   1      42.759  23.651  26.454  1.00  0.00     0.010 A 
ATOM     70  C   UNL A   1      42.268  22.773  28.661  1.00  0.00     0.010 A 
ATOM     71  C   UNL A   1      42.627  22.368  25.915  1.00  0.00     0.020 A 
ATOM     72  C   UNL A   1      42.159  21.485  28.130  1.00  0.00     0.020 A 
ATOM     73  C   UNL A   1      42.329  21.292  26.758  1.00  0.00     0.054 A 
BRANCH  73  74
ATOM     74  S   UNL A   1      42.225  19.627  26.047  1.00  0.00     0.124 S 
ATOM     75  O   UNL A   1      43.155  19.715  24.925  1.00  0.00    -0.237 OA
ATOM     76  O   UNL A   1      42.651  18.780  27.158  1.00  0.00    -0.237 OA
ATOM     77  O   UNL A   1      40.815  19.499  25.684  1.00  0.00    -0.744 OA
ENDBRANCH  73  74
ENDBRANCH  45  68
BRANCH  57  78
ATOM     78  C   UNL A   1      48.012  27.444  30.326  1.00  0.00    -0.014 A 
ATOM     79  C   UNL A   1      48.451  26.656  31.406  1.00  0.00     0.010 A 
ATOM     80  C   UNL A   1      48.944  27.872  29.365  1.00  0.00     0.010 A 
ATOM     81  C   UNL A   1      49.802  26.325  31.534  1.00  0.00     0.020 A 
ATOM     82  C   UNL A   1      50.292  27.521  29.476  1.00  0.00     0.020 A 
ATOM     83  C   UNL A   1      50.715  26.760  30.568  1.00  0.00     0.054 A 
BRANCH  83  84
ATOM     84  S   UNL A   1      52.456  26.276  30.730  1.00  0.00     0.124 S 
ATOM     85  O   UNL A   1      52.375  25.163  31.673  1.00  0.00    -0.237 OA
ATOM     86  O   UNL A   1      52.819  25.916  29.362  1.00  0.00    -0.237 OA
ATOM     87  O   UNL A   1      53.103  27.481  31.243  1.00  0.00    -0.744 OA
ENDBRANCH  83  84
ENDBRANCH  57  78
ENDBRANCH  31  32
ENDBRANCH  23  26
ENDBRANCH  21  22
ENDBRANCH   1  21
TORSDOF 15
ENDMDL
MODEL 2
REMARK VINA RESULT:     -10.8      2.720      9.224
REMARK SMILES C[C@H]1CC[C@@]1(C(=O)NCCCCNC(=O)c1ccc(-c2c3nc(c(-c4ccc(S(=O)(=O)[O-])cc4)c4ccc([nH]4)c(-c4ccc(S(=O)(=O)[O-])cc4)c4nc(c(-c5ccc(S(=O)(=O)[O-])cc5)c5ccc2[nH]5)C=C4)C=C3)cc1)c1ccc(Cl)cc1Cl
REMARK SMILES IDX 11 1 10 2 9 3 8 4 6 5 7 6 5 8 1 9 2 10 3 11 4 12 76 13 77 14
REMARK SMILES IDX 82 15 78 16 81 17 83 18 79 19 80 20 12 21 13 22 14 23 15 25
REMARK SMILES IDX 16 26 17 27 75 28 18 29 74 30 19 31 20 32 21 33 68 34 22 35
REMARK SMILES IDX 73 36 67 37 69 38 23 39 72 40 66 41 65 42 24 44 54 45 35 46
REMARK SMILES IDX 53 47 36 48 39 49 52 50 70 51 37 52 38 53 51 55 71 56 40 57
REMARK SMILES IDX 25 58 26 59 34 60 27 61 33 62 28 63 29 64 30 65 31 66 32 67
REMARK SMILES IDX 55 68 56 69 64 70 57 71 63 72 58 73 59 74 60 75 61 76 62 77
REMARK SMILES IDX 41 78 42 79 50 80 43 81 49 82 44 83 45 84 46 85 47 86 48 87
REMARK H PARENT 8 7 13 24 69 43 39 54
REMARK Flexibility Score: inf
ROOT
ATOM      1  C   UNL A   1      35.384  22.216  25.872  1.00  0.00     0.023 C 
ENDROOT
BRANCH   1   2
ATOM      2  C   UNL A   1      34.103  22.916  25.417  1.00  0.00     0.023 C 
BRANCH   2   3
ATOM      3  C   UNL A   1      33.641  24.083  26.285  1.00  0.00     0.116 C 
BRANCH   3   4
ATOM      4  N   UNL A   1      32.275  23.956  26.748  1.00  0.00    -0.355 N 
ATOM      5  C   UNL A   1      31.128  24.569  26.295  1.00  0.00     0.230 C 
ATOM      6  O   UNL A   1      30.067  24.149  26.776  1.00  0.00    -0.274 OA
ATOM      7  H   UNL A   1      32.147  23.336  27.502  1.00  0.00     0.163 HD
BRANCH   5   8
ATOM      8  C   UNL A   1      31.225  25.706  25.166  1.00  0.00     0.078 C 
ATOM      9  C   UNL A   1      29.632  27.322  23.689  1.00  0.00     0.009 C 
ATOM     10  C   UNL A   1      29.847  25.991  24.402  1.00  0.00     0.006 C 
ATOM     11  C   UNL A   1      30.219  24.837  23.442  1.00  0.00     0.006 C 
ATOM     12  C   UNL A   1      31.696  25.095  23.776  1.00  0.00     0.022 C 
BRANCH   8  13
ATOM     13  C   UNL A   1      31.981  27.047  25.764  1.00  0.00    -0.013 A 
ATOM     14  C   UNL A   1      31.503  27.670  26.945  1.00  0.00     0.008 A 
ATOM     15  C   UNL A   1      33.133  27.662  25.201  1.00  0.00     0.046 A 
ATOM     16  C   UNL A   1      32.074  28.827  27.488  1.00  0.00     0.021 A 
ATOM     17  C   UNL A   1      33.685  28.847  25.715  1.00  0.00     0.041 A 
ATOM     18  Cl  UNL A   1      33.975  26.988  23.850  1.00  0.00    -0.084 Cl
ATOM     19  C   UNL A   1      33.150  29.425  26.854  1.00  0.00     0.042 A 
ATOM     20  Cl  UNL A   1      33.828  30.868  27.494  1.00  0.00    -0.084 Cl
ENDBRANCH   8  13
ENDBRANCH   5   8
ENDBRANCH   3   4
ENDBRANCH   2   3
ENDBRANCH   1   2
BRANCH   1  21
ATOM     21  C   UNL A   1      36.636  23.084  25.921  1.00  0.00     0.116 C 
BRANCH  21  22
ATOM     22  N   UNL A   1      37.870  22.312  25.983  1.00  0.00    -0.352 N 
ATOM     23  C   UNL A   1      39.133  22.704  26.358  1.00  0.00     0.251 C 
ATOM     24  H   UNL A   1      37.786  21.368  25.715  1.00  0.00     0.163 HD
ATOM     25  O   UNL A   1      40.073  21.922  26.241  1.00  0.00    -0.269 OA
BRANCH  23  26
ATOM     26  C   UNL A   1      39.366  24.076  26.859  1.00  0.00     0.039 A 
ATOM     27  C   UNL A   1      38.960  24.394  28.158  1.00  0.00     0.014 A 
ATOM     28  C   UNL A   1      40.012  25.032  26.070  1.00  0.00     0.014 A 
ATOM     29  C   UNL A   1      39.296  25.636  28.702  1.00  0.00     0.010 A 
ATOM     30  C   UNL A   1      40.401  26.245  26.636  1.00  0.00     0.010 A 
ATOM     31  C   UNL A   1      40.068  26.548  27.965  1.00  0.00    -0.014 A 
BRANCH  31  32
ATOM     32  C   UNL A   1      40.601  27.788  28.587  1.00  0.00     0.031 A 
ATOM     33  C   UNL A   1      42.004  27.836  29.121  1.00  0.00     0.074 A 
ATOM     34  C   UNL A   1      39.781  28.846  28.750  1.00  0.00     0.049 A 
ATOM     35  N   UNL A   1      42.603  28.798  29.775  1.00  0.00    -0.248 NA
ATOM     36  C   UNL A   1      42.837  26.641  28.913  1.00  0.00     0.031 C 
ATOM     37  C   UNL A   1      38.383  28.911  28.312  1.00  0.00     0.029 A 
ATOM     38  N   UNL A   1      39.998  30.065  29.342  1.00  0.00    -0.354 N 
ATOM     39  C   UNL A   1      43.874  28.323  30.070  1.00  0.00     0.074 A 
ATOM     40  C   UNL A   1      43.948  26.970  29.556  1.00  0.00     0.031 C 
ATOM     41  C   UNL A   1      37.875  30.110  28.637  1.00  0.00     0.029 A 
ATOM     42  C   UNL A   1      38.892  30.883  29.342  1.00  0.00     0.049 A 
ATOM     43  H   UNL A   1      40.863  30.329  29.730  1.00  0.00     0.167 HD
ATOM     44  C   UNL A   1      44.892  28.957  30.700  1.00  0.00     0.031 A 
ATOM     45  C   UNL A   1      38.706  32.110  29.866  1.00  0.00     0.031 A 
ATOM     46  C   UNL A   1      44.818  30.303  31.208  1.00  0.00     0.049 A 
ATOM     47  C   UNL A   1      39.842  32.783  30.583  1.00  0.00     0.074 A 
ATOM     48  C   UNL A   1      45.817  31.053  31.802  1.00  0.00     0.029 A 
ATOM     49  N   UNL A   1      43.680  31.096  31.190  1.00  0.00    -0.354 N 
ATOM     50  N   UNL A   1      41.059  32.342  30.791  1.00  0.00    -0.248 NA
ATOM     51  C   UNL A   1      39.578  34.118  31.136  1.00  0.00     0.031 C 
ATOM     52  C   UNL A   1      45.270  32.282  32.190  1.00  0.00     0.029 A 
ATOM     53  C   UNL A   1      43.943  32.315  31.791  1.00  0.00     0.049 A 
ATOM     54  H   UNL A   1      42.814  30.830  30.804  1.00  0.00     0.167 HD
ATOM     55  C   UNL A   1      41.711  33.351  31.490  1.00  0.00     0.074 A 
ATOM     56  C   UNL A   1      40.761  34.432  31.650  1.00  0.00     0.031 C 
ATOM     57  C   UNL A   1      42.983  33.376  31.958  1.00  0.00     0.031 A 
BRANCH  44  58
ATOM     58  C   UNL A   1      46.178  28.196  30.884  1.00  0.00    -0.014 A 
ATOM     59  C   UNL A   1      47.199  28.255  29.919  1.00  0.00     0.010 A 
ATOM     60  C   UNL A   1      46.384  27.444  32.055  1.00  0.00     0.010 A 
ATOM     61  C   UNL A   1      48.387  27.544  30.102  1.00  0.00     0.020 A 
ATOM     62  C   UNL A   1      47.583  26.751  32.253  1.00  0.00     0.020 A 
ATOM     63  C   UNL A   1      48.570  26.792  31.267  1.00  0.00     0.054 A 
BRANCH  63  64
ATOM     64  S   UNL A   1      50.130  25.893  31.486  1.00  0.00     0.124 S 
ATOM     65  O   UNL A   1      51.024  26.951  31.949  1.00  0.00    -0.237 OA
ATOM     66  O   UNL A   1      49.783  24.883  32.483  1.00  0.00    -0.237 OA
ATOM     67  O   UNL A   1      50.420  25.372  30.152  1.00  0.00    -0.744 OA
ENDBRANCH  63  64
ENDBRANCH  44  58
BRANCH  45  68
ATOM     68  C   UNL A   1      37.385  32.780  29.731  1.00  0.00    -0.014 A 
ATOM     69  C   UNL A   1      36.478  32.787  30.804  1.00  0.00     0.010 A 
ATOM     70  C   UNL A   1      37.037  33.436  28.536  1.00  0.00     0.010 A 
ATOM     71  C   UNL A   1      35.241  33.427  30.682  1.00  0.00     0.020 A 
ATOM     72  C   UNL A   1      35.812  34.098  28.417  1.00  0.00     0.020 A 
ATOM     73  C   UNL A   1      34.917  34.081  29.489  1.00  0.00     0.054 A 
BRANCH  73  74
ATOM     74  S   UNL A   1      33.334  34.959  29.374  1.00  0.00     0.124 S 
ATOM     75  O   UNL A   1      33.757  36.297  28.973  1.00  0.00    -0.237 OA
ATOM     76  O   UNL A   1      32.618  34.191  28.359  1.00  0.00    -0.237 OA
ATOM     77  O   UNL A   1      32.786  34.852  30.724  1.00  0.00    -0.744 OA
ENDBRANCH  73  74
ENDBRANCH  45  68
BRANCH  57  78
ATOM     78  C   UNL A   1      43.424  34.617  32.685  1.00  0.00    -0.014 A 
ATOM     79  C   UNL A   1      43.321  34.709  34.085  1.00  0.00     0.010 A 
ATOM     80  C   UNL A   1      43.992  35.684  31.966  1.00  0.00     0.010 A 
ATOM     81  C   UNL A   1      43.756  35.858  34.750  1.00  0.00     0.020 A 
ATOM     82  C   UNL A   1      44.450  36.824  32.632  1.00  0.00     0.020 A 
ATOM     83  C   UNL A   1      44.317  36.909  34.020  1.00  0.00     0.054 A 
BRANCH  83  84
ATOM     84  S   UNL A   1      44.918  38.370  34.911  1.00  0.00     0.124 S 
ATOM     85  O   UNL A   1      46.019  37.816  35.694  1.00  0.00    -0.237 OA
ATOM     86  O   UNL A   1      45.307  39.271  33.828  1.00  0.00    -0.237 OA
ATOM     87  O   UNL A   1      43.758  38.803  35.687  1.00  0.00    -0.744 OA
ENDBRANCH  83  84
ENDBRANCH  57  78
ENDBRANCH  31  32
ENDBRANCH  23  26
ENDBRANCH  21  22
ENDBRANCH   1  21
TORSDOF 15
ENDMDL
MODEL 3
REMARK VINA RESULT:     -10.4      3.257      4.658
REMARK SMILES C[C@H]1CC[C@@]1(C(=O)NCCCCNC(=O)c1ccc(-c2c3nc(c(-c4ccc(S(=O)(=O)[O-])cc4)c4ccc([nH]4)c(-c4ccc(S(=O)(=O)[O-])cc4)c4nc(c(-c5ccc(S(=O)(=O)[O-])cc5)c5ccc2[nH]5)C=C4)C=C3)cc1)c1ccc(Cl)cc1Cl
REMARK SMILES IDX 11 1 10 2 9 3 8 4 6 5 7 6 5 8 1 9 2 10 3 11 4 12 76 13 77 14
REMARK SMILES IDX 82 15 78 16 81 17 83 18 79 19 80 20 12 21 13 22 14 23 15 25
REMARK SMILES IDX 16 26 17 27 75 28 18 29 74 30 19 31 20 32 21 33 68 34 22 35
REMARK SMILES IDX 73 36 67 37 69 38 23 39 72 40 66 41 65 42 24 44 54 45 35 46
REMARK SMILES IDX 53 47 36 48 39 49 52 50 70 51 37 52 38 53 51 55 71 56 40 57
REMARK SMILES IDX 25 58 26 59 34 60 27 61 33 62 28 63 29 64 30 65 31 66 32 67
REMARK SMILES IDX 55 68 56 69 64 70 57 71 63 72 58 73 59 74 60 75 61 76 62 77
REMARK SMILES IDX 41 78 42 79 50 80 43 81 49 82 44 83 45 84 46 85 47 86 48 87
REMARK H PARENT 8 7 13 24 69 43 39 54
REMARK Flexibility Score: inf
ROOT
ATOM      1  C   UNL A   1      34.277  30.639  27.494  1.00  0.00     0.023 C 
ENDROOT
BRANCH   1   2
ATOM      2  C   UNL A   1      33.905  29.587  26.449  1.00  0.00     0.023 C 
BRANCH   2   3
ATOM      3  C   UNL A   1      32.411  29.388  26.211  1.00  0.00     0.116 C 
BRANCH   3   4
ATOM      4  N   UNL A   1      31.906  28.129  26.719  1.00  0.00    -0.355 N 
ATOM      5  C   UNL A   1      31.760  26.916  26.085  1.00  0.00     0.230 C 
ATOM      6  O   UNL A   1      31.451  25.961  26.811  1.00  0.00    -0.274 OA
ATOM      7  H   UNL A   1      31.625  28.144  27.663  1.00  0.00     0.163 HD
BRANCH   5   8
ATOM      8  C   UNL A   1      32.050  26.800  24.510  1.00  0.00     0.078 C 
ATOM      9  C   UNL A   1      32.025  24.973  22.512  1.00  0.00     0.009 C 
ATOM     10  C   UNL A   1      32.239  25.298  23.987  1.00  0.00     0.006 C 
ATOM     11  C   UNL A   1      33.731  25.423  24.374  1.00  0.00     0.006 C 
ATOM     12  C   UNL A   1      33.602  26.945  24.200  1.00  0.00     0.022 C 
BRANCH   8  13
ATOM     13  C   UNL A   1      30.961  27.703  23.657  1.00  0.00    -0.013 A 
ATOM     14  C   UNL A   1      31.408  28.751  22.811  1.00  0.00     0.008 A 
ATOM     15  C   UNL A   1      29.552  27.518  23.667  1.00  0.00     0.046 A 
ATOM     16  C   UNL A   1      30.539  29.575  22.088  1.00  0.00     0.021 A 
ATOM     17  C   UNL A   1      28.671  28.368  22.978  1.00  0.00     0.041 A 
ATOM     18  Cl  UNL A   1      28.797  26.208  24.506  1.00  0.00    -0.084 Cl
ATOM     19  C   UNL A   1      29.171  29.395  22.194  1.00  0.00     0.042 A 
ATOM     20  Cl  UNL A   1      28.100  30.432  21.339  1.00  0.00    -0.084 Cl
ENDBRANCH   8  13
ENDBRANCH   5   8
ENDBRANCH   3   4
ENDBRANCH   2   3
ENDBRANCH   1   2
BRANCH   1  21
ATOM     21  C   UNL A   1      35.628  30.452  28.176  1.00  0.00     0.116 C 
BRANCH  21  22
ATOM     22  N   UNL A   1      35.522  30.242  29.613  1.00  0.00    -0.352 N 
ATOM     23  C   UNL A   1      36.503  29.957  30.533  1.00  0.00     0.251 C 
ATOM     24  H   UNL A   1      34.612  30.314  29.981  1.00  0.00     0.163 HD
ATOM     25  O   UNL A   1      36.194  29.710  31.696  1.00  0.00    -0.269 OA
BRANCH  23  26
ATOM     26  C   UNL A   1      37.921  29.904  30.114  1.00  0.00     0.039 A 
ATOM     27  C   UNL A   1      38.907  29.789  31.098  1.00  0.00     0.014 A 
ATOM     28  C   UNL A   1      38.276  29.932  28.763  1.00  0.00     0.014 A 
ATOM     29  C   UNL A   1      40.239  29.595  30.723  1.00  0.00     0.010 A 
ATOM     30  C   UNL A   1      39.594  29.674  28.391  1.00  0.00     0.010 A 
ATOM     31  C   UNL A   1      40.584  29.479  29.367  1.00  0.00    -0.014 A 
BRANCH  31  32
ATOM     32  C   UNL A   1      41.953  29.080  28.949  1.00  0.00     0.031 A 
ATOM     33  C   UNL A   1      43.056  30.097  28.866  1.00  0.00     0.074 A 
ATOM     34  C   UNL A   1      42.176  27.810  28.556  1.00  0.00     0.049 A 
ATOM     35  N   UNL A   1      44.282  29.947  28.434  1.00  0.00    -0.248 NA
ATOM     36  C   UNL A   1      42.735  31.464  29.304  1.00  0.00     0.031 C 
ATOM     37  C   UNL A   1      41.177  26.736  28.549  1.00  0.00     0.029 A 
ATOM     38  N   UNL A   1      43.309  27.208  28.070  1.00  0.00    -0.354 N 
ATOM     39  C   UNL A   1      44.875  31.199  28.534  1.00  0.00     0.074 A 
ATOM     40  C   UNL A   1      43.862  32.107  29.032  1.00  0.00     0.031 C 
ATOM     41  C   UNL A   1      41.747  25.607  28.098  1.00  0.00     0.029 A 
ATOM     42  C   UNL A   1      43.134  25.883  27.742  1.00  0.00     0.049 A 
ATOM     43  H   UNL A   1      44.167  27.680  27.964  1.00  0.00     0.167 HD
ATOM     44  C   UNL A   1      46.149  31.558  28.249  1.00  0.00     0.031 A 
ATOM     45  C   UNL A   1      43.985  24.992  27.199  1.00  0.00     0.031 A 
ATOM     46  C   UNL A   1      47.156  30.655  27.756  1.00  0.00     0.049 A 
ATOM     47  C   UNL A   1      45.386  25.422  26.867  1.00  0.00     0.074 A 
ATOM     48  C   UNL A   1      48.491  30.912  27.501  1.00  0.00     0.029 A 
ATOM     49  N   UNL A   1      46.938  29.323  27.437  1.00  0.00    -0.354 N 
ATOM     50  N   UNL A   1      45.948  26.595  27.034  1.00  0.00    -0.248 NA
ATOM     51  C   UNL A   1      46.268  24.407  26.273  1.00  0.00     0.031 C 
ATOM     52  C   UNL A   1      49.069  29.749  26.978  1.00  0.00     0.029 A 
ATOM     53  C   UNL A   1      48.105  28.754  26.956  1.00  0.00     0.049 A 
ATOM     54  H   UNL A   1      46.079  28.852  27.538  1.00  0.00     0.167 HD
ATOM     55  C   UNL A   1      47.253  26.457  26.576  1.00  0.00     0.074 A 
ATOM     56  C   UNL A   1      47.404  25.082  26.146  1.00  0.00     0.031 C 
ATOM     57  C   UNL A   1      48.236  27.388  26.516  1.00  0.00     0.031 A 
BRANCH  44  58
ATOM     58  C   UNL A   1      46.527  33.001  28.456  1.00  0.00    -0.014 A 
ATOM     59  C   UNL A   1      46.400  33.940  27.417  1.00  0.00     0.010 A 
ATOM     60  C   UNL A   1      46.974  33.433  29.719  1.00  0.00     0.010 A 
ATOM     61  C   UNL A   1      46.753  35.276  27.623  1.00  0.00     0.020 A 
ATOM     62  C   UNL A   1      47.304  34.774  29.935  1.00  0.00     0.020 A 
ATOM     63  C   UNL A   1      47.208  35.684  28.881  1.00  0.00     0.054 A 
BRANCH  63  64
ATOM     64  S   UNL A   1      47.642  37.427  29.124  1.00  0.00     0.124 S 
ATOM     65  O   UNL A   1      48.166  37.419  30.488  1.00  0.00    -0.237 OA
ATOM     66  O   UNL A   1      48.630  37.664  28.074  1.00  0.00    -0.237 OA
ATOM     67  O   UNL A   1      46.372  38.129  28.950  1.00  0.00    -0.744 OA
ENDBRANCH  63  64
ENDBRANCH  44  58
BRANCH  45  68
ATOM     68  C   UNL A   1      43.531  23.601  26.933  1.00  0.00    -0.014 A 
ATOM     69  C   UNL A   1      43.173  22.754  27.996  1.00  0.00     0.010 A 
ATOM     70  C   UNL A   1      43.433  23.123  25.614  1.00  0.00     0.010 A 
ATOM     71  C   UNL A   1      42.735  21.451  27.746  1.00  0.00     0.020 A 
ATOM     72  C   UNL A   1      42.973  21.828  25.358  1.00  0.00     0.020 A 
ATOM     73  C   UNL A   1      42.636  20.997  26.427  1.00  0.00     0.054 A 
BRANCH  73  74
ATOM     74  S   UNL A   1      42.006  19.323  26.122  1.00  0.00     0.124 S 
ATOM     75  O   UNL A   1      42.349  18.638  27.365  1.00  0.00    -0.237 OA
ATOM     76  O   UNL A   1      40.581  19.555  25.901  1.00  0.00    -0.237 OA
ATOM     77  O   UNL A   1      42.747  18.890  24.941  1.00  0.00    -0.744 OA
ENDBRANCH  73  74
ENDBRANCH  45  68
BRANCH  57  78
ATOM     78  C   UNL A   1      49.567  26.949  25.970  1.00  0.00    -0.014 A 
ATOM     79  C   UNL A   1      49.939  27.247  24.646  1.00  0.00     0.010 A 
ATOM     80  C   UNL A   1      50.477  26.273  26.802  1.00  0.00     0.010 A 
ATOM     81  C   UNL A   1      51.187  26.854  24.158  1.00  0.00     0.020 A 
ATOM     82  C   UNL A   1      51.735  25.900  26.325  1.00  0.00     0.020 A 
ATOM     83  C   UNL A   1      52.078  26.182  25.000  1.00  0.00     0.054 A 
BRANCH  83  84
ATOM     84  S   UNL A   1      53.711  25.724  24.357  1.00  0.00     0.124 S 
ATOM     85  O   UNL A   1      53.835  24.338  24.802  1.00  0.00    -0.237 OA
ATOM     86  O   UNL A   1      53.556  25.911  22.917  1.00  0.00    -0.237 OA
ATOM     87  O   UNL A   1      54.616  26.669  25.008  1.00  0.00    -0.744 OA
ENDBRANCH  83  84
ENDBRANCH  57  78
ENDBRANCH  31  32
ENDBRANCH  23  26
ENDBRANCH  21  22
ENDBRANCH   1  21
TORSDOF 15
ENDMDL
