MODEL 1
REMARK VINA RESULT:     -11.9      0.000      0.000
REMARK SMILES O=C(CCN1C(=O)S/C(=C\c2ccc(F)cc2)C1=O)Nc1ccc(O)cc1C(=O)NCCCCNC(=O)c1ccc(-c2c3nc(c(-c4ccc(S(=O)(=O)[O-])cc4)c4ccc([nH]4)c(-c4ccc(S(=O)(=O)[O-])cc4)c4nc(c(-c5ccc(S(=O)(=O)[O-])cc5)c5ccc2[nH]5)C=C4)C=C3)cc1
REMARK SMILES IDX 31 1 30 2 28 3 29 4 27 6 21 7 22 8 23 9 26 10 24 11 20 12
REMARK SMILES IDX 1 13 2 14 3 16 4 17 5 18 6 19 18 20 7 21 8 22 9 23 19 24
REMARK SMILES IDX 10 25 11 26 12 27 17 28 13 29 16 30 14 31 15 32 25 33 32 35
REMARK SMILES IDX 33 36 34 37 35 38 36 39 37 41 38 42 39 43 97 44 40 45 96 46
REMARK SMILES IDX 41 47 42 48 43 49 90 50 44 51 95 52 89 53 91 54 45 55 94 56
REMARK SMILES IDX 88 57 87 58 46 60 76 61 57 62 75 63 58 64 61 65 74 66 92 67
REMARK SMILES IDX 59 68 60 69 73 71 93 72 62 73 47 74 48 75 56 76 49 77 55 78
REMARK SMILES IDX 50 79 51 80 52 81 53 82 54 83 77 84 78 85 86 86 79 87 85 88
REMARK SMILES IDX 80 89 81 90 82 91 83 92 84 93 63 94 64 95 72 96 65 97 71 98
REMARK SMILES IDX 66 99 67 100 68 101 69 102 70 103
REMARK H PARENT 30 5 20 15 25 34 35 40 91 59 61 70
REMARK Flexibility Score: inf
ROOT
ATOM      1  C   UNL A   1      33.882  28.239  23.718  1.00  0.00     0.116 C 
ENDROOT
BRANCH   1   2
ATOM      2  N   UNL A   1      33.393  27.141  22.880  1.00  0.00    -0.352 N 
ATOM      3  C   UNL A   1      32.161  26.856  22.321  1.00  0.00     0.253 C 
ATOM      4  O   UNL A   1      32.063  25.885  21.569  1.00  0.00    -0.269 OA
ATOM      5  H   UNL A   1      34.082  26.469  22.674  1.00  0.00     0.163 HD
BRANCH   3   6
ATOM      6  C   UNL A   1      30.931  27.659  22.561  1.00  0.00     0.067 A 
ATOM      7  C   UNL A   1      29.825  27.210  23.301  1.00  0.00     0.054 A 
ATOM      8  C   UNL A   1      28.709  28.054  23.450  1.00  0.00     0.031 A 
ATOM      9  C   UNL A   1      28.721  29.361  22.957  1.00  0.00     0.048 A 
ATOM     10  C   UNL A   1      30.948  28.990  22.099  1.00  0.00     0.062 A 
ATOM     11  C   UNL A   1      29.855  29.827  22.308  1.00  0.00     0.116 A 
BRANCH   7  12
ATOM     12  N   UNL A   1      29.891  26.000  24.025  1.00  0.00    -0.325 N 
ATOM     13  O   UNL A   1      30.631  26.810  26.053  1.00  0.00    -0.275 OA
ATOM     14  C   UNL A   1      30.366  25.867  25.310  1.00  0.00     0.226 C 
ATOM     15  H   UNL A   1      29.573  25.185  23.574  1.00  0.00     0.169 HD
BRANCH  14  16
ATOM     16  C   UNL A   1      30.592  24.440  25.773  1.00  0.00     0.122 C 
BRANCH  16  17
ATOM     17  C   UNL A   1      31.545  23.604  24.928  1.00  0.00     0.140 C 
BRANCH  17  18
ATOM     18  N   UNL A   1      32.907  23.463  25.441  1.00  0.00    -0.268 N 
ATOM     19  C   UNL A   1      33.154  23.091  26.725  1.00  0.00     0.293 C 
ATOM     20  C   UNL A   1      34.008  23.897  24.740  1.00  0.00     0.268 C 
ATOM     21  O   UNL A   1      32.336  22.769  27.569  1.00  0.00    -0.261 OA
ATOM     22  S   UNL A   1      34.831  23.078  27.104  1.00  0.00    -0.022 SA
ATOM     23  C   UNL A   1      35.241  23.655  25.539  1.00  0.00     0.083 C 
ATOM     24  O   UNL A   1      34.002  24.366  23.612  1.00  0.00    -0.268 OA
ATOM     25  C   UNL A   1      36.490  23.781  25.074  1.00  0.00     0.029 C 
BRANCH  25  26
ATOM     26  C   UNL A   1      37.612  23.263  25.865  1.00  0.00    -0.024 A 
ATOM     27  C   UNL A   1      38.302  24.164  26.694  1.00  0.00     0.011 A 
ATOM     28  C   UNL A   1      38.134  21.983  25.641  1.00  0.00     0.011 A 
ATOM     29  C   UNL A   1      39.509  23.794  27.281  1.00  0.00     0.040 A 
ATOM     30  C   UNL A   1      39.342  21.614  26.240  1.00  0.00     0.040 A 
ATOM     31  C   UNL A   1      40.019  22.524  27.048  1.00  0.00     0.123 A 
ATOM     32  F   UNL A   1      41.192  22.179  27.593  1.00  0.00    -0.207 F 
ENDBRANCH  25  26
ENDBRANCH  17  18
ENDBRANCH  16  17
ENDBRANCH  14  16
ENDBRANCH   7  12
BRANCH  11  33
ATOM     33  O   UNL A   1      29.933  31.117  21.873  1.00  0.00    -0.508 OA
ATOM     34  H   UNL A   1      30.322  31.772  22.418  1.00  0.00     0.293 HD
ENDBRANCH  11  33
ENDBRANCH   3   6
ENDBRANCH   1   2
BRANCH   1  35
ATOM     35  C   UNL A   1      33.631  28.122  25.243  1.00  0.00     0.023 C 
BRANCH  35  36
ATOM     36  C   UNL A   1      34.230  28.862  26.504  1.00  0.00     0.023 C 
BRANCH  36  37
ATOM     37  C   UNL A   1      35.644  29.010  27.119  1.00  0.00     0.116 C 
BRANCH  37  38
ATOM     38  N   UNL A   1      35.691  29.369  28.533  1.00  0.00    -0.352 N 
ATOM     39  C   UNL A   1      36.768  29.411  29.397  1.00  0.00     0.251 C 
ATOM     40  H   UNL A   1      34.825  29.619  28.931  1.00  0.00     0.163 HD
ATOM     41  O   UNL A   1      36.595  29.742  30.568  1.00  0.00    -0.269 OA
BRANCH  39  42
ATOM     42  C   UNL A   1      38.118  28.997  28.957  1.00  0.00     0.039 A 
ATOM     43  C   UNL A   1      38.608  29.510  27.749  1.00  0.00     0.014 A 
ATOM     44  C   UNL A   1      38.896  28.111  29.704  1.00  0.00     0.014 A 
ATOM     45  C   UNL A   1      39.923  29.239  27.354  1.00  0.00     0.010 A 
ATOM     46  C   UNL A   1      40.218  27.855  29.318  1.00  0.00     0.010 A 
ATOM     47  C   UNL A   1      40.757  28.460  28.171  1.00  0.00    -0.014 A 
BRANCH  47  48
ATOM     48  C   UNL A   1      42.227  28.416  27.935  1.00  0.00     0.031 A 
ATOM     49  C   UNL A   1      43.100  29.616  28.160  1.00  0.00     0.074 A 
ATOM     50  C   UNL A   1      42.749  27.285  27.415  1.00  0.00     0.049 A 
ATOM     51  N   UNL A   1      44.384  29.748  27.950  1.00  0.00    -0.248 NA
ATOM     52  C   UNL A   1      42.443  30.827  28.671  1.00  0.00     0.031 C 
ATOM     53  C   UNL A   1      41.985  26.070  27.108  1.00  0.00     0.029 A 
ATOM     54  N   UNL A   1      44.031  26.969  27.039  1.00  0.00    -0.354 N 
ATOM     55  C   UNL A   1      44.694  31.060  28.293  1.00  0.00     0.074 A 
ATOM     56  C   UNL A   1      43.452  31.691  28.691  1.00  0.00     0.031 C 
ATOM     57  C   UNL A   1      42.814  25.140  26.611  1.00  0.00     0.029 A 
ATOM     58  C   UNL A   1      44.159  25.698  26.527  1.00  0.00     0.049 A 
ATOM     59  H   UNL A   1      44.787  27.593  27.127  1.00  0.00     0.167 HD
ATOM     60  C   UNL A   1      45.902  31.676  28.284  1.00  0.00     0.031 A 
ATOM     61  C   UNL A   1      45.235  25.051  26.040  1.00  0.00     0.031 A 
ATOM     62  C   UNL A   1      47.127  31.041  27.866  1.00  0.00     0.049 A 
ATOM     63  C   UNL A   1      46.561  25.756  26.033  1.00  0.00     0.074 A 
ATOM     64  C   UNL A   1      48.410  31.560  27.856  1.00  0.00     0.029 A 
ATOM     65  N   UNL A   1      47.219  29.746  27.371  1.00  0.00    -0.354 N 
ATOM     66  N   UNL A   1      46.845  26.974  26.433  1.00  0.00    -0.248 NA
ATOM     67  C   UNL A   1      47.714  25.001  25.526  1.00  0.00     0.031 C 
ATOM     68  C   UNL A   1      49.268  30.597  27.313  1.00  0.00     0.029 A 
ATOM     69  C   UNL A   1      48.531  29.456  27.037  1.00  0.00     0.049 A 
ATOM     70  H   UNL A   1      46.461  29.125  27.274  1.00  0.00     0.167 HD
ATOM     71  C   UNL A   1      48.214  27.122  26.249  1.00  0.00     0.074 A 
ATOM     72  C   UNL A   1      48.702  25.865  25.715  1.00  0.00     0.031 C 
ATOM     73  C   UNL A   1      48.996  28.199  26.504  1.00  0.00     0.031 A 
BRANCH  60  74
ATOM     74  C   UNL A   1      45.953  33.116  28.728  1.00  0.00    -0.014 A 
ATOM     75  C   UNL A   1      45.690  34.162  27.825  1.00  0.00     0.010 A 
ATOM     76  C   UNL A   1      46.243  33.432  30.068  1.00  0.00     0.010 A 
ATOM     77  C   UNL A   1      45.772  35.496  28.237  1.00  0.00     0.020 A 
ATOM     78  C   UNL A   1      46.299  34.765  30.492  1.00  0.00     0.020 A 
ATOM     79  C   UNL A   1      46.087  35.789  29.567  1.00  0.00     0.054 A 
BRANCH  79  80
ATOM     80  S   UNL A   1      46.198  37.528  30.071  1.00  0.00     0.124 S 
ATOM     81  O   UNL A   1      44.828  37.988  29.859  1.00  0.00    -0.237 OA
ATOM     82  O   UNL A   1      46.618  37.433  31.467  1.00  0.00    -0.237 OA
ATOM     83  O   UNL A   1      47.192  38.091  29.161  1.00  0.00    -0.744 OA
ENDBRANCH  79  80
ENDBRANCH  60  74
BRANCH  61  84
ATOM     84  C   UNL A   1      45.100  23.651  25.552  1.00  0.00    -0.014 A 
ATOM     85  C   UNL A   1      45.209  22.573  26.447  1.00  0.00     0.010 A 
ATOM     86  C   UNL A   1      44.820  23.388  24.198  1.00  0.00     0.010 A 
ATOM     87  C   UNL A   1      45.053  21.257  25.998  1.00  0.00     0.020 A 
ATOM     88  C   UNL A   1      44.637  22.076  23.750  1.00  0.00     0.020 A 
ATOM     89  C   UNL A   1      44.764  21.017  24.652  1.00  0.00     0.054 A 
BRANCH  89  90
ATOM     90  S   UNL A   1      44.500  19.307  24.106  1.00  0.00     0.124 S 
ATOM     91  O   UNL A   1      45.663  18.626  24.666  1.00  0.00    -0.237 OA
ATOM     92  O   UNL A   1      43.215  18.975  24.717  1.00  0.00    -0.237 OA
ATOM     93  O   UNL A   1      44.477  19.414  22.648  1.00  0.00    -0.744 OA
ENDBRANCH  89  90
ENDBRANCH  61  84
BRANCH  73  94
ATOM     94  C   UNL A   1      50.470  28.058  26.237  1.00  0.00    -0.014 A 
ATOM     95  C   UNL A   1      51.329  27.475  27.184  1.00  0.00     0.010 A 
ATOM     96  C   UNL A   1      50.989  28.461  24.993  1.00  0.00     0.010 A 
ATOM     97  C   UNL A   1      52.688  27.315  26.899  1.00  0.00     0.020 A 
ATOM     98  C   UNL A   1      52.341  28.279  24.695  1.00  0.00     0.020 A 
ATOM     99  C   UNL A   1      53.185  27.715  25.655  1.00  0.00     0.054 A 
BRANCH  99 100
ATOM    100  S   UNL A   1      54.939  27.441  25.285  1.00  0.00     0.124 S 
ATOM    101  O   UNL A   1      55.502  27.235  26.617  1.00  0.00    -0.237 OA
ATOM    102  O   UNL A   1      54.904  26.258  24.428  1.00  0.00    -0.237 OA
ATOM    103  O   UNL A   1      55.350  28.674  24.618  1.00  0.00    -0.744 OA
ENDBRANCH  99 100
ENDBRANCH  73  94
ENDBRANCH  47  48
ENDBRANCH  39  42
ENDBRANCH  37  38
ENDBRANCH  36  37
ENDBRANCH  35  36
ENDBRANCH   1  35
TORSDOF 20
ENDMDL
MODEL 2
REMARK VINA RESULT:     -11.6      0.747      7.766
REMARK SMILES O=C(CCN1C(=O)S/C(=C\c2ccc(F)cc2)C1=O)Nc1ccc(O)cc1C(=O)NCCCCNC(=O)c1ccc(-c2c3nc(c(-c4ccc(S(=O)(=O)[O-])cc4)c4ccc([nH]4)c(-c4ccc(S(=O)(=O)[O-])cc4)c4nc(c(-c5ccc(S(=O)(=O)[O-])cc5)c5ccc2[nH]5)C=C4)C=C3)cc1
REMARK SMILES IDX 31 1 30 2 28 3 29 4 27 6 21 7 22 8 23 9 26 10 24 11 20 12
REMARK SMILES IDX 1 13 2 14 3 16 4 17 5 18 6 19 18 20 7 21 8 22 9 23 19 24
REMARK SMILES IDX 10 25 11 26 12 27 17 28 13 29 16 30 14 31 15 32 25 33 32 35
REMARK SMILES IDX 33 36 34 37 35 38 36 39 37 41 38 42 39 43 97 44 40 45 96 46
REMARK SMILES IDX 41 47 42 48 43 49 90 50 44 51 95 52 89 53 91 54 45 55 94 56
REMARK SMILES IDX 88 57 87 58 46 60 76 61 57 62 75 63 58 64 61 65 74 66 92 67
REMARK SMILES IDX 59 68 60 69 73 71 93 72 62 73 47 74 48 75 56 76 49 77 55 78
REMARK SMILES IDX 50 79 51 80 52 81 53 82 54 83 77 84 78 85 86 86 79 87 85 88
REMARK SMILES IDX 80 89 81 90 82 91 83 92 84 93 63 94 64 95 72 96 65 97 71 98
REMARK SMILES IDX 66 99 67 100 68 101 69 102 70 103
REMARK H PARENT 30 5 20 15 25 34 35 40 91 59 61 70
REMARK Flexibility Score: inf
ROOT
ATOM      1  C   UNL A   1      33.756  28.161  23.657  1.00  0.00     0.116 C 
ENDROOT
BRANCH   1   2
ATOM      2  N   UNL A   1      33.227  27.093  22.805  1.00  0.00    -0.352 N 
ATOM      3  C   UNL A   1      31.979  26.848  22.264  1.00  0.00     0.253 C 
ATOM      4  O   UNL A   1      31.844  25.896  21.494  1.00  0.00    -0.269 OA
ATOM      5  H   UNL A   1      33.896  26.411  22.571  1.00  0.00     0.163 HD
BRANCH   3   6
ATOM      6  C   UNL A   1      30.771  27.672  22.545  1.00  0.00     0.067 A 
ATOM      7  C   UNL A   1      29.677  27.238  23.311  1.00  0.00     0.054 A 
ATOM      8  C   UNL A   1      28.582  28.101  23.499  1.00  0.00     0.031 A 
ATOM      9  C   UNL A   1      28.607  29.413  23.018  1.00  0.00     0.048 A 
ATOM     10  C   UNL A   1      30.802  29.007  22.095  1.00  0.00     0.062 A 
ATOM     11  C   UNL A   1      29.732  29.863  22.343  1.00  0.00     0.116 A 
BRANCH   7  12
ATOM     12  N   UNL A   1      29.739  26.019  24.021  1.00  0.00    -0.325 N 
ATOM     13  O   UNL A   1      30.464  26.806  26.064  1.00  0.00    -0.275 OA
ATOM     14  C   UNL A   1      30.205  25.871  25.308  1.00  0.00     0.226 C 
ATOM     15  H   UNL A   1      29.424  25.210  23.558  1.00  0.00     0.169 HD
BRANCH  14  16
ATOM     16  C   UNL A   1      30.428  24.439  25.755  1.00  0.00     0.122 C 
BRANCH  16  17
ATOM     17  C   UNL A   1      31.360  23.602  24.887  1.00  0.00     0.140 C 
BRANCH  17  18
ATOM     18  N   UNL A   1      32.731  23.450  25.373  1.00  0.00    -0.268 N 
ATOM     19  C   UNL A   1      33.001  23.067  26.649  1.00  0.00     0.293 C 
ATOM     20  C   UNL A   1      33.821  23.886  24.654  1.00  0.00     0.268 C 
ATOM     21  O   UNL A   1      32.197  22.742  27.506  1.00  0.00    -0.261 OA
ATOM     22  S   UNL A   1      34.684  23.043  26.996  1.00  0.00    -0.022 SA
ATOM     23  C   UNL A   1      35.067  23.631  25.428  1.00  0.00     0.083 C 
ATOM     24  O   UNL A   1      33.795  24.364  23.531  1.00  0.00    -0.268 OA
ATOM     25  C   UNL A   1      36.308  23.755  24.940  1.00  0.00     0.029 C 
BRANCH  25  26
ATOM     26  C   UNL A   1      37.442  23.224  25.705  1.00  0.00    -0.024 A 
ATOM     27  C   UNL A   1      38.130  24.107  26.556  1.00  0.00     0.011 A 
ATOM     28  C   UNL A   1      37.975  21.958  25.438  1.00  0.00     0.011 A 
ATOM     29  C   UNL A   1      39.346  23.733  27.120  1.00  0.00     0.040 A 
ATOM     30  C   UNL A   1      39.192  21.584  26.015  1.00  0.00     0.040 A 
ATOM     31  C   UNL A   1      39.867  22.475  26.844  1.00  0.00     0.123 A 
ATOM     32  F   UNL A   1      41.049  22.127  27.368  1.00  0.00    -0.207 F 
ENDBRANCH  25  26
ENDBRANCH  17  18
ENDBRANCH  16  17
ENDBRANCH  14  16
ENDBRANCH   7  12
BRANCH  11  33
ATOM     33  O   UNL A   1      29.824  31.156  21.918  1.00  0.00    -0.508 OA
ATOM     34  H   UNL A   1      29.058  31.611  21.631  1.00  0.00     0.293 HD
ENDBRANCH  11  33
ENDBRANCH   3   6
ENDBRANCH   1   2
BRANCH   1  35
ATOM     35  C   UNL A   1      33.391  28.103  25.162  1.00  0.00     0.023 C 
BRANCH  35  36
ATOM     36  C   UNL A   1      33.966  28.815  26.449  1.00  0.00     0.023 C 
BRANCH  36  37
ATOM     37  C   UNL A   1      35.367  28.946  27.096  1.00  0.00     0.116 C 
BRANCH  37  38
ATOM     38  N   UNL A   1      35.396  29.459  28.462  1.00  0.00    -0.352 N 
ATOM     39  C   UNL A   1      36.462  29.610  29.326  1.00  0.00     0.251 C 
ATOM     40  H   UNL A   1      34.523  29.739  28.823  1.00  0.00     0.163 HD
ATOM     41  O   UNL A   1      36.274  30.064  30.452  1.00  0.00    -0.269 OA
BRANCH  39  42
ATOM     42  C   UNL A   1      37.822  29.167  28.947  1.00  0.00     0.039 A 
ATOM     43  C   UNL A   1      38.346  29.609  27.725  1.00  0.00     0.014 A 
ATOM     44  C   UNL A   1      38.577  28.324  29.764  1.00  0.00     0.014 A 
ATOM     45  C   UNL A   1      39.669  29.312  27.380  1.00  0.00     0.010 A 
ATOM     46  C   UNL A   1      39.907  28.044  29.429  1.00  0.00     0.010 A 
ATOM     47  C   UNL A   1      40.479  28.579  28.264  1.00  0.00    -0.014 A 
BRANCH  47  48
ATOM     48  C   UNL A   1      41.954  28.518  28.069  1.00  0.00     0.031 A 
ATOM     49  C   UNL A   1      42.627  27.299  27.508  1.00  0.00     0.074 A 
ATOM     50  C   UNL A   1      42.692  29.562  28.502  1.00  0.00     0.049 A 
ATOM     51  N   UNL A   1      43.904  27.075  27.328  1.00  0.00    -0.248 NA
ATOM     52  C   UNL A   1      41.757  26.182  27.117  1.00  0.00     0.031 C 
ATOM     53  C   UNL A   1      42.148  30.781  29.109  1.00  0.00     0.029 A 
ATOM     54  N   UNL A   1      44.049  29.767  28.515  1.00  0.00    -0.354 N 
ATOM     55  C   UNL A   1      43.996  25.789  26.810  1.00  0.00     0.074 A 
ATOM     56  C   UNL A   1      42.645  25.270  26.739  1.00  0.00     0.031 C 
ATOM     57  C   UNL A   1      43.155  31.611  29.417  1.00  0.00     0.029 A 
ATOM     58  C   UNL A   1      44.419  30.974  29.065  1.00  0.00     0.049 A 
ATOM     59  H   UNL A   1      44.696  29.114  28.165  1.00  0.00     0.167 HD
ATOM     60  C   UNL A   1      45.103  25.109  26.422  1.00  0.00     0.031 A 
ATOM     61  C   UNL A   1      45.638  31.509  29.270  1.00  0.00     0.031 A 
ATOM     62  C   UNL A   1      46.444  25.630  26.517  1.00  0.00     0.049 A 
ATOM     63  C   UNL A   1      46.851  30.734  28.839  1.00  0.00     0.074 A 
ATOM     64  C   UNL A   1      47.631  25.042  26.115  1.00  0.00     0.029 A 
ATOM     65  N   UNL A   1      46.776  26.864  27.063  1.00  0.00    -0.354 N 
ATOM     66  N   UNL A   1      46.910  29.547  28.282  1.00  0.00    -0.248 NA
ATOM     67  C   UNL A   1      48.157  31.371  29.049  1.00  0.00     0.031 C 
ATOM     68  C   UNL A   1      48.683  25.898  26.460  1.00  0.00     0.029 A 
ATOM     69  C   UNL A   1      48.149  27.046  27.026  1.00  0.00     0.049 A 
ATOM     70  H   UNL A   1      46.131  27.513  27.422  1.00  0.00     0.167 HD
ATOM     71  C   UNL A   1      48.259  29.306  28.050  1.00  0.00     0.074 A 
ATOM     72  C   UNL A   1      48.978  30.475  28.517  1.00  0.00     0.031 C 
ATOM     73  C   UNL A   1      48.846  28.217  27.498  1.00  0.00     0.031 A 
BRANCH  60  74
ATOM     74  C   UNL A   1      44.910  23.718  25.871  1.00  0.00    -0.014 A 
ATOM     75  C   UNL A   1      44.510  22.658  26.706  1.00  0.00     0.010 A 
ATOM     76  C   UNL A   1      45.104  23.467  24.501  1.00  0.00     0.010 A 
ATOM     77  C   UNL A   1      44.365  21.365  26.194  1.00  0.00     0.020 A 
ATOM     78  C   UNL A   1      44.934  22.180  23.978  1.00  0.00     0.020 A 
ATOM     79  C   UNL A   1      44.589  21.132  24.834  1.00  0.00     0.054 A 
BRANCH  79  80
ATOM     80  S   UNL A   1      44.404  19.443  24.199  1.00  0.00     0.124 S 
ATOM     81  O   UNL A   1      44.415  19.663  22.755  1.00  0.00    -0.237 OA
ATOM     82  O   UNL A   1      45.580  18.765  24.739  1.00  0.00    -0.237 OA
ATOM     83  O   UNL A   1      43.125  19.002  24.752  1.00  0.00    -0.744 OA
ENDBRANCH  79  80
ENDBRANCH  60  74
BRANCH  61  84
ATOM     84  C   UNL A   1      45.761  32.860  29.884  1.00  0.00    -0.014 A 
ATOM     85  C   UNL A   1      45.738  34.011  29.078  1.00  0.00     0.010 A 
ATOM     86  C   UNL A   1      45.859  33.007  31.280  1.00  0.00     0.010 A 
ATOM     87  C   UNL A   1      45.822  35.284  29.653  1.00  0.00     0.020 A 
ATOM     88  C   UNL A   1      45.917  34.278  31.860  1.00  0.00     0.020 A 
ATOM     89  C   UNL A   1      45.907  35.409  31.042  1.00  0.00     0.054 A 
BRANCH  89  90
ATOM     90  S   UNL A   1      45.949  37.071  31.769  1.00  0.00     0.124 S 
ATOM     91  O   UNL A   1      47.275  37.102  32.380  1.00  0.00    -0.237 OA
ATOM     92  O   UNL A   1      45.769  37.931  30.602  1.00  0.00    -0.237 OA
ATOM     93  O   UNL A   1      44.827  37.062  32.705  1.00  0.00    -0.744 OA
ENDBRANCH  89  90
ENDBRANCH  61  84
BRANCH  73  94
ATOM     94  C   UNL A   1      50.342  28.249  27.338  1.00  0.00    -0.014 A 
ATOM     95  C   UNL A   1      51.193  27.741  28.335  1.00  0.00     0.010 A 
ATOM     96  C   UNL A   1      50.899  28.738  26.142  1.00  0.00     0.010 A 
ATOM     97  C   UNL A   1      52.577  27.741  28.147  1.00  0.00     0.020 A 
ATOM     98  C   UNL A   1      52.281  28.716  25.940  1.00  0.00     0.020 A 
ATOM     99  C   UNL A   1      53.113  28.226  26.950  1.00  0.00     0.054 A 
BRANCH  99 100
ATOM    100  S   UNL A   1      54.908  28.159  26.705  1.00  0.00     0.124 S 
ATOM    101  O   UNL A   1      55.009  27.714  25.317  1.00  0.00    -0.237 OA
ATOM    102  O   UNL A   1      55.317  29.540  26.953  1.00  0.00    -0.237 OA
ATOM    103  O   UNL A   1      55.359  27.193  27.703  1.00  0.00    -0.744 OA
ENDBRANCH  99 100
ENDBRANCH  73  94
ENDBRANCH  47  48
ENDBRANCH  39  42
ENDBRANCH  37  38
ENDBRANCH  36  37
ENDBRANCH  35  36
ENDBRANCH   1  35
TORSDOF 20
ENDMDL
MODEL 3
REMARK VINA RESULT:     -11.1      6.172     10.263
REMARK SMILES O=C(CCN1C(=O)S/C(=C\c2ccc(F)cc2)C1=O)Nc1ccc(O)cc1C(=O)NCCCCNC(=O)c1ccc(-c2c3nc(c(-c4ccc(S(=O)(=O)[O-])cc4)c4ccc([nH]4)c(-c4ccc(S(=O)(=O)[O-])cc4)c4nc(c(-c5ccc(S(=O)(=O)[O-])cc5)c5ccc2[nH]5)C=C4)C=C3)cc1
REMARK SMILES IDX 31 1 30 2 28 3 29 4 27 6 21 7 22 8 23 9 26 10 24 11 20 12
REMARK SMILES IDX 1 13 2 14 3 16 4 17 5 18 6 19 18 20 7 21 8 22 9 23 19 24
REMARK SMILES IDX 10 25 11 26 12 27 17 28 13 29 16 30 14 31 15 32 25 33 32 35
REMARK SMILES IDX 33 36 34 37 35 38 36 39 37 41 38 42 39 43 97 44 40 45 96 46
REMARK SMILES IDX 41 47 42 48 43 49 90 50 44 51 95 52 89 53 91 54 45 55 94 56
REMARK SMILES IDX 88 57 87 58 46 60 76 61 57 62 75 63 58 64 61 65 74 66 92 67
REMARK SMILES IDX 59 68 60 69 73 71 93 72 62 73 47 74 48 75 56 76 49 77 55 78
REMARK SMILES IDX 50 79 51 80 52 81 53 82 54 83 77 84 78 85 86 86 79 87 85 88
REMARK SMILES IDX 80 89 81 90 82 91 83 92 84 93 63 94 64 95 72 96 65 97 71 98
REMARK SMILES IDX 66 99 67 100 68 101 69 102 70 103
REMARK H PARENT 30 5 20 15 25 34 35 40 91 59 61 70
REMARK Flexibility Score: inf
ROOT
ATOM      1  C   UNL A   1      33.164  27.662  25.774  1.00  0.00     0.116 C 
ENDROOT
BRANCH   1   2
ATOM      2  N   UNL A   1      33.447  27.315  24.379  1.00  0.00    -0.352 N 
ATOM      3  C   UNL A   1      32.704  27.397  23.216  1.00  0.00     0.253 C 
ATOM      4  O   UNL A   1      33.244  27.109  22.147  1.00  0.00    -0.269 OA
ATOM      5  H   UNL A   1      34.349  26.947  24.243  1.00  0.00     0.163 HD
BRANCH   3   6
ATOM      6  C   UNL A   1      31.279  27.826  23.165  1.00  0.00     0.067 A 
ATOM      7  C   UNL A   1      30.189  26.985  23.444  1.00  0.00     0.054 A 
ATOM      8  C   UNL A   1      28.883  27.498  23.350  1.00  0.00     0.031 A 
ATOM      9  C   UNL A   1      28.656  28.849  23.078  1.00  0.00     0.048 A 
ATOM     10  C   UNL A   1      31.042  29.194  22.927  1.00  0.00     0.062 A 
ATOM     11  C   UNL A   1      29.741  29.693  22.896  1.00  0.00     0.116 A 
BRANCH   7  12
ATOM     12  N   UNL A   1      30.399  25.692  23.971  1.00  0.00    -0.325 N 
ATOM     13  O   UNL A   1      30.047  26.131  26.207  1.00  0.00    -0.275 OA
ATOM     14  C   UNL A   1      30.400  25.369  25.309  1.00  0.00     0.226 C 
ATOM     15  H   UNL A   1      30.558  24.962  23.329  1.00  0.00     0.169 HD
BRANCH  14  16
ATOM     16  C   UNL A   1      30.915  23.981  25.640  1.00  0.00     0.122 C 
BRANCH  16  17
ATOM     17  C   UNL A   1      31.964  23.411  24.693  1.00  0.00     0.140 C 
BRANCH  17  18
ATOM     18  N   UNL A   1      33.302  23.221  25.251  1.00  0.00    -0.268 N 
ATOM     19  C   UNL A   1      33.503  22.557  26.421  1.00  0.00     0.293 C 
ATOM     20  C   UNL A   1      34.408  23.874  24.757  1.00  0.00     0.268 C 
ATOM     21  O   UNL A   1      32.664  21.992  27.100  1.00  0.00    -0.261 OA
ATOM     22  S   UNL A   1      35.153  22.540  26.903  1.00  0.00    -0.022 SA
ATOM     23  C   UNL A   1      35.608  23.508  25.558  1.00  0.00     0.083 C 
ATOM     24  O   UNL A   1      34.431  24.606  23.780  1.00  0.00    -0.268 OA
ATOM     25  C   UNL A   1      36.869  23.812  25.228  1.00  0.00     0.029 C 
BRANCH  25  26
ATOM     26  C   UNL A   1      37.979  23.175  25.946  1.00  0.00    -0.024 A 
ATOM     27  C   UNL A   1      38.741  23.973  26.818  1.00  0.00     0.011 A 
ATOM     28  C   UNL A   1      38.420  21.888  25.616  1.00  0.00     0.011 A 
ATOM     29  C   UNL A   1      39.939  23.494  27.340  1.00  0.00     0.040 A 
ATOM     30  C   UNL A   1      39.619  21.409  26.151  1.00  0.00     0.040 A 
ATOM     31  C   UNL A   1      40.368  22.217  27.002  1.00  0.00     0.123 A 
ATOM     32  F   UNL A   1      41.533  21.768  27.486  1.00  0.00    -0.207 F 
ENDBRANCH  25  26
ENDBRANCH  17  18
ENDBRANCH  16  17
ENDBRANCH  14  16
ENDBRANCH   7  12
BRANCH  11  33
ATOM     33  O   UNL A   1      29.565  31.030  22.698  1.00  0.00    -0.508 OA
ATOM     34  H   UNL A   1      28.808  31.459  23.043  1.00  0.00     0.293 HD
ENDBRANCH  11  33
ENDBRANCH   3   6
ENDBRANCH   1   2
BRANCH   1  35
ATOM     35  C   UNL A   1      33.983  28.827  26.386  1.00  0.00     0.023 C 
BRANCH  35  36
ATOM     36  C   UNL A   1      33.588  30.211  27.035  1.00  0.00     0.023 C 
BRANCH  36  37
ATOM     37  C   UNL A   1      34.352  31.507  27.405  1.00  0.00     0.116 C 
BRANCH  37  38
ATOM     38  N   UNL A   1      33.532  32.628  27.853  1.00  0.00    -0.352 N 
ATOM     39  C   UNL A   1      33.726  33.497  28.908  1.00  0.00     0.251 C 
ATOM     40  H   UNL A   1      32.716  32.788  27.324  1.00  0.00     0.163 HD
ATOM     41  O   UNL A   1      32.905  34.386  29.123  1.00  0.00    -0.269 OA
BRANCH  39  42
ATOM     42  C   UNL A   1      34.871  33.335  29.832  1.00  0.00     0.039 A 
ATOM     43  C   UNL A   1      34.750  32.416  30.882  1.00  0.00     0.014 A 
ATOM     44  C   UNL A   1      36.046  34.075  29.685  1.00  0.00     0.014 A 
ATOM     45  C   UNL A   1      35.847  32.145  31.707  1.00  0.00     0.010 A 
ATOM     46  C   UNL A   1      37.149  33.789  30.497  1.00  0.00     0.010 A 
ATOM     47  C   UNL A   1      37.076  32.786  31.477  1.00  0.00    -0.014 A 
BRANCH  47  48
ATOM     48  C   UNL A   1      38.322  32.295  32.127  1.00  0.00     0.031 A 
ATOM     49  C   UNL A   1      39.242  31.326  31.441  1.00  0.00     0.074 A 
ATOM     50  C   UNL A   1      38.561  32.671  33.401  1.00  0.00     0.049 A 
ATOM     51  N   UNL A   1      40.335  30.768  31.897  1.00  0.00    -0.248 NA
ATOM     52  C   UNL A   1      38.879  30.918  30.077  1.00  0.00     0.031 C 
ATOM     53  C   UNL A   1      37.708  33.572  34.184  1.00  0.00     0.029 A 
ATOM     54  N   UNL A   1      39.573  32.342  34.267  1.00  0.00    -0.354 N 
ATOM     55  C   UNL A   1      40.789  29.935  30.881  1.00  0.00     0.074 A 
ATOM     56  C   UNL A   1      39.831  30.035  29.799  1.00  0.00     0.031 C 
ATOM     57  C   UNL A   1      38.241  33.737  35.404  1.00  0.00     0.029 A 
ATOM     58  C   UNL A   1      39.450  32.929  35.507  1.00  0.00     0.049 A 
ATOM     59  H   UNL A   1      40.315  31.742  34.026  1.00  0.00     0.167 HD
ATOM     60  C   UNL A   1      41.906  29.166  30.852  1.00  0.00     0.031 A 
ATOM     61  C   UNL A   1      40.221  32.827  36.607  1.00  0.00     0.031 A 
ATOM     62  C   UNL A   1      42.840  29.060  31.945  1.00  0.00     0.049 A 
ATOM     63  C   UNL A   1      41.448  31.962  36.553  1.00  0.00     0.074 A 
ATOM     64  C   UNL A   1      44.023  28.342  32.005  1.00  0.00     0.029 A 
ATOM     65  N   UNL A   1      42.691  29.684  33.177  1.00  0.00    -0.354 N 
ATOM     66  N   UNL A   1      41.900  31.240  35.555  1.00  0.00    -0.248 NA
ATOM     67  C   UNL A   1      42.277  31.909  37.764  1.00  0.00     0.031 C 
ATOM     68  C   UNL A   1      44.563  28.495  33.287  1.00  0.00     0.029 A 
ATOM     69  C   UNL A   1      43.748  29.353  34.008  1.00  0.00     0.049 A 
ATOM     70  H   UNL A   1      41.944  30.275  33.422  1.00  0.00     0.167 HD
ATOM     71  C   UNL A   1      43.081  30.666  36.009  1.00  0.00     0.074 A 
ATOM     72  C   UNL A   1      43.279  31.136  37.366  1.00  0.00     0.031 C 
ATOM     73  C   UNL A   1      43.926  29.830  35.358  1.00  0.00     0.031 A 
BRANCH  60  74
ATOM     74  C   UNL A   1      42.168  28.366  29.601  1.00  0.00    -0.014 A 
ATOM     75  C   UNL A   1      42.873  28.926  28.518  1.00  0.00     0.010 A 
ATOM     76  C   UNL A   1      41.730  27.033  29.508  1.00  0.00     0.010 A 
ATOM     77  C   UNL A   1      43.083  28.189  27.349  1.00  0.00     0.020 A 
ATOM     78  C   UNL A   1      41.962  26.281  28.351  1.00  0.00     0.020 A 
ATOM     79  C   UNL A   1      42.616  26.873  27.269  1.00  0.00     0.054 A 
BRANCH  79  80
ATOM     80  S   UNL A   1      42.893  25.945  25.735  1.00  0.00     0.124 S 
ATOM     81  O   UNL A   1      43.299  24.638  26.246  1.00  0.00    -0.237 OA
ATOM     82  O   UNL A   1      41.583  25.987  25.091  1.00  0.00    -0.237 OA
ATOM     83  O   UNL A   1      43.943  26.700  25.056  1.00  0.00    -0.744 OA
ENDBRANCH  79  80
ENDBRANCH  60  74
BRANCH  61  84
ATOM     84  C   UNL A   1      39.864  33.591  37.835  1.00  0.00    -0.014 A 
ATOM     85  C   UNL A   1      39.073  33.000  38.835  1.00  0.00     0.010 A 
ATOM     86  C   UNL A   1      40.348  34.897  38.031  1.00  0.00     0.010 A 
ATOM     87  C   UNL A   1      38.762  33.703  40.003  1.00  0.00     0.020 A 
ATOM     88  C   UNL A   1      40.061  35.594  39.209  1.00  0.00     0.020 A 
ATOM     89  C   UNL A   1      39.261  34.996  40.184  1.00  0.00     0.054 A 
BRANCH  89  90
ATOM     90  S   UNL A   1      38.899  35.864  41.736  1.00  0.00     0.124 S 
ATOM     91  O   UNL A   1      37.547  35.400  42.035  1.00  0.00    -0.237 OA
ATOM     92  O   UNL A   1      39.948  35.372  42.625  1.00  0.00    -0.237 OA
ATOM     93  O   UNL A   1      39.012  37.275  41.372  1.00  0.00    -0.744 OA
ENDBRANCH  89  90
ENDBRANCH  61  84
BRANCH  73  94
ATOM     94  C   UNL A   1      45.162  29.390  36.095  1.00  0.00    -0.014 A 
ATOM     95  C   UNL A   1      45.174  28.212  36.861  1.00  0.00     0.010 A 
ATOM     96  C   UNL A   1      46.347  30.138  35.965  1.00  0.00     0.010 A 
ATOM     97  C   UNL A   1      46.344  27.800  37.502  1.00  0.00     0.020 A 
ATOM     98  C   UNL A   1      47.525  29.715  36.583  1.00  0.00     0.020 A 
ATOM     99  C   UNL A   1      47.514  28.553  37.357  1.00  0.00     0.054 A 
BRANCH  99 100
ATOM    100  S   UNL A   1      49.036  27.964  38.148  1.00  0.00     0.124 S 
ATOM    101  O   UNL A   1      48.539  27.458  39.425  1.00  0.00    -0.237 OA
ATOM    102  O   UNL A   1      49.511  26.948  37.212  1.00  0.00    -0.237 OA
ATOM    103  O   UNL A   1      49.868  29.162  38.233  1.00  0.00    -0.744 OA
ENDBRANCH  99 100
ENDBRANCH  73  94
ENDBRANCH  47  48
ENDBRANCH  39  42
ENDBRANCH  37  38
ENDBRANCH  36  37
ENDBRANCH  35  36
ENDBRANCH   1  35
TORSDOF 20
ENDMDL
