MODEL 1
REMARK VINA RESULT:     -10.8      0.000      0.000
REMARK SMILES COc1ccc2cc([C@@H](C)C(=O)NCCCCNC(=O)c3ccc(-c4c5nc(c(-c6ccc(S(=O)(=O)[O-])cc6)c6ccc([nH]6)c(-c6ccc(S(=O)(=O)[O-])cc6)c6nc(c(-c7ccc(S(=O)(=O)[O-])cc7)c7ccc4[nH]7)C=C6)C=C5)cc3)ccc2c1
REMARK SMILES IDX 16 1 15 2 14 3 13 4 11 5 12 6 9 8 10 9 8 10 3 11 4 12 84 13
REMARK SMILES IDX 5 14 83 15 6 16 82 17 7 18 81 19 2 20 1 21 17 22 18 23 19 24
REMARK SMILES IDX 20 26 21 27 22 28 80 29 23 30 79 31 24 32 25 33 26 34 73 35
REMARK SMILES IDX 27 36 78 37 72 38 74 39 28 40 77 41 71 42 70 43 29 45 59 46
REMARK SMILES IDX 40 47 58 48 41 49 44 50 57 51 75 52 42 53 43 54 56 56 76 57
REMARK SMILES IDX 45 58 30 59 31 60 39 61 32 62 38 63 33 64 34 65 35 66 36 67
REMARK SMILES IDX 37 68 60 69 61 70 69 71 62 72 68 73 63 74 64 75 65 76 66 77
REMARK SMILES IDX 67 78 46 79 47 80 55 81 48 82 54 83 49 84 50 85 51 86 52 87
REMARK SMILES IDX 53 88
REMARK H PARENT 13 7 18 25 74 44 44 55
REMARK Flexibility Score: inf
ROOT
ATOM      1  C   UNL A   1      35.891  23.411  25.776  1.00  0.00     0.023 C 
ENDROOT
BRANCH   1   2
ATOM      2  C   UNL A   1      35.602  21.957  26.140  1.00  0.00     0.023 C 
BRANCH   2   3
ATOM      3  C   UNL A   1      35.230  21.051  24.964  1.00  0.00     0.116 C 
BRANCH   3   4
ATOM      4  N   UNL A   1      34.280  20.026  25.344  1.00  0.00    -0.356 N 
ATOM      5  C   UNL A   1      32.946  19.892  25.110  1.00  0.00     0.227 C 
ATOM      6  O   UNL A   1      32.389  18.920  25.636  1.00  0.00    -0.274 OA
ATOM      7  H   UNL A   1      34.671  19.290  25.869  1.00  0.00     0.163 HD
BRANCH   5   8
ATOM      8  C   UNL A   1      32.123  20.857  24.237  1.00  0.00     0.105 C 
ATOM      9  C   UNL A   1      32.269  20.624  22.734  1.00  0.00     0.023 C 
BRANCH   8  10
ATOM     10  C   UNL A   1      32.196  22.304  24.702  1.00  0.00    -0.035 A 
ATOM     11  C   UNL A   1      33.410  27.201  25.398  1.00  0.00     0.119 A 
ATOM     12  C   UNL A   1      33.751  26.890  24.084  1.00  0.00     0.047 A 
ATOM     13  C   UNL A   1      32.828  26.219  26.206  1.00  0.00     0.055 A 
ATOM     14  C   UNL A   1      33.470  25.622  23.570  1.00  0.00     0.012 A 
ATOM     15  C   UNL A   1      32.575  24.928  25.714  1.00  0.00    -0.015 A 
ATOM     16  C   UNL A   1      32.878  24.634  24.371  1.00  0.00    -0.018 A 
ATOM     17  C   UNL A   1      32.052  23.913  26.528  1.00  0.00     0.009 A 
ATOM     18  C   UNL A   1      32.626  23.344  23.870  1.00  0.00     0.013 A 
ATOM     19  C   UNL A   1      31.892  22.614  26.036  1.00  0.00     0.005 A 
BRANCH  11  20
ATOM     20  O   UNL A   1      33.607  28.409  26.009  1.00  0.00    -0.497 OA
ATOM     21  C   UNL A   1      33.117  28.536  27.339  1.00  0.00     0.278 C 
ENDBRANCH  11  20
ENDBRANCH   8  10
ENDBRANCH   5   8
ENDBRANCH   3   4
ENDBRANCH   2   3
ENDBRANCH   1   2
BRANCH   1  22
ATOM     22  C   UNL A   1      37.232  23.657  25.094  1.00  0.00     0.116 C 
BRANCH  22  23
ATOM     23  N   UNL A   1      38.280  22.725  25.488  1.00  0.00    -0.352 N 
ATOM     24  C   UNL A   1      39.380  22.960  26.286  1.00  0.00     0.251 C 
ATOM     25  H   UNL A   1      38.192  21.808  25.139  1.00  0.00     0.163 HD
ATOM     26  O   UNL A   1      40.213  22.085  26.463  1.00  0.00    -0.269 OA
BRANCH  24  27
ATOM     27  C   UNL A   1      39.558  24.304  26.882  1.00  0.00     0.039 A 
ATOM     28  C   UNL A   1      39.061  24.542  28.166  1.00  0.00     0.014 A 
ATOM     29  C   UNL A   1      40.270  25.296  26.205  1.00  0.00     0.014 A 
ATOM     30  C   UNL A   1      39.358  25.746  28.807  1.00  0.00     0.010 A 
ATOM     31  C   UNL A   1      40.628  26.463  26.873  1.00  0.00     0.010 A 
ATOM     32  C   UNL A   1      40.184  26.696  28.183  1.00  0.00    -0.014 A 
BRANCH  32  33
ATOM     33  C   UNL A   1      40.617  27.928  28.889  1.00  0.00     0.031 A 
ATOM     34  C   UNL A   1      41.973  27.991  29.534  1.00  0.00     0.074 A 
ATOM     35  C   UNL A   1      39.756  28.957  29.022  1.00  0.00     0.049 A 
ATOM     36  N   UNL A   1      42.497  28.946  30.260  1.00  0.00    -0.248 NA
ATOM     37  C   UNL A   1      42.844  26.815  29.370  1.00  0.00     0.031 C 
ATOM     38  C   UNL A   1      38.388  28.996  28.493  1.00  0.00     0.029 A 
ATOM     39  N   UNL A   1      39.899  30.169  29.651  1.00  0.00    -0.354 N 
ATOM     40  C   UNL A   1      43.744  28.478  30.658  1.00  0.00     0.074 A 
ATOM     41  C   UNL A   1      43.881  27.138  30.130  1.00  0.00     0.031 C 
ATOM     42  C   UNL A   1      37.829  30.178  28.801  1.00  0.00     0.029 A 
ATOM     43  C   UNL A   1      38.782  30.967  29.575  1.00  0.00     0.049 A 
ATOM     44  H   UNL A   1      40.724  30.439  30.115  1.00  0.00     0.167 HD
ATOM     45  C   UNL A   1      44.697  29.113  31.381  1.00  0.00     0.031 A 
ATOM     46  C   UNL A   1      38.548  32.197  30.074  1.00  0.00     0.031 A 
ATOM     47  C   UNL A   1      44.570  30.456  31.878  1.00  0.00     0.049 A 
ATOM     48  C   UNL A   1      39.635  32.893  30.845  1.00  0.00     0.074 A 
ATOM     49  C   UNL A   1      45.508  31.212  32.560  1.00  0.00     0.029 A 
ATOM     50  N   UNL A   1      43.439  31.246  31.744  1.00  0.00    -0.354 N 
ATOM     51  N   UNL A   1      40.835  32.460  31.149  1.00  0.00    -0.248 NA
ATOM     52  C   UNL A   1      39.342  34.250  31.327  1.00  0.00     0.031 C 
ATOM     53  C   UNL A   1      44.930  32.449  32.869  1.00  0.00     0.029 A 
ATOM     54  C   UNL A   1      43.649  32.477  32.342  1.00  0.00     0.049 A 
ATOM     55  H   UNL A   1      42.609  30.972  31.291  1.00  0.00     0.167 HD
ATOM     56  C   UNL A   1      41.447  33.499  31.841  1.00  0.00     0.074 A 
ATOM     57  C   UNL A   1      40.492  34.586  31.894  1.00  0.00     0.031 C 
ATOM     58  C   UNL A   1      42.688  33.548  32.384  1.00  0.00     0.031 A 
BRANCH  45  59
ATOM     59  C   UNL A   1      45.967  28.358  31.670  1.00  0.00    -0.014 A 
ATOM     60  C   UNL A   1      47.059  28.418  30.786  1.00  0.00     0.010 A 
ATOM     61  C   UNL A   1      46.085  27.614  32.858  1.00  0.00     0.010 A 
ATOM     62  C   UNL A   1      48.232  27.714  31.066  1.00  0.00     0.020 A 
ATOM     63  C   UNL A   1      47.267  26.930  33.153  1.00  0.00     0.020 A 
ATOM     64  C   UNL A   1      48.328  26.971  32.246  1.00  0.00     0.054 A 
BRANCH  64  65
ATOM     65  S   UNL A   1      49.873  26.087  32.597  1.00  0.00     0.124 S 
ATOM     66  O   UNL A   1      49.484  24.699  32.359  1.00  0.00    -0.237 OA
ATOM     67  O   UNL A   1      50.798  26.656  31.619  1.00  0.00    -0.237 OA
ATOM     68  O   UNL A   1      50.157  26.426  33.989  1.00  0.00    -0.744 OA
ENDBRANCH  64  65
ENDBRANCH  45  59
BRANCH  46  69
ATOM     69  C   UNL A   1      37.237  32.860  29.840  1.00  0.00    -0.014 A 
ATOM     70  C   UNL A   1      36.985  33.531  28.631  1.00  0.00     0.010 A 
ATOM     71  C   UNL A   1      36.233  32.823  30.825  1.00  0.00     0.010 A 
ATOM     72  C   UNL A   1      35.762  34.172  28.418  1.00  0.00     0.020 A 
ATOM     73  C   UNL A   1      35.000  33.442  30.606  1.00  0.00     0.020 A 
ATOM     74  C   UNL A   1      34.776  34.125  29.408  1.00  0.00     0.054 A 
BRANCH  74  75
ATOM     75  S   UNL A   1      33.178  34.927  29.096  1.00  0.00     0.124 S 
ATOM     76  O   UNL A   1      32.551  34.875  30.413  1.00  0.00    -0.237 OA
ATOM     77  O   UNL A   1      33.575  36.255  28.635  1.00  0.00    -0.237 OA
ATOM     78  O   UNL A   1      32.567  34.080  28.075  1.00  0.00    -0.744 OA
ENDBRANCH  74  75
ENDBRANCH  46  69
BRANCH  58  79
ATOM     79  C   UNL A   1      43.095  34.828  33.057  1.00  0.00    -0.014 A 
ATOM     80  C   UNL A   1      42.992  34.980  34.450  1.00  0.00     0.010 A 
ATOM     81  C   UNL A   1      43.636  35.875  32.287  1.00  0.00     0.010 A 
ATOM     82  C   UNL A   1      43.396  36.170  35.061  1.00  0.00     0.020 A 
ATOM     83  C   UNL A   1      44.063  37.057  32.898  1.00  0.00     0.020 A 
ATOM     84  C   UNL A   1      43.926  37.202  34.281  1.00  0.00     0.054 A 
BRANCH  84  85
ATOM     85  S   UNL A   1      44.483  38.721  35.099  1.00  0.00     0.124 S 
ATOM     86  O   UNL A   1      44.014  38.520  36.465  1.00  0.00    -0.237 OA
ATOM     87  O   UNL A   1      45.933  38.673  34.918  1.00  0.00    -0.237 OA
ATOM     88  O   UNL A   1      43.807  39.782  34.356  1.00  0.00    -0.744 OA
ENDBRANCH  84  85
ENDBRANCH  58  79
ENDBRANCH  32  33
ENDBRANCH  24  27
ENDBRANCH  22  23
ENDBRANCH   1  22
TORSDOF 16
ENDMDL
MODEL 2
REMARK VINA RESULT:     -10.6      4.273     11.104
REMARK SMILES COc1ccc2cc([C@@H](C)C(=O)NCCCCNC(=O)c3ccc(-c4c5nc(c(-c6ccc(S(=O)(=O)[O-])cc6)c6ccc([nH]6)c(-c6ccc(S(=O)(=O)[O-])cc6)c6nc(c(-c7ccc(S(=O)(=O)[O-])cc7)c7ccc4[nH]7)C=C6)C=C5)cc3)ccc2c1
REMARK SMILES IDX 16 1 15 2 14 3 13 4 11 5 12 6 9 8 10 9 8 10 3 11 4 12 84 13
REMARK SMILES IDX 5 14 83 15 6 16 82 17 7 18 81 19 2 20 1 21 17 22 18 23 19 24
REMARK SMILES IDX 20 26 21 27 22 28 80 29 23 30 79 31 24 32 25 33 26 34 73 35
REMARK SMILES IDX 27 36 78 37 72 38 74 39 28 40 77 41 71 42 70 43 29 45 59 46
REMARK SMILES IDX 40 47 58 48 41 49 44 50 57 51 75 52 42 53 43 54 56 56 76 57
REMARK SMILES IDX 45 58 30 59 31 60 39 61 32 62 38 63 33 64 34 65 35 66 36 67
REMARK SMILES IDX 37 68 60 69 61 70 69 71 62 72 68 73 63 74 64 75 65 76 66 77
REMARK SMILES IDX 67 78 46 79 47 80 55 81 48 82 54 83 49 84 50 85 51 86 52 87
REMARK SMILES IDX 53 88
REMARK H PARENT 13 7 18 25 74 44 44 55
REMARK Flexibility Score: inf
ROOT
ATOM      1  C   UNL A   1      34.621  32.462  29.712  1.00  0.00     0.023 C 
ENDROOT
BRANCH   1   2
ATOM      2  C   UNL A   1      35.528  33.616  30.134  1.00  0.00     0.023 C 
BRANCH   2   3
ATOM      3  C   UNL A   1      36.999  33.249  30.337  1.00  0.00     0.116 C 
BRANCH   3   4
ATOM      4  N   UNL A   1      37.642  34.097  31.319  1.00  0.00    -0.356 N 
ATOM      5  C   UNL A   1      37.712  34.024  32.676  1.00  0.00     0.227 C 
ATOM      6  O   UNL A   1      38.289  34.957  33.249  1.00  0.00    -0.274 OA
ATOM      7  H   UNL A   1      38.117  34.869  30.934  1.00  0.00     0.163 HD
BRANCH   5   8
ATOM      8  C   UNL A   1      37.134  32.864  33.507  1.00  0.00     0.105 C 
ATOM      9  C   UNL A   1      36.508  33.292  34.834  1.00  0.00     0.023 C 
BRANCH   8  10
ATOM     10  C   UNL A   1      38.044  31.645  33.557  1.00  0.00    -0.035 A 
ATOM     11  C   UNL A   1      42.019  28.461  33.607  1.00  0.00     0.119 A 
ATOM     12  C   UNL A   1      42.472  29.669  34.130  1.00  0.00     0.047 A 
ATOM     13  C   UNL A   1      40.680  28.339  33.224  1.00  0.00     0.055 A 
ATOM     14  C   UNL A   1      41.581  30.731  34.309  1.00  0.00     0.012 A 
ATOM     15  C   UNL A   1      39.782  29.410  33.363  1.00  0.00    -0.015 A 
ATOM     16  C   UNL A   1      40.234  30.614  33.936  1.00  0.00    -0.018 A 
ATOM     17  C   UNL A   1      38.453  29.326  32.925  1.00  0.00     0.009 A 
ATOM     18  C   UNL A   1      39.342  31.691  34.080  1.00  0.00     0.013 A 
ATOM     19  C   UNL A   1      37.606  30.437  32.995  1.00  0.00     0.005 A 
BRANCH  11  20
ATOM     20  O   UNL A   1      42.781  27.342  33.408  1.00  0.00    -0.497 OA
ATOM     21  C   UNL A   1      43.081  26.564  34.562  1.00  0.00     0.278 C 
ENDBRANCH  11  20
ENDBRANCH   8  10
ENDBRANCH   5   8
ENDBRANCH   3   4
ENDBRANCH   2   3
ENDBRANCH   1   2
BRANCH   1  22
ATOM     22  C   UNL A   1      34.287  32.405  28.226  1.00  0.00     0.116 C 
BRANCH  22  23
ATOM     23  N   UNL A   1      33.758  31.121  27.784  1.00  0.00    -0.352 N 
ATOM     24  C   UNL A   1      34.411  29.910  27.700  1.00  0.00     0.251 C 
ATOM     25  H   UNL A   1      32.812  31.119  27.510  1.00  0.00     0.163 HD
ATOM     26  O   UNL A   1      33.842  28.933  27.235  1.00  0.00    -0.269 OA
BRANCH  24  27
ATOM     27  C   UNL A   1      35.823  29.825  28.134  1.00  0.00     0.039 A 
ATOM     28  C   UNL A   1      36.104  29.382  29.428  1.00  0.00     0.014 A 
ATOM     29  C   UNL A   1      36.862  30.114  27.245  1.00  0.00     0.014 A 
ATOM     30  C   UNL A   1      37.429  29.143  29.802  1.00  0.00     0.010 A 
ATOM     31  C   UNL A   1      38.172  29.805  27.594  1.00  0.00     0.010 A 
ATOM     32  C   UNL A   1      38.468  29.307  28.872  1.00  0.00    -0.014 A 
BRANCH  32  33
ATOM     33  C   UNL A   1      39.868  28.941  29.203  1.00  0.00     0.031 A 
ATOM     34  C   UNL A   1      40.780  29.950  29.845  1.00  0.00     0.074 A 
ATOM     35  C   UNL A   1      40.341  27.729  28.850  1.00  0.00     0.049 A 
ATOM     36  N   UNL A   1      42.051  29.843  30.137  1.00  0.00    -0.248 NA
ATOM     37  C   UNL A   1      40.197  31.261  30.173  1.00  0.00     0.031 C 
ATOM     38  C   UNL A   1      39.574  26.682  28.168  1.00  0.00     0.029 A 
ATOM     39  N   UNL A   1      41.587  27.174  29.007  1.00  0.00    -0.354 N 
ATOM     40  C   UNL A   1      42.425  31.076  30.657  1.00  0.00     0.074 A 
ATOM     41  C   UNL A   1      41.258  31.930  30.602  1.00  0.00     0.031 C 
ATOM     42  C   UNL A   1      40.359  25.607  27.987  1.00  0.00     0.029 A 
ATOM     43  C   UNL A   1      41.691  25.896  28.508  1.00  0.00     0.049 A 
ATOM     44  H   UNL A   1      42.336  27.647  29.436  1.00  0.00     0.167 HD
ATOM     45  C   UNL A   1      43.625  31.459  31.155  1.00  0.00     0.031 A 
ATOM     46  C   UNL A   1      42.740  25.053  28.471  1.00  0.00     0.031 A 
ATOM     47  C   UNL A   1      44.774  30.599  31.237  1.00  0.00     0.049 A 
ATOM     48  C   UNL A   1      44.053  25.490  29.060  1.00  0.00     0.074 A 
ATOM     49  C   UNL A   1      46.014  30.872  31.789  1.00  0.00     0.029 A 
ATOM     50  N   UNL A   1      44.826  29.299  30.758  1.00  0.00    -0.354 N 
ATOM     51  N   UNL A   1      44.364  26.637  29.613  1.00  0.00    -0.248 NA
ATOM     52  C   UNL A   1      45.150  24.514  29.032  1.00  0.00     0.031 C 
ATOM     53  C   UNL A   1      46.827  29.747  31.612  1.00  0.00     0.029 A 
ATOM     54  C   UNL A   1      46.080  28.760  30.989  1.00  0.00     0.049 A 
ATOM     55  H   UNL A   1      44.081  28.829  30.318  1.00  0.00     0.167 HD
ATOM     56  C   UNL A   1      45.688  26.513  30.018  1.00  0.00     0.074 A 
ATOM     57  C   UNL A   1      46.112  25.175  29.662  1.00  0.00     0.031 C 
ATOM     58  C   UNL A   1      46.483  27.426  30.630  1.00  0.00     0.031 A 
BRANCH  45  59
ATOM     59  C   UNL A   1      43.750  32.872  31.658  1.00  0.00    -0.014 A 
ATOM     60  C   UNL A   1      44.242  33.893  30.826  1.00  0.00     0.010 A 
ATOM     61  C   UNL A   1      43.332  33.191  32.962  1.00  0.00     0.010 A 
ATOM     62  C   UNL A   1      44.353  35.201  31.304  1.00  0.00     0.020 A 
ATOM     63  C   UNL A   1      43.417  34.503  33.434  1.00  0.00     0.020 A 
ATOM     64  C   UNL A   1      43.943  35.497  32.607  1.00  0.00     0.054 A 
BRANCH  64  65
ATOM     65  S   UNL A   1      44.073  37.209  33.192  1.00  0.00     0.124 S 
ATOM     66  O   UNL A   1      45.348  37.186  33.905  1.00  0.00    -0.237 OA
ATOM     67  O   UNL A   1      44.064  37.976  31.949  1.00  0.00    -0.237 OA
ATOM     68  O   UNL A   1      42.891  37.378  34.034  1.00  0.00    -0.744 OA
ENDBRANCH  64  65
ENDBRANCH  45  59
BRANCH  46  69
ATOM     69  C   UNL A   1      42.588  23.698  27.874  1.00  0.00    -0.014 A 
ATOM     70  C   UNL A   1      42.182  22.612  28.668  1.00  0.00     0.010 A 
ATOM     71  C   UNL A   1      42.847  23.488  26.507  1.00  0.00     0.010 A 
ATOM     72  C   UNL A   1      42.058  21.336  28.114  1.00  0.00     0.020 A 
ATOM     73  C   UNL A   1      42.702  22.217  25.944  1.00  0.00     0.020 A 
ATOM     74  C   UNL A   1      42.321  21.145  26.754  1.00  0.00     0.054 A 
BRANCH  74  75
ATOM     75  S   UNL A   1      42.113  19.488  26.044  1.00  0.00     0.124 S 
ATOM     76  O   UNL A   1      40.676  19.444  25.793  1.00  0.00    -0.237 OA
ATOM     77  O   UNL A   1      42.963  19.544  24.856  1.00  0.00    -0.237 OA
ATOM     78  O   UNL A   1      42.595  18.603  27.102  1.00  0.00    -0.744 OA
ENDBRANCH  74  75
ENDBRANCH  46  69
BRANCH  58  79
ATOM     79  C   UNL A   1      47.881  26.998  30.979  1.00  0.00    -0.014 A 
ATOM     80  C   UNL A   1      48.174  26.431  32.231  1.00  0.00     0.010 A 
ATOM     81  C   UNL A   1      48.903  27.121  30.020  1.00  0.00     0.010 A 
ATOM     82  C   UNL A   1      49.476  26.019  32.530  1.00  0.00     0.020 A 
ATOM     83  C   UNL A   1      50.201  26.689  30.308  1.00  0.00     0.020 A 
ATOM     84  C   UNL A   1      50.482  26.154  31.567  1.00  0.00     0.054 A 
BRANCH  84  85
ATOM     85  S   UNL A   1      52.154  25.574  31.961  1.00  0.00     0.124 S 
ATOM     86  O   UNL A   1      51.941  24.145  32.160  1.00  0.00    -0.237 OA
ATOM     87  O   UNL A   1      52.912  25.936  30.764  1.00  0.00    -0.237 OA
ATOM     88  O   UNL A   1      52.507  26.327  33.162  1.00  0.00    -0.744 OA
ENDBRANCH  84  85
ENDBRANCH  58  79
ENDBRANCH  32  33
ENDBRANCH  24  27
ENDBRANCH  22  23
ENDBRANCH   1  22
TORSDOF 16
ENDMDL
MODEL 3
REMARK VINA RESULT:     -10.6      2.858      9.378
REMARK SMILES COc1ccc2cc([C@@H](C)C(=O)NCCCCNC(=O)c3ccc(-c4c5nc(c(-c6ccc(S(=O)(=O)[O-])cc6)c6ccc([nH]6)c(-c6ccc(S(=O)(=O)[O-])cc6)c6nc(c(-c7ccc(S(=O)(=O)[O-])cc7)c7ccc4[nH]7)C=C6)C=C5)cc3)ccc2c1
REMARK SMILES IDX 16 1 15 2 14 3 13 4 11 5 12 6 9 8 10 9 8 10 3 11 4 12 84 13
REMARK SMILES IDX 5 14 83 15 6 16 82 17 7 18 81 19 2 20 1 21 17 22 18 23 19 24
REMARK SMILES IDX 20 26 21 27 22 28 80 29 23 30 79 31 24 32 25 33 26 34 73 35
REMARK SMILES IDX 27 36 78 37 72 38 74 39 28 40 77 41 71 42 70 43 29 45 59 46
REMARK SMILES IDX 40 47 58 48 41 49 44 50 57 51 75 52 42 53 43 54 56 56 76 57
REMARK SMILES IDX 45 58 30 59 31 60 39 61 32 62 38 63 33 64 34 65 35 66 36 67
REMARK SMILES IDX 37 68 60 69 61 70 69 71 62 72 68 73 63 74 64 75 65 76 66 77
REMARK SMILES IDX 67 78 46 79 47 80 55 81 48 82 54 83 49 84 50 85 51 86 52 87
REMARK SMILES IDX 53 88
REMARK H PARENT 13 7 18 25 74 44 44 55
REMARK Flexibility Score: inf
ROOT
ATOM      1  C   UNL A   1      32.208  27.882  27.200  1.00  0.00     0.023 C 
ENDROOT
BRANCH   1   2
ATOM      2  C   UNL A   1      31.385  28.246  25.967  1.00  0.00     0.023 C 
BRANCH   2   3
ATOM      3  C   UNL A   1      30.655  27.078  25.302  1.00  0.00     0.116 C 
BRANCH   3   4
ATOM      4  N   UNL A   1      30.485  27.280  23.878  1.00  0.00    -0.356 N 
ATOM      5  C   UNL A   1      31.385  27.423  22.867  1.00  0.00     0.227 C 
ATOM      6  O   UNL A   1      30.919  27.656  21.744  1.00  0.00    -0.274 OA
ATOM      7  H   UNL A   1      29.545  27.323  23.588  1.00  0.00     0.163 HD
BRANCH   5   8
ATOM      8  C   UNL A   1      32.909  27.299  23.045  1.00  0.00     0.105 C 
ATOM      9  C   UNL A   1      33.727  28.020  21.975  1.00  0.00     0.023 C 
BRANCH   8  10
ATOM     10  C   UNL A   1      33.363  25.891  23.402  1.00  0.00    -0.035 A 
ATOM     11  C   UNL A   1      35.843  21.820  25.195  1.00  0.00     0.119 A 
ATOM     12  C   UNL A   1      36.101  22.863  26.080  1.00  0.00     0.047 A 
ATOM     13  C   UNL A   1      35.010  22.045  24.094  1.00  0.00     0.055 A 
ATOM     14  C   UNL A   1      35.494  24.108  25.890  1.00  0.00     0.012 A 
ATOM     15  C   UNL A   1      34.423  23.302  23.869  1.00  0.00    -0.015 A 
ATOM     16  C   UNL A   1      34.650  24.339  24.794  1.00  0.00    -0.018 A 
ATOM     17  C   UNL A   1      33.639  23.562  22.737  1.00  0.00     0.009 A 
ATOM     18  C   UNL A   1      34.066  25.600  24.577  1.00  0.00     0.013 A 
ATOM     19  C   UNL A   1      33.141  24.846  22.494  1.00  0.00     0.005 A 
BRANCH  11  20
ATOM     20  O   UNL A   1      36.351  20.553  25.285  1.00  0.00    -0.497 OA
ATOM     21  C   UNL A   1      37.661  20.356  24.764  1.00  0.00     0.278 C 
ENDBRANCH  11  20
ENDBRANCH   8  10
ENDBRANCH   5   8
ENDBRANCH   3   4
ENDBRANCH   2   3
ENDBRANCH   1   2
BRANCH   1  22
ATOM     22  C   UNL A   1      33.585  28.532  27.280  1.00  0.00     0.116 C 
BRANCH  22  23
ATOM     23  N   UNL A   1      33.556  29.943  27.644  1.00  0.00    -0.352 N 
ATOM     24  C   UNL A   1      34.571  30.710  28.176  1.00  0.00     0.251 C 
ATOM     25  H   UNL A   1      32.702  30.408  27.491  1.00  0.00     0.163 HD
ATOM     26  O   UNL A   1      34.364  31.870  28.499  1.00  0.00    -0.269 OA
BRANCH  24  27
ATOM     27  C   UNL A   1      35.897  30.091  28.396  1.00  0.00     0.039 A 
ATOM     28  C   UNL A   1      36.845  30.147  27.371  1.00  0.00     0.014 A 
ATOM     29  C   UNL A   1      36.225  29.523  29.629  1.00  0.00     0.014 A 
ATOM     30  C   UNL A   1      38.150  29.713  27.614  1.00  0.00     0.010 A 
ATOM     31  C   UNL A   1      37.541  29.162  29.893  1.00  0.00     0.010 A 
ATOM     32  C   UNL A   1      38.519  29.262  28.892  1.00  0.00    -0.014 A 
BRANCH  32  33
ATOM     33  C   UNL A   1      39.926  28.914  29.212  1.00  0.00     0.031 A 
ATOM     34  C   UNL A   1      40.833  29.936  29.840  1.00  0.00     0.074 A 
ATOM     35  C   UNL A   1      40.410  27.705  28.859  1.00  0.00     0.049 A 
ATOM     36  N   UNL A   1      42.108  29.844  30.120  1.00  0.00    -0.248 NA
ATOM     37  C   UNL A   1      40.238  31.242  30.168  1.00  0.00     0.031 C 
ATOM     38  C   UNL A   1      39.648  26.647  28.189  1.00  0.00     0.029 A 
ATOM     39  N   UNL A   1      41.663  27.165  29.007  1.00  0.00    -0.354 N 
ATOM     40  C   UNL A   1      42.473  31.084  30.632  1.00  0.00     0.074 A 
ATOM     41  C   UNL A   1      41.296  31.924  30.584  1.00  0.00     0.031 C 
ATOM     42  C   UNL A   1      40.443  25.580  28.005  1.00  0.00     0.029 A 
ATOM     43  C   UNL A   1      41.776  25.887  28.512  1.00  0.00     0.049 A 
ATOM     44  H   UNL A   1      42.411  27.648  29.426  1.00  0.00     0.167 HD
ATOM     45  C   UNL A   1      43.673  31.482  31.116  1.00  0.00     0.031 A 
ATOM     46  C   UNL A   1      42.835  25.055  28.469  1.00  0.00     0.031 A 
ATOM     47  C   UNL A   1      44.833  30.636  31.190  1.00  0.00     0.049 A 
ATOM     48  C   UNL A   1      44.148  25.509  29.043  1.00  0.00     0.074 A 
ATOM     49  C   UNL A   1      46.075  30.925  31.729  1.00  0.00     0.029 A 
ATOM     50  N   UNL A   1      44.895  29.335  30.717  1.00  0.00    -0.354 N 
ATOM     51  N   UNL A   1      44.452  26.662  29.588  1.00  0.00    -0.248 NA
ATOM     52  C   UNL A   1      45.256  24.545  29.009  1.00  0.00     0.031 C 
ATOM     53  C   UNL A   1      46.899  29.808  31.550  1.00  0.00     0.029 A 
ATOM     54  C   UNL A   1      46.157  28.811  30.938  1.00  0.00     0.049 A 
ATOM     55  H   UNL A   1      44.151  28.854  30.287  1.00  0.00     0.167 HD
ATOM     56  C   UNL A   1      45.781  26.555  29.981  1.00  0.00     0.074 A 
ATOM     57  C   UNL A   1      46.216  25.220  29.627  1.00  0.00     0.031 C 
ATOM     58  C   UNL A   1      46.571  27.479  30.581  1.00  0.00     0.031 A 
BRANCH  45  59
ATOM     59  C   UNL A   1      43.787  32.899  31.611  1.00  0.00    -0.014 A 
ATOM     60  C   UNL A   1      43.448  33.231  32.935  1.00  0.00     0.010 A 
ATOM     61  C   UNL A   1      44.276  33.903  30.756  1.00  0.00     0.010 A 
ATOM     62  C   UNL A   1      43.558  34.549  33.383  1.00  0.00     0.020 A 
ATOM     63  C   UNL A   1      44.412  35.218  31.209  1.00  0.00     0.020 A 
ATOM     64  C   UNL A   1      44.036  35.535  32.515  1.00  0.00     0.054 A 
BRANCH  64  65
ATOM     65  S   UNL A   1      44.195  37.234  33.131  1.00  0.00     0.124 S 
ATOM     66  O   UNL A   1      43.195  37.261  34.196  1.00  0.00    -0.237 OA
ATOM     67  O   UNL A   1      45.585  37.287  33.576  1.00  0.00    -0.237 OA
ATOM     68  O   UNL A   1      43.886  38.056  31.964  1.00  0.00    -0.744 OA
ENDBRANCH  64  65
ENDBRANCH  45  59
BRANCH  46  69
ATOM     69  C   UNL A   1      42.692  23.696  27.879  1.00  0.00    -0.014 A 
ATOM     70  C   UNL A   1      43.049  23.460  26.540  1.00  0.00     0.010 A 
ATOM     71  C   UNL A   1      42.200  22.630  28.655  1.00  0.00     0.010 A 
ATOM     72  C   UNL A   1      42.896  22.189  25.980  1.00  0.00     0.020 A 
ATOM     73  C   UNL A   1      42.068  21.352  28.105  1.00  0.00     0.020 A 
ATOM     74  C   UNL A   1      42.405  21.142  26.765  1.00  0.00     0.054 A 
BRANCH  74  75
ATOM     75  S   UNL A   1      42.254  19.490  26.031  1.00  0.00     0.124 S 
ATOM     76  O   UNL A   1      42.735  18.634  27.111  1.00  0.00    -0.237 OA
ATOM     77  O   UNL A   1      40.825  19.401  25.741  1.00  0.00    -0.237 OA
ATOM     78  O   UNL A   1      43.117  19.561  24.854  1.00  0.00    -0.744 OA
ENDBRANCH  74  75
ENDBRANCH  46  69
BRANCH  58  79
ATOM     79  C   UNL A   1      47.977  27.069  30.918  1.00  0.00    -0.014 A 
ATOM     80  C   UNL A   1      48.279  26.456  32.147  1.00  0.00     0.010 A 
ATOM     81  C   UNL A   1      49.000  27.254  29.970  1.00  0.00     0.010 A 
ATOM     82  C   UNL A   1      49.588  26.062  32.435  1.00  0.00     0.020 A 
ATOM     83  C   UNL A   1      50.306  26.839  30.246  1.00  0.00     0.020 A 
ATOM     84  C   UNL A   1      50.594  26.259  31.483  1.00  0.00     0.054 A 
BRANCH  84  85
ATOM     85  S   UNL A   1      52.278  25.701  31.860  1.00  0.00     0.124 S 
ATOM     86  O   UNL A   1      52.632  26.550  32.992  1.00  0.00    -0.237 OA
ATOM     87  O   UNL A   1      52.088  24.286  32.170  1.00  0.00    -0.237 OA
ATOM     88  O   UNL A   1      53.014  25.967  30.626  1.00  0.00    -0.744 OA
ENDBRANCH  84  85
ENDBRANCH  58  79
ENDBRANCH  32  33
ENDBRANCH  24  27
ENDBRANCH  22  23
ENDBRANCH   1  22
TORSDOF 16
ENDMDL
