MODEL 1
REMARK VINA RESULT:     -10.6      0.000      0.000
REMARK SMILES CSCC[C@H](NC(=O)c1nc(C(C)C)n[nH]1)C(=O)NCCCCNC(=O)c1ccc(-c2c3nc(c(-c4ccc(S(=O)(=O)[O-])cc4)c4ccc([nH]4)c(-c4ccc(S(=O)(=O)[O-])cc4)c4nc(c(-c5ccc(S(=O)(=O)[O-])cc5)c5ccc2[nH]5)C=C4)C=C3)cc1
REMARK SMILES IDX 21 1 20 2 19 3 17 4 18 5 5 7 4 8 3 9 2 10 1 11 6 12 7 13
REMARK SMILES IDX 8 15 9 16 10 17 16 18 11 19 15 20 12 22 13 23 14 24 22 25
REMARK SMILES IDX 23 26 24 27 25 28 26 30 27 31 28 32 86 33 29 34 85 35 30 36
REMARK SMILES IDX 31 37 32 38 79 39 33 40 84 41 78 42 80 43 34 44 83 45 77 46
REMARK SMILES IDX 76 47 35 49 65 50 46 51 64 52 47 53 50 54 63 55 81 56 48 57
REMARK SMILES IDX 49 58 62 60 82 61 51 62 36 63 37 64 45 65 38 66 44 67 39 68
REMARK SMILES IDX 40 69 41 70 42 71 43 72 66 73 67 74 75 75 68 76 74 77 69 78
REMARK SMILES IDX 70 79 71 80 72 81 73 82 52 83 53 84 61 85 54 86 60 87 55 88
REMARK SMILES IDX 56 89 57 90 58 91 59 92
REMARK H PARENT 19 6 6 14 16 21 24 29 80 48 50 59
REMARK Flexibility Score: inf
ROOT
ATOM      1  C   UNL A   1      32.638  26.845  25.461  1.00  0.00     0.023 C 
ENDROOT
BRANCH   1   2
ATOM      2  C   UNL A   1      31.460  25.908  25.193  1.00  0.00     0.116 C 
BRANCH   2   3
ATOM      3  N   UNL A   1      31.253  24.955  26.267  1.00  0.00    -0.354 N 
ATOM      4  C   UNL A   1      31.863  23.791  26.614  1.00  0.00     0.242 C 
ATOM      5  O   UNL A   1      31.469  23.278  27.667  1.00  0.00    -0.273 OA
ATOM      6  H   UNL A   1      30.517  25.204  26.872  1.00  0.00     0.163 HD
BRANCH   4   7
ATOM      7  C   UNL A   1      33.022  23.145  25.827  1.00  0.00     0.172 C 
BRANCH   7   8
ATOM      8  C   UNL A   1      34.449  23.720  25.937  1.00  0.00     0.046 C 
BRANCH   8   9
ATOM      9  C   UNL A   1      35.465  23.510  24.820  1.00  0.00     0.072 C 
BRANCH   9  10
ATOM     10  S   UNL A   1      37.163  23.157  25.375  1.00  0.00    -0.165 SA
ATOM     11  C   UNL A   1      37.301  21.410  24.934  1.00  0.00     0.085 C 
ENDBRANCH   9  10
ENDBRANCH   8   9
ENDBRANCH   7   8
BRANCH   7  12
ATOM     12  N   UNL A   1      32.653  22.967  24.414  1.00  0.00    -0.338 N 
ATOM     13  C   UNL A   1      32.349  21.836  23.699  1.00  0.00     0.289 C 
ATOM     14  H   UNL A   1      32.617  23.801  23.892  1.00  0.00     0.164 HD
ATOM     15  O   UNL A   1      31.980  22.009  22.532  1.00  0.00    -0.266 OA
BRANCH  13  16
ATOM     16  C   UNL A   1      32.498  20.508  24.242  1.00  0.00     0.214 A 
ATOM     17  N   UNL A   1      32.691  19.365  23.615  1.00  0.00    -0.207 NA
ATOM     18  N   UNL A   1      32.414  20.251  25.581  1.00  0.00    -0.255 N 
ATOM     19  C   UNL A   1      32.717  18.435  24.623  1.00  0.00     0.153 A 
ATOM     20  N   UNL A   1      32.519  18.939  25.848  1.00  0.00    -0.158 NA
ATOM     21  H   UNL A   1      32.289  20.945  26.268  1.00  0.00     0.192 HD
BRANCH  19  22
ATOM     22  C   UNL A   1      32.904  16.978  24.343  1.00  0.00     0.053 C 
ATOM     23  C   UNL A   1      34.010  16.712  23.318  1.00  0.00     0.016 C 
ATOM     24  C   UNL A   1      33.169  16.198  25.631  1.00  0.00     0.016 C 
ENDBRANCH  19  22
ENDBRANCH  13  16
ENDBRANCH   7  12
ENDBRANCH   4   7
ENDBRANCH   2   3
ENDBRANCH   1   2
BRANCH   1  25
ATOM     25  C   UNL A   1      32.365  27.989  26.444  1.00  0.00     0.023 C 
BRANCH  25  26
ATOM     26  C   UNL A   1      33.569  28.455  27.258  1.00  0.00     0.116 C 
BRANCH  26  27
ATOM     27  N   UNL A   1      33.515  29.878  27.558  1.00  0.00    -0.352 N 
ATOM     28  C   UNL A   1      34.465  30.676  28.151  1.00  0.00     0.251 C 
ATOM     29  H   UNL A   1      32.680  30.333  27.300  1.00  0.00     0.163 HD
ATOM     30  O   UNL A   1      34.178  31.815  28.505  1.00  0.00    -0.269 OA
BRANCH  28  31
ATOM     31  C   UNL A   1      35.826  30.147  28.375  1.00  0.00     0.039 A 
ATOM     32  C   UNL A   1      36.741  30.135  27.319  1.00  0.00     0.014 A 
ATOM     33  C   UNL A   1      36.196  29.672  29.636  1.00  0.00     0.014 A 
ATOM     34  C   UNL A   1      38.057  29.719  27.548  1.00  0.00     0.010 A 
ATOM     35  C   UNL A   1      37.519  29.315  29.875  1.00  0.00     0.010 A 
ATOM     36  C   UNL A   1      38.464  29.340  28.836  1.00  0.00    -0.014 A 
BRANCH  36  37
ATOM     37  C   UNL A   1      39.864  28.950  29.140  1.00  0.00     0.031 A 
ATOM     38  C   UNL A   1      40.818  29.977  29.685  1.00  0.00     0.074 A 
ATOM     39  C   UNL A   1      40.306  27.715  28.827  1.00  0.00     0.049 A 
ATOM     40  N   UNL A   1      42.115  29.905  29.830  1.00  0.00    -0.248 NA
ATOM     41  C   UNL A   1      40.236  31.268  30.088  1.00  0.00     0.031 C 
ATOM     42  C   UNL A   1      39.486  26.632  28.279  1.00  0.00     0.029 A 
ATOM     43  N   UNL A   1      41.565  27.173  28.901  1.00  0.00    -0.354 N 
ATOM     44  C   UNL A   1      42.510  31.149  30.304  1.00  0.00     0.074 A 
ATOM     45  C   UNL A   1      41.319  31.966  30.398  1.00  0.00     0.031 C 
ATOM     46  C   UNL A   1      40.262  25.555  28.071  1.00  0.00     0.029 A 
ATOM     47  C   UNL A   1      41.640  25.885  28.425  1.00  0.00     0.049 A 
ATOM     48  H   UNL A   1      42.341  27.660  29.262  1.00  0.00     0.167 HD
ATOM     49  C   UNL A   1      43.752  31.574  30.637  1.00  0.00     0.031 A 
ATOM     50  C   UNL A   1      42.702  25.068  28.268  1.00  0.00     0.031 A 
ATOM     51  C   UNL A   1      44.929  30.752  30.570  1.00  0.00     0.049 A 
ATOM     52  C   UNL A   1      44.071  25.557  28.652  1.00  0.00     0.074 A 
ATOM     53  C   UNL A   1      46.226  31.077  30.925  1.00  0.00     0.029 A 
ATOM     54  N   UNL A   1      44.951  29.439  30.125  1.00  0.00    -0.354 N 
ATOM     55  N   UNL A   1      44.423  26.731  29.122  1.00  0.00    -0.248 NA
ATOM     56  C   UNL A   1      45.187  24.614  28.489  1.00  0.00     0.031 C 
ATOM     57  C   UNL A   1      47.039  29.968  30.667  1.00  0.00     0.029 A 
ATOM     58  C   UNL A   1      46.239  28.941  30.193  1.00  0.00     0.049 A 
ATOM     59  H   UNL A   1      44.166  28.937  29.808  1.00  0.00     0.167 HD
ATOM     60  C   UNL A   1      45.793  26.654  29.341  1.00  0.00     0.074 A 
ATOM     61  C   UNL A   1      46.209  25.323  28.954  1.00  0.00     0.031 C 
ATOM     62  C   UNL A   1      46.630  27.603  29.826  1.00  0.00     0.031 A 
BRANCH  49  63
ATOM     63  C   UNL A   1      43.898  32.999  31.098  1.00  0.00    -0.014 A 
ATOM     64  C   UNL A   1      44.083  34.043  30.175  1.00  0.00     0.010 A 
ATOM     65  C   UNL A   1      43.824  33.299  32.470  1.00  0.00     0.010 A 
ATOM     66  C   UNL A   1      44.239  35.359  30.620  1.00  0.00     0.020 A 
ATOM     67  C   UNL A   1      43.953  34.617  32.917  1.00  0.00     0.020 A 
ATOM     68  C   UNL A   1      44.182  35.636  31.989  1.00  0.00     0.054 A 
BRANCH  68  69
ATOM     69  S   UNL A   1      44.378  37.352  32.540  1.00  0.00     0.124 S 
ATOM     70  O   UNL A   1      44.139  38.092  31.304  1.00  0.00    -0.237 OA
ATOM     71  O   UNL A   1      43.343  37.485  33.561  1.00  0.00    -0.237 OA
ATOM     72  O   UNL A   1      45.751  37.400  33.040  1.00  0.00    -0.744 OA
ENDBRANCH  68  69
ENDBRANCH  49  63
BRANCH  50  73
ATOM     73  C   UNL A   1      42.507  23.696  27.729  1.00  0.00    -0.014 A 
ATOM     74  C   UNL A   1      42.574  23.463  26.343  1.00  0.00     0.010 A 
ATOM     75  C   UNL A   1      42.271  22.613  28.594  1.00  0.00     0.010 A 
ATOM     76  C   UNL A   1      42.394  22.175  25.832  1.00  0.00     0.020 A 
ATOM     77  C   UNL A   1      42.114  21.319  28.088  1.00  0.00     0.020 A 
ATOM     78  C   UNL A   1      42.166  21.110  26.709  1.00  0.00     0.054 A 
BRANCH  78  79
ATOM     79  S   UNL A   1      41.994  19.437  26.028  1.00  0.00     0.124 S 
ATOM     80  O   UNL A   1      42.832  19.507  24.835  1.00  0.00    -0.237 OA
ATOM     81  O   UNL A   1      42.502  18.599  27.111  1.00  0.00    -0.237 OA
ATOM     82  O   UNL A   1      40.559  19.317  25.780  1.00  0.00    -0.744 OA
ENDBRANCH  78  79
ENDBRANCH  50  73
BRANCH  62  83
ATOM     83  C   UNL A   1      48.072  27.231  30.028  1.00  0.00    -0.014 A 
ATOM     84  C   UNL A   1      49.014  27.388  28.998  1.00  0.00     0.010 A 
ATOM     85  C   UNL A   1      48.505  26.828  31.305  1.00  0.00     0.010 A 
ATOM     86  C   UNL A   1      50.369  27.144  29.242  1.00  0.00     0.020 A 
ATOM     87  C   UNL A   1      49.860  26.601  31.556  1.00  0.00     0.020 A 
ATOM     88  C   UNL A   1      50.784  26.758  30.521  1.00  0.00     0.054 A 
BRANCH  88  89
ATOM     89  S   UNL A   1      52.557  26.541  30.838  1.00  0.00     0.124 S 
ATOM     90  O   UNL A   1      52.890  27.766  31.557  1.00  0.00    -0.237 OA
ATOM     91  O   UNL A   1      52.595  25.315  31.633  1.00  0.00    -0.237 OA
ATOM     92  O   UNL A   1      53.135  26.425  29.500  1.00  0.00    -0.744 OA
ENDBRANCH  88  89
ENDBRANCH  62  83
ENDBRANCH  36  37
ENDBRANCH  28  31
ENDBRANCH  26  27
ENDBRANCH  25  26
ENDBRANCH   1  25
TORSDOF 20
ENDMDL
MODEL 2
REMARK VINA RESULT:     -10.2      1.943      3.043
REMARK SMILES CSCC[C@H](NC(=O)c1nc(C(C)C)n[nH]1)C(=O)NCCCCNC(=O)c1ccc(-c2c3nc(c(-c4ccc(S(=O)(=O)[O-])cc4)c4ccc([nH]4)c(-c4ccc(S(=O)(=O)[O-])cc4)c4nc(c(-c5ccc(S(=O)(=O)[O-])cc5)c5ccc2[nH]5)C=C4)C=C3)cc1
REMARK SMILES IDX 21 1 20 2 19 3 17 4 18 5 5 7 4 8 3 9 2 10 1 11 6 12 7 13
REMARK SMILES IDX 8 15 9 16 10 17 16 18 11 19 15 20 12 22 13 23 14 24 22 25
REMARK SMILES IDX 23 26 24 27 25 28 26 30 27 31 28 32 86 33 29 34 85 35 30 36
REMARK SMILES IDX 31 37 32 38 79 39 33 40 84 41 78 42 80 43 34 44 83 45 77 46
REMARK SMILES IDX 76 47 35 49 65 50 46 51 64 52 47 53 50 54 63 55 81 56 48 57
REMARK SMILES IDX 49 58 62 60 82 61 51 62 36 63 37 64 45 65 38 66 44 67 39 68
REMARK SMILES IDX 40 69 41 70 42 71 43 72 66 73 67 74 75 75 68 76 74 77 69 78
REMARK SMILES IDX 70 79 71 80 72 81 73 82 52 83 53 84 61 85 54 86 60 87 55 88
REMARK SMILES IDX 56 89 57 90 58 91 59 92
REMARK H PARENT 19 6 6 14 16 21 24 29 80 48 50 59
REMARK Flexibility Score: inf
ROOT
ATOM      1  C   UNL A   1      31.404  27.325  26.460  1.00  0.00     0.023 C 
ENDROOT
BRANCH   1   2
ATOM      2  C   UNL A   1      31.688  25.917  25.936  1.00  0.00     0.116 C 
BRANCH   2   3
ATOM      3  N   UNL A   1      30.766  25.517  24.890  1.00  0.00    -0.354 N 
ATOM      4  C   UNL A   1      30.552  25.949  23.618  1.00  0.00     0.242 C 
ATOM      5  O   UNL A   1      29.722  25.302  22.971  1.00  0.00    -0.273 OA
ATOM      6  H   UNL A   1      30.171  24.779  25.155  1.00  0.00     0.163 HD
BRANCH   4   7
ATOM      7  C   UNL A   1      31.314  27.113  22.951  1.00  0.00     0.172 C 
BRANCH   7   8
ATOM      8  C   UNL A   1      30.636  28.487  22.783  1.00  0.00     0.046 C 
BRANCH   8   9
ATOM      9  C   UNL A   1      29.117  28.611  22.730  1.00  0.00     0.072 C 
BRANCH   9  10
ATOM     10  S   UNL A   1      28.491  30.169  22.027  1.00  0.00    -0.165 SA
ATOM     11  C   UNL A   1      28.777  31.297  23.409  1.00  0.00     0.085 C 
ENDBRANCH   9  10
ENDBRANCH   8   9
ENDBRANCH   7   8
BRANCH   7  12
ATOM     12  N   UNL A   1      31.908  26.680  21.677  1.00  0.00    -0.338 N 
ATOM     13  C   UNL A   1      32.654  25.571  21.362  1.00  0.00     0.289 C 
ATOM     14  H   UNL A   1      31.742  27.288  20.921  1.00  0.00     0.164 HD
ATOM     15  O   UNL A   1      32.940  25.425  20.170  1.00  0.00    -0.266 OA
BRANCH  13  16
ATOM     16  C   UNL A   1      33.134  24.647  22.361  1.00  0.00     0.214 A 
ATOM     17  N   UNL A   1      32.640  23.481  22.727  1.00  0.00    -0.207 NA
ATOM     18  N   UNL A   1      34.226  24.910  23.137  1.00  0.00    -0.255 N 
ATOM     19  C   UNL A   1      33.474  23.071  23.736  1.00  0.00     0.153 A 
ATOM     20  N   UNL A   1      34.447  23.940  24.038  1.00  0.00    -0.158 NA
ATOM     21  H   UNL A   1      34.785  25.716  23.046  1.00  0.00     0.192 HD
BRANCH  19  22
ATOM     22  C   UNL A   1      33.260  21.777  24.454  1.00  0.00     0.053 C 
ATOM     23  C   UNL A   1      32.565  20.728  23.584  1.00  0.00     0.016 C 
ATOM     24  C   UNL A   1      34.577  21.229  25.006  1.00  0.00     0.016 C 
ENDBRANCH  19  22
ENDBRANCH  13  16
ENDBRANCH   7  12
ENDBRANCH   4   7
ENDBRANCH   2   3
ENDBRANCH   1   2
BRANCH   1  25
ATOM     25  C   UNL A   1      32.278  27.786  27.631  1.00  0.00     0.023 C 
BRANCH  25  26
ATOM     26  C   UNL A   1      33.566  28.507  27.243  1.00  0.00     0.116 C 
BRANCH  26  27
ATOM     27  N   UNL A   1      33.517  29.929  27.551  1.00  0.00    -0.352 N 
ATOM     28  C   UNL A   1      34.467  30.720  28.152  1.00  0.00     0.251 C 
ATOM     29  H   UNL A   1      32.685  30.389  27.291  1.00  0.00     0.163 HD
ATOM     30  O   UNL A   1      34.183  31.859  28.511  1.00  0.00    -0.269 OA
BRANCH  28  31
ATOM     31  C   UNL A   1      35.825  30.184  28.380  1.00  0.00     0.039 A 
ATOM     32  C   UNL A   1      36.739  30.158  27.323  1.00  0.00     0.014 A 
ATOM     33  C   UNL A   1      36.193  29.719  29.645  1.00  0.00     0.014 A 
ATOM     34  C   UNL A   1      38.052  29.735  27.555  1.00  0.00     0.010 A 
ATOM     35  C   UNL A   1      37.514  29.355  29.886  1.00  0.00     0.010 A 
ATOM     36  C   UNL A   1      38.458  29.365  28.846  1.00  0.00    -0.014 A 
BRANCH  36  37
ATOM     37  C   UNL A   1      39.855  28.968  29.153  1.00  0.00     0.031 A 
ATOM     38  C   UNL A   1      40.814  29.992  29.696  1.00  0.00     0.074 A 
ATOM     39  C   UNL A   1      40.292  27.731  28.842  1.00  0.00     0.049 A 
ATOM     40  N   UNL A   1      42.110  29.913  29.844  1.00  0.00    -0.248 NA
ATOM     41  C   UNL A   1      40.238  31.286  30.097  1.00  0.00     0.031 C 
ATOM     42  C   UNL A   1      39.468  26.651  28.296  1.00  0.00     0.029 A 
ATOM     43  N   UNL A   1      41.549  27.182  28.919  1.00  0.00    -0.354 N 
ATOM     44  C   UNL A   1      42.511  31.157  30.316  1.00  0.00     0.074 A 
ATOM     45  C   UNL A   1      41.324  31.979  30.407  1.00  0.00     0.031 C 
ATOM     46  C   UNL A   1      40.239  25.570  28.090  1.00  0.00     0.029 A 
ATOM     47  C   UNL A   1      41.618  25.893  28.445  1.00  0.00     0.049 A 
ATOM     48  H   UNL A   1      42.326  27.667  29.280  1.00  0.00     0.167 HD
ATOM     49  C   UNL A   1      43.755  31.576  30.650  1.00  0.00     0.031 A 
ATOM     50  C   UNL A   1      42.675  25.071  28.292  1.00  0.00     0.031 A 
ATOM     51  C   UNL A   1      44.928  30.749  30.586  1.00  0.00     0.049 A 
ATOM     52  C   UNL A   1      44.046  25.555  28.676  1.00  0.00     0.074 A 
ATOM     53  C   UNL A   1      46.226  31.068  30.941  1.00  0.00     0.029 A 
ATOM     54  N   UNL A   1      44.944  29.435  30.143  1.00  0.00    -0.354 N 
ATOM     55  N   UNL A   1      44.404  26.727  29.144  1.00  0.00    -0.248 NA
ATOM     56  C   UNL A   1      45.158  24.606  28.516  1.00  0.00     0.031 C 
ATOM     57  C   UNL A   1      47.034  29.955  30.687  1.00  0.00     0.029 A 
ATOM     58  C   UNL A   1      46.229  28.930  30.214  1.00  0.00     0.049 A 
ATOM     59  H   UNL A   1      44.157  28.936  29.826  1.00  0.00     0.167 HD
ATOM     60  C   UNL A   1      45.773  26.644  29.366  1.00  0.00     0.074 A 
ATOM     61  C   UNL A   1      46.183  25.310  28.981  1.00  0.00     0.031 C 
ATOM     62  C   UNL A   1      46.614  27.590  29.850  1.00  0.00     0.031 A 
BRANCH  49  63
ATOM     63  C   UNL A   1      43.906  33.001  31.108  1.00  0.00    -0.014 A 
ATOM     64  C   UNL A   1      44.067  34.047  30.182  1.00  0.00     0.010 A 
ATOM     65  C   UNL A   1      43.864  33.300  32.481  1.00  0.00     0.010 A 
ATOM     66  C   UNL A   1      44.229  35.363  30.624  1.00  0.00     0.020 A 
ATOM     67  C   UNL A   1      44.000  34.618  32.927  1.00  0.00     0.020 A 
ATOM     68  C   UNL A   1      44.203  35.638  31.994  1.00  0.00     0.054 A 
BRANCH  68  69
ATOM     69  S   UNL A   1      44.407  37.355  32.542  1.00  0.00     0.124 S 
ATOM     70  O   UNL A   1      45.705  37.302  33.212  1.00  0.00    -0.237 OA
ATOM     71  O   UNL A   1      44.380  38.101  31.288  1.00  0.00    -0.237 OA
ATOM     72  O   UNL A   1      43.261  37.577  33.421  1.00  0.00    -0.744 OA
ENDBRANCH  68  69
ENDBRANCH  49  63
BRANCH  50  73
ATOM     73  C   UNL A   1      42.475  23.699  27.754  1.00  0.00    -0.014 A 
ATOM     74  C   UNL A   1      42.577  23.457  26.373  1.00  0.00     0.010 A 
ATOM     75  C   UNL A   1      42.198  22.625  28.619  1.00  0.00     0.010 A 
ATOM     76  C   UNL A   1      42.392  22.168  25.864  1.00  0.00     0.020 A 
ATOM     77  C   UNL A   1      42.035  21.330  28.116  1.00  0.00     0.020 A 
ATOM     78  C   UNL A   1      42.123  21.113  26.739  1.00  0.00     0.054 A 
BRANCH  78  79
ATOM     79  S   UNL A   1      41.944  19.438  26.063  1.00  0.00     0.124 S 
ATOM     80  O   UNL A   1      42.881  19.462  24.944  1.00  0.00    -0.237 OA
ATOM     81  O   UNL A   1      42.327  18.596  27.194  1.00  0.00    -0.237 OA
ATOM     82  O   UNL A   1      40.531  19.369  25.697  1.00  0.00    -0.744 OA
ENDBRANCH  78  79
ENDBRANCH  50  73
BRANCH  62  83
ATOM     83  C   UNL A   1      48.054  27.211  30.054  1.00  0.00    -0.014 A 
ATOM     84  C   UNL A   1      49.018  27.453  29.061  1.00  0.00     0.010 A 
ATOM     85  C   UNL A   1      48.461  26.712  31.305  1.00  0.00     0.010 A 
ATOM     86  C   UNL A   1      50.368  27.199  29.315  1.00  0.00     0.020 A 
ATOM     87  C   UNL A   1      49.812  26.473  31.568  1.00  0.00     0.020 A 
ATOM     88  C   UNL A   1      50.758  26.716  30.569  1.00  0.00     0.054 A 
BRANCH  88  89
ATOM     89  S   UNL A   1      52.525  26.484  30.908  1.00  0.00     0.124 S 
ATOM     90  O   UNL A   1      53.081  26.375  29.562  1.00  0.00    -0.237 OA
ATOM     91  O   UNL A   1      52.877  27.701  31.636  1.00  0.00    -0.237 OA
ATOM     92  O   UNL A   1      52.567  25.257  31.702  1.00  0.00    -0.744 OA
ENDBRANCH  88  89
ENDBRANCH  62  83
ENDBRANCH  36  37
ENDBRANCH  28  31
ENDBRANCH  26  27
ENDBRANCH  25  26
ENDBRANCH   1  25
TORSDOF 20
ENDMDL
MODEL 3
REMARK VINA RESULT:      -9.8      2.910      4.171
REMARK SMILES CSCC[C@H](NC(=O)c1nc(C(C)C)n[nH]1)C(=O)NCCCCNC(=O)c1ccc(-c2c3nc(c(-c4ccc(S(=O)(=O)[O-])cc4)c4ccc([nH]4)c(-c4ccc(S(=O)(=O)[O-])cc4)c4nc(c(-c5ccc(S(=O)(=O)[O-])cc5)c5ccc2[nH]5)C=C4)C=C3)cc1
REMARK SMILES IDX 21 1 20 2 19 3 17 4 18 5 5 7 4 8 3 9 2 10 1 11 6 12 7 13
REMARK SMILES IDX 8 15 9 16 10 17 16 18 11 19 15 20 12 22 13 23 14 24 22 25
REMARK SMILES IDX 23 26 24 27 25 28 26 30 27 31 28 32 86 33 29 34 85 35 30 36
REMARK SMILES IDX 31 37 32 38 79 39 33 40 84 41 78 42 80 43 34 44 83 45 77 46
REMARK SMILES IDX 76 47 35 49 65 50 46 51 64 52 47 53 50 54 63 55 81 56 48 57
REMARK SMILES IDX 49 58 62 60 82 61 51 62 36 63 37 64 45 65 38 66 44 67 39 68
REMARK SMILES IDX 40 69 41 70 42 71 43 72 66 73 67 74 75 75 68 76 74 77 69 78
REMARK SMILES IDX 70 79 71 80 72 81 73 82 52 83 53 84 61 85 54 86 60 87 55 88
REMARK SMILES IDX 56 89 57 90 58 91 59 92
REMARK H PARENT 19 6 6 14 16 21 24 29 80 48 50 59
REMARK Flexibility Score: inf
ROOT
ATOM      1  C   UNL A   1      34.361  28.255  25.961  1.00  0.00     0.023 C 
ENDROOT
BRANCH   1   2
ATOM      2  C   UNL A   1      34.061  26.756  25.925  1.00  0.00     0.116 C 
BRANCH   2   3
ATOM      3  N   UNL A   1      32.744  26.441  26.446  1.00  0.00    -0.354 N 
ATOM      4  C   UNL A   1      31.502  26.413  25.892  1.00  0.00     0.242 C 
ATOM      5  O   UNL A   1      30.601  26.003  26.631  1.00  0.00    -0.273 OA
ATOM      6  H   UNL A   1      32.751  26.194  27.398  1.00  0.00     0.163 HD
BRANCH   4   7
ATOM      7  C   UNL A   1      31.191  26.786  24.428  1.00  0.00     0.172 C 
BRANCH   7   8
ATOM      8  C   UNL A   1      30.643  28.185  24.083  1.00  0.00     0.046 C 
BRANCH   8   9
ATOM      9  C   UNL A   1      29.514  28.356  23.073  1.00  0.00     0.072 C 
BRANCH   9  10
ATOM     10  S   UNL A   1      29.600  29.871  22.066  1.00  0.00    -0.165 SA
ATOM     11  C   UNL A   1      28.444  30.932  22.961  1.00  0.00     0.085 C 
ENDBRANCH   9  10
ENDBRANCH   8   9
ENDBRANCH   7   8
BRANCH   7  12
ATOM     12  N   UNL A   1      30.366  25.746  23.793  1.00  0.00    -0.338 N 
ATOM     13  C   UNL A   1      30.702  24.517  23.283  1.00  0.00     0.289 C 
ATOM     14  H   UNL A   1      29.409  25.969  23.723  1.00  0.00     0.164 HD
ATOM     15  O   UNL A   1      29.765  23.812  22.892  1.00  0.00    -0.266 OA
BRANCH  13  16
ATOM     16  C   UNL A   1      32.069  24.077  23.150  1.00  0.00     0.214 A 
ATOM     17  N   UNL A   1      32.871  23.555  24.056  1.00  0.00    -0.207 NA
ATOM     18  N   UNL A   1      32.765  24.193  21.981  1.00  0.00    -0.255 N 
ATOM     19  C   UNL A   1      34.053  23.370  23.385  1.00  0.00     0.153 A 
ATOM     20  N   UNL A   1      34.036  23.780  22.110  1.00  0.00    -0.158 NA
ATOM     21  H   UNL A   1      32.381  24.541  21.144  1.00  0.00     0.192 HD
BRANCH  19  22
ATOM     22  C   UNL A   1      35.258  22.799  24.061  1.00  0.00     0.053 C 
ATOM     23  C   UNL A   1      36.539  22.996  23.247  1.00  0.00     0.016 C 
ATOM     24  C   UNL A   1      35.425  23.372  25.468  1.00  0.00     0.016 C 
ENDBRANCH  19  22
ENDBRANCH  13  16
ENDBRANCH   7  12
ENDBRANCH   4   7
ENDBRANCH   2   3
ENDBRANCH   1   2
BRANCH   1  25
ATOM     25  C   UNL A   1      34.318  28.907  27.347  1.00  0.00     0.023 C 
BRANCH  25  26
ATOM     26  C   UNL A   1      35.557  29.711  27.732  1.00  0.00     0.116 C 
BRANCH  26  27
ATOM     27  N   UNL A   1      35.373  30.448  28.973  1.00  0.00    -0.352 N 
ATOM     28  C   UNL A   1      36.282  30.705  29.972  1.00  0.00     0.251 C 
ATOM     29  H   UNL A   1      34.470  30.814  29.118  1.00  0.00     0.163 HD
ATOM     30  O   UNL A   1      35.905  31.175  31.041  1.00  0.00    -0.269 OA
BRANCH  28  31
ATOM     31  C   UNL A   1      37.710  30.394  29.756  1.00  0.00     0.039 A 
ATOM     32  C   UNL A   1      38.496  29.991  30.839  1.00  0.00     0.014 A 
ATOM     33  C   UNL A   1      38.266  30.492  28.478  1.00  0.00     0.014 A 
ATOM     34  C   UNL A   1      39.824  29.609  30.626  1.00  0.00     0.010 A 
ATOM     35  C   UNL A   1      39.568  30.057  28.260  1.00  0.00     0.010 A 
ATOM     36  C   UNL A   1      40.359  29.605  29.329  1.00  0.00    -0.014 A 
BRANCH  36  37
ATOM     37  C   UNL A   1      41.744  29.152  29.046  1.00  0.00     0.031 A 
ATOM     38  C   UNL A   1      42.866  30.153  29.044  1.00  0.00     0.074 A 
ATOM     39  C   UNL A   1      41.978  27.874  28.683  1.00  0.00     0.049 A 
ATOM     40  N   UNL A   1      44.099  30.012  28.633  1.00  0.00    -0.248 NA
ATOM     41  C   UNL A   1      42.546  31.502  29.542  1.00  0.00     0.031 C 
ATOM     42  C   UNL A   1      40.975  26.809  28.630  1.00  0.00     0.029 A 
ATOM     43  N   UNL A   1      43.134  27.262  28.264  1.00  0.00    -0.354 N 
ATOM     44  C   UNL A   1      44.691  31.260  28.785  1.00  0.00     0.074 A 
ATOM     45  C   UNL A   1      43.676  32.152  29.303  1.00  0.00     0.031 C 
ATOM     46  C   UNL A   1      41.559  25.675  28.208  1.00  0.00     0.029 A 
ATOM     47  C   UNL A   1      42.965  25.943  27.915  1.00  0.00     0.049 A 
ATOM     48  H   UNL A   1      44.002  27.726  28.219  1.00  0.00     0.167 HD
ATOM     49  C   UNL A   1      45.967  31.630  28.523  1.00  0.00     0.031 A 
ATOM     50  C   UNL A   1      43.836  25.055  27.396  1.00  0.00     0.031 A 
ATOM     51  C   UNL A   1      46.981  30.736  28.036  1.00  0.00     0.049 A 
ATOM     52  C   UNL A   1      45.251  25.485  27.120  1.00  0.00     0.074 A 
ATOM     53  C   UNL A   1      48.313  31.004  27.779  1.00  0.00     0.029 A 
ATOM     54  N   UNL A   1      46.777  29.397  27.739  1.00  0.00    -0.354 N 
ATOM     55  N   UNL A   1      45.800  26.664  27.293  1.00  0.00    -0.248 NA
ATOM     56  C   UNL A   1      46.165  24.467  26.583  1.00  0.00     0.031 C 
ATOM     57  C   UNL A   1      48.910  29.833  27.299  1.00  0.00     0.029 A 
ATOM     58  C   UNL A   1      47.957  28.826  27.300  1.00  0.00     0.049 A 
ATOM     59  H   UNL A   1      45.918  28.923  27.829  1.00  0.00     0.167 HD
ATOM     60  C   UNL A   1      47.130  26.519  26.918  1.00  0.00     0.074 A 
ATOM     61  C   UNL A   1      47.306  25.142  26.509  1.00  0.00     0.031 C 
ATOM     62  C   UNL A   1      48.119  27.446  26.920  1.00  0.00     0.031 A 
BRANCH  49  63
ATOM     63  C   UNL A   1      46.332  33.071  28.753  1.00  0.00    -0.014 A 
ATOM     64  C   UNL A   1      46.197  34.025  27.730  1.00  0.00     0.010 A 
ATOM     65  C   UNL A   1      46.794  33.479  30.017  1.00  0.00     0.010 A 
ATOM     66  C   UNL A   1      46.562  35.356  27.952  1.00  0.00     0.020 A 
ATOM     67  C   UNL A   1      47.136  34.815  30.252  1.00  0.00     0.020 A 
ATOM     68  C   UNL A   1      47.037  35.740  29.209  1.00  0.00     0.054 A 
BRANCH  68  69
ATOM     69  S   UNL A   1      47.496  37.474  29.476  1.00  0.00     0.124 S 
ATOM     70  O   UNL A   1      47.816  37.483  30.901  1.00  0.00    -0.237 OA
ATOM     71  O   UNL A   1      48.633  37.650  28.577  1.00  0.00    -0.237 OA
ATOM     72  O   UNL A   1      46.291  38.213  29.103  1.00  0.00    -0.744 OA
ENDBRANCH  68  69
ENDBRANCH  49  63
BRANCH  50  73
ATOM     73  C   UNL A   1      43.394  23.664  27.111  1.00  0.00    -0.014 A 
ATOM     74  C   UNL A   1      43.127  22.774  28.166  1.00  0.00     0.010 A 
ATOM     75  C   UNL A   1      43.222  23.225  25.785  1.00  0.00     0.010 A 
ATOM     76  C   UNL A   1      42.708  21.467  27.902  1.00  0.00     0.020 A 
ATOM     77  C   UNL A   1      42.781  21.926  25.518  1.00  0.00     0.020 A 
ATOM     78  C   UNL A   1      42.538  21.051  26.579  1.00  0.00     0.054 A 
BRANCH  78  79
ATOM     79  S   UNL A   1      41.937  19.368  26.260  1.00  0.00     0.124 S 
ATOM     80  O   UNL A   1      42.437  18.643  27.424  1.00  0.00    -0.237 OA
ATOM     81  O   UNL A   1      40.490  19.553  26.201  1.00  0.00    -0.237 OA
ATOM     82  O   UNL A   1      42.565  19.020  24.987  1.00  0.00    -0.744 OA
ENDBRANCH  78  79
ENDBRANCH  50  73
BRANCH  62  83
ATOM     83  C   UNL A   1      49.499  27.002  26.524  1.00  0.00    -0.014 A 
ATOM     84  C   UNL A   1      50.411  26.524  27.479  1.00  0.00     0.010 A 
ATOM     85  C   UNL A   1      49.841  26.958  25.160  1.00  0.00     0.010 A 
ATOM     86  C   UNL A   1      51.647  26.010  27.076  1.00  0.00     0.020 A 
ATOM     87  C   UNL A   1      51.068  26.428  24.752  1.00  0.00     0.020 A 
ATOM     88  C   UNL A   1      51.965  25.960  25.715  1.00  0.00     0.054 A 
BRANCH  88  89
ATOM     89  S   UNL A   1      53.533  25.201  25.209  1.00  0.00     0.124 S 
ATOM     90  O   UNL A   1      54.454  25.702  26.224  1.00  0.00    -0.237 OA
ATOM     91  O   UNL A   1      53.238  23.771  25.279  1.00  0.00    -0.237 OA
ATOM     92  O   UNL A   1      53.748  25.719  23.859  1.00  0.00    -0.744 OA
ENDBRANCH  88  89
ENDBRANCH  62  83
ENDBRANCH  36  37
ENDBRANCH  28  31
ENDBRANCH  26  27
ENDBRANCH  25  26
ENDBRANCH   1  25
TORSDOF 20
ENDMDL
