MODEL 1
REMARK VINA RESULT:     -10.4      0.000      0.000
REMARK SMILES COC[C@@H](C)CC(=O)N1CC(CC(=O)NCCCCNC(=O)c2ccc(-c3c4nc(c(-c5ccc(S(=O)(=O)[O-])cc5)c5ccc([nH]5)c(-c5ccc(S(=O)(=O)[O-])cc5)c5nc(c(-c6ccc(S(=O)(=O)[O-])cc6)c6ccc3[nH]6)C=C5)C=C4)cc2)C1
REMARK SMILES IDX 16 1 15 2 13 3 14 4 12 6 11 7 7 8 8 9 9 10 10 11 83 12 6 13
REMARK SMILES IDX 4 14 5 15 3 16 2 17 1 18 17 19 18 20 19 21 20 22 21 23 22 25
REMARK SMILES IDX 23 26 24 27 82 28 25 29 81 30 26 31 27 32 28 33 75 34 29 35
REMARK SMILES IDX 80 36 74 37 76 38 30 39 79 40 73 41 72 42 31 44 61 45 42 46
REMARK SMILES IDX 60 47 43 48 46 49 59 50 77 51 44 52 45 53 58 55 78 56 47 57
REMARK SMILES IDX 32 58 33 59 41 60 34 61 40 62 35 63 36 64 37 65 38 66 39 67
REMARK SMILES IDX 62 68 63 69 71 70 64 71 70 72 65 73 66 74 67 75 68 76 69 77
REMARK SMILES IDX 48 78 49 79 57 80 50 81 56 82 51 83 52 84 53 85 54 86 55 87
REMARK H PARENT 15 5 20 24 76 43 46 54
REMARK Flexibility Score: inf
ROOT
ATOM      1  C   UNL A   1      36.079  21.223  25.252  1.00  0.00     0.116 C 
ENDROOT
BRANCH   1   2
ATOM      2  N   UNL A   1      35.407  21.501  26.507  1.00  0.00    -0.356 N 
ATOM      3  C   UNL A   1      34.086  21.691  26.780  1.00  0.00     0.220 C 
ATOM      4  O   UNL A   1      33.768  22.004  27.929  1.00  0.00    -0.275 OA
ATOM      5  H   UNL A   1      36.002  21.563  27.288  1.00  0.00     0.163 HD
BRANCH   3   6
ATOM      6  C   UNL A   1      33.025  21.558  25.701  1.00  0.00     0.107 C 
BRANCH   6   7
ATOM      7  C   UNL A   1      32.207  22.834  25.516  1.00  0.00     0.037 C 
ATOM      8  C   UNL A   1      31.779  25.522  23.540  1.00  0.00     0.222 C 
ATOM      9  O   UNL A   1      30.602  25.811  23.333  1.00  0.00    -0.275 OA
ATOM     10  N   UNL A   1      32.159  24.309  24.052  1.00  0.00    -0.342 N 
ATOM     11  C   UNL A   1      31.415  23.070  24.217  1.00  0.00     0.125 C 
ATOM     12  C   UNL A   1      33.052  24.053  25.152  1.00  0.00     0.125 C 
BRANCH   8  13
ATOM     13  C   UNL A   1      32.919  26.417  23.045  1.00  0.00     0.106 C 
BRANCH  13  14
ATOM     14  C   UNL A   1      32.925  27.912  23.425  1.00  0.00     0.021 C 
ATOM     15  C   UNL A   1      34.190  28.576  22.852  1.00  0.00     0.010 C 
BRANCH  14  16
ATOM     16  C   UNL A   1      32.932  28.110  24.948  1.00  0.00     0.163 C 
BRANCH  16  17
ATOM     17  O   UNL A   1      33.503  29.360  25.324  1.00  0.00    -0.384 OA
ATOM     18  C   UNL A   1      33.122  29.781  26.630  1.00  0.00     0.194 C 
ENDBRANCH  16  17
ENDBRANCH  14  16
ENDBRANCH  13  14
ENDBRANCH   8  13
ENDBRANCH   6   7
ENDBRANCH   3   6
ENDBRANCH   1   2
BRANCH   1  19
ATOM     19  C   UNL A   1      37.354  22.052  25.109  1.00  0.00     0.023 C 
BRANCH  19  20
ATOM     20  C   UNL A   1      37.206  23.551  25.317  1.00  0.00     0.023 C 
BRANCH  20  21
ATOM     21  C   UNL A   1      38.103  24.129  26.400  1.00  0.00     0.116 C 
BRANCH  21  22
ATOM     22  N   UNL A   1      39.525  23.901  26.165  1.00  0.00    -0.352 N 
ATOM     23  C   UNL A   1      40.597  24.660  26.585  1.00  0.00     0.251 C 
ATOM     24  H   UNL A   1      39.749  23.100  25.639  1.00  0.00     0.163 HD
ATOM     25  O   UNL A   1      41.729  24.411  26.196  1.00  0.00    -0.269 OA
BRANCH  23  26
ATOM     26  C   UNL A   1      40.337  25.807  27.479  1.00  0.00     0.039 A 
ATOM     27  C   UNL A   1      39.534  25.635  28.610  1.00  0.00     0.014 A 
ATOM     28  C   UNL A   1      40.984  27.020  27.242  1.00  0.00     0.014 A 
ATOM     29  C   UNL A   1      39.462  26.655  29.560  1.00  0.00     0.010 A 
ATOM     30  C   UNL A   1      40.990  27.990  28.233  1.00  0.00     0.010 A 
ATOM     31  C   UNL A   1      40.233  27.818  29.403  1.00  0.00    -0.014 A 
BRANCH  31  32
ATOM     32  C   UNL A   1      40.271  28.903  30.416  1.00  0.00     0.031 A 
ATOM     33  C   UNL A   1      41.220  28.775  31.577  1.00  0.00     0.074 A 
ATOM     34  C   UNL A   1      39.376  29.910  30.376  1.00  0.00     0.049 A 
ATOM     35  N   UNL A   1      41.244  29.437  32.703  1.00  0.00    -0.248 NA
ATOM     36  C   UNL A   1      42.242  27.720  31.476  1.00  0.00     0.031 C 
ATOM     37  C   UNL A   1      38.382  30.132  29.323  1.00  0.00     0.029 A 
ATOM     38  N   UNL A   1      39.141  30.926  31.270  1.00  0.00    -0.354 N 
ATOM     39  C   UNL A   1      42.240  28.839  33.466  1.00  0.00     0.074 A 
ATOM     40  C   UNL A   1      42.771  27.741  32.689  1.00  0.00     0.031 C 
ATOM     41  C   UNL A   1      37.657  31.222  29.624  1.00  0.00     0.029 A 
ATOM     42  C   UNL A   1      38.095  31.745  30.913  1.00  0.00     0.049 A 
ATOM     43  H   UNL A   1      39.671  31.055  32.090  1.00  0.00     0.167 HD
ATOM     44  C   UNL A   1      42.680  29.181  34.700  1.00  0.00     0.031 A 
ATOM     45  C   UNL A   1      37.539  32.787  31.563  1.00  0.00     0.031 A 
ATOM     46  C   UNL A   1      42.188  30.309  35.439  1.00  0.00     0.049 A 
ATOM     47  C   UNL A   1      38.079  33.180  32.912  1.00  0.00     0.074 A 
ATOM     48  C   UNL A   1      42.611  30.783  36.668  1.00  0.00     0.029 A 
ATOM     49  N   UNL A   1      41.178  31.154  35.006  1.00  0.00    -0.354 N 
ATOM     50  N   UNL A   1      39.034  32.617  33.611  1.00  0.00    -0.248 NA
ATOM     51  C   UNL A   1      37.467  34.351  33.558  1.00  0.00     0.031 C 
ATOM     52  C   UNL A   1      41.840  31.904  36.989  1.00  0.00     0.029 A 
ATOM     53  C   UNL A   1      40.965  32.149  35.942  1.00  0.00     0.049 A 
ATOM     54  H   UNL A   1      40.686  31.059  34.158  1.00  0.00     0.167 HD
ATOM     55  C   UNL A   1      39.160  33.382  34.765  1.00  0.00     0.074 A 
ATOM     56  C   UNL A   1      38.186  34.449  34.669  1.00  0.00     0.031 C 
ATOM     57  C   UNL A   1      40.006  33.217  35.811  1.00  0.00     0.031 A 
BRANCH  44  58
ATOM     58  C   UNL A   1      43.749  28.320  35.314  1.00  0.00    -0.014 A 
ATOM     59  C   UNL A   1      45.112  28.561  35.062  1.00  0.00     0.010 A 
ATOM     60  C   UNL A   1      43.387  27.261  36.167  1.00  0.00     0.010 A 
ATOM     61  C   UNL A   1      46.090  27.726  35.604  1.00  0.00     0.020 A 
ATOM     62  C   UNL A   1      44.365  26.440  36.735  1.00  0.00     0.020 A 
ATOM     63  C   UNL A   1      45.710  26.666  36.432  1.00  0.00     0.054 A 
BRANCH  63  64
ATOM     64  S   UNL A   1      47.000  25.597  37.128  1.00  0.00     0.124 S 
ATOM     65  O   UNL A   1      48.109  25.829  36.206  1.00  0.00    -0.237 OA
ATOM     66  O   UNL A   1      47.177  26.140  38.472  1.00  0.00    -0.237 OA
ATOM     67  O   UNL A   1      46.409  24.262  37.071  1.00  0.00    -0.744 OA
ENDBRANCH  63  64
ENDBRANCH  44  58
BRANCH  45  68
ATOM     68  C   UNL A   1      36.419  33.542  30.941  1.00  0.00    -0.014 A 
ATOM     69  C   UNL A   1      35.315  33.932  31.719  1.00  0.00     0.010 A 
ATOM     70  C   UNL A   1      36.451  33.884  29.577  1.00  0.00     0.010 A 
ATOM     71  C   UNL A   1      34.254  34.637  31.143  1.00  0.00     0.020 A 
ATOM     72  C   UNL A   1      35.401  34.610  29.002  1.00  0.00     0.020 A 
ATOM     73  C   UNL A   1      34.304  34.971  29.787  1.00  0.00     0.054 A 
BRANCH  73  74
ATOM     74  S   UNL A   1      32.940  35.930  29.070  1.00  0.00     0.124 S 
ATOM     75  O   UNL A   1      32.359  34.973  28.133  1.00  0.00    -0.237 OA
ATOM     76  O   UNL A   1      32.124  36.244  30.240  1.00  0.00    -0.237 OA
ATOM     77  O   UNL A   1      33.611  37.076  28.463  1.00  0.00    -0.744 OA
ENDBRANCH  73  74
ENDBRANCH  45  68
BRANCH  57  78
ATOM     78  C   UNL A   1      39.964  34.237  36.912  1.00  0.00    -0.014 A 
ATOM     79  C   UNL A   1      40.783  35.377  36.878  1.00  0.00     0.010 A 
ATOM     80  C   UNL A   1      39.013  34.099  37.940  1.00  0.00     0.010 A 
ATOM     81  C   UNL A   1      40.656  36.362  37.860  1.00  0.00     0.020 A 
ATOM     82  C   UNL A   1      38.870  35.091  38.911  1.00  0.00     0.020 A 
ATOM     83  C   UNL A   1      39.696  36.215  38.868  1.00  0.00     0.054 A 
BRANCH  83  84
ATOM     84  S   UNL A   1      39.489  37.549  40.080  1.00  0.00     0.124 S 
ATOM     85  O   UNL A   1      39.127  36.809  41.286  1.00  0.00    -0.237 OA
ATOM     86  O   UNL A   1      40.809  38.174  40.100  1.00  0.00    -0.237 OA
ATOM     87  O   UNL A   1      38.426  38.371  39.510  1.00  0.00    -0.744 OA
ENDBRANCH  83  84
ENDBRANCH  57  78
ENDBRANCH  31  32
ENDBRANCH  23  26
ENDBRANCH  21  22
ENDBRANCH  20  21
ENDBRANCH  19  20
ENDBRANCH   1  19
TORSDOF 19
ENDMDL
MODEL 2
REMARK VINA RESULT:     -10.1      3.246      3.962
REMARK SMILES COC[C@@H](C)CC(=O)N1CC(CC(=O)NCCCCNC(=O)c2ccc(-c3c4nc(c(-c5ccc(S(=O)(=O)[O-])cc5)c5ccc([nH]5)c(-c5ccc(S(=O)(=O)[O-])cc5)c5nc(c(-c6ccc(S(=O)(=O)[O-])cc6)c6ccc3[nH]6)C=C5)C=C4)cc2)C1
REMARK SMILES IDX 16 1 15 2 13 3 14 4 12 6 11 7 7 8 8 9 9 10 10 11 83 12 6 13
REMARK SMILES IDX 4 14 5 15 3 16 2 17 1 18 17 19 18 20 19 21 20 22 21 23 22 25
REMARK SMILES IDX 23 26 24 27 82 28 25 29 81 30 26 31 27 32 28 33 75 34 29 35
REMARK SMILES IDX 80 36 74 37 76 38 30 39 79 40 73 41 72 42 31 44 61 45 42 46
REMARK SMILES IDX 60 47 43 48 46 49 59 50 77 51 44 52 45 53 58 55 78 56 47 57
REMARK SMILES IDX 32 58 33 59 41 60 34 61 40 62 35 63 36 64 37 65 38 66 39 67
REMARK SMILES IDX 62 68 63 69 71 70 64 71 70 72 65 73 66 74 67 75 68 76 69 77
REMARK SMILES IDX 48 78 49 79 57 80 50 81 56 82 51 83 52 84 53 85 54 86 55 87
REMARK H PARENT 15 5 20 24 76 43 46 54
REMARK Flexibility Score: inf
ROOT
ATOM      1  C   UNL A   1      34.162  20.684  25.303  1.00  0.00     0.116 C 
ENDROOT
BRANCH   1   2
ATOM      2  N   UNL A   1      33.604  21.584  26.295  1.00  0.00    -0.356 N 
ATOM      3  C   UNL A   1      32.525  22.413  26.230  1.00  0.00     0.220 C 
ATOM      4  O   UNL A   1      32.300  23.153  27.190  1.00  0.00    -0.275 OA
ATOM      5  H   UNL A   1      34.082  21.596  27.155  1.00  0.00     0.163 HD
BRANCH   3   6
ATOM      6  C   UNL A   1      31.633  22.461  25.001  1.00  0.00     0.107 C 
BRANCH   6   7
ATOM      7  C   UNL A   1      32.170  23.395  23.919  1.00  0.00     0.037 C 
ATOM      8  C   UNL A   1      31.962  26.514  22.678  1.00  0.00     0.222 C 
ATOM      9  O   UNL A   1      33.047  27.009  22.378  1.00  0.00    -0.275 OA
ATOM     10  N   UNL A   1      31.855  25.400  23.468  1.00  0.00    -0.342 N 
ATOM     11  C   UNL A   1      32.839  24.728  24.303  1.00  0.00     0.125 C 
ATOM     12  C   UNL A   1      31.083  24.210  23.221  1.00  0.00     0.125 C 
BRANCH   8  13
ATOM     13  C   UNL A   1      30.645  27.229  22.362  1.00  0.00     0.106 C 
BRANCH  13  14
ATOM     14  C   UNL A   1      29.961  28.073  23.457  1.00  0.00     0.021 C 
ATOM     15  C   UNL A   1      28.836  28.911  22.825  1.00  0.00     0.010 C 
BRANCH  14  16
ATOM     16  C   UNL A   1      30.950  29.037  24.130  1.00  0.00     0.163 C 
BRANCH  16  17
ATOM     17  O   UNL A   1      31.433  28.532  25.371  1.00  0.00    -0.384 OA
ATOM     18  C   UNL A   1      31.893  29.551  26.253  1.00  0.00     0.194 C 
ENDBRANCH  16  17
ENDBRANCH  14  16
ENDBRANCH  13  14
ENDBRANCH   8  13
ENDBRANCH   6   7
ENDBRANCH   3   6
ENDBRANCH   1   2
BRANCH   1  19
ATOM     19  C   UNL A   1      35.591  21.080  24.937  1.00  0.00     0.023 C 
BRANCH  19  20
ATOM     20  C   UNL A   1      35.831  22.558  24.668  1.00  0.00     0.023 C 
BRANCH  20  21
ATOM     21  C   UNL A   1      36.836  23.214  25.600  1.00  0.00     0.116 C 
BRANCH  21  22
ATOM     22  N   UNL A   1      37.982  22.366  25.913  1.00  0.00    -0.352 N 
ATOM     23  C   UNL A   1      39.181  22.723  26.495  1.00  0.00     0.251 C 
ATOM     24  H   UNL A   1      37.888  21.414  25.681  1.00  0.00     0.163 HD
ATOM     25  O   UNL A   1      40.100  21.921  26.574  1.00  0.00    -0.269 OA
BRANCH  23  26
ATOM     26  C   UNL A   1      39.340  24.111  26.977  1.00  0.00     0.039 A 
ATOM     27  C   UNL A   1      38.948  24.440  28.277  1.00  0.00     0.014 A 
ATOM     28  C   UNL A   1      39.979  25.049  26.166  1.00  0.00     0.014 A 
ATOM     29  C   UNL A   1      39.291  25.689  28.799  1.00  0.00     0.010 A 
ATOM     30  C   UNL A   1      40.404  26.247  26.719  1.00  0.00     0.010 A 
ATOM     31  C   UNL A   1      40.068  26.579  28.042  1.00  0.00    -0.014 A 
BRANCH  31  32
ATOM     32  C   UNL A   1      40.541  27.885  28.566  1.00  0.00     0.031 A 
ATOM     33  C   UNL A   1      41.941  27.982  29.108  1.00  0.00     0.074 A 
ATOM     34  C   UNL A   1      39.691  28.923  28.689  1.00  0.00     0.049 A 
ATOM     35  N   UNL A   1      42.480  28.913  29.850  1.00  0.00    -0.248 NA
ATOM     36  C   UNL A   1      42.837  26.848  28.821  1.00  0.00     0.031 C 
ATOM     37  C   UNL A   1      38.298  28.949  28.233  1.00  0.00     0.029 A 
ATOM     38  N   UNL A   1      39.871  30.156  29.266  1.00  0.00    -0.354 N 
ATOM     39  C   UNL A   1      43.750  28.449  30.168  1.00  0.00     0.074 A 
ATOM     40  C   UNL A   1      43.889  27.141  29.567  1.00  0.00     0.031 C 
ATOM     41  C   UNL A   1      37.758  30.143  28.534  1.00  0.00     0.029 A 
ATOM     42  C   UNL A   1      38.744  30.945  29.250  1.00  0.00     0.049 A 
ATOM     43  H   UNL A   1      40.727  30.449  29.656  1.00  0.00     0.167 HD
ATOM     44  C   UNL A   1      44.720  29.063  30.886  1.00  0.00     0.031 A 
ATOM     45  C   UNL A   1      38.524  32.168  29.772  1.00  0.00     0.031 A 
ATOM     46  C   UNL A   1      44.595  30.386  31.428  1.00  0.00     0.049 A 
ATOM     47  C   UNL A   1      39.634  32.853  30.524  1.00  0.00     0.074 A 
ATOM     48  C   UNL A   1      45.540  31.128  32.115  1.00  0.00     0.029 A 
ATOM     49  N   UNL A   1      43.460  31.176  31.324  1.00  0.00    -0.354 N 
ATOM     50  N   UNL A   1      40.836  32.409  30.798  1.00  0.00    -0.248 NA
ATOM     51  C   UNL A   1      39.357  34.203  31.034  1.00  0.00     0.031 C 
ATOM     52  C   UNL A   1      44.968  32.360  32.446  1.00  0.00     0.029 A 
ATOM     53  C   UNL A   1      43.681  32.399  31.931  1.00  0.00     0.049 A 
ATOM     54  H   UNL A   1      42.622  30.906  30.883  1.00  0.00     0.167 HD
ATOM     55  C   UNL A   1      41.471  33.437  31.486  1.00  0.00     0.074 A 
ATOM     56  C   UNL A   1      40.521  34.526  31.584  1.00  0.00     0.031 C 
ATOM     57  C   UNL A   1      42.728  33.477  31.992  1.00  0.00     0.031 A 
BRANCH  44  58
ATOM     58  C   UNL A   1      45.995  28.301  31.118  1.00  0.00    -0.014 A 
ATOM     59  C   UNL A   1      46.217  27.602  32.318  1.00  0.00     0.010 A 
ATOM     60  C   UNL A   1      46.983  28.273  30.116  1.00  0.00     0.010 A 
ATOM     61  C   UNL A   1      47.425  26.937  32.536  1.00  0.00     0.020 A 
ATOM     62  C   UNL A   1      48.181  27.583  30.319  1.00  0.00     0.020 A 
ATOM     63  C   UNL A   1      48.403  26.937  31.537  1.00  0.00     0.054 A 
BRANCH  63  64
ATOM     64  S   UNL A   1      49.962  26.062  31.842  1.00  0.00     0.124 S 
ATOM     65  O   UNL A   1      49.585  25.146  32.916  1.00  0.00    -0.237 OA
ATOM     66  O   UNL A   1      50.237  25.436  30.551  1.00  0.00    -0.237 OA
ATOM     67  O   UNL A   1      50.886  27.126  32.225  1.00  0.00    -0.744 OA
ENDBRANCH  63  64
ENDBRANCH  44  58
BRANCH  45  68
ATOM     68  C   UNL A   1      37.205  32.831  29.588  1.00  0.00    -0.014 A 
ATOM     69  C   UNL A   1      36.261  32.822  30.630  1.00  0.00     0.010 A 
ATOM     70  C   UNL A   1      36.889  33.483  28.383  1.00  0.00     0.010 A 
ATOM     71  C   UNL A   1      35.017  33.438  30.466  1.00  0.00     0.020 A 
ATOM     72  C   UNL A   1      35.653  34.120  28.223  1.00  0.00     0.020 A 
ATOM     73  C   UNL A   1      34.721  34.083  29.263  1.00  0.00     0.054 A 
BRANCH  73  74
ATOM     74  S   UNL A   1      33.119  34.918  29.088  1.00  0.00     0.124 S 
ATOM     75  O   UNL A   1      33.520  36.252  28.651  1.00  0.00    -0.237 OA
ATOM     76  O   UNL A   1      32.443  34.101  28.083  1.00  0.00    -0.237 OA
ATOM     77  O   UNL A   1      32.546  34.841  30.429  1.00  0.00    -0.744 OA
ENDBRANCH  73  74
ENDBRANCH  45  68
BRANCH  57  78
ATOM     78  C   UNL A   1      43.177  34.751  32.647  1.00  0.00    -0.014 A 
ATOM     79  C   UNL A   1      43.861  35.740  31.921  1.00  0.00     0.010 A 
ATOM     80  C   UNL A   1      42.815  35.001  33.983  1.00  0.00     0.010 A 
ATOM     81  C   UNL A   1      44.181  36.959  32.523  1.00  0.00     0.020 A 
ATOM     82  C   UNL A   1      43.116  36.226  34.582  1.00  0.00     0.020 A 
ATOM     83  C   UNL A   1      43.801  37.196  33.849  1.00  0.00     0.054 A 
BRANCH  83  84
ATOM     84  S   UNL A   1      44.149  38.818  34.582  1.00  0.00     0.124 S 
ATOM     85  O   UNL A   1      43.050  39.627  34.063  1.00  0.00    -0.237 OA
ATOM     86  O   UNL A   1      44.104  38.541  36.015  1.00  0.00    -0.237 OA
ATOM     87  O   UNL A   1      45.472  39.155  34.061  1.00  0.00    -0.744 OA
ENDBRANCH  83  84
ENDBRANCH  57  78
ENDBRANCH  31  32
ENDBRANCH  23  26
ENDBRANCH  21  22
ENDBRANCH  20  21
ENDBRANCH  19  20
ENDBRANCH   1  19
TORSDOF 19
ENDMDL
MODEL 3
REMARK VINA RESULT:     -10.0      6.461     10.898
REMARK SMILES COC[C@@H](C)CC(=O)N1CC(CC(=O)NCCCCNC(=O)c2ccc(-c3c4nc(c(-c5ccc(S(=O)(=O)[O-])cc5)c5ccc([nH]5)c(-c5ccc(S(=O)(=O)[O-])cc5)c5nc(c(-c6ccc(S(=O)(=O)[O-])cc6)c6ccc3[nH]6)C=C5)C=C4)cc2)C1
REMARK SMILES IDX 16 1 15 2 13 3 14 4 12 6 11 7 7 8 8 9 9 10 10 11 83 12 6 13
REMARK SMILES IDX 4 14 5 15 3 16 2 17 1 18 17 19 18 20 19 21 20 22 21 23 22 25
REMARK SMILES IDX 23 26 24 27 82 28 25 29 81 30 26 31 27 32 28 33 75 34 29 35
REMARK SMILES IDX 80 36 74 37 76 38 30 39 79 40 73 41 72 42 31 44 61 45 42 46
REMARK SMILES IDX 60 47 43 48 46 49 59 50 77 51 44 52 45 53 58 55 78 56 47 57
REMARK SMILES IDX 32 58 33 59 41 60 34 61 40 62 35 63 36 64 37 65 38 66 39 67
REMARK SMILES IDX 62 68 63 69 71 70 64 71 70 72 65 73 66 74 67 75 68 76 69 77
REMARK SMILES IDX 48 78 49 79 57 80 50 81 56 82 51 83 52 84 53 85 54 86 55 87
REMARK H PARENT 15 5 20 24 76 43 46 54
REMARK Flexibility Score: inf
ROOT
ATOM      1  C   UNL A   1      35.641  21.352  25.153  1.00  0.00     0.116 C 
ENDROOT
BRANCH   1   2
ATOM      2  N   UNL A   1      34.615  20.358  25.406  1.00  0.00    -0.356 N 
ATOM      3  C   UNL A   1      33.291  20.354  25.091  1.00  0.00     0.220 C 
ATOM      4  O   UNL A   1      32.597  19.419  25.496  1.00  0.00    -0.275 OA
ATOM      5  H   UNL A   1      34.927  19.556  25.884  1.00  0.00     0.163 HD
BRANCH   3   6
ATOM      6  C   UNL A   1      32.662  21.482  24.289  1.00  0.00     0.107 C 
BRANCH   6   7
ATOM      7  C   UNL A   1      32.132  22.609  25.173  1.00  0.00     0.037 C 
ATOM      8  C   UNL A   1      31.167  25.831  25.176  1.00  0.00     0.222 C 
ATOM      9  O   UNL A   1      30.154  26.051  25.838  1.00  0.00    -0.275 OA
ATOM     10  N   UNL A   1      31.539  24.566  24.802  1.00  0.00    -0.342 N 
ATOM     11  C   UNL A   1      30.806  23.310  24.828  1.00  0.00     0.125 C 
ATOM     12  C   UNL A   1      32.831  23.947  24.941  1.00  0.00     0.125 C 
BRANCH   8  13
ATOM     13  C   UNL A   1      31.970  26.972  24.545  1.00  0.00     0.106 C 
BRANCH  13  14
ATOM     14  C   UNL A   1      31.544  28.431  24.806  1.00  0.00     0.021 C 
ATOM     15  C   UNL A   1      30.543  28.869  23.722  1.00  0.00     0.010 C 
BRANCH  14  16
ATOM     16  C   UNL A   1      32.745  29.388  24.760  1.00  0.00     0.163 C 
BRANCH  16  17
ATOM     17  O   UNL A   1      33.379  29.516  26.028  1.00  0.00    -0.384 OA
ATOM     18  C   UNL A   1      32.475  29.843  27.079  1.00  0.00     0.194 C 
ENDBRANCH  16  17
ENDBRANCH  14  16
ENDBRANCH  13  14
ENDBRANCH   8  13
ENDBRANCH   6   7
ENDBRANCH   3   6
ENDBRANCH   1   2
BRANCH   1  19
ATOM     19  C   UNL A   1      37.037  20.732  25.200  1.00  0.00     0.023 C 
BRANCH  19  20
ATOM     20  C   UNL A   1      38.204  21.707  25.209  1.00  0.00     0.023 C 
BRANCH  20  21
ATOM     21  C   UNL A   1      39.234  21.448  26.297  1.00  0.00     0.116 C 
BRANCH  21  22
ATOM     22  N   UNL A   1      39.952  20.188  26.134  1.00  0.00    -0.352 N 
ATOM     23  C   UNL A   1      41.314  19.972  26.115  1.00  0.00     0.251 C 
ATOM     24  H   UNL A   1      39.392  19.386  26.023  1.00  0.00     0.163 HD
ATOM     25  O   UNL A   1      41.769  18.872  25.836  1.00  0.00    -0.269 OA
BRANCH  23  26
ATOM     26  C   UNL A   1      42.209  21.114  26.396  1.00  0.00     0.039 A 
ATOM     27  C   UNL A   1      42.590  21.966  25.357  1.00  0.00     0.014 A 
ATOM     28  C   UNL A   1      42.574  21.389  27.714  1.00  0.00     0.014 A 
ATOM     29  C   UNL A   1      43.258  23.156  25.657  1.00  0.00     0.010 A 
ATOM     30  C   UNL A   1      43.146  22.615  28.017  1.00  0.00     0.010 A 
ATOM     31  C   UNL A   1      43.491  23.513  26.994  1.00  0.00    -0.014 A 
BRANCH  31  32
ATOM     32  C   UNL A   1      44.116  24.801  27.388  1.00  0.00     0.031 A 
ATOM     33  C   UNL A   1      43.232  25.907  27.895  1.00  0.00     0.074 A 
ATOM     34  C   UNL A   1      45.425  25.026  27.160  1.00  0.00     0.049 A 
ATOM     35  N   UNL A   1      43.497  27.179  28.040  1.00  0.00    -0.248 NA
ATOM     36  C   UNL A   1      41.846  25.539  28.232  1.00  0.00     0.031 C 
ATOM     37  C   UNL A   1      46.385  24.048  26.641  1.00  0.00     0.029 A 
ATOM     38  N   UNL A   1      46.170  26.170  27.312  1.00  0.00    -0.354 N 
ATOM     39  C   UNL A   1      42.299  27.769  28.422  1.00  0.00     0.074 A 
ATOM     40  C   UNL A   1      41.300  26.723  28.455  1.00  0.00     0.031 C 
ATOM     41  C   UNL A   1      47.592  24.629  26.534  1.00  0.00     0.029 A 
ATOM     42  C   UNL A   1      47.482  26.031  26.922  1.00  0.00     0.049 A 
ATOM     43  H   UNL A   1      45.800  27.011  27.665  1.00  0.00     0.167 HD
ATOM     44  C   UNL A   1      42.054  29.064  28.730  1.00  0.00     0.031 A 
ATOM     45  C   UNL A   1      48.478  26.937  26.865  1.00  0.00     0.031 A 
ATOM     46  C   UNL A   1      43.064  30.084  28.754  1.00  0.00     0.049 A 
ATOM     47  C   UNL A   1      48.195  28.362  27.261  1.00  0.00     0.074 A 
ATOM     48  C   UNL A   1      42.938  31.413  29.116  1.00  0.00     0.029 A 
ATOM     49  N   UNL A   1      44.395  29.881  28.422  1.00  0.00    -0.354 N 
ATOM     50  N   UNL A   1      47.061  28.900  27.640  1.00  0.00    -0.248 NA
ATOM     51  C   UNL A   1      49.326  29.300  27.224  1.00  0.00     0.031 C 
ATOM     52  C   UNL A   1      44.189  32.021  28.982  1.00  0.00     0.029 A 
ATOM     53  C   UNL A   1      45.102  31.060  28.574  1.00  0.00     0.049 A 
ATOM     54  H   UNL A   1      44.779  29.025  28.123  1.00  0.00     0.167 HD
ATOM     55  C   UNL A   1      47.348  30.231  27.916  1.00  0.00     0.074 A 
ATOM     56  C   UNL A   1      48.762  30.417  27.664  1.00  0.00     0.031 C 
ATOM     57  C   UNL A   1      46.515  31.213  28.341  1.00  0.00     0.031 A 
BRANCH  44  58
ATOM     58  C   UNL A   1      40.637  29.438  29.068  1.00  0.00    -0.014 A 
ATOM     59  C   UNL A   1      39.663  29.580  28.063  1.00  0.00     0.010 A 
ATOM     60  C   UNL A   1      40.271  29.639  30.412  1.00  0.00     0.010 A 
ATOM     61  C   UNL A   1      38.363  29.972  28.390  1.00  0.00     0.020 A 
ATOM     62  C   UNL A   1      38.963  30.003  30.744  1.00  0.00     0.020 A 
ATOM     63  C   UNL A   1      38.023  30.188  29.728  1.00  0.00     0.054 A 
BRANCH  63  64
ATOM     64  S   UNL A   1      36.327  30.691  30.126  1.00  0.00     0.124 S 
ATOM     65  O   UNL A   1      35.633  30.424  28.869  1.00  0.00    -0.237 OA
ATOM     66  O   UNL A   1      35.979  29.805  31.234  1.00  0.00    -0.237 OA
ATOM     67  O   UNL A   1      36.459  32.102  30.478  1.00  0.00    -0.744 OA
ENDBRANCH  63  64
ENDBRANCH  44  58
BRANCH  45  68
ATOM     68  C   UNL A   1      49.839  26.523  26.431  1.00  0.00    -0.014 A 
ATOM     69  C   UNL A   1      50.236  26.699  25.094  1.00  0.00     0.010 A 
ATOM     70  C   UNL A   1      50.748  25.964  27.347  1.00  0.00     0.010 A 
ATOM     71  C   UNL A   1      51.511  26.309  24.675  1.00  0.00     0.020 A 
ATOM     72  C   UNL A   1      52.033  25.592  26.936  1.00  0.00     0.020 A 
ATOM     73  C   UNL A   1      52.402  25.757  25.599  1.00  0.00     0.054 A 
BRANCH  73  74
ATOM     74  S   UNL A   1      54.069  25.302  25.045  1.00  0.00     0.124 S 
ATOM     75  O   UNL A   1      54.900  25.834  26.120  1.00  0.00    -0.237 OA
ATOM     76  O   UNL A   1      53.990  23.845  24.968  1.00  0.00    -0.237 OA
ATOM     77  O   UNL A   1      54.197  25.979  23.758  1.00  0.00    -0.744 OA
ENDBRANCH  73  74
ENDBRANCH  45  68
BRANCH  57  78
ATOM     78  C   UNL A   1      47.112  32.564  28.617  1.00  0.00    -0.014 A 
ATOM     79  C   UNL A   1      47.143  33.560  27.627  1.00  0.00     0.010 A 
ATOM     80  C   UNL A   1      47.551  32.868  29.918  1.00  0.00     0.010 A 
ATOM     81  C   UNL A   1      47.610  34.839  27.933  1.00  0.00     0.020 A 
ATOM     82  C   UNL A   1      47.999  34.153  30.232  1.00  0.00     0.020 A 
ATOM     83  C   UNL A   1      48.031  35.129  29.236  1.00  0.00     0.054 A 
BRANCH  83  84
ATOM     84  S   UNL A   1      48.550  36.822  29.632  1.00  0.00     0.124 S 
ATOM     85  O   UNL A   1      47.311  37.410  30.131  1.00  0.00    -0.237 OA
ATOM     86  O   UNL A   1      49.594  36.614  30.631  1.00  0.00    -0.237 OA
ATOM     87  O   UNL A   1      49.018  37.347  28.351  1.00  0.00    -0.744 OA
ENDBRANCH  83  84
ENDBRANCH  57  78
ENDBRANCH  31  32
ENDBRANCH  23  26
ENDBRANCH  21  22
ENDBRANCH  20  21
ENDBRANCH  19  20
ENDBRANCH   1  19
TORSDOF 19
ENDMDL
