MODEL 1
REMARK VINA RESULT:     -11.8      0.000      0.000
REMARK SMILES CCc1ccc(S(=O)(=O)c2nnn(-c3ccc(C(=O)NCCCCNC(=O)c4ccc(-c5c6nc(c(-c7ccc(S(=O)(=O)[O-])cc7)c7ccc([nH]7)c(-c7ccc(S(=O)(=O)[O-])cc7)c7nc(c(-c8ccc(S(=O)(=O)[O-])cc8)c8ccc5[nH]8)C=C7)C=C6)cc4)cc3)c2C)cc1
REMARK SMILES IDX 22 1 21 2 20 3 18 4 19 5 17 7 14 8 15 9 89 10 16 11 88 12
REMARK SMILES IDX 13 13 10 14 11 15 90 16 12 17 91 18 7 19 8 20 9 21 6 22 3 23
REMARK SMILES IDX 4 24 93 25 5 26 92 27 2 28 1 29 23 30 24 31 25 32 26 33
REMARK SMILES IDX 27 35 28 36 29 37 87 38 30 39 86 40 31 41 32 42 33 43 80 44
REMARK SMILES IDX 34 45 85 46 79 47 81 48 35 49 84 50 78 51 77 52 36 54 66 55
REMARK SMILES IDX 47 56 65 57 48 58 51 59 64 60 82 61 49 62 50 63 63 65 83 66
REMARK SMILES IDX 52 67 37 68 38 69 46 70 39 71 45 72 40 73 41 74 42 75 43 76
REMARK SMILES IDX 44 77 67 78 68 79 76 80 69 81 75 82 70 83 71 84 72 85 73 86
REMARK SMILES IDX 74 87 53 88 54 89 62 90 55 91 61 92 56 93 57 94 58 95 59 96
REMARK SMILES IDX 60 97
REMARK H PARENT 20 6 25 34 81 53 51 64
REMARK Flexibility Score: inf
ROOT
ATOM      1  C   UNL A   1      42.323  22.498  28.027  1.00  0.00     0.023 C 
ENDROOT
BRANCH   1   2
ATOM      2  C   UNL A   1      41.144  21.530  28.206  1.00  0.00     0.116 C 
BRANCH   2   3
ATOM      3  N   UNL A   1      41.174  20.472  27.211  1.00  0.00    -0.352 N 
ATOM      4  C   UNL A   1      40.317  20.103  26.202  1.00  0.00     0.251 C 
ATOM      5  O   UNL A   1      40.629  19.128  25.519  1.00  0.00    -0.269 OA
ATOM      6  H   UNL A   1      41.975  19.902  27.271  1.00  0.00     0.163 HD
BRANCH   4   7
ATOM      7  C   UNL A   1      39.066  20.844  25.863  1.00  0.00     0.039 A 
ATOM      8  C   UNL A   1      36.765  22.141  24.943  1.00  0.00     0.067 A 
ATOM      9  C   UNL A   1      36.838  20.753  24.850  1.00  0.00     0.029 A 
ATOM     10  C   UNL A   1      37.766  22.867  25.587  1.00  0.00     0.029 A 
ATOM     11  C   UNL A   1      38.009  20.114  25.281  1.00  0.00     0.016 A 
ATOM     12  C   UNL A   1      38.884  22.208  26.087  1.00  0.00     0.016 A 
BRANCH   8  13
ATOM     13  N   UNL A   1      35.711  22.845  24.341  1.00  0.00    -0.216 N 
ATOM     14  C   UNL A   1      33.784  23.723  23.864  1.00  0.00     0.205 A 
ATOM     15  N   UNL A   1      34.570  23.751  22.741  1.00  0.00    -0.117 NA
ATOM     16  C   UNL A   1      34.516  23.219  24.927  1.00  0.00     0.081 A 
ATOM     17  N   UNL A   1      35.771  23.289  23.068  1.00  0.00    -0.061 NA
ATOM     18  C   UNL A   1      34.275  23.216  26.393  1.00  0.00     0.070 C 
BRANCH  14  19
ATOM     19  S   UNL A   1      32.227  24.468  23.916  1.00  0.00     0.227 S 
ATOM     20  O   UNL A   1      31.393  23.502  24.614  1.00  0.00    -0.217 OA
ATOM     21  O   UNL A   1      31.939  24.902  22.568  1.00  0.00    -0.217 OA
BRANCH  19  22
ATOM     22  C   UNL A   1      32.379  25.903  24.945  1.00  0.00     0.073 A 
ATOM     23  C   UNL A   1      32.636  28.250  26.447  1.00  0.00    -0.048 A 
ATOM     24  C   UNL A   1      33.666  27.841  25.589  1.00  0.00     0.005 A 
ATOM     25  C   UNL A   1      31.484  27.461  26.556  1.00  0.00     0.005 A 
ATOM     26  C   UNL A   1      33.537  26.675  24.830  1.00  0.00     0.021 A 
ATOM     27  C   UNL A   1      31.356  26.287  25.817  1.00  0.00     0.021 A 
BRANCH  23  28
ATOM     28  C   UNL A   1      32.764  29.512  27.264  1.00  0.00     0.032 C 
ATOM     29  C   UNL A   1      34.192  30.041  27.311  1.00  0.00     0.009 C 
ENDBRANCH  23  28
ENDBRANCH  19  22
ENDBRANCH  14  19
ENDBRANCH   8  13
ENDBRANCH   4   7
ENDBRANCH   2   3
ENDBRANCH   1   2
BRANCH   1  30
ATOM     30  C   UNL A   1      41.969  23.860  27.412  1.00  0.00     0.023 C 
BRANCH  30  31
ATOM     31  C   UNL A   1      42.115  23.934  25.897  1.00  0.00     0.116 C 
BRANCH  31  32
ATOM     32  N   UNL A   1      43.514  23.985  25.457  1.00  0.00    -0.352 N 
ATOM     33  C   UNL A   1      44.297  25.107  25.238  1.00  0.00     0.251 C 
ATOM     34  H   UNL A   1      43.950  23.117  25.298  1.00  0.00     0.163 HD
ATOM     35  O   UNL A   1      45.269  25.063  24.495  1.00  0.00    -0.269 OA
BRANCH  33  36
ATOM     36  C   UNL A   1      43.949  26.348  25.951  1.00  0.00     0.039 A 
ATOM     37  C   UNL A   1      43.052  27.291  25.440  1.00  0.00     0.014 A 
ATOM     38  C   UNL A   1      44.530  26.518  27.203  1.00  0.00     0.014 A 
ATOM     39  C   UNL A   1      42.694  28.374  26.245  1.00  0.00     0.010 A 
ATOM     40  C   UNL A   1      44.024  27.453  28.058  1.00  0.00     0.010 A 
ATOM     41  C   UNL A   1      43.179  28.435  27.560  1.00  0.00    -0.014 A 
BRANCH  41  42
ATOM     42  C   UNL A   1      42.751  29.454  28.507  1.00  0.00     0.031 A 
ATOM     43  C   UNL A   1      43.671  30.616  28.607  1.00  0.00     0.074 A 
ATOM     44  C   UNL A   1      41.502  29.463  29.027  1.00  0.00     0.049 A 
ATOM     45  N   UNL A   1      44.434  30.919  29.601  1.00  0.00    -0.248 NA
ATOM     46  C   UNL A   1      43.903  31.441  27.407  1.00  0.00     0.031 C 
ATOM     47  C   UNL A   1      40.391  28.542  28.746  1.00  0.00     0.029 A 
ATOM     48  N   UNL A   1      40.909  30.390  29.820  1.00  0.00    -0.354 N 
ATOM     49  C   UNL A   1      45.050  32.117  29.255  1.00  0.00     0.074 A 
ATOM     50  C   UNL A   1      44.867  32.262  27.833  1.00  0.00     0.031 C 
ATOM     51  C   UNL A   1      39.224  29.104  29.139  1.00  0.00     0.029 A 
ATOM     52  C   UNL A   1      39.518  30.337  29.844  1.00  0.00     0.049 A 
ATOM     53  H   UNL A   1      41.423  31.051  30.337  1.00  0.00     0.167 HD
ATOM     54  C   UNL A   1      45.416  33.022  30.206  1.00  0.00     0.031 A 
ATOM     55  C   UNL A   1      38.674  31.265  30.371  1.00  0.00     0.031 A 
ATOM     56  C   UNL A   1      45.320  32.457  31.530  1.00  0.00     0.049 A 
ATOM     57  C   UNL A   1      39.476  32.066  31.331  1.00  0.00     0.074 A 
ATOM     58  C   UNL A   1      45.887  31.367  32.162  1.00  0.00     0.029 A 
ATOM     59  N   UNL A   1      44.200  32.782  32.262  1.00  0.00    -0.354 N 
ATOM     60  N   UNL A   1      39.989  31.559  32.419  1.00  0.00    -0.248 NA
ATOM     61  C   UNL A   1      40.132  33.266  30.835  1.00  0.00     0.031 C 
ATOM     62  C   UNL A   1      44.824  30.796  32.921  1.00  0.00     0.029 A 
ATOM     63  C   UNL A   1      43.703  31.621  32.796  1.00  0.00     0.049 A 
ATOM     64  H   UNL A   1      43.824  33.684  32.381  1.00  0.00     0.167 HD
ATOM     65  C   UNL A   1      41.275  32.081  32.479  1.00  0.00     0.074 A 
ATOM     66  C   UNL A   1      41.273  33.196  31.528  1.00  0.00     0.031 C 
ATOM     67  C   UNL A   1      42.298  31.383  33.056  1.00  0.00     0.031 A 
BRANCH  54  68
ATOM     68  C   UNL A   1      45.444  34.516  29.993  1.00  0.00    -0.014 A 
ATOM     69  C   UNL A   1      44.225  35.223  30.042  1.00  0.00     0.010 A 
ATOM     70  C   UNL A   1      46.562  35.203  29.481  1.00  0.00     0.010 A 
ATOM     71  C   UNL A   1      44.114  36.520  29.528  1.00  0.00     0.020 A 
ATOM     72  C   UNL A   1      46.472  36.514  29.006  1.00  0.00     0.020 A 
ATOM     73  C   UNL A   1      45.240  37.151  29.001  1.00  0.00     0.054 A 
BRANCH  73  74
ATOM     74  S   UNL A   1      45.063  38.787  28.251  1.00  0.00     0.124 S 
ATOM     75  O   UNL A   1      44.181  39.458  29.200  1.00  0.00    -0.237 OA
ATOM     76  O   UNL A   1      46.444  39.261  28.221  1.00  0.00    -0.237 OA
ATOM     77  O   UNL A   1      44.478  38.502  26.942  1.00  0.00    -0.744 OA
ENDBRANCH  73  74
ENDBRANCH  54  68
BRANCH  55  78
ATOM     78  C   UNL A   1      37.352  31.713  29.847  1.00  0.00    -0.014 A 
ATOM     79  C   UNL A   1      36.216  31.773  30.679  1.00  0.00     0.010 A 
ATOM     80  C   UNL A   1      37.271  32.361  28.597  1.00  0.00     0.010 A 
ATOM     81  C   UNL A   1      35.079  32.521  30.310  1.00  0.00     0.020 A 
ATOM     82  C   UNL A   1      36.142  33.101  28.220  1.00  0.00     0.020 A 
ATOM     83  C   UNL A   1      35.061  33.203  29.091  1.00  0.00     0.054 A 
BRANCH  83  84
ATOM     84  S   UNL A   1      33.690  34.339  28.709  1.00  0.00     0.124 S 
ATOM     85  O   UNL A   1      32.890  33.558  27.772  1.00  0.00    -0.237 OA
ATOM     86  O   UNL A   1      33.088  34.565  30.020  1.00  0.00    -0.237 OA
ATOM     87  O   UNL A   1      34.362  35.502  28.131  1.00  0.00    -0.744 OA
ENDBRANCH  83  84
ENDBRANCH  55  78
BRANCH  67  88
ATOM     88  C   UNL A   1      41.973  30.139  33.856  1.00  0.00    -0.014 A 
ATOM     89  C   UNL A   1      41.710  28.876  33.286  1.00  0.00     0.010 A 
ATOM     90  C   UNL A   1      42.112  30.223  35.252  1.00  0.00     0.010 A 
ATOM     91  C   UNL A   1      41.563  27.738  34.098  1.00  0.00     0.020 A 
ATOM     92  C   UNL A   1      41.987  29.094  36.062  1.00  0.00     0.020 A 
ATOM     93  C   UNL A   1      41.701  27.857  35.484  1.00  0.00     0.054 A 
BRANCH  93  94
ATOM     94  S   UNL A   1      41.541  26.385  36.534  1.00  0.00     0.124 S 
ATOM     95  O   UNL A   1      40.610  26.831  37.566  1.00  0.00    -0.237 OA
ATOM     96  O   UNL A   1      41.021  25.381  35.609  1.00  0.00    -0.237 OA
ATOM     97  O   UNL A   1      42.906  26.138  36.998  1.00  0.00    -0.744 OA
ENDBRANCH  93  94
ENDBRANCH  67  88
ENDBRANCH  41  42
ENDBRANCH  33  36
ENDBRANCH  31  32
ENDBRANCH  30  31
ENDBRANCH   1  30
TORSDOF 18
ENDMDL
MODEL 2
REMARK VINA RESULT:     -10.6      7.481     15.494
REMARK SMILES CCc1ccc(S(=O)(=O)c2nnn(-c3ccc(C(=O)NCCCCNC(=O)c4ccc(-c5c6nc(c(-c7ccc(S(=O)(=O)[O-])cc7)c7ccc([nH]7)c(-c7ccc(S(=O)(=O)[O-])cc7)c7nc(c(-c8ccc(S(=O)(=O)[O-])cc8)c8ccc5[nH]8)C=C7)C=C6)cc4)cc3)c2C)cc1
REMARK SMILES IDX 22 1 21 2 20 3 18 4 19 5 17 7 14 8 15 9 89 10 16 11 88 12
REMARK SMILES IDX 13 13 10 14 11 15 90 16 12 17 91 18 7 19 8 20 9 21 6 22 3 23
REMARK SMILES IDX 4 24 93 25 5 26 92 27 2 28 1 29 23 30 24 31 25 32 26 33
REMARK SMILES IDX 27 35 28 36 29 37 87 38 30 39 86 40 31 41 32 42 33 43 80 44
REMARK SMILES IDX 34 45 85 46 79 47 81 48 35 49 84 50 78 51 77 52 36 54 66 55
REMARK SMILES IDX 47 56 65 57 48 58 51 59 64 60 82 61 49 62 50 63 63 65 83 66
REMARK SMILES IDX 52 67 37 68 38 69 46 70 39 71 45 72 40 73 41 74 42 75 43 76
REMARK SMILES IDX 44 77 67 78 68 79 76 80 69 81 75 82 70 83 71 84 72 85 73 86
REMARK SMILES IDX 74 87 53 88 54 89 62 90 55 91 61 92 56 93 57 94 58 95 59 96
REMARK SMILES IDX 60 97
REMARK H PARENT 20 6 25 34 81 53 51 64
REMARK Flexibility Score: inf
ROOT
ATOM      1  C   UNL A   1      43.957  42.201  30.360  1.00  0.00     0.023 C 
ENDROOT
BRANCH   1   2
ATOM      2  C   UNL A   1      44.535  42.198  28.937  1.00  0.00     0.116 C 
BRANCH   2   3
ATOM      3  N   UNL A   1      45.349  43.377  28.696  1.00  0.00    -0.352 N 
ATOM      4  C   UNL A   1      45.631  44.112  27.570  1.00  0.00     0.251 C 
ATOM      5  O   UNL A   1      46.385  45.078  27.695  1.00  0.00    -0.269 OA
ATOM      6  H   UNL A   1      45.789  43.721  29.508  1.00  0.00     0.163 HD
BRANCH   4   7
ATOM      7  C   UNL A   1      45.040  43.836  26.228  1.00  0.00     0.039 A 
ATOM      8  C   UNL A   1      43.760  43.562  23.756  1.00  0.00     0.067 A 
ATOM      9  C   UNL A   1      44.530  44.699  23.994  1.00  0.00     0.029 A 
ATOM     10  C   UNL A   1      43.718  42.521  24.683  1.00  0.00     0.029 A 
ATOM     11  C   UNL A   1      45.138  44.845  25.248  1.00  0.00     0.016 A 
ATOM     12  C   UNL A   1      44.399  42.645  25.889  1.00  0.00     0.016 A 
BRANCH   8  13
ATOM     13  N   UNL A   1      42.965  43.463  22.604  1.00  0.00    -0.216 N 
ATOM     14  C   UNL A   1      42.194  43.572  20.578  1.00  0.00     0.205 A 
ATOM     15  N   UNL A   1      41.148  43.339  21.434  1.00  0.00    -0.117 NA
ATOM     16  C   UNL A   1      43.382  43.578  21.291  1.00  0.00     0.081 A 
ATOM     17  N   UNL A   1      41.644  43.192  22.657  1.00  0.00    -0.061 NA
ATOM     18  C   UNL A   1      44.803  43.512  20.863  1.00  0.00     0.070 C 
BRANCH  14  19
ATOM     19  S   UNL A   1      41.995  43.578  18.862  1.00  0.00     0.227 S 
ATOM     20  O   UNL A   1      40.557  43.477  18.671  1.00  0.00    -0.217 OA
ATOM     21  O   UNL A   1      42.911  42.588  18.344  1.00  0.00    -0.217 OA
BRANCH  19  22
ATOM     22  C   UNL A   1      42.513  45.173  18.291  1.00  0.00     0.073 A 
ATOM     23  C   UNL A   1      43.226  47.753  17.472  1.00  0.00    -0.048 A 
ATOM     24  C   UNL A   1      41.924  47.277  17.264  1.00  0.00     0.005 A 
ATOM     25  C   UNL A   1      44.169  46.915  18.080  1.00  0.00     0.005 A 
ATOM     26  C   UNL A   1      41.561  45.994  17.680  1.00  0.00     0.021 A 
ATOM     27  C   UNL A   1      43.820  45.627  18.480  1.00  0.00     0.021 A 
BRANCH  23  28
ATOM     28  C   UNL A   1      43.622  49.141  17.034  1.00  0.00     0.032 C 
ATOM     29  C   UNL A   1      43.776  50.106  18.203  1.00  0.00     0.009 C 
ENDBRANCH  23  28
ENDBRANCH  19  22
ENDBRANCH  14  19
ENDBRANCH   8  13
ENDBRANCH   4   7
ENDBRANCH   2   3
ENDBRANCH   1   2
BRANCH   1  30
ATOM     30  C   UNL A   1      43.514  40.831  30.893  1.00  0.00     0.023 C 
BRANCH  30  31
ATOM     31  C   UNL A   1      44.530  39.712  30.702  1.00  0.00     0.116 C 
BRANCH  31  32
ATOM     32  N   UNL A   1      45.430  39.550  31.849  1.00  0.00    -0.352 N 
ATOM     33  C   UNL A   1      45.163  38.927  33.058  1.00  0.00     0.251 C 
ATOM     34  H   UNL A   1      46.332  39.931  31.749  1.00  0.00     0.163 HD
ATOM     35  O   UNL A   1      45.800  39.206  34.066  1.00  0.00    -0.269 OA
BRANCH  33  36
ATOM     36  C   UNL A   1      44.115  37.893  33.090  1.00  0.00     0.039 A 
ATOM     37  C   UNL A   1      43.933  36.963  32.062  1.00  0.00     0.014 A 
ATOM     38  C   UNL A   1      43.328  37.855  34.237  1.00  0.00     0.014 A 
ATOM     39  C   UNL A   1      42.993  35.948  32.241  1.00  0.00     0.010 A 
ATOM     40  C   UNL A   1      42.568  36.751  34.495  1.00  0.00     0.010 A 
ATOM     41  C   UNL A   1      42.325  35.846  33.471  1.00  0.00    -0.014 A 
BRANCH  41  42
ATOM     42  C   UNL A   1      41.431  34.742  33.790  1.00  0.00     0.031 A 
ATOM     43  C   UNL A   1      41.885  33.424  33.276  1.00  0.00     0.074 A 
ATOM     44  C   UNL A   1      40.439  34.870  34.700  1.00  0.00     0.049 A 
ATOM     45  N   UNL A   1      41.357  32.739  32.320  1.00  0.00    -0.248 NA
ATOM     46  C   UNL A   1      43.169  32.881  33.757  1.00  0.00     0.031 C 
ATOM     47  C   UNL A   1      40.098  36.043  35.519  1.00  0.00     0.029 A 
ATOM     48  N   UNL A   1      39.602  33.925  35.195  1.00  0.00    -0.354 N 
ATOM     49  C   UNL A   1      42.087  31.558  32.251  1.00  0.00     0.074 A 
ATOM     50  C   UNL A   1      43.304  31.799  32.984  1.00  0.00     0.031 C 
ATOM     51  C   UNL A   1      39.329  35.660  36.564  1.00  0.00     0.029 A 
ATOM     52  C   UNL A   1      38.985  34.260  36.398  1.00  0.00     0.049 A 
ATOM     53  H   UNL A   1      39.443  33.067  34.740  1.00  0.00     0.167 HD
ATOM     54  C   UNL A   1      41.510  30.396  31.836  1.00  0.00     0.031 A 
ATOM     55  C   UNL A   1      38.280  33.431  37.214  1.00  0.00     0.031 A 
ATOM     56  C   UNL A   1      40.207  30.634  31.264  1.00  0.00     0.049 A 
ATOM     57  C   UNL A   1      37.865  32.274  36.380  1.00  0.00     0.074 A 
ATOM     58  C   UNL A   1      39.734  31.398  30.214  1.00  0.00     0.029 A 
ATOM     59  N   UNL A   1      39.120  30.384  32.073  1.00  0.00    -0.354 N 
ATOM     60  N   UNL A   1      37.039  32.387  35.375  1.00  0.00    -0.248 NA
ATOM     61  C   UNL A   1      38.746  31.117  36.333  1.00  0.00     0.031 C 
ATOM     62  C   UNL A   1      38.528  31.979  30.704  1.00  0.00     0.029 A 
ATOM     63  C   UNL A   1      38.277  31.462  31.977  1.00  0.00     0.049 A 
ATOM     64  H   UNL A   1      38.975  29.579  32.621  1.00  0.00     0.167 HD
ATOM     65  C   UNL A   1      37.597  31.609  34.370  1.00  0.00     0.074 A 
ATOM     66  C   UNL A   1      38.598  30.780  35.047  1.00  0.00     0.031 C 
ATOM     67  C   UNL A   1      37.419  31.918  33.051  1.00  0.00     0.031 A 
BRANCH  54  68
ATOM     68  C   UNL A   1      41.912  29.025  32.321  1.00  0.00    -0.014 A 
ATOM     69  C   UNL A   1      41.498  28.621  33.608  1.00  0.00     0.010 A 
ATOM     70  C   UNL A   1      42.895  28.237  31.689  1.00  0.00     0.010 A 
ATOM     71  C   UNL A   1      42.098  27.537  34.258  1.00  0.00     0.020 A 
ATOM     72  C   UNL A   1      43.468  27.126  32.312  1.00  0.00     0.020 A 
ATOM     73  C   UNL A   1      43.090  26.805  33.608  1.00  0.00     0.054 A 
BRANCH  73  74
ATOM     74  S   UNL A   1      43.926  25.469  34.495  1.00  0.00     0.124 S 
ATOM     75  O   UNL A   1      43.958  24.414  33.488  1.00  0.00    -0.237 OA
ATOM     76  O   UNL A   1      45.213  26.075  34.821  1.00  0.00    -0.237 OA
ATOM     77  O   UNL A   1      43.051  25.219  35.639  1.00  0.00    -0.744 OA
ENDBRANCH  73  74
ENDBRANCH  54  68
BRANCH  55  78
ATOM     78  C   UNL A   1      38.252  33.408  38.705  1.00  0.00    -0.014 A 
ATOM     79  C   UNL A   1      39.006  34.323  39.466  1.00  0.00     0.010 A 
ATOM     80  C   UNL A   1      37.254  32.675  39.380  1.00  0.00     0.010 A 
ATOM     81  C   UNL A   1      38.719  34.554  40.827  1.00  0.00     0.020 A 
ATOM     82  C   UNL A   1      36.966  32.894  40.735  1.00  0.00     0.020 A 
ATOM     83  C   UNL A   1      37.680  33.854  41.445  1.00  0.00     0.054 A 
BRANCH  83  84
ATOM     84  S   UNL A   1      37.166  34.301  43.134  1.00  0.00     0.124 S 
ATOM     85  O   UNL A   1      37.858  33.306  43.945  1.00  0.00    -0.237 OA
ATOM     86  O   UNL A   1      37.653  35.672  43.263  1.00  0.00    -0.237 OA
ATOM     87  O   UNL A   1      35.711  34.166  43.096  1.00  0.00    -0.744 OA
ENDBRANCH  83  84
ENDBRANCH  55  78
BRANCH  67  88
ATOM     88  C   UNL A   1      36.398  32.974  32.681  1.00  0.00    -0.014 A 
ATOM     89  C   UNL A   1      35.111  32.692  32.179  1.00  0.00     0.010 A 
ATOM     90  C   UNL A   1      36.703  34.304  33.022  1.00  0.00     0.010 A 
ATOM     91  C   UNL A   1      34.169  33.719  32.000  1.00  0.00     0.020 A 
ATOM     92  C   UNL A   1      35.766  35.325  32.864  1.00  0.00     0.020 A 
ATOM     93  C   UNL A   1      34.506  35.032  32.343  1.00  0.00     0.054 A 
BRANCH  93  94
ATOM     94  S   UNL A   1      33.282  36.357  32.140  1.00  0.00     0.124 S 
ATOM     95  O   UNL A   1      32.017  35.629  32.182  1.00  0.00    -0.237 OA
ATOM     96  O   UNL A   1      33.547  37.224  33.286  1.00  0.00    -0.237 OA
ATOM     97  O   UNL A   1      33.615  36.943  30.842  1.00  0.00    -0.744 OA
ENDBRANCH  93  94
ENDBRANCH  67  88
ENDBRANCH  41  42
ENDBRANCH  33  36
ENDBRANCH  31  32
ENDBRANCH  30  31
ENDBRANCH   1  30
TORSDOF 18
ENDMDL
MODEL 3
REMARK VINA RESULT:     -10.5      5.889     11.522
REMARK SMILES CCc1ccc(S(=O)(=O)c2nnn(-c3ccc(C(=O)NCCCCNC(=O)c4ccc(-c5c6nc(c(-c7ccc(S(=O)(=O)[O-])cc7)c7ccc([nH]7)c(-c7ccc(S(=O)(=O)[O-])cc7)c7nc(c(-c8ccc(S(=O)(=O)[O-])cc8)c8ccc5[nH]8)C=C7)C=C6)cc4)cc3)c2C)cc1
REMARK SMILES IDX 22 1 21 2 20 3 18 4 19 5 17 7 14 8 15 9 89 10 16 11 88 12
REMARK SMILES IDX 13 13 10 14 11 15 90 16 12 17 91 18 7 19 8 20 9 21 6 22 3 23
REMARK SMILES IDX 4 24 93 25 5 26 92 27 2 28 1 29 23 30 24 31 25 32 26 33
REMARK SMILES IDX 27 35 28 36 29 37 87 38 30 39 86 40 31 41 32 42 33 43 80 44
REMARK SMILES IDX 34 45 85 46 79 47 81 48 35 49 84 50 78 51 77 52 36 54 66 55
REMARK SMILES IDX 47 56 65 57 48 58 51 59 64 60 82 61 49 62 50 63 63 65 83 66
REMARK SMILES IDX 52 67 37 68 38 69 46 70 39 71 45 72 40 73 41 74 42 75 43 76
REMARK SMILES IDX 44 77 67 78 68 79 76 80 69 81 75 82 70 83 71 84 72 85 73 86
REMARK SMILES IDX 74 87 53 88 54 89 62 90 55 91 61 92 56 93 57 94 58 95 59 96
REMARK SMILES IDX 60 97
REMARK H PARENT 20 6 25 34 81 53 51 64
REMARK Flexibility Score: inf
ROOT
ATOM      1  C   UNL A   1      50.233  22.026  35.002  1.00  0.00     0.023 C 
ENDROOT
BRANCH   1   2
ATOM      2  C   UNL A   1      48.721  22.289  34.944  1.00  0.00     0.116 C 
BRANCH   2   3
ATOM      3  N   UNL A   1      47.972  21.047  34.857  1.00  0.00    -0.352 N 
ATOM      4  C   UNL A   1      46.639  20.741  34.985  1.00  0.00     0.251 C 
ATOM      5  O   UNL A   1      46.313  19.560  34.864  1.00  0.00    -0.269 OA
ATOM      6  H   UNL A   1      48.537  20.263  34.667  1.00  0.00     0.163 HD
BRANCH   4   7
ATOM      7  C   UNL A   1      45.571  21.758  35.212  1.00  0.00     0.039 A 
ATOM      8  C   UNL A   1      43.653  23.787  35.376  1.00  0.00     0.067 A 
ATOM      9  C   UNL A   1      43.580  22.875  34.325  1.00  0.00     0.029 A 
ATOM     10  C   UNL A   1      44.591  23.629  36.395  1.00  0.00     0.029 A 
ATOM     11  C   UNL A   1      44.566  21.883  34.230  1.00  0.00     0.016 A 
ATOM     12  C   UNL A   1      45.509  22.587  36.331  1.00  0.00     0.016 A 
BRANCH   8  13
ATOM     13  N   UNL A   1      42.821  24.918  35.402  1.00  0.00    -0.216 N 
ATOM     14  C   UNL A   1      42.042  26.943  35.362  1.00  0.00     0.205 A 
ATOM     15  N   UNL A   1      41.098  26.120  35.921  1.00  0.00    -0.117 NA
ATOM     16  C   UNL A   1      43.126  26.188  34.948  1.00  0.00     0.081 A 
ATOM     17  N   UNL A   1      41.554  24.874  35.863  1.00  0.00    -0.061 NA
ATOM     18  C   UNL A   1      44.278  26.497  34.062  1.00  0.00     0.070 C 
BRANCH  14  19
ATOM     19  S   UNL A   1      41.727  28.608  35.027  1.00  0.00     0.227 S 
ATOM     20  O   UNL A   1      43.049  29.205  34.920  1.00  0.00    -0.217 OA
ATOM     21  O   UNL A   1      40.762  29.044  36.009  1.00  0.00    -0.217 OA
BRANCH  19  22
ATOM     22  C   UNL A   1      40.966  28.674  33.428  1.00  0.00     0.073 A 
ATOM     23  C   UNL A   1      39.756  28.926  30.917  1.00  0.00    -0.048 A 
ATOM     24  C   UNL A   1      39.104  29.389  32.069  1.00  0.00     0.005 A 
ATOM     25  C   UNL A   1      41.012  28.321  31.041  1.00  0.00     0.005 A 
ATOM     26  C   UNL A   1      39.709  29.274  33.322  1.00  0.00     0.021 A 
ATOM     27  C   UNL A   1      41.614  28.185  32.290  1.00  0.00     0.021 A 
BRANCH  23  28
ATOM     28  C   UNL A   1      39.112  29.054  29.559  1.00  0.00     0.032 C 
ATOM     29  C   UNL A   1      40.102  29.461  28.474  1.00  0.00     0.009 C 
ENDBRANCH  23  28
ENDBRANCH  19  22
ENDBRANCH  14  19
ENDBRANCH   8  13
ENDBRANCH   4   7
ENDBRANCH   2   3
ENDBRANCH   1   2
BRANCH   1  30
ATOM     30  C   UNL A   1      50.881  21.618  33.671  1.00  0.00     0.023 C 
BRANCH  30  31
ATOM     31  C   UNL A   1      52.078  22.465  33.258  1.00  0.00     0.116 C 
BRANCH  31  32
ATOM     32  N   UNL A   1      52.174  23.726  34.001  1.00  0.00    -0.352 N 
ATOM     33  C   UNL A   1      51.892  25.005  33.548  1.00  0.00     0.251 C 
ATOM     34  H   UNL A   1      52.476  23.656  34.936  1.00  0.00     0.163 HD
ATOM     35  O   UNL A   1      52.390  25.988  34.081  1.00  0.00    -0.269 OA
BRANCH  33  36
ATOM     36  C   UNL A   1      50.949  25.152  32.427  1.00  0.00     0.039 A 
ATOM     37  C   UNL A   1      49.565  25.019  32.575  1.00  0.00     0.014 A 
ATOM     38  C   UNL A   1      51.507  25.484  31.196  1.00  0.00     0.014 A 
ATOM     39  C   UNL A   1      48.747  25.296  31.479  1.00  0.00     0.010 A 
ATOM     40  C   UNL A   1      50.704  25.954  30.197  1.00  0.00     0.010 A 
ATOM     41  C   UNL A   1      49.331  25.777  30.297  1.00  0.00    -0.014 A 
BRANCH  41  42
ATOM     42  C   UNL A   1      48.543  26.217  29.155  1.00  0.00     0.031 A 
ATOM     43  C   UNL A   1      47.499  27.220  29.488  1.00  0.00     0.074 A 
ATOM     44  C   UNL A   1      48.919  25.946  27.885  1.00  0.00     0.049 A 
ATOM     45  N   UNL A   1      46.222  27.041  29.491  1.00  0.00    -0.248 NA
ATOM     46  C   UNL A   1      47.916  28.520  30.047  1.00  0.00     0.031 C 
ATOM     47  C   UNL A   1      50.119  25.235  27.421  1.00  0.00     0.029 A 
ATOM     48  N   UNL A   1      48.373  26.374  26.719  1.00  0.00    -0.354 N 
ATOM     49  C   UNL A   1      45.665  28.276  29.800  1.00  0.00     0.074 A 
ATOM     50  C   UNL A   1      46.737  29.069  30.348  1.00  0.00     0.031 C 
ATOM     51  C   UNL A   1      50.336  25.513  26.115  1.00  0.00     0.029 A 
ATOM     52  C   UNL A   1      49.210  26.277  25.610  1.00  0.00     0.049 A 
ATOM     53  H   UNL A   1      47.456  26.727  26.661  1.00  0.00     0.167 HD
ATOM     54  C   UNL A   1      44.440  28.637  29.326  1.00  0.00     0.031 A 
ATOM     55  C   UNL A   1      49.005  26.823  24.381  1.00  0.00     0.031 A 
ATOM     56  C   UNL A   1      43.758  27.512  28.733  1.00  0.00     0.049 A 
ATOM     57  C   UNL A   1      47.548  27.099  24.282  1.00  0.00     0.074 A 
ATOM     58  C   UNL A   1      43.361  26.269  29.188  1.00  0.00     0.029 A 
ATOM     59  N   UNL A   1      43.790  27.423  27.359  1.00  0.00    -0.354 N 
ATOM     60  N   UNL A   1      46.648  26.154  24.282  1.00  0.00    -0.248 NA
ATOM     61  C   UNL A   1      47.073  28.410  24.700  1.00  0.00     0.031 C 
ATOM     62  C   UNL A   1      43.665  25.379  28.116  1.00  0.00     0.029 A 
ATOM     63  C   UNL A   1      44.128  26.133  27.036  1.00  0.00     0.049 A 
ATOM     64  H   UNL A   1      43.603  28.152  26.723  1.00  0.00     0.167 HD
ATOM     65  C   UNL A   1      45.645  26.621  25.120  1.00  0.00     0.074 A 
ATOM     66  C   UNL A   1      45.920  28.053  25.275  1.00  0.00     0.031 C 
ATOM     67  C   UNL A   1      44.872  25.763  25.849  1.00  0.00     0.031 A 
BRANCH  54  68
ATOM     68  C   UNL A   1      44.034  30.055  29.007  1.00  0.00    -0.014 A 
ATOM     69  C   UNL A   1      44.644  30.696  27.909  1.00  0.00     0.010 A 
ATOM     70  C   UNL A   1      43.295  30.865  29.892  1.00  0.00     0.010 A 
ATOM     71  C   UNL A   1      44.586  32.085  27.753  1.00  0.00     0.020 A 
ATOM     72  C   UNL A   1      43.194  32.248  29.720  1.00  0.00     0.020 A 
ATOM     73  C   UNL A   1      43.870  32.853  28.671  1.00  0.00     0.054 A 
BRANCH  73  74
ATOM     74  S   UNL A   1      43.885  34.654  28.515  1.00  0.00     0.124 S 
ATOM     75  O   UNL A   1      42.720  34.892  27.668  1.00  0.00    -0.237 OA
ATOM     76  O   UNL A   1      43.758  35.084  29.905  1.00  0.00    -0.237 OA
ATOM     77  O   UNL A   1      45.179  34.934  27.896  1.00  0.00    -0.744 OA
ENDBRANCH  73  74
ENDBRANCH  54  68
BRANCH  55  78
ATOM     78  C   UNL A   1      50.010  27.429  23.461  1.00  0.00    -0.014 A 
ATOM     79  C   UNL A   1      49.813  27.438  22.066  1.00  0.00     0.010 A 
ATOM     80  C   UNL A   1      51.027  28.259  23.975  1.00  0.00     0.010 A 
ATOM     81  C   UNL A   1      50.547  28.305  21.230  1.00  0.00     0.020 A 
ATOM     82  C   UNL A   1      51.766  29.118  23.150  1.00  0.00     0.020 A 
ATOM     83  C   UNL A   1      51.503  29.159  21.785  1.00  0.00     0.054 A 
BRANCH  83  84
ATOM     84  S   UNL A   1      52.297  30.426  20.744  1.00  0.00     0.124 S 
ATOM     85  O   UNL A   1      52.623  29.677  19.535  1.00  0.00    -0.237 OA
ATOM     86  O   UNL A   1      51.245  31.429  20.604  1.00  0.00    -0.237 OA
ATOM     87  O   UNL A   1      53.449  30.849  21.541  1.00  0.00    -0.744 OA
ENDBRANCH  83  84
ENDBRANCH  55  78
BRANCH  67  88
ATOM     88  C   UNL A   1      44.947  24.280  25.550  1.00  0.00    -0.014 A 
ATOM     89  C   UNL A   1      45.827  23.385  26.193  1.00  0.00     0.010 A 
ATOM     90  C   UNL A   1      43.959  23.749  24.703  1.00  0.00     0.010 A 
ATOM     91  C   UNL A   1      45.735  22.001  25.968  1.00  0.00     0.020 A 
ATOM     92  C   UNL A   1      43.850  22.374  24.491  1.00  0.00     0.020 A 
ATOM     93  C   UNL A   1      44.745  21.505  25.114  1.00  0.00     0.054 A 
BRANCH  93  94
ATOM     94  S   UNL A   1      44.604  19.716  24.844  1.00  0.00     0.124 S 
ATOM     95  O   UNL A   1      45.835  19.207  25.441  1.00  0.00    -0.237 OA
ATOM     96  O   UNL A   1      43.373  19.376  25.554  1.00  0.00    -0.237 OA
ATOM     97  O   UNL A   1      44.523  19.588  23.389  1.00  0.00    -0.744 OA
ENDBRANCH  93  94
ENDBRANCH  67  88
ENDBRANCH  41  42
ENDBRANCH  33  36
ENDBRANCH  31  32
ENDBRANCH  30  31
ENDBRANCH   1  30
TORSDOF 18
ENDMDL
