MODEL 1
REMARK VINA RESULT:     -10.5      0.000      0.000
REMARK SMILES CC[C@H](NC(=O)N1CCO[C@@H](CC(=O)NCCCCNC(=O)c2ccc(-c3c4nc(c(-c5ccc(S(=O)(=O)[O-])cc5)c5ccc([nH]5)c(-c5ccc(S(=O)(=O)[O-])cc5)c5nc(c(-c6ccc(S(=O)(=O)[O-])cc6)c6ccc3[nH]6)C=C5)C=C4)cc2)C1)c1cccs1
REMARK SMILES IDX 17 1 16 2 15 3 13 4 14 5 12 7 11 8 7 9 8 10 83 11 9 12 10 13
REMARK SMILES IDX 5 14 4 15 6 17 3 18 2 19 1 20 84 21 85 22 88 23 86 24 87 25
REMARK SMILES IDX 18 26 19 27 20 28 21 29 22 31 23 32 24 33 82 34 25 35 81 36
REMARK SMILES IDX 26 37 27 38 28 39 75 40 29 41 80 42 74 43 76 44 30 45 79 46
REMARK SMILES IDX 73 47 72 48 31 50 61 51 42 52 60 53 43 54 46 55 59 56 77 57
REMARK SMILES IDX 44 58 45 59 58 61 78 62 47 63 32 64 33 65 41 66 34 67 40 68
REMARK SMILES IDX 35 69 36 70 37 71 38 72 39 73 62 74 63 75 71 76 64 77 70 78
REMARK SMILES IDX 65 79 66 80 67 81 68 82 69 83 48 84 49 85 57 86 50 87 56 88
REMARK SMILES IDX 51 89 52 90 53 91 54 92 55 93
REMARK H PARENT 15 6 4 16 20 30 76 49 46 60
REMARK Flexibility Score: inf
ROOT
ATOM      1  C   UNL A   1      35.594  21.518  24.866  1.00  0.00     0.023 C 
ENDROOT
BRANCH   1   2
ATOM      2  C   UNL A   1      34.077  21.454  24.671  1.00  0.00     0.116 C 
BRANCH   2   3
ATOM      3  N   UNL A   1      33.357  21.834  25.880  1.00  0.00    -0.356 N 
ATOM      4  C   UNL A   1      33.107  23.059  26.430  1.00  0.00     0.222 C 
ATOM      5  O   UNL A   1      32.529  23.103  27.518  1.00  0.00    -0.275 OA
ATOM      6  H   UNL A   1      32.987  21.076  26.389  1.00  0.00     0.163 HD
BRANCH   4   7
ATOM      7  C   UNL A   1      33.555  24.341  25.752  1.00  0.00     0.133 C 
BRANCH   7   8
ATOM      8  C   UNL A   1      32.454  24.951  24.871  1.00  0.00     0.147 C 
ATOM      9  N   UNL A   1      32.136  26.951  23.344  1.00  0.00    -0.320 N 
ATOM     10  C   UNL A   1      31.858  26.025  22.256  1.00  0.00     0.150 C 
ATOM     11  C   UNL A   1      32.883  26.345  24.426  1.00  0.00     0.154 C 
ATOM     12  C   UNL A   1      31.331  24.691  22.794  1.00  0.00     0.182 C 
ATOM     13  O   UNL A   1      32.262  24.100  23.720  1.00  0.00    -0.374 OA
BRANCH   9  14
ATOM     14  C   UNL A   1      32.604  28.204  23.023  1.00  0.00     0.318 C 
ATOM     15  N   UNL A   1      32.119  29.258  23.697  1.00  0.00    -0.330 N 
ATOM     16  H   UNL A   1      32.602  30.100  23.529  1.00  0.00     0.166 HD
ATOM     17  O   UNL A   1      33.527  28.393  22.233  1.00  0.00    -0.249 OA
BRANCH  15  18
ATOM     18  C   UNL A   1      31.012  29.383  24.625  1.00  0.00     0.124 C 
BRANCH  18  19
ATOM     19  C   UNL A   1      31.465  30.130  25.894  1.00  0.00     0.027 C 
ATOM     20  C   UNL A   1      32.982  30.275  25.980  1.00  0.00     0.006 C 
ENDBRANCH  18  19
BRANCH  18  21
ATOM     21  C   UNL A   1      29.904  30.108  23.870  1.00  0.00     0.027 A 
ATOM     22  C   UNL A   1      29.459  31.418  24.006  1.00  0.00     0.017 A 
ATOM     23  S   UNL A   1      29.063  29.323  22.590  1.00  0.00    -0.147 S 
ATOM     24  C   UNL A   1      28.400  31.744  23.116  1.00  0.00     0.012 A 
ATOM     25  C   UNL A   1      28.074  30.686  22.302  1.00  0.00     0.065 A 
ENDBRANCH  18  21
ENDBRANCH  15  18
ENDBRANCH   9  14
ENDBRANCH   7   8
ENDBRANCH   4   7
ENDBRANCH   2   3
ENDBRANCH   1   2
BRANCH   1  26
ATOM     26  C   UNL A   1      36.311  22.675  24.190  1.00  0.00     0.023 C 
BRANCH  26  27
ATOM     27  C   UNL A   1      37.326  23.377  25.071  1.00  0.00     0.116 C 
BRANCH  27  28
ATOM     28  N   UNL A   1      38.399  22.508  25.539  1.00  0.00    -0.352 N 
ATOM     29  C   UNL A   1      39.480  22.812  26.342  1.00  0.00     0.251 C 
ATOM     30  H   UNL A   1      38.344  21.571  25.240  1.00  0.00     0.163 HD
ATOM     31  O   UNL A   1      40.331  21.978  26.587  1.00  0.00    -0.269 OA
BRANCH  29  32
ATOM     32  C   UNL A   1      39.610  24.193  26.857  1.00  0.00     0.039 A 
ATOM     33  C   UNL A   1      39.153  24.479  28.145  1.00  0.00     0.014 A 
ATOM     34  C   UNL A   1      40.267  25.167  26.105  1.00  0.00     0.014 A 
ATOM     35  C   UNL A   1      39.444  25.719  28.716  1.00  0.00     0.010 A 
ATOM     36  C   UNL A   1      40.650  26.353  26.713  1.00  0.00     0.010 A 
ATOM     37  C   UNL A   1      40.242  26.644  28.024  1.00  0.00    -0.014 A 
BRANCH  37  38
ATOM     38  C   UNL A   1      40.658  27.934  28.629  1.00  0.00     0.031 A 
ATOM     39  C   UNL A   1      42.043  28.067  29.201  1.00  0.00     0.074 A 
ATOM     40  C   UNL A   1      39.768  28.939  28.760  1.00  0.00     0.049 A 
ATOM     41  N   UNL A   1      42.555  29.040  29.908  1.00  0.00    -0.248 NA
ATOM     42  C   UNL A   1      42.959  26.931  28.991  1.00  0.00     0.031 C 
ATOM     43  C   UNL A   1      38.377  28.914  28.299  1.00  0.00     0.029 A 
ATOM     44  N   UNL A   1      39.902  30.178  29.336  1.00  0.00    -0.354 N 
ATOM     45  C   UNL A   1      43.829  28.614  30.265  1.00  0.00     0.074 A 
ATOM     46  C   UNL A   1      43.995  27.278  29.738  1.00  0.00     0.031 C 
ATOM     47  C   UNL A   1      37.797  30.092  28.584  1.00  0.00     0.029 A 
ATOM     48  C   UNL A   1      38.758  30.939  29.283  1.00  0.00     0.049 A 
ATOM     49  H   UNL A   1      40.739  30.494  29.747  1.00  0.00     0.167 HD
ATOM     50  C   UNL A   1      44.785  29.282  30.952  1.00  0.00     0.031 A 
ATOM     51  C   UNL A   1      38.509  32.177  29.753  1.00  0.00     0.031 A 
ATOM     52  C   UNL A   1      44.636  30.631  31.424  1.00  0.00     0.049 A 
ATOM     53  C   UNL A   1      39.605  32.925  30.458  1.00  0.00     0.074 A 
ATOM     54  C   UNL A   1      45.570  31.429  32.060  1.00  0.00     0.029 A 
ATOM     55  N   UNL A   1      43.482  31.387  31.294  1.00  0.00    -0.354 N 
ATOM     56  N   UNL A   1      40.822  32.526  30.741  1.00  0.00    -0.248 NA
ATOM     57  C   UNL A   1      39.300  34.294  30.900  1.00  0.00     0.031 C 
ATOM     58  C   UNL A   1      44.971  32.660  32.339  1.00  0.00     0.029 A 
ATOM     59  C   UNL A   1      43.676  32.642  31.841  1.00  0.00     0.049 A 
ATOM     60  H   UNL A   1      42.647  31.077  30.875  1.00  0.00     0.167 HD
ATOM     61  C   UNL A   1      41.436  33.601  31.372  1.00  0.00     0.074 A 
ATOM     62  C   UNL A   1      40.460  34.671  31.421  1.00  0.00     0.031 C 
ATOM     63  C   UNL A   1      42.694  33.694  31.867  1.00  0.00     0.031 A 
BRANCH  50  64
ATOM     64  C   UNL A   1      46.076  28.558  31.221  1.00  0.00    -0.014 A 
ATOM     65  C   UNL A   1      47.156  28.641  30.323  1.00  0.00     0.010 A 
ATOM     66  C   UNL A   1      46.215  27.791  32.392  1.00  0.00     0.010 A 
ATOM     67  C   UNL A   1      48.332  27.928  30.564  1.00  0.00     0.020 A 
ATOM     68  C   UNL A   1      47.402  27.098  32.650  1.00  0.00     0.020 A 
ATOM     69  C   UNL A   1      48.445  27.155  31.723  1.00  0.00     0.054 A 
BRANCH  69  70
ATOM     70  S   UNL A   1      49.986  26.245  32.017  1.00  0.00     0.124 S 
ATOM     71  O   UNL A   1      50.945  27.017  31.230  1.00  0.00    -0.237 OA
ATOM     72  O   UNL A   1      50.145  26.338  33.466  1.00  0.00    -0.237 OA
ATOM     73  O   UNL A   1      49.697  24.905  31.510  1.00  0.00    -0.744 OA
ENDBRANCH  69  70
ENDBRANCH  50  64
BRANCH  51  74
ATOM     74  C   UNL A   1      37.173  32.798  29.541  1.00  0.00    -0.014 A 
ATOM     75  C   UNL A   1      36.236  32.837  30.588  1.00  0.00     0.010 A 
ATOM     76  C   UNL A   1      36.838  33.372  28.301  1.00  0.00     0.010 A 
ATOM     77  C   UNL A   1      34.982  33.425  30.398  1.00  0.00     0.020 A 
ATOM     78  C   UNL A   1      35.593  33.981  28.113  1.00  0.00     0.020 A 
ATOM     79  C   UNL A   1      34.669  33.994  29.161  1.00  0.00     0.054 A 
BRANCH  79  80
ATOM     80  S   UNL A   1      33.058  34.804  28.952  1.00  0.00     0.124 S 
ATOM     81  O   UNL A   1      32.529  34.784  30.312  1.00  0.00    -0.237 OA
ATOM     82  O   UNL A   1      33.427  36.119  28.436  1.00  0.00    -0.237 OA
ATOM     83  O   UNL A   1      32.365  33.942  27.997  1.00  0.00    -0.744 OA
ENDBRANCH  79  80
ENDBRANCH  51  74
BRANCH  63  84
ATOM     84  C   UNL A   1      43.104  35.007  32.473  1.00  0.00    -0.014 A 
ATOM     85  C   UNL A   1      43.614  36.045  31.674  1.00  0.00     0.010 A 
ATOM     86  C   UNL A   1      42.898  35.229  33.846  1.00  0.00     0.010 A 
ATOM     87  C   UNL A   1      43.930  37.281  32.245  1.00  0.00     0.020 A 
ATOM     88  C   UNL A   1      43.194  36.470  34.416  1.00  0.00     0.020 A 
ATOM     89  C   UNL A   1      43.717  37.485  33.612  1.00  0.00     0.054 A 
BRANCH  89  90
ATOM     90  S   UNL A   1      44.074  39.116  34.320  1.00  0.00     0.124 S 
ATOM     91  O   UNL A   1      45.404  39.395  33.784  1.00  0.00    -0.237 OA
ATOM     92  O   UNL A   1      42.995  39.943  33.784  1.00  0.00    -0.237 OA
ATOM     93  O   UNL A   1      44.017  38.887  35.762  1.00  0.00    -0.744 OA
ENDBRANCH  89  90
ENDBRANCH  63  84
ENDBRANCH  37  38
ENDBRANCH  29  32
ENDBRANCH  27  28
ENDBRANCH  26  27
ENDBRANCH   1  26
TORSDOF 19
ENDMDL
MODEL 2
REMARK VINA RESULT:     -10.1      3.474      8.866
REMARK SMILES CC[C@H](NC(=O)N1CCO[C@@H](CC(=O)NCCCCNC(=O)c2ccc(-c3c4nc(c(-c5ccc(S(=O)(=O)[O-])cc5)c5ccc([nH]5)c(-c5ccc(S(=O)(=O)[O-])cc5)c5nc(c(-c6ccc(S(=O)(=O)[O-])cc6)c6ccc3[nH]6)C=C5)C=C4)cc2)C1)c1cccs1
REMARK SMILES IDX 17 1 16 2 15 3 13 4 14 5 12 7 11 8 7 9 8 10 83 11 9 12 10 13
REMARK SMILES IDX 5 14 4 15 6 17 3 18 2 19 1 20 84 21 85 22 88 23 86 24 87 25
REMARK SMILES IDX 18 26 19 27 20 28 21 29 22 31 23 32 24 33 82 34 25 35 81 36
REMARK SMILES IDX 26 37 27 38 28 39 75 40 29 41 80 42 74 43 76 44 30 45 79 46
REMARK SMILES IDX 73 47 72 48 31 50 61 51 42 52 60 53 43 54 46 55 59 56 77 57
REMARK SMILES IDX 44 58 45 59 58 61 78 62 47 63 32 64 33 65 41 66 34 67 40 68
REMARK SMILES IDX 35 69 36 70 37 71 38 72 39 73 62 74 63 75 71 76 64 77 70 78
REMARK SMILES IDX 65 79 66 80 67 81 68 82 69 83 48 84 49 85 57 86 50 87 56 88
REMARK SMILES IDX 51 89 52 90 53 91 54 92 55 93
REMARK H PARENT 15 6 4 16 20 30 76 49 46 60
REMARK Flexibility Score: inf
ROOT
ATOM      1  C   UNL A   1      36.839  22.514  25.629  1.00  0.00     0.023 C 
ENDROOT
BRANCH   1   2
ATOM      2  C   UNL A   1      35.550  22.346  24.820  1.00  0.00     0.116 C 
BRANCH   2   3
ATOM      3  N   UNL A   1      34.366  22.395  25.670  1.00  0.00    -0.356 N 
ATOM      4  C   UNL A   1      33.583  23.443  26.062  1.00  0.00     0.222 C 
ATOM      5  O   UNL A   1      32.668  23.222  26.858  1.00  0.00    -0.275 OA
ATOM      6  H   UNL A   1      34.080  21.520  26.021  1.00  0.00     0.163 HD
BRANCH   4   7
ATOM      7  C   UNL A   1      33.842  24.856  25.571  1.00  0.00     0.133 C 
BRANCH   7   8
ATOM      8  C   UNL A   1      32.979  25.218  24.352  1.00  0.00     0.147 C 
ATOM      9  N   UNL A   1      32.587  27.208  22.830  1.00  0.00    -0.320 N 
ATOM     10  C   UNL A   1      33.011  26.382  21.708  1.00  0.00     0.150 C 
ATOM     11  C   UNL A   1      33.067  26.720  24.106  1.00  0.00     0.154 C 
ATOM     12  C   UNL A   1      32.786  24.896  22.007  1.00  0.00     0.182 C 
ATOM     13  O   UNL A   1      33.478  24.496  23.206  1.00  0.00    -0.374 OA
BRANCH   9  14
ATOM     14  C   UNL A   1      32.712  28.573  22.710  1.00  0.00     0.318 C 
ATOM     15  N   UNL A   1      31.597  29.305  22.572  1.00  0.00    -0.330 N 
ATOM     16  H   UNL A   1      31.741  30.277  22.648  1.00  0.00     0.166 HD
ATOM     17  O   UNL A   1      33.783  29.163  22.841  1.00  0.00    -0.249 OA
BRANCH  15  18
ATOM     18  C   UNL A   1      30.218  28.927  22.331  1.00  0.00     0.124 C 
BRANCH  18  19
ATOM     19  C   UNL A   1      29.720  27.993  23.450  1.00  0.00     0.027 C 
ATOM     20  C   UNL A   1      28.223  27.710  23.356  1.00  0.00     0.006 C 
ENDBRANCH  18  19
BRANCH  18  21
ATOM     21  C   UNL A   1      29.429  30.228  22.245  1.00  0.00     0.027 A 
ATOM     22  C   UNL A   1      28.707  30.750  21.179  1.00  0.00     0.017 A 
ATOM     23  S   UNL A   1      29.270  31.244  23.626  1.00  0.00    -0.147 S 
ATOM     24  C   UNL A   1      28.090  31.996  21.476  1.00  0.00     0.012 A 
ATOM     25  C   UNL A   1      28.333  32.388  22.770  1.00  0.00     0.065 A 
ENDBRANCH  18  21
ENDBRANCH  15  18
ENDBRANCH   9  14
ENDBRANCH   7   8
ENDBRANCH   4   7
ENDBRANCH   2   3
ENDBRANCH   1   2
BRANCH   1  26
ATOM     26  C   UNL A   1      37.476  23.893  25.600  1.00  0.00     0.023 C 
BRANCH  26  27
ATOM     27  C   UNL A   1      38.571  24.094  26.631  1.00  0.00     0.116 C 
BRANCH  27  28
ATOM     28  N   UNL A   1      39.886  24.333  26.050  1.00  0.00    -0.352 N 
ATOM     29  C   UNL A   1      40.807  25.317  26.353  1.00  0.00     0.251 C 
ATOM     30  H   UNL A   1      40.157  23.704  25.343  1.00  0.00     0.163 HD
ATOM     31  O   UNL A   1      41.841  25.421  25.722  1.00  0.00    -0.269 OA
BRANCH  29  32
ATOM     32  C   UNL A   1      40.482  26.279  27.429  1.00  0.00     0.039 A 
ATOM     33  C   UNL A   1      39.643  25.872  28.468  1.00  0.00     0.014 A 
ATOM     34  C   UNL A   1      41.084  27.537  27.456  1.00  0.00     0.014 A 
ATOM     35  C   UNL A   1      39.486  26.694  29.585  1.00  0.00     0.010 A 
ATOM     36  C   UNL A   1      41.014  28.301  28.612  1.00  0.00     0.010 A 
ATOM     37  C   UNL A   1      40.214  27.890  29.689  1.00  0.00    -0.014 A 
BRANCH  37  38
ATOM     38  C   UNL A   1      40.153  28.747  30.899  1.00  0.00     0.031 A 
ATOM     39  C   UNL A   1      39.144  29.861  30.962  1.00  0.00     0.074 A 
ATOM     40  C   UNL A   1      41.063  28.596  31.882  1.00  0.00     0.049 A 
ATOM     41  N   UNL A   1      39.024  30.818  31.846  1.00  0.00    -0.248 NA
ATOM     42  C   UNL A   1      38.171  29.939  29.858  1.00  0.00     0.031 C 
ATOM     43  C   UNL A   1      42.129  27.591  31.913  1.00  0.00     0.029 A 
ATOM     44  N   UNL A   1      41.244  29.303  33.045  1.00  0.00    -0.354 N 
ATOM     45  C   UNL A   1      37.998  31.632  31.379  1.00  0.00     0.074 A 
ATOM     46  C   UNL A   1      37.562  31.086  30.114  1.00  0.00     0.031 C 
ATOM     47  C   UNL A   1      42.832  27.728  33.050  1.00  0.00     0.029 A 
ATOM     48  C   UNL A   1      42.296  28.854  33.808  1.00  0.00     0.049 A 
ATOM     49  H   UNL A   1      40.673  30.060  33.310  1.00  0.00     0.167 HD
ATOM     50  C   UNL A   1      37.453  32.726  31.962  1.00  0.00     0.031 A 
ATOM     51  C   UNL A   1      42.779  29.302  34.984  1.00  0.00     0.031 A 
ATOM     52  C   UNL A   1      37.852  33.231  33.246  1.00  0.00     0.049 A 
ATOM     53  C   UNL A   1      42.117  30.480  35.643  1.00  0.00     0.074 A 
ATOM     54  C   UNL A   1      37.311  34.283  33.963  1.00  0.00     0.029 A 
ATOM     55  N   UNL A   1      38.880  32.707  34.014  1.00  0.00    -0.354 N 
ATOM     56  N   UNL A   1      41.114  31.207  35.212  1.00  0.00    -0.248 NA
ATOM     57  C   UNL A   1      42.646  30.894  36.950  1.00  0.00     0.031 C 
ATOM     58  C   UNL A   1      38.031  34.412  35.154  1.00  0.00     0.029 A 
ATOM     59  C   UNL A   1      38.994  33.416  35.195  1.00  0.00     0.049 A 
ATOM     60  H   UNL A   1      39.446  31.944  33.755  1.00  0.00     0.167 HD
ATOM     61  C   UNL A   1      40.874  32.148  36.205  1.00  0.00     0.074 A 
ATOM     62  C   UNL A   1      41.832  31.894  37.263  1.00  0.00     0.031 C 
ATOM     63  C   UNL A   1      39.947  33.136  36.238  1.00  0.00     0.031 A 
BRANCH  50  64
ATOM     64  C   UNL A   1      36.361  33.436  31.209  1.00  0.00    -0.014 A 
ATOM     65  C   UNL A   1      36.587  33.955  29.921  1.00  0.00     0.010 A 
ATOM     66  C   UNL A   1      35.089  33.578  31.792  1.00  0.00     0.010 A 
ATOM     67  C   UNL A   1      35.578  34.651  29.252  1.00  0.00     0.020 A 
ATOM     68  C   UNL A   1      34.067  34.249  31.113  1.00  0.00     0.020 A 
ATOM     69  C   UNL A   1      34.326  34.799  29.856  1.00  0.00     0.054 A 
BRANCH  69  70
ATOM     70  S   UNL A   1      33.029  35.699  28.963  1.00  0.00     0.124 S 
ATOM     71  O   UNL A   1      32.381  34.626  28.213  1.00  0.00    -0.237 OA
ATOM     72  O   UNL A   1      32.234  36.278  30.043  1.00  0.00    -0.237 OA
ATOM     73  O   UNL A   1      33.772  36.665  28.156  1.00  0.00    -0.744 OA
ENDBRANCH  69  70
ENDBRANCH  50  64
BRANCH  51  74
ATOM     74  C   UNL A   1      43.931  28.613  35.626  1.00  0.00    -0.014 A 
ATOM     75  C   UNL A   1      45.239  29.089  35.430  1.00  0.00     0.010 A 
ATOM     76  C   UNL A   1      43.726  27.494  36.452  1.00  0.00     0.010 A 
ATOM     77  C   UNL A   1      46.325  28.451  36.037  1.00  0.00     0.020 A 
ATOM     78  C   UNL A   1      44.807  26.866  37.079  1.00  0.00     0.020 A 
ATOM     79  C   UNL A   1      46.101  27.342  36.858  1.00  0.00     0.054 A 
BRANCH  79  80
ATOM     80  S   UNL A   1      47.518  26.563  37.683  1.00  0.00     0.124 S 
ATOM     81  O   UNL A   1      47.730  27.450  38.824  1.00  0.00    -0.237 OA
ATOM     82  O   UNL A   1      47.009  25.233  38.002  1.00  0.00    -0.237 OA
ATOM     83  O   UNL A   1      48.563  26.593  36.663  1.00  0.00    -0.744 OA
ENDBRANCH  79  80
ENDBRANCH  51  74
BRANCH  63  84
ATOM     84  C   UNL A   1      39.894  33.994  37.471  1.00  0.00    -0.014 A 
ATOM     85  C   UNL A   1      40.614  35.198  37.546  1.00  0.00     0.010 A 
ATOM     86  C   UNL A   1      39.048  33.625  38.533  1.00  0.00     0.010 A 
ATOM     87  C   UNL A   1      40.502  36.014  38.676  1.00  0.00     0.020 A 
ATOM     88  C   UNL A   1      38.919  34.449  39.654  1.00  0.00     0.020 A 
ATOM     89  C   UNL A   1      39.655  35.634  39.722  1.00  0.00     0.054 A 
BRANCH  89  90
ATOM     90  S   UNL A   1      39.477  36.739  41.148  1.00  0.00     0.124 S 
ATOM     91  O   UNL A   1      40.866  36.955  41.541  1.00  0.00    -0.237 OA
ATOM     92  O   UNL A   1      38.798  37.899  40.575  1.00  0.00    -0.237 OA
ATOM     93  O   UNL A   1      38.676  35.960  42.091  1.00  0.00    -0.744 OA
ENDBRANCH  89  90
ENDBRANCH  63  84
ENDBRANCH  37  38
ENDBRANCH  29  32
ENDBRANCH  27  28
ENDBRANCH  26  27
ENDBRANCH   1  26
TORSDOF 19
ENDMDL
MODEL 3
REMARK VINA RESULT:     -10.1      3.757      9.035
REMARK SMILES CC[C@H](NC(=O)N1CCO[C@@H](CC(=O)NCCCCNC(=O)c2ccc(-c3c4nc(c(-c5ccc(S(=O)(=O)[O-])cc5)c5ccc([nH]5)c(-c5ccc(S(=O)(=O)[O-])cc5)c5nc(c(-c6ccc(S(=O)(=O)[O-])cc6)c6ccc3[nH]6)C=C5)C=C4)cc2)C1)c1cccs1
REMARK SMILES IDX 17 1 16 2 15 3 13 4 14 5 12 7 11 8 7 9 8 10 83 11 9 12 10 13
REMARK SMILES IDX 5 14 4 15 6 17 3 18 2 19 1 20 84 21 85 22 88 23 86 24 87 25
REMARK SMILES IDX 18 26 19 27 20 28 21 29 22 31 23 32 24 33 82 34 25 35 81 36
REMARK SMILES IDX 26 37 27 38 28 39 75 40 29 41 80 42 74 43 76 44 30 45 79 46
REMARK SMILES IDX 73 47 72 48 31 50 61 51 42 52 60 53 43 54 46 55 59 56 77 57
REMARK SMILES IDX 44 58 45 59 58 61 78 62 47 63 32 64 33 65 41 66 34 67 40 68
REMARK SMILES IDX 35 69 36 70 37 71 38 72 39 73 62 74 63 75 71 76 64 77 70 78
REMARK SMILES IDX 65 79 66 80 67 81 68 82 69 83 48 84 49 85 57 86 50 87 56 88
REMARK SMILES IDX 51 89 52 90 53 91 54 92 55 93
REMARK H PARENT 15 6 4 16 20 30 76 49 46 60
REMARK Flexibility Score: inf
ROOT
ATOM      1  C   UNL A   1      36.892  20.588  24.900  1.00  0.00     0.023 C 
ENDROOT
BRANCH   1   2
ATOM      2  C   UNL A   1      35.384  20.821  24.769  1.00  0.00     0.116 C 
BRANCH   2   3
ATOM      3  N   UNL A   1      34.715  20.790  26.064  1.00  0.00    -0.356 N 
ATOM      4  C   UNL A   1      34.328  21.798  26.900  1.00  0.00     0.222 C 
ATOM      5  O   UNL A   1      33.839  21.496  27.990  1.00  0.00    -0.275 OA
ATOM      6  H   UNL A   1      34.505  19.886  26.392  1.00  0.00     0.163 HD
BRANCH   4   7
ATOM      7  C   UNL A   1      34.521  23.257  26.528  1.00  0.00     0.133 C 
BRANCH   7   8
ATOM      8  C   UNL A   1      33.229  23.902  26.003  1.00  0.00     0.147 C 
ATOM      9  N   UNL A   1      32.521  25.519  24.182  1.00  0.00    -0.320 N 
ATOM     10  C   UNL A   1      31.676  24.468  23.633  1.00  0.00     0.150 C 
ATOM     11  C   UNL A   1      33.588  25.010  25.018  1.00  0.00     0.154 C 
ATOM     12  C   UNL A   1      31.280  23.462  24.719  1.00  0.00     0.182 C 
ATOM     13  O   UNL A   1      32.444  22.886  25.343  1.00  0.00    -0.374 OA
BRANCH   9  14
ATOM     14  C   UNL A   1      32.951  26.512  23.332  1.00  0.00     0.318 C 
ATOM     15  N   UNL A   1      32.641  27.783  23.628  1.00  0.00    -0.330 N 
ATOM     16  H   UNL A   1      33.104  28.451  23.072  1.00  0.00     0.166 HD
ATOM     17  O   UNL A   1      33.702  26.303  22.381  1.00  0.00    -0.249 OA
BRANCH  15  18
ATOM     18  C   UNL A   1      31.746  28.352  24.617  1.00  0.00     0.124 C 
BRANCH  18  19
ATOM     19  C   UNL A   1      32.413  29.559  25.304  1.00  0.00     0.027 C 
ATOM     20  C   UNL A   1      31.920  29.768  26.733  1.00  0.00     0.006 C 
ENDBRANCH  18  19
BRANCH  18  21
ATOM     21  C   UNL A   1      30.469  28.722  23.873  1.00  0.00     0.027 A 
ATOM     22  C   UNL A   1      30.087  29.945  23.335  1.00  0.00     0.017 A 
ATOM     23  S   UNL A   1      29.287  27.520  23.518  1.00  0.00    -0.147 S 
ATOM     24  C   UNL A   1      28.815  29.905  22.701  1.00  0.00     0.012 A 
ATOM     25  C   UNL A   1      28.262  28.648  22.746  1.00  0.00     0.065 A 
ENDBRANCH  18  21
ENDBRANCH  15  18
ENDBRANCH   9  14
ENDBRANCH   7   8
ENDBRANCH   4   7
ENDBRANCH   2   3
ENDBRANCH   1   2
BRANCH   1  26
ATOM     26  C   UNL A   1      37.757  21.831  25.014  1.00  0.00     0.023 C 
BRANCH  26  27
ATOM     27  C   UNL A   1      38.866  21.724  26.042  1.00  0.00     0.116 C 
BRANCH  27  28
ATOM     28  N   UNL A   1      39.562  20.443  26.024  1.00  0.00    -0.352 N 
ATOM     29  C   UNL A   1      40.906  20.178  26.201  1.00  0.00     0.251 C 
ATOM     30  H   UNL A   1      38.993  19.656  25.865  1.00  0.00     0.163 HD
ATOM     31  O   UNL A   1      41.340  19.047  26.087  1.00  0.00    -0.269 OA
BRANCH  29  32
ATOM     32  C   UNL A   1      41.817  21.310  26.478  1.00  0.00     0.039 A 
ATOM     33  C   UNL A   1      42.242  22.111  25.416  1.00  0.00     0.014 A 
ATOM     34  C   UNL A   1      42.166  21.630  27.790  1.00  0.00     0.014 A 
ATOM     35  C   UNL A   1      42.937  23.291  25.682  1.00  0.00     0.010 A 
ATOM     36  C   UNL A   1      42.758  22.855  28.058  1.00  0.00     0.010 A 
ATOM     37  C   UNL A   1      43.152  23.699  27.008  1.00  0.00    -0.014 A 
BRANCH  37  38
ATOM     38  C   UNL A   1      43.800  24.993  27.339  1.00  0.00     0.031 A 
ATOM     39  C   UNL A   1      42.968  26.107  27.913  1.00  0.00     0.074 A 
ATOM     40  C   UNL A   1      45.096  25.200  27.030  1.00  0.00     0.049 A 
ATOM     41  N   UNL A   1      43.294  27.355  28.126  1.00  0.00    -0.248 NA
ATOM     42  C   UNL A   1      41.568  25.787  28.245  1.00  0.00     0.031 C 
ATOM     43  C   UNL A   1      45.996  24.219  26.417  1.00  0.00     0.029 A 
ATOM     44  N   UNL A   1      45.879  26.317  27.178  1.00  0.00    -0.354 N 
ATOM     45  C   UNL A   1      42.132  27.976  28.570  1.00  0.00     0.074 A 
ATOM     46  C   UNL A   1      41.083  26.981  28.551  1.00  0.00     0.031 C 
ATOM     47  C   UNL A   1      47.213  24.768  26.269  1.00  0.00     0.029 A 
ATOM     48  C   UNL A   1      47.171  26.150  26.737  1.00  0.00     0.049 A 
ATOM     49  H   UNL A   1      45.549  27.160  27.566  1.00  0.00     0.167 HD
ATOM     50  C   UNL A   1      41.956  29.255  28.978  1.00  0.00     0.031 A 
ATOM     51  C   UNL A   1      48.204  27.015  26.705  1.00  0.00     0.031 A 
ATOM     52  C   UNL A   1      43.013  30.224  29.049  1.00  0.00     0.049 A 
ATOM     53  C   UNL A   1      48.002  28.412  27.221  1.00  0.00     0.074 A 
ATOM     54  C   UNL A   1      42.961  31.523  29.523  1.00  0.00     0.029 A 
ATOM     55  N   UNL A   1      44.321  29.994  28.651  1.00  0.00    -0.354 N 
ATOM     56  N   UNL A   1      46.908  28.966  27.686  1.00  0.00    -0.248 NA
ATOM     57  C   UNL A   1      49.174  29.299  27.217  1.00  0.00     0.031 C 
ATOM     58  C   UNL A   1      44.232  32.087  29.386  1.00  0.00     0.029 A 
ATOM     59  C   UNL A   1      45.085  31.126  28.863  1.00  0.00     0.049 A 
ATOM     60  H   UNL A   1      44.656  29.149  28.272  1.00  0.00     0.167 HD
ATOM     61  C   UNL A   1      47.264  30.258  28.053  1.00  0.00     0.074 A 
ATOM     62  C   UNL A   1      48.678  30.400  27.765  1.00  0.00     0.031 C 
ATOM     63  C   UNL A   1      46.492  31.240  28.580  1.00  0.00     0.031 A 
BRANCH  50  64
ATOM     64  C   UNL A   1      40.567  29.665  29.384  1.00  0.00    -0.014 A 
ATOM     65  C   UNL A   1      39.561  29.869  28.422  1.00  0.00     0.010 A 
ATOM     66  C   UNL A   1      40.259  29.839  30.745  1.00  0.00     0.010 A 
ATOM     67  C   UNL A   1      38.287  30.292  28.809  1.00  0.00     0.020 A 
ATOM     68  C   UNL A   1      38.978  30.235  31.139  1.00  0.00     0.020 A 
ATOM     69  C   UNL A   1      38.006  30.479  30.166  1.00  0.00     0.054 A 
BRANCH  69  70
ATOM     70  S   UNL A   1      36.343  31.021  30.644  1.00  0.00     0.124 S 
ATOM     71  O   UNL A   1      36.588  32.395  31.077  1.00  0.00    -0.237 OA
ATOM     72  O   UNL A   1      35.587  30.879  29.403  1.00  0.00    -0.237 OA
ATOM     73  O   UNL A   1      35.969  30.089  31.707  1.00  0.00    -0.744 OA
ENDBRANCH  69  70
ENDBRANCH  50  64
BRANCH  51  74
ATOM     74  C   UNL A   1      49.529  26.573  26.194  1.00  0.00    -0.014 A 
ATOM     75  C   UNL A   1      49.925  26.891  24.883  1.00  0.00     0.010 A 
ATOM     76  C   UNL A   1      50.411  25.850  27.018  1.00  0.00     0.010 A 
ATOM     77  C   UNL A   1      51.172  26.485  24.399  1.00  0.00     0.020 A 
ATOM     78  C   UNL A   1      51.668  25.460  26.546  1.00  0.00     0.020 A 
ATOM     79  C   UNL A   1      52.036  25.772  25.235  1.00  0.00     0.054 A 
BRANCH  79  80
ATOM     80  S   UNL A   1      53.674  25.303  24.607  1.00  0.00     0.124 S 
ATOM     81  O   UNL A   1      53.584  25.694  23.204  1.00  0.00    -0.237 OA
ATOM     82  O   UNL A   1      54.572  26.107  25.431  1.00  0.00    -0.237 OA
ATOM     83  O   UNL A   1      53.734  23.865  24.856  1.00  0.00    -0.744 OA
ENDBRANCH  79  80
ENDBRANCH  51  74
BRANCH  63  84
ATOM     84  C   UNL A   1      47.162  32.542  28.916  1.00  0.00    -0.014 A 
ATOM     85  C   UNL A   1      47.031  33.661  28.075  1.00  0.00     0.010 A 
ATOM     86  C   UNL A   1      47.864  32.666  30.128  1.00  0.00     0.010 A 
ATOM     87  C   UNL A   1      47.609  34.882  28.435  1.00  0.00     0.020 A 
ATOM     88  C   UNL A   1      48.425  33.891  30.500  1.00  0.00     0.020 A 
ATOM     89  C   UNL A   1      48.301  34.988  29.646  1.00  0.00     0.054 A 
BRANCH  89  90
ATOM     90  S   UNL A   1      48.987  36.598  30.123  1.00  0.00     0.124 S 
ATOM     91  O   UNL A   1      48.438  36.776  31.464  1.00  0.00    -0.237 OA
ATOM     92  O   UNL A   1      50.428  36.366  30.059  1.00  0.00    -0.237 OA
ATOM     93  O   UNL A   1      48.464  37.511  29.108  1.00  0.00    -0.744 OA
ENDBRANCH  89  90
ENDBRANCH  63  84
ENDBRANCH  37  38
ENDBRANCH  29  32
ENDBRANCH  27  28
ENDBRANCH  26  27
ENDBRANCH   1  26
TORSDOF 19
ENDMDL
