MODEL 1
REMARK VINA RESULT:     -12.1      0.000      0.000
REMARK SMILES Cc1c(C(=O)NCCCCNC(=O)c2ccc(-c3c4nc(c(-c5ccc(S(=O)(=O)[O-])cc5)c5ccc([nH]5)c(-c5ccc(S(=O)(=O)[O-])cc5)c5nc(c(-c6ccc(S(=O)(=O)[O-])cc6)c6ccc3[nH]6)C=C5)C=C4)cc2)cccc1N1[C@@H](C)C=C(/C=C(\C#N)C(=O)NCCc2c[nH]c3ccccc23)[C@@H]1C
REMARK SMILES IDX 7 1 6 2 4 3 5 4 3 6 1 7 2 8 77 9 74 10 76 11 75 12 78 13
REMARK SMILES IDX 79 14 101 15 81 16 80 17 82 18 102 19 83 20 84 21 85 22
REMARK SMILES IDX 86 23 87 24 88 25 89 26 90 28 91 29 92 30 93 31 100 32 94 33
REMARK SMILES IDX 95 34 99 35 96 37 98 38 97 39 8 40 9 41 10 42 11 43 12 44
REMARK SMILES IDX 13 46 14 47 15 48 73 49 16 50 72 51 17 52 18 53 19 54 66 55
REMARK SMILES IDX 20 56 71 57 65 58 67 59 21 60 70 61 64 62 63 63 22 65 52 66
REMARK SMILES IDX 33 67 51 68 34 69 37 70 50 71 68 72 35 73 36 74 49 76 69 77
REMARK SMILES IDX 38 78 23 79 24 80 32 81 25 82 31 83 26 84 27 85 28 86 29 87
REMARK SMILES IDX 30 88 53 89 54 90 62 91 55 92 61 93 56 94 57 95 58 96 59 97
REMARK SMILES IDX 60 98 39 99 40 100 48 101 41 102 47 103 42 104 43 105 44 106
REMARK SMILES IDX 45 107 46 108
REMARK H PARENT 6 5 89 27 94 36 11 45 67 64 37 75
REMARK Flexibility Score: inf
ROOT
ATOM      1  C   UNL A   1      34.545  20.153  25.005  1.00  0.00     0.116 C 
ENDROOT
BRANCH   1   2
ATOM      2  N   UNL A   1      33.525  20.190  23.988  1.00  0.00    -0.352 N 
ATOM      3  C   UNL A   1      32.473  21.001  23.682  1.00  0.00     0.251 C 
ATOM      4  O   UNL A   1      31.868  20.630  22.665  1.00  0.00    -0.269 OA
ATOM      5  H   UNL A   1      33.607  19.440  23.355  1.00  0.00     0.163 HD
BRANCH   3   6
ATOM      6  C   UNL A   1      31.997  22.268  24.372  1.00  0.00     0.044 A 
ATOM      7  C   UNL A   1      33.127  24.165  23.038  1.00  0.00     0.047 C 
ATOM      8  C   UNL A   1      32.178  23.648  24.076  1.00  0.00    -0.015 A 
ATOM      9  C   UNL A   1      31.569  24.646  24.897  1.00  0.00     0.041 A 
ATOM     10  C   UNL A   1      31.317  21.962  25.579  1.00  0.00     0.014 A 
ATOM     11  C   UNL A   1      30.917  24.264  26.077  1.00  0.00     0.026 A 
ATOM     12  C   UNL A   1      30.813  22.934  26.435  1.00  0.00     0.003 A 
BRANCH   9  13
ATOM     13  N   UNL A   1      31.741  26.001  24.678  1.00  0.00    -0.358 N 
ATOM     14  C   UNL A   1      30.792  26.716  23.819  1.00  0.00     0.103 C 
ATOM     15  C   UNL A   1      32.536  26.904  25.535  1.00  0.00     0.110 C 
ATOM     16  C   UNL A   1      30.938  28.112  24.322  1.00  0.00     0.003 C 
ATOM     17  C   UNL A   1      29.325  26.306  23.998  1.00  0.00     0.035 C 
ATOM     18  C   UNL A   1      31.784  28.212  25.357  1.00  0.00    -0.026 C 
ATOM     19  C   UNL A   1      33.968  26.982  25.000  1.00  0.00     0.036 C 
BRANCH  18  20
ATOM     20  C   UNL A   1      31.996  29.365  26.213  1.00  0.00     0.031 C 
ATOM     21  C   UNL A   1      31.488  30.612  26.085  1.00  0.00     0.117 C 
BRANCH  21  22
ATOM     22  C   UNL A   1      30.612  31.000  25.028  1.00  0.00     0.105 C 
ATOM     23  N   UNL A   1      29.857  31.338  24.226  1.00  0.00    -0.192 NA
ENDBRANCH  21  22
BRANCH  21  24
ATOM     24  C   UNL A   1      32.155  31.678  26.887  1.00  0.00     0.261 C 
ATOM     25  O   UNL A   1      31.568  32.730  27.159  1.00  0.00    -0.268 OA
ATOM     26  N   UNL A   1      33.284  31.392  27.593  1.00  0.00    -0.351 N 
ATOM     27  H   UNL A   1      33.249  31.713  28.523  1.00  0.00     0.163 HD
BRANCH  26  28
ATOM     28  C   UNL A   1      34.545  30.705  27.263  1.00  0.00     0.121 C 
BRANCH  28  29
ATOM     29  C   UNL A   1      35.085  29.700  28.329  1.00  0.00     0.059 C 
BRANCH  29  30
ATOM     30  C   UNL A   1      36.148  30.272  29.271  1.00  0.00    -0.021 A 
ATOM     31  C   UNL A   1      36.186  29.995  30.640  1.00  0.00     0.087 A 
ATOM     32  C   UNL A   1      36.580  31.639  29.294  1.00  0.00     0.003 A 
ATOM     33  N   UNL A   1      35.410  31.081  31.067  1.00  0.00    -0.361 N 
ATOM     34  C   UNL A   1      35.809  32.173  30.329  1.00  0.00     0.046 A 
ATOM     35  C   UNL A   1      37.380  32.514  28.541  1.00  0.00     0.010 A 
ATOM     36  H   UNL A   1      34.713  31.066  31.763  1.00  0.00     0.166 HD
ATOM     37  C   UNL A   1      35.570  33.534  30.487  1.00  0.00     0.026 A 
ATOM     38  C   UNL A   1      37.328  33.885  28.841  1.00  0.00     0.001 A 
ATOM     39  C   UNL A   1      36.380  34.388  29.738  1.00  0.00     0.002 A 
ENDBRANCH  29  30
ENDBRANCH  28  29
ENDBRANCH  26  28
ENDBRANCH  21  24
ENDBRANCH  18  20
ENDBRANCH   9  13
ENDBRANCH   3   6
ENDBRANCH   1   2
BRANCH   1  40
ATOM     40  C   UNL A   1      35.029  21.574  25.357  1.00  0.00     0.023 C 
BRANCH  40  41
ATOM     41  C   UNL A   1      36.228  22.077  24.566  1.00  0.00     0.023 C 
BRANCH  41  42
ATOM     42  C   UNL A   1      37.182  22.865  25.428  1.00  0.00     0.116 C 
BRANCH  42  43
ATOM     43  N   UNL A   1      38.189  22.108  26.144  1.00  0.00    -0.352 N 
ATOM     44  C   UNL A   1      39.526  22.506  26.202  1.00  0.00     0.251 C 
ATOM     45  H   UNL A   1      37.922  21.282  26.606  1.00  0.00     0.163 HD
ATOM     46  O   UNL A   1      40.472  21.754  26.015  1.00  0.00    -0.269 OA
BRANCH  44  47
ATOM     47  C   UNL A   1      39.757  23.905  26.635  1.00  0.00     0.039 A 
ATOM     48  C   UNL A   1      40.202  24.846  25.698  1.00  0.00     0.014 A 
ATOM     49  C   UNL A   1      39.824  24.170  27.996  1.00  0.00     0.014 A 
ATOM     50  C   UNL A   1      40.919  25.946  26.146  1.00  0.00     0.010 A 
ATOM     51  C   UNL A   1      40.726  25.094  28.422  1.00  0.00     0.010 A 
ATOM     52  C   UNL A   1      41.273  25.972  27.490  1.00  0.00    -0.014 A 
BRANCH  52  53
ATOM     53  C   UNL A   1      42.002  27.022  28.150  1.00  0.00     0.031 A 
ATOM     54  C   UNL A   1      41.159  28.172  28.521  1.00  0.00     0.074 A 
ATOM     55  C   UNL A   1      43.228  26.687  28.610  1.00  0.00     0.049 A 
ATOM     56  N   UNL A   1      41.607  29.298  28.917  1.00  0.00    -0.248 NA
ATOM     57  C   UNL A   1      39.687  28.153  28.453  1.00  0.00     0.031 C 
ATOM     58  C   UNL A   1      44.097  27.321  29.592  1.00  0.00     0.029 A 
ATOM     59  N   UNL A   1      44.056  25.725  28.023  1.00  0.00    -0.354 N 
ATOM     60  C   UNL A   1      40.551  29.973  29.496  1.00  0.00     0.074 A 
ATOM     61  C   UNL A   1      39.362  29.299  29.060  1.00  0.00     0.031 C 
ATOM     62  C   UNL A   1      45.377  27.013  29.289  1.00  0.00     0.029 A 
ATOM     63  C   UNL A   1      45.357  26.262  28.038  1.00  0.00     0.049 A 
ATOM     64  H   UNL A   1      43.782  24.847  27.669  1.00  0.00     0.167 HD
ATOM     65  C   UNL A   1      40.855  30.922  30.419  1.00  0.00     0.031 A 
ATOM     66  C   UNL A   1      45.850  26.706  26.838  1.00  0.00     0.031 A 
ATOM     67  C   UNL A   1      42.310  31.066  30.490  1.00  0.00     0.049 A 
ATOM     68  C   UNL A   1      45.849  28.228  26.762  1.00  0.00     0.074 A 
ATOM     69  C   UNL A   1      43.281  30.525  31.314  1.00  0.00     0.029 A 
ATOM     70  N   UNL A   1      42.958  31.453  29.333  1.00  0.00    -0.354 N 
ATOM     71  N   UNL A   1      45.195  29.001  27.590  1.00  0.00    -0.248 NA
ATOM     72  C   UNL A   1      46.593  29.000  25.769  1.00  0.00     0.031 C 
ATOM     73  C   UNL A   1      44.516  30.530  30.585  1.00  0.00     0.029 A 
ATOM     74  C   UNL A   1      44.284  31.076  29.334  1.00  0.00     0.049 A 
ATOM     75  H   UNL A   1      42.524  31.939  28.595  1.00  0.00     0.167 HD
ATOM     76  C   UNL A   1      45.477  30.313  27.338  1.00  0.00     0.074 A 
ATOM     77  C   UNL A   1      46.295  30.262  26.134  1.00  0.00     0.031 C 
ATOM     78  C   UNL A   1      45.062  31.347  28.133  1.00  0.00     0.031 A 
BRANCH  65  79
ATOM     79  C   UNL A   1      39.913  31.579  31.389  1.00  0.00    -0.014 A 
ATOM     80  C   UNL A   1      39.292  30.746  32.344  1.00  0.00     0.010 A 
ATOM     81  C   UNL A   1      39.574  32.946  31.434  1.00  0.00     0.010 A 
ATOM     82  C   UNL A   1      38.372  31.233  33.275  1.00  0.00     0.020 A 
ATOM     83  C   UNL A   1      38.646  33.450  32.366  1.00  0.00     0.020 A 
ATOM     84  C   UNL A   1      38.052  32.585  33.283  1.00  0.00     0.054 A 
BRANCH  84  85
ATOM     85  S   UNL A   1      36.870  33.175  34.522  1.00  0.00     0.124 S 
ATOM     86  O   UNL A   1      37.215  32.368  35.690  1.00  0.00    -0.237 OA
ATOM     87  O   UNL A   1      37.202  34.593  34.618  1.00  0.00    -0.237 OA
ATOM     88  O   UNL A   1      35.567  32.881  33.929  1.00  0.00    -0.744 OA
ENDBRANCH  84  85
ENDBRANCH  65  79
BRANCH  66  89
ATOM     89  C   UNL A   1      45.521  25.725  25.736  1.00  0.00    -0.014 A 
ATOM     90  C   UNL A   1      46.573  24.864  25.322  1.00  0.00     0.010 A 
ATOM     91  C   UNL A   1      44.201  25.312  25.491  1.00  0.00     0.010 A 
ATOM     92  C   UNL A   1      46.315  23.556  24.890  1.00  0.00     0.020 A 
ATOM     93  C   UNL A   1      43.942  24.010  25.013  1.00  0.00     0.020 A 
ATOM     94  C   UNL A   1      44.997  23.120  24.788  1.00  0.00     0.054 A 
BRANCH  94  95
ATOM     95  S   UNL A   1      44.699  21.346  24.509  1.00  0.00     0.124 S 
ATOM     96  O   UNL A   1      44.593  21.266  23.055  1.00  0.00    -0.237 OA
ATOM     97  O   UNL A   1      45.901  20.724  25.078  1.00  0.00    -0.237 OA
ATOM     98  O   UNL A   1      43.469  21.086  25.247  1.00  0.00    -0.744 OA
ENDBRANCH  94  95
ENDBRANCH  66  89
BRANCH  78  99
ATOM     99  C   UNL A   1      45.343  32.780  27.793  1.00  0.00    -0.014 A 
ATOM    100  C   UNL A   1      44.555  33.494  26.884  1.00  0.00     0.010 A 
ATOM    101  C   UNL A   1      46.469  33.437  28.339  1.00  0.00     0.010 A 
ATOM    102  C   UNL A   1      44.788  34.852  26.659  1.00  0.00     0.020 A 
ATOM    103  C   UNL A   1      46.739  34.776  28.087  1.00  0.00     0.020 A 
ATOM    104  C   UNL A   1      45.864  35.487  27.284  1.00  0.00     0.054 A 
BRANCH 104 105
ATOM    105  S   UNL A   1      46.111  37.254  27.033  1.00  0.00     0.124 S 
ATOM    106  O   UNL A   1      46.751  37.299  25.720  1.00  0.00    -0.237 OA
ATOM    107  O   UNL A   1      44.741  37.754  27.084  1.00  0.00    -0.237 OA
ATOM    108  O   UNL A   1      46.962  37.650  28.152  1.00  0.00    -0.744 OA
ENDBRANCH 104 105
ENDBRANCH  78  99
ENDBRANCH  52  53
ENDBRANCH  44  47
ENDBRANCH  42  43
ENDBRANCH  41  42
ENDBRANCH  40  41
ENDBRANCH   1  40
TORSDOF 21
ENDMDL
MODEL 2
REMARK VINA RESULT:     -11.8      1.902      2.837
REMARK SMILES Cc1c(C(=O)NCCCCNC(=O)c2ccc(-c3c4nc(c(-c5ccc(S(=O)(=O)[O-])cc5)c5ccc([nH]5)c(-c5ccc(S(=O)(=O)[O-])cc5)c5nc(c(-c6ccc(S(=O)(=O)[O-])cc6)c6ccc3[nH]6)C=C5)C=C4)cc2)cccc1N1[C@@H](C)C=C(/C=C(\C#N)C(=O)NCCc2c[nH]c3ccccc23)[C@@H]1C
REMARK SMILES IDX 7 1 6 2 4 3 5 4 3 6 1 7 2 8 77 9 74 10 76 11 75 12 78 13
REMARK SMILES IDX 79 14 101 15 81 16 80 17 82 18 102 19 83 20 84 21 85 22
REMARK SMILES IDX 86 23 87 24 88 25 89 26 90 28 91 29 92 30 93 31 100 32 94 33
REMARK SMILES IDX 95 34 99 35 96 37 98 38 97 39 8 40 9 41 10 42 11 43 12 44
REMARK SMILES IDX 13 46 14 47 15 48 73 49 16 50 72 51 17 52 18 53 19 54 66 55
REMARK SMILES IDX 20 56 71 57 65 58 67 59 21 60 70 61 64 62 63 63 22 65 52 66
REMARK SMILES IDX 33 67 51 68 34 69 37 70 50 71 68 72 35 73 36 74 49 76 69 77
REMARK SMILES IDX 38 78 23 79 24 80 32 81 25 82 31 83 26 84 27 85 28 86 29 87
REMARK SMILES IDX 30 88 53 89 54 90 62 91 55 92 61 93 56 94 57 95 58 96 59 97
REMARK SMILES IDX 60 98 39 99 40 100 48 101 41 102 47 103 42 104 43 105 44 106
REMARK SMILES IDX 45 107 46 108
REMARK H PARENT 6 5 89 27 94 36 11 45 67 64 37 75
REMARK Flexibility Score: inf
ROOT
ATOM      1  C   UNL A   1      34.094  21.774  26.163  1.00  0.00     0.116 C 
ENDROOT
BRANCH   1   2
ATOM      2  N   UNL A   1      33.453  21.428  24.920  1.00  0.00    -0.352 N 
ATOM      3  C   UNL A   1      32.661  22.067  24.013  1.00  0.00     0.251 C 
ATOM      4  O   UNL A   1      32.360  21.343  23.052  1.00  0.00    -0.269 OA
ATOM      5  H   UNL A   1      33.632  20.495  24.659  1.00  0.00     0.163 HD
BRANCH   3   6
ATOM      6  C   UNL A   1      32.159  23.501  24.009  1.00  0.00     0.044 A 
ATOM      7  C   UNL A   1      33.640  24.684  25.759  1.00  0.00     0.047 C 
ATOM      8  C   UNL A   1      32.607  24.677  24.674  1.00  0.00    -0.015 A 
ATOM      9  C   UNL A   1      31.952  25.926  24.446  1.00  0.00     0.041 A 
ATOM     10  C   UNL A   1      30.968  23.619  23.246  1.00  0.00     0.014 A 
ATOM     11  C   UNL A   1      30.777  25.959  23.684  1.00  0.00     0.026 A 
ATOM     12  C   UNL A   1      30.268  24.811  23.108  1.00  0.00     0.003 A 
BRANCH   9  13
ATOM     13  N   UNL A   1      32.321  27.092  25.093  1.00  0.00    -0.358 N 
ATOM     14  C   UNL A   1      31.412  27.684  26.080  1.00  0.00     0.103 C 
ATOM     15  C   UNL A   1      33.704  27.597  25.206  1.00  0.00     0.110 C 
ATOM     16  C   UNL A   1      32.364  28.468  26.919  1.00  0.00     0.003 C 
ATOM     17  C   UNL A   1      30.707  26.674  26.994  1.00  0.00     0.035 C 
ATOM     18  C   UNL A   1      33.642  28.319  26.542  1.00  0.00    -0.026 C 
ATOM     19  C   UNL A   1      33.992  28.552  24.045  1.00  0.00     0.036 C 
BRANCH  18  20
ATOM     20  C   UNL A   1      34.828  28.760  27.254  1.00  0.00     0.031 C 
ATOM     21  C   UNL A   1      35.102  29.988  27.752  1.00  0.00     0.117 C 
BRANCH  21  22
ATOM     22  C   UNL A   1      34.210  31.096  27.646  1.00  0.00     0.105 C 
ATOM     23  N   UNL A   1      33.449  31.961  27.613  1.00  0.00    -0.192 NA
ENDBRANCH  21  22
BRANCH  21  24
ATOM     24  C   UNL A   1      36.527  30.249  28.106  1.00  0.00     0.261 C 
ATOM     25  O   UNL A   1      37.428  30.080  27.281  1.00  0.00    -0.268 OA
ATOM     26  N   UNL A   1      36.828  30.970  29.222  1.00  0.00    -0.351 N 
ATOM     27  H   UNL A   1      37.486  31.683  29.055  1.00  0.00     0.163 HD
BRANCH  26  28
ATOM     28  C   UNL A   1      36.381  30.912  30.624  1.00  0.00     0.121 C 
BRANCH  28  29
ATOM     29  C   UNL A   1      35.270  31.927  31.040  1.00  0.00     0.059 C 
BRANCH  29  30
ATOM     30  C   UNL A   1      35.638  33.400  30.838  1.00  0.00    -0.021 A 
ATOM     31  C   UNL A   1      36.848  33.951  31.266  1.00  0.00     0.087 A 
ATOM     32  C   UNL A   1      34.768  34.510  31.093  1.00  0.00     0.003 A 
ATOM     33  N   UNL A   1      36.419  34.368  32.534  1.00  0.00    -0.361 N 
ATOM     34  C   UNL A   1      35.159  34.901  32.375  1.00  0.00     0.046 A 
ATOM     35  C   UNL A   1      33.656  35.144  30.514  1.00  0.00     0.010 A 
ATOM     36  H   UNL A   1      36.923  34.294  33.377  1.00  0.00     0.166 HD
ATOM     37  C   UNL A   1      34.367  35.673  33.220  1.00  0.00     0.026 A 
ATOM     38  C   UNL A   1      32.971  36.107  31.274  1.00  0.00     0.001 A 
ATOM     39  C   UNL A   1      33.273  36.302  32.625  1.00  0.00     0.002 A 
ENDBRANCH  29  30
ENDBRANCH  28  29
ENDBRANCH  26  28
ENDBRANCH  21  24
ENDBRANCH  18  20
ENDBRANCH   9  13
ENDBRANCH   3   6
ENDBRANCH   1   2
BRANCH   1  40
ATOM     40  C   UNL A   1      35.612  21.515  26.097  1.00  0.00     0.023 C 
BRANCH  40  41
ATOM     41  C   UNL A   1      36.254  21.706  24.730  1.00  0.00     0.023 C 
BRANCH  41  42
ATOM     42  C   UNL A   1      37.758  21.643  24.800  1.00  0.00     0.116 C 
BRANCH  42  43
ATOM     43  N   UNL A   1      38.329  20.559  25.573  1.00  0.00    -0.352 N 
ATOM     44  C   UNL A   1      39.609  20.623  26.125  1.00  0.00     0.251 C 
ATOM     45  H   UNL A   1      37.794  19.745  25.714  1.00  0.00     0.163 HD
ATOM     46  O   UNL A   1      40.433  19.722  26.048  1.00  0.00    -0.269 OA
BRANCH  44  47
ATOM     47  C   UNL A   1      39.893  21.828  26.941  1.00  0.00     0.039 A 
ATOM     48  C   UNL A   1      39.531  23.087  26.448  1.00  0.00     0.014 A 
ATOM     49  C   UNL A   1      40.770  21.707  28.010  1.00  0.00     0.014 A 
ATOM     50  C   UNL A   1      40.231  24.202  26.887  1.00  0.00     0.010 A 
ATOM     51  C   UNL A   1      41.620  22.739  28.257  1.00  0.00     0.010 A 
ATOM     52  C   UNL A   1      41.347  23.980  27.685  1.00  0.00    -0.014 A 
BRANCH  52  53
ATOM     53  C   UNL A   1      42.197  24.995  28.249  1.00  0.00     0.031 A 
ATOM     54  C   UNL A   1      41.465  26.208  28.656  1.00  0.00     0.074 A 
ATOM     55  C   UNL A   1      43.434  24.591  28.613  1.00  0.00     0.049 A 
ATOM     56  N   UNL A   1      42.017  27.310  28.978  1.00  0.00    -0.248 NA
ATOM     57  C   UNL A   1      39.994  26.285  28.715  1.00  0.00     0.031 C 
ATOM     58  C   UNL A   1      44.424  25.189  29.496  1.00  0.00     0.029 A 
ATOM     59  N   UNL A   1      44.144  23.561  27.985  1.00  0.00    -0.354 N 
ATOM     60  C   UNL A   1      41.061  28.068  29.625  1.00  0.00     0.074 A 
ATOM     61  C   UNL A   1      39.798  27.464  29.313  1.00  0.00     0.031 C 
ATOM     62  C   UNL A   1      45.651  24.789  29.095  1.00  0.00     0.029 A 
ATOM     63  C   UNL A   1      45.473  24.011  27.873  1.00  0.00     0.049 A 
ATOM     64  H   UNL A   1      43.785  22.696  27.683  1.00  0.00     0.167 HD
ATOM     65  C   UNL A   1      41.505  29.017  30.489  1.00  0.00     0.031 A 
ATOM     66  C   UNL A   1      45.887  24.391  26.622  1.00  0.00     0.031 A 
ATOM     67  C   UNL A   1      42.967  29.065  30.431  1.00  0.00     0.049 A 
ATOM     68  C   UNL A   1      45.977  25.908  26.501  1.00  0.00     0.074 A 
ATOM     69  C   UNL A   1      43.970  28.481  31.185  1.00  0.00     0.029 A 
ATOM     70  N   UNL A   1      43.535  29.380  29.212  1.00  0.00    -0.354 N 
ATOM     71  N   UNL A   1      45.449  26.743  27.359  1.00  0.00    -0.248 NA
ATOM     72  C   UNL A   1      46.679  26.605  25.425  1.00  0.00     0.031 C 
ATOM     73  C   UNL A   1      45.134  28.386  30.353  1.00  0.00     0.029 A 
ATOM     74  C   UNL A   1      44.829  28.916  29.110  1.00  0.00     0.049 A 
ATOM     75  H   UNL A   1      43.071  29.876  28.499  1.00  0.00     0.167 HD
ATOM     76  C   UNL A   1      45.791  28.026  27.044  1.00  0.00     0.074 A 
ATOM     77  C   UNL A   1      46.496  27.892  25.776  1.00  0.00     0.031 C 
ATOM     78  C   UNL A   1      45.514  29.105  27.840  1.00  0.00     0.031 A 
BRANCH  65  79
ATOM     79  C   UNL A   1      40.696  29.758  31.517  1.00  0.00    -0.014 A 
ATOM     80  C   UNL A   1      40.328  29.048  32.679  1.00  0.00     0.010 A 
ATOM     81  C   UNL A   1      40.251  31.093  31.430  1.00  0.00     0.010 A 
ATOM     82  C   UNL A   1      39.548  29.618  33.688  1.00  0.00     0.020 A 
ATOM     83  C   UNL A   1      39.462  31.679  32.440  1.00  0.00     0.020 A 
ATOM     84  C   UNL A   1      39.118  30.932  33.564  1.00  0.00     0.054 A 
BRANCH  84  85
ATOM     85  S   UNL A   1      38.127  31.635  34.907  1.00  0.00     0.124 S 
ATOM     86  O   UNL A   1      36.860  31.928  34.239  1.00  0.00    -0.237 OA
ATOM     87  O   UNL A   1      38.090  30.541  35.873  1.00  0.00    -0.237 OA
ATOM     88  O   UNL A   1      38.890  32.808  35.328  1.00  0.00    -0.744 OA
ENDBRANCH  84  85
ENDBRANCH  65  79
BRANCH  66  89
ATOM     89  C   UNL A   1      45.401  23.408  25.582  1.00  0.00    -0.014 A 
ATOM     90  C   UNL A   1      46.402  22.690  24.875  1.00  0.00     0.010 A 
ATOM     91  C   UNL A   1      44.115  22.848  25.647  1.00  0.00     0.010 A 
ATOM     92  C   UNL A   1      46.188  21.373  24.447  1.00  0.00     0.020 A 
ATOM     93  C   UNL A   1      43.887  21.537  25.176  1.00  0.00     0.020 A 
ATOM     94  C   UNL A   1      44.943  20.785  24.649  1.00  0.00     0.054 A 
BRANCH  94  95
ATOM     95  S   UNL A   1      44.780  18.996  24.353  1.00  0.00     0.124 S 
ATOM     96  O   UNL A   1      43.585  18.655  25.120  1.00  0.00    -0.237 OA
ATOM     97  O   UNL A   1      44.623  18.924  22.896  1.00  0.00    -0.237 OA
ATOM     98  O   UNL A   1      46.033  18.451  24.861  1.00  0.00    -0.744 OA
ENDBRANCH  94  95
ENDBRANCH  66  89
BRANCH  78  99
ATOM     99  C   UNL A   1      45.856  30.507  27.434  1.00  0.00    -0.014 A 
ATOM    100  C   UNL A   1      46.930  31.202  27.999  1.00  0.00     0.010 A 
ATOM    101  C   UNL A   1      45.049  31.199  26.501  1.00  0.00     0.010 A 
ATOM    102  C   UNL A   1      47.277  32.472  27.534  1.00  0.00     0.020 A 
ATOM    103  C   UNL A   1      45.356  32.480  26.062  1.00  0.00     0.020 A 
ATOM    104  C   UNL A   1      46.501  33.088  26.549  1.00  0.00     0.054 A 
BRANCH 104 105
ATOM    105  S   UNL A   1      47.000  34.698  25.913  1.00  0.00     0.124 S 
ATOM    106  O   UNL A   1      48.408  34.486  25.587  1.00  0.00    -0.237 OA
ATOM    107  O   UNL A   1      46.105  34.854  24.771  1.00  0.00    -0.237 OA
ATOM    108  O   UNL A   1      46.752  35.607  27.029  1.00  0.00    -0.744 OA
ENDBRANCH 104 105
ENDBRANCH  78  99
ENDBRANCH  52  53
ENDBRANCH  44  47
ENDBRANCH  42  43
ENDBRANCH  41  42
ENDBRANCH  40  41
ENDBRANCH   1  40
TORSDOF 21
ENDMDL
MODEL 3
REMARK VINA RESULT:     -11.7      1.489      2.122
REMARK SMILES Cc1c(C(=O)NCCCCNC(=O)c2ccc(-c3c4nc(c(-c5ccc(S(=O)(=O)[O-])cc5)c5ccc([nH]5)c(-c5ccc(S(=O)(=O)[O-])cc5)c5nc(c(-c6ccc(S(=O)(=O)[O-])cc6)c6ccc3[nH]6)C=C5)C=C4)cc2)cccc1N1[C@@H](C)C=C(/C=C(\C#N)C(=O)NCCc2c[nH]c3ccccc23)[C@@H]1C
REMARK SMILES IDX 7 1 6 2 4 3 5 4 3 6 1 7 2 8 77 9 74 10 76 11 75 12 78 13
REMARK SMILES IDX 79 14 101 15 81 16 80 17 82 18 102 19 83 20 84 21 85 22
REMARK SMILES IDX 86 23 87 24 88 25 89 26 90 28 91 29 92 30 93 31 100 32 94 33
REMARK SMILES IDX 95 34 99 35 96 37 98 38 97 39 8 40 9 41 10 42 11 43 12 44
REMARK SMILES IDX 13 46 14 47 15 48 73 49 16 50 72 51 17 52 18 53 19 54 66 55
REMARK SMILES IDX 20 56 71 57 65 58 67 59 21 60 70 61 64 62 63 63 22 65 52 66
REMARK SMILES IDX 33 67 51 68 34 69 37 70 50 71 68 72 35 73 36 74 49 76 69 77
REMARK SMILES IDX 38 78 23 79 24 80 32 81 25 82 31 83 26 84 27 85 28 86 29 87
REMARK SMILES IDX 30 88 53 89 54 90 62 91 55 92 61 93 56 94 57 95 58 96 59 97
REMARK SMILES IDX 60 98 39 99 40 100 48 101 41 102 47 103 42 104 43 105 44 106
REMARK SMILES IDX 45 107 46 108
REMARK H PARENT 6 5 89 27 94 36 11 45 67 64 37 75
REMARK Flexibility Score: inf
ROOT
ATOM      1  C   UNL A   1      34.462  21.877  27.089  1.00  0.00     0.116 C 
ENDROOT
BRANCH   1   2
ATOM      2  N   UNL A   1      33.380  21.185  26.434  1.00  0.00    -0.352 N 
ATOM      3  C   UNL A   1      32.567  21.423  25.366  1.00  0.00     0.251 C 
ATOM      4  O   UNL A   1      31.769  20.495  25.162  1.00  0.00    -0.269 OA
ATOM      5  H   UNL A   1      33.177  20.324  26.867  1.00  0.00     0.163 HD
BRANCH   3   6
ATOM      6  C   UNL A   1      32.546  22.605  24.412  1.00  0.00     0.044 A 
ATOM      7  C   UNL A   1      31.754  24.574  25.878  1.00  0.00     0.047 C 
ATOM      8  C   UNL A   1      32.291  23.991  24.606  1.00  0.00    -0.015 A 
ATOM      9  C   UNL A   1      32.380  24.900  23.508  1.00  0.00     0.041 A 
ATOM     10  C   UNL A   1      32.742  22.177  23.073  1.00  0.00     0.014 A 
ATOM     11  C   UNL A   1      32.572  24.399  22.214  1.00  0.00     0.026 A 
ATOM     12  C   UNL A   1      32.725  23.046  21.988  1.00  0.00     0.003 A 
BRANCH   9  13
ATOM     13  N   UNL A   1      32.108  26.250  23.631  1.00  0.00    -0.358 N 
ATOM     14  C   UNL A   1      30.751  26.737  23.358  1.00  0.00     0.103 C 
ATOM     15  C   UNL A   1      32.921  27.213  24.401  1.00  0.00     0.110 C 
ATOM     16  C   UNL A   1      30.728  27.998  24.155  1.00  0.00     0.003 C 
ATOM     17  C   UNL A   1      29.626  25.835  23.879  1.00  0.00     0.035 C 
ATOM     18  C   UNL A   1      31.858  28.203  24.847  1.00  0.00    -0.026 C 
ATOM     19  C   UNL A   1      33.959  27.854  23.477  1.00  0.00     0.036 C 
BRANCH  18  20
ATOM     20  C   UNL A   1      32.093  29.202  25.873  1.00  0.00     0.031 C 
ATOM     21  C   UNL A   1      31.572  30.447  25.969  1.00  0.00     0.117 C 
BRANCH  21  22
ATOM     22  C   UNL A   1      30.658  30.993  25.020  1.00  0.00     0.105 C 
ATOM     23  N   UNL A   1      29.866  31.395  24.287  1.00  0.00    -0.192 NA
ENDBRANCH  21  22
BRANCH  21  24
ATOM     24  C   UNL A   1      32.260  31.375  26.913  1.00  0.00     0.261 C 
ATOM     25  O   UNL A   1      31.782  32.482  27.177  1.00  0.00    -0.268 OA
ATOM     26  N   UNL A   1      33.240  30.906  27.734  1.00  0.00    -0.351 N 
ATOM     27  H   UNL A   1      33.126  31.185  28.671  1.00  0.00     0.163 HD
BRANCH  26  28
ATOM     28  C   UNL A   1      34.435  30.071  27.519  1.00  0.00     0.121 C 
BRANCH  28  29
ATOM     29  C   UNL A   1      35.811  30.808  27.561  1.00  0.00     0.059 C 
BRANCH  29  30
ATOM     30  C   UNL A   1      36.641  30.548  28.823  1.00  0.00    -0.021 A 
ATOM     31  C   UNL A   1      36.164  29.816  29.913  1.00  0.00     0.087 A 
ATOM     32  C   UNL A   1      37.415  31.534  29.518  1.00  0.00     0.003 A 
ATOM     33  N   UNL A   1      35.638  30.893  30.639  1.00  0.00    -0.361 N 
ATOM     34  C   UNL A   1      36.543  31.926  30.538  1.00  0.00     0.046 A 
ATOM     35  C   UNL A   1      38.626  32.231  29.374  1.00  0.00     0.010 A 
ATOM     36  H   UNL A   1      34.783  30.908  31.129  1.00  0.00     0.166 HD
ATOM     37  C   UNL A   1      36.666  33.121  31.237  1.00  0.00     0.026 A 
ATOM     38  C   UNL A   1      38.876  33.312  30.236  1.00  0.00     0.001 A 
ATOM     39  C   UNL A   1      37.879  33.794  31.090  1.00  0.00     0.002 A 
ENDBRANCH  29  30
ENDBRANCH  28  29
ENDBRANCH  26  28
ENDBRANCH  21  24
ENDBRANCH  18  20
ENDBRANCH   9  13
ENDBRANCH   3   6
ENDBRANCH   1   2
BRANCH   1  40
ATOM     40  C   UNL A   1      35.821  21.496  26.469  1.00  0.00     0.023 C 
BRANCH  40  41
ATOM     41  C   UNL A   1      36.163  22.184  25.156  1.00  0.00     0.023 C 
BRANCH  41  42
ATOM     42  C   UNL A   1      37.515  21.768  24.636  1.00  0.00     0.116 C 
BRANCH  42  43
ATOM     43  N   UNL A   1      38.155  20.654  25.306  1.00  0.00    -0.352 N 
ATOM     44  C   UNL A   1      39.442  20.738  25.839  1.00  0.00     0.251 C 
ATOM     45  H   UNL A   1      37.664  19.805  25.388  1.00  0.00     0.163 HD
ATOM     46  O   UNL A   1      40.307  19.889  25.673  1.00  0.00    -0.269 OA
BRANCH  44  47
ATOM     47  C   UNL A   1      39.683  21.883  26.748  1.00  0.00     0.039 A 
ATOM     48  C   UNL A   1      39.245  23.159  26.371  1.00  0.00     0.014 A 
ATOM     49  C   UNL A   1      40.593  21.721  27.784  1.00  0.00     0.014 A 
ATOM     50  C   UNL A   1      39.897  24.269  26.887  1.00  0.00     0.010 A 
ATOM     51  C   UNL A   1      41.393  22.774  28.099  1.00  0.00     0.010 A 
ATOM     52  C   UNL A   1      41.042  24.041  27.640  1.00  0.00    -0.014 A 
BRANCH  52  53
ATOM     53  C   UNL A   1      41.852  25.050  28.270  1.00  0.00     0.031 A 
ATOM     54  C   UNL A   1      41.083  26.233  28.695  1.00  0.00     0.074 A 
ATOM     55  C   UNL A   1      43.084  24.655  28.662  1.00  0.00     0.049 A 
ATOM     56  N   UNL A   1      41.603  27.333  29.075  1.00  0.00    -0.248 NA
ATOM     57  C   UNL A   1      39.611  26.282  28.705  1.00  0.00     0.031 C 
ATOM     58  C   UNL A   1      44.032  25.239  29.601  1.00  0.00     0.029 A 
ATOM     59  N   UNL A   1      43.835  23.663  28.023  1.00  0.00    -0.354 N 
ATOM     60  C   UNL A   1      40.611  28.049  29.715  1.00  0.00     0.074 A 
ATOM     61  C   UNL A   1      39.371  27.435  29.337  1.00  0.00     0.031 C 
ATOM     62  C   UNL A   1      45.279  24.876  29.228  1.00  0.00     0.029 A 
ATOM     63  C   UNL A   1      45.158  24.140  27.973  1.00  0.00     0.049 A 
ATOM     64  H   UNL A   1      43.503  22.802  27.677  1.00  0.00     0.167 HD
ATOM     65  C   UNL A   1      41.007  28.974  30.628  1.00  0.00     0.031 A 
ATOM     66  C   UNL A   1      45.608  24.574  26.753  1.00  0.00     0.031 A 
ATOM     67  C   UNL A   1      42.469  29.050  30.624  1.00  0.00     0.049 A 
ATOM     68  C   UNL A   1      45.672  26.095  26.690  1.00  0.00     0.074 A 
ATOM     69  C   UNL A   1      43.456  28.458  31.391  1.00  0.00     0.029 A 
ATOM     70  N   UNL A   1      43.071  29.421  29.437  1.00  0.00    -0.354 N 
ATOM     71  N   UNL A   1      45.099  26.889  27.558  1.00  0.00    -0.248 NA
ATOM     72  C   UNL A   1      46.397  26.843  25.665  1.00  0.00     0.031 C 
ATOM     73  C   UNL A   1      44.649  28.414  30.597  1.00  0.00     0.029 A 
ATOM     74  C   UNL A   1      44.378  28.983  29.365  1.00  0.00     0.049 A 
ATOM     75  H   UNL A   1      42.622  29.934  28.727  1.00  0.00     0.167 HD
ATOM     76  C   UNL A   1      45.427  28.188  27.302  1.00  0.00     0.074 A 
ATOM     77  C   UNL A   1      46.177  28.114  26.056  1.00  0.00     0.031 C 
ATOM     78  C   UNL A   1      45.102  29.232  28.127  1.00  0.00     0.031 A 
BRANCH  65  79
ATOM     79  C   UNL A   1      40.148  29.662  31.653  1.00  0.00    -0.014 A 
ATOM     80  C   UNL A   1      40.684  30.810  32.274  1.00  0.00     0.010 A 
ATOM     81  C   UNL A   1      38.861  29.267  32.070  1.00  0.00     0.010 A 
ATOM     82  C   UNL A   1      39.997  31.514  33.265  1.00  0.00     0.020 A 
ATOM     83  C   UNL A   1      38.159  29.966  33.071  1.00  0.00     0.020 A 
ATOM     84  C   UNL A   1      38.735  31.089  33.660  1.00  0.00     0.054 A 
BRANCH  84  85
ATOM     85  S   UNL A   1      37.874  32.045  34.934  1.00  0.00     0.124 S 
ATOM     86  O   UNL A   1      37.937  31.153  36.090  1.00  0.00    -0.237 OA
ATOM     87  O   UNL A   1      38.692  33.251  35.025  1.00  0.00    -0.237 OA
ATOM     88  O   UNL A   1      36.537  32.243  34.378  1.00  0.00    -0.744 OA
ENDBRANCH  84  85
ENDBRANCH  65  79
BRANCH  66  89
ATOM     89  C   UNL A   1      45.176  23.621  25.662  1.00  0.00    -0.014 A 
ATOM     90  C   UNL A   1      46.207  22.871  25.035  1.00  0.00     0.010 A 
ATOM     91  C   UNL A   1      43.869  23.111  25.607  1.00  0.00     0.010 A 
ATOM     92  C   UNL A   1      45.981  21.567  24.573  1.00  0.00     0.020 A 
ATOM     93  C   UNL A   1      43.633  21.815  25.101  1.00  0.00     0.020 A 
ATOM     94  C   UNL A   1      44.701  21.027  24.658  1.00  0.00     0.054 A 
BRANCH  94  95
ATOM     95  S   UNL A   1      44.495  19.249  24.326  1.00  0.00     0.124 S 
ATOM     96  O   UNL A   1      43.185  18.967  24.905  1.00  0.00    -0.237 OA
ATOM     97  O   UNL A   1      44.551  19.187  22.861  1.00  0.00    -0.237 OA
ATOM     98  O   UNL A   1      45.631  18.641  25.008  1.00  0.00    -0.744 OA
ENDBRANCH  94  95
ENDBRANCH  66  89
BRANCH  78  99
ATOM     99  C   UNL A   1      45.430  30.654  27.783  1.00  0.00    -0.014 A 
ATOM    100  C   UNL A   1      46.633  31.252  28.174  1.00  0.00     0.010 A 
ATOM    101  C   UNL A   1      44.490  31.461  27.103  1.00  0.00     0.010 A 
ATOM    102  C   UNL A   1      46.947  32.548  27.760  1.00  0.00     0.020 A 
ATOM    103  C   UNL A   1      44.771  32.767  26.724  1.00  0.00     0.020 A 
ATOM    104  C   UNL A   1      46.023  33.284  27.015  1.00  0.00     0.054 A 
BRANCH 104 105
ATOM    105  S   UNL A   1      46.470  34.930  26.434  1.00  0.00     0.124 S 
ATOM    106  O   UNL A   1      45.180  35.483  26.031  1.00  0.00    -0.237 OA
ATOM    107  O   UNL A   1      47.060  35.516  27.634  1.00  0.00    -0.237 OA
ATOM    108  O   UNL A   1      47.403  34.672  25.341  1.00  0.00    -0.744 OA
ENDBRANCH 104 105
ENDBRANCH  78  99
ENDBRANCH  52  53
ENDBRANCH  44  47
ENDBRANCH  42  43
ENDBRANCH  41  42
ENDBRANCH  40  41
ENDBRANCH   1  40
TORSDOF 21
ENDMDL
