MODEL 1
REMARK VINA RESULT:     -11.2      0.000      0.000
REMARK SMILES CCN1C(=O)C[C@@H](C(=O)NCCCCNC(=O)c2ccc(-c3c4nc(c(-c5ccc(S(=O)(=O)[O-])cc5)c5ccc([nH]5)c(-c5ccc(S(=O)(=O)[O-])cc5)c5nc(c(-c6ccc(S(=O)(=O)[O-])cc6)c6ccc3[nH]6)C=C5)C=C4)cc2)[C@H]1c1ccccc1C1CC1
REMARK SMILES IDX 13 1 12 2 11 3 10 4 8 5 9 6 7 8 3 9 4 10 78 11 5 12 6 13
REMARK SMILES IDX 2 14 1 15 79 16 80 17 84 18 81 19 83 20 82 21 85 22 86 23
REMARK SMILES IDX 87 24 14 25 15 26 16 27 17 29 18 30 19 31 77 32 20 33 76 34
REMARK SMILES IDX 21 35 22 36 23 37 70 38 24 39 75 40 69 41 71 42 25 43 74 44
REMARK SMILES IDX 68 45 67 46 26 48 56 49 37 50 55 51 38 52 41 53 54 54 72 55
REMARK SMILES IDX 39 56 40 57 53 59 73 60 42 61 27 62 28 63 36 64 29 65 35 66
REMARK SMILES IDX 30 67 31 68 32 69 33 70 34 71 57 72 58 73 66 74 59 75 65 76
REMARK SMILES IDX 60 77 61 78 62 79 63 80 64 81 43 82 44 83 52 84 45 85 51 86
REMARK SMILES IDX 46 87 47 88 48 89 49 90 50 91
REMARK H PARENT 10 7 15 28 71 47 41 58
REMARK Flexibility Score: inf
ROOT
ATOM      1  C   UNL A   1      33.368  28.466  25.475  1.00  0.00     0.023 C 
ENDROOT
BRANCH   1   2
ATOM      2  C   UNL A   1      33.784  27.187  24.744  1.00  0.00     0.023 C 
BRANCH   2   3
ATOM      3  C   UNL A   1      33.122  26.976  23.379  1.00  0.00     0.116 C 
BRANCH   3   4
ATOM      4  N   UNL A   1      33.565  25.748  22.758  1.00  0.00    -0.356 N 
ATOM      5  C   UNL A   1      32.996  24.533  22.573  1.00  0.00     0.226 C 
ATOM      6  O   UNL A   1      33.624  23.825  21.783  1.00  0.00    -0.275 OA
ATOM      7  H   UNL A   1      34.477  25.808  22.390  1.00  0.00     0.163 HD
BRANCH   5   8
ATOM      8  C   UNL A   1      31.611  24.138  23.100  1.00  0.00     0.115 C 
ATOM      9  N   UNL A   1      31.269  23.883  25.450  1.00  0.00    -0.335 N 
ATOM     10  C   UNL A   1      30.762  25.124  25.133  1.00  0.00     0.223 C 
ATOM     11  C   UNL A   1      31.518  23.088  24.250  1.00  0.00     0.128 C 
ATOM     12  O   UNL A   1      30.325  25.962  25.914  1.00  0.00    -0.275 OA
ATOM     13  C   UNL A   1      30.707  25.249  23.641  1.00  0.00     0.116 C 
BRANCH   9  14
ATOM     14  C   UNL A   1      31.130  23.329  26.790  1.00  0.00     0.117 C 
ATOM     15  C   UNL A   1      29.766  22.704  27.027  1.00  0.00     0.027 C 
ENDBRANCH   9  14
BRANCH  11  16
ATOM     16  C   UNL A   1      32.538  21.980  24.440  1.00  0.00    -0.021 A 
ATOM     17  C   UNL A   1      32.163  20.689  23.981  1.00  0.00     0.006 A 
ATOM     18  C   UNL A   1      33.829  22.158  25.011  1.00  0.00    -0.040 A 
ATOM     19  C   UNL A   1      32.963  19.566  24.159  1.00  0.00     0.000 A 
ATOM     20  C   UNL A   1      34.607  20.977  25.174  1.00  0.00     0.004 A 
ATOM     21  C   UNL A   1      34.187  19.708  24.776  1.00  0.00     0.000 A 
BRANCH  18  22
ATOM     22  C   UNL A   1      34.530  23.439  25.476  1.00  0.00     0.019 C 
ATOM     23  C   UNL A   1      35.794  23.531  26.286  1.00  0.00     0.009 C 
ATOM     24  C   UNL A   1      35.794  23.944  24.836  1.00  0.00     0.009 C 
ENDBRANCH  18  22
ENDBRANCH  11  16
ENDBRANCH   5   8
ENDBRANCH   3   4
ENDBRANCH   2   3
ENDBRANCH   1   2
BRANCH   1  25
ATOM     25  C   UNL A   1      33.840  28.575  26.917  1.00  0.00     0.116 C 
BRANCH  25  26
ATOM     26  N   UNL A   1      33.738  29.925  27.446  1.00  0.00    -0.352 N 
ATOM     27  C   UNL A   1      34.656  30.641  28.172  1.00  0.00     0.251 C 
ATOM     28  H   UNL A   1      32.892  30.391  27.256  1.00  0.00     0.163 HD
ATOM     29  O   UNL A   1      34.350  31.733  28.640  1.00  0.00    -0.269 OA
BRANCH  27  30
ATOM     30  C   UNL A   1      35.994  30.067  28.416  1.00  0.00     0.039 A 
ATOM     31  C   UNL A   1      36.956  30.166  27.410  1.00  0.00     0.014 A 
ATOM     32  C   UNL A   1      36.307  29.468  29.640  1.00  0.00     0.014 A 
ATOM     33  C   UNL A   1      38.255  29.719  27.657  1.00  0.00     0.010 A 
ATOM     34  C   UNL A   1      37.619  29.093  29.910  1.00  0.00     0.010 A 
ATOM     35  C   UNL A   1      38.606  29.215  28.921  1.00  0.00    -0.014 A 
BRANCH  35  36
ATOM     36  C   UNL A   1      40.010  28.842  29.221  1.00  0.00     0.031 A 
ATOM     37  C   UNL A   1      40.933  29.817  29.897  1.00  0.00     0.074 A 
ATOM     38  C   UNL A   1      40.462  27.629  28.843  1.00  0.00     0.049 A 
ATOM     39  N   UNL A   1      42.182  29.656  30.253  1.00  0.00    -0.248 NA
ATOM     40  C   UNL A   1      40.392  31.153  30.194  1.00  0.00     0.031 C 
ATOM     41  C   UNL A   1      39.679  26.618  28.126  1.00  0.00     0.029 A 
ATOM     42  N   UNL A   1      41.688  27.038  29.012  1.00  0.00    -0.354 N 
ATOM     43  C   UNL A   1      42.578  30.867  30.806  1.00  0.00     0.074 A 
ATOM     44  C   UNL A   1      41.455  31.772  30.690  1.00  0.00     0.031 C 
ATOM     45  C   UNL A   1      40.430  25.520  27.954  1.00  0.00     0.029 A 
ATOM     46  C   UNL A   1      41.757  25.758  28.512  1.00  0.00     0.049 A 
ATOM     47  H   UNL A   1      42.448  27.487  29.449  1.00  0.00     0.167 HD
ATOM     48  C   UNL A   1      43.762  31.191  31.379  1.00  0.00     0.031 A 
ATOM     49  C   UNL A   1      42.773  24.874  28.506  1.00  0.00     0.031 A 
ATOM     50  C   UNL A   1      44.876  30.286  31.492  1.00  0.00     0.049 A 
ATOM     51  C   UNL A   1      44.076  25.257  29.151  1.00  0.00     0.074 A 
ATOM     52  C   UNL A   1      46.098  30.498  32.106  1.00  0.00     0.029 A 
ATOM     53  N   UNL A   1      44.907  28.999  30.976  1.00  0.00    -0.354 N 
ATOM     54  N   UNL A   1      44.404  26.381  29.741  1.00  0.00    -0.248 NA
ATOM     55  C   UNL A   1      45.139  24.244  29.142  1.00  0.00     0.031 C 
ATOM     56  C   UNL A   1      46.889  29.360  31.911  1.00  0.00     0.029 A 
ATOM     57  C   UNL A   1      46.137  28.415  31.232  1.00  0.00     0.049 A 
ATOM     58  H   UNL A   1      44.164  28.565  30.497  1.00  0.00     0.167 HD
ATOM     59  C   UNL A   1      45.707  26.204  30.193  1.00  0.00     0.074 A 
ATOM     60  C   UNL A   1      46.094  24.855  29.830  1.00  0.00     0.031 C 
ATOM     61  C   UNL A   1      46.513  27.077  30.847  1.00  0.00     0.031 A 
BRANCH  48  62
ATOM     62  C   UNL A   1      43.913  32.588  31.923  1.00  0.00    -0.014 A 
ATOM     63  C   UNL A   1      43.657  32.874  33.277  1.00  0.00     0.010 A 
ATOM     64  C   UNL A   1      44.356  33.623  31.080  1.00  0.00     0.010 A 
ATOM     65  C   UNL A   1      43.803  34.174  33.768  1.00  0.00     0.020 A 
ATOM     66  C   UNL A   1      44.532  34.920  31.574  1.00  0.00     0.020 A 
ATOM     67  C   UNL A   1      44.238  35.190  32.911  1.00  0.00     0.054 A 
BRANCH  67  68
ATOM     68  S   UNL A   1      44.444  36.862  33.583  1.00  0.00     0.124 S 
ATOM     69  O   UNL A   1      45.817  37.176  33.195  1.00  0.00    -0.237 OA
ATOM     70  O   UNL A   1      43.407  37.617  32.887  1.00  0.00    -0.237 OA
ATOM     71  O   UNL A   1      44.228  36.690  35.017  1.00  0.00    -0.744 OA
ENDBRANCH  67  68
ENDBRANCH  48  62
BRANCH  49  72
ATOM     72  C   UNL A   1      42.588  23.533  27.886  1.00  0.00    -0.014 A 
ATOM     73  C   UNL A   1      42.987  23.295  26.559  1.00  0.00     0.010 A 
ATOM     74  C   UNL A   1      42.021  22.480  28.628  1.00  0.00     0.010 A 
ATOM     75  C   UNL A   1      42.804  22.037  25.979  1.00  0.00     0.020 A 
ATOM     76  C   UNL A   1      41.863  21.212  28.060  1.00  0.00     0.020 A 
ATOM     77  C   UNL A   1      42.245  21.002  26.734  1.00  0.00     0.054 A 
BRANCH  77  78
ATOM     78  S   UNL A   1      42.063  19.364  25.976  1.00  0.00     0.124 S 
ATOM     79  O   UNL A   1      42.887  19.490  24.778  1.00  0.00    -0.237 OA
ATOM     80  O   UNL A   1      42.583  18.477  27.013  1.00  0.00    -0.237 OA
ATOM     81  O   UNL A   1      40.625  19.256  25.739  1.00  0.00    -0.744 OA
ENDBRANCH  77  78
ENDBRANCH  49  72
BRANCH  61  82
ATOM     82  C   UNL A   1      47.887  26.589  31.224  1.00  0.00    -0.014 A 
ATOM     83  C   UNL A   1      48.151  26.071  32.505  1.00  0.00     0.010 A 
ATOM     84  C   UNL A   1      48.926  26.638  30.276  1.00  0.00     0.010 A 
ATOM     85  C   UNL A   1      49.441  25.661  32.848  1.00  0.00     0.020 A 
ATOM     86  C   UNL A   1      50.211  26.198  30.606  1.00  0.00     0.020 A 
ATOM     87  C   UNL A   1      50.465  25.734  31.898  1.00  0.00     0.054 A 
BRANCH  87  88
ATOM     88  S   UNL A   1      52.131  25.191  32.366  1.00  0.00     0.124 S 
ATOM     89  O   UNL A   1      52.280  25.780  33.694  1.00  0.00    -0.237 OA
ATOM     90  O   UNL A   1      52.015  23.734  32.334  1.00  0.00    -0.237 OA
ATOM     91  O   UNL A   1      52.986  25.765  31.330  1.00  0.00    -0.744 OA
ENDBRANCH  87  88
ENDBRANCH  61  82
ENDBRANCH  35  36
ENDBRANCH  27  30
ENDBRANCH  25  26
ENDBRANCH   1  25
TORSDOF 17
ENDMDL
MODEL 2
REMARK VINA RESULT:     -11.0      0.800      8.287
REMARK SMILES CCN1C(=O)C[C@@H](C(=O)NCCCCNC(=O)c2ccc(-c3c4nc(c(-c5ccc(S(=O)(=O)[O-])cc5)c5ccc([nH]5)c(-c5ccc(S(=O)(=O)[O-])cc5)c5nc(c(-c6ccc(S(=O)(=O)[O-])cc6)c6ccc3[nH]6)C=C5)C=C4)cc2)[C@H]1c1ccccc1C1CC1
REMARK SMILES IDX 13 1 12 2 11 3 10 4 8 5 9 6 7 8 3 9 4 10 78 11 5 12 6 13
REMARK SMILES IDX 2 14 1 15 79 16 80 17 84 18 81 19 83 20 82 21 85 22 86 23
REMARK SMILES IDX 87 24 14 25 15 26 16 27 17 29 18 30 19 31 77 32 20 33 76 34
REMARK SMILES IDX 21 35 22 36 23 37 70 38 24 39 75 40 69 41 71 42 25 43 74 44
REMARK SMILES IDX 68 45 67 46 26 48 56 49 37 50 55 51 38 52 41 53 54 54 72 55
REMARK SMILES IDX 39 56 40 57 53 59 73 60 42 61 27 62 28 63 36 64 29 65 35 66
REMARK SMILES IDX 30 67 31 68 32 69 33 70 34 71 57 72 58 73 66 74 59 75 65 76
REMARK SMILES IDX 60 77 61 78 62 79 63 80 64 81 43 82 44 83 52 84 45 85 51 86
REMARK SMILES IDX 46 87 47 88 48 89 49 90 50 91
REMARK H PARENT 10 7 15 28 71 47 41 58
REMARK Flexibility Score: inf
ROOT
ATOM      1  C   UNL A   1      33.707  28.293  25.306  1.00  0.00     0.023 C 
ENDROOT
BRANCH   1   2
ATOM      2  C   UNL A   1      33.674  26.891  24.694  1.00  0.00     0.023 C 
BRANCH   2   3
ATOM      3  C   UNL A   1      32.913  26.779  23.370  1.00  0.00     0.116 C 
BRANCH   3   4
ATOM      4  N   UNL A   1      33.422  25.699  22.554  1.00  0.00    -0.356 N 
ATOM      5  C   UNL A   1      33.001  24.438  22.300  1.00  0.00     0.226 C 
ATOM      6  O   UNL A   1      33.596  23.914  21.355  1.00  0.00    -0.275 OA
ATOM      7  H   UNL A   1      34.254  25.932  22.080  1.00  0.00     0.163 HD
BRANCH   5   8
ATOM      8  C   UNL A   1      31.772  23.790  22.950  1.00  0.00     0.115 C 
ATOM      9  N   UNL A   1      31.427  24.010  25.303  1.00  0.00    -0.335 N 
ATOM     10  C   UNL A   1      30.591  24.934  24.716  1.00  0.00     0.223 C 
ATOM     11  C   UNL A   1      31.946  23.063  24.319  1.00  0.00     0.128 C 
ATOM     12  O   UNL A   1      29.897  25.767  25.289  1.00  0.00    -0.275 OA
ATOM     13  C   UNL A   1      30.561  24.680  23.240  1.00  0.00     0.116 C 
BRANCH   9  14
ATOM     14  C   UNL A   1      31.404  23.773  26.740  1.00  0.00     0.117 C 
ATOM     15  C   UNL A   1      30.324  22.788  27.154  1.00  0.00     0.027 C 
ENDBRANCH   9  14
BRANCH  11  16
ATOM     16  C   UNL A   1      33.237  22.382  24.734  1.00  0.00    -0.021 A 
ATOM     17  C   UNL A   1      34.274  23.228  25.210  1.00  0.00     0.006 A 
ATOM     18  C   UNL A   1      33.458  20.977  24.703  1.00  0.00    -0.040 A 
ATOM     19  C   UNL A   1      35.535  22.754  25.552  1.00  0.00     0.000 A 
ATOM     20  C   UNL A   1      34.766  20.542  25.058  1.00  0.00     0.004 A 
ATOM     21  C   UNL A   1      35.789  21.402  25.459  1.00  0.00     0.000 A 
BRANCH  18  22
ATOM     22  C   UNL A   1      32.493  19.838  24.353  1.00  0.00     0.019 C 
ATOM     23  C   UNL A   1      32.812  18.600  23.561  1.00  0.00     0.009 C 
ATOM     24  C   UNL A   1      32.540  18.501  25.042  1.00  0.00     0.009 C 
ENDBRANCH  18  22
ENDBRANCH  11  16
ENDBRANCH   5   8
ENDBRANCH   3   4
ENDBRANCH   2   3
ENDBRANCH   1   2
BRANCH   1  25
ATOM     25  C   UNL A   1      33.828  28.340  26.822  1.00  0.00     0.116 C 
BRANCH  25  26
ATOM     26  N   UNL A   1      33.635  29.674  27.364  1.00  0.00    -0.352 N 
ATOM     27  C   UNL A   1      34.506  30.446  28.092  1.00  0.00     0.251 C 
ATOM     28  H   UNL A   1      32.758  30.083  27.183  1.00  0.00     0.163 HD
ATOM     29  O   UNL A   1      34.128  31.509  28.572  1.00  0.00    -0.269 OA
BRANCH  27  30
ATOM     30  C   UNL A   1      35.882  29.964  28.324  1.00  0.00     0.039 A 
ATOM     31  C   UNL A   1      36.812  30.076  27.289  1.00  0.00     0.014 A 
ATOM     32  C   UNL A   1      36.261  29.437  29.562  1.00  0.00     0.014 A 
ATOM     33  C   UNL A   1      38.140  29.719  27.519  1.00  0.00     0.010 A 
ATOM     34  C   UNL A   1      37.599  29.152  29.812  1.00  0.00     0.010 A 
ATOM     35  C   UNL A   1      38.552  29.291  28.793  1.00  0.00    -0.014 A 
BRANCH  35  36
ATOM     36  C   UNL A   1      39.983  29.015  29.070  1.00  0.00     0.031 A 
ATOM     37  C   UNL A   1      40.587  27.682  28.722  1.00  0.00     0.074 A 
ATOM     38  C   UNL A   1      40.729  29.961  29.675  1.00  0.00     0.049 A 
ATOM     39  N   UNL A   1      41.820  27.274  28.874  1.00  0.00    -0.248 NA
ATOM     40  C   UNL A   1      39.686  26.669  28.149  1.00  0.00     0.031 C 
ATOM     41  C   UNL A   1      40.241  31.271  30.116  1.00  0.00     0.029 A 
ATOM     42  N   UNL A   1      42.056  29.969  30.022  1.00  0.00    -0.354 N 
ATOM     43  C   UNL A   1      41.843  25.959  28.426  1.00  0.00     0.074 A 
ATOM     44  C   UNL A   1      40.489  25.619  28.046  1.00  0.00     0.031 C 
ATOM     45  C   UNL A   1      41.262  31.969  30.636  1.00  0.00     0.029 A 
ATOM     46  C   UNL A   1      42.467  31.147  30.601  1.00  0.00     0.049 A 
ATOM     47  H   UNL A   1      42.657  29.204  29.871  1.00  0.00     0.167 HD
ATOM     48  C   UNL A   1      42.899  25.117  28.318  1.00  0.00     0.031 A 
ATOM     49  C   UNL A   1      43.679  31.525  31.052  1.00  0.00     0.031 A 
ATOM     50  C   UNL A   1      44.245  25.462  28.697  1.00  0.00     0.049 A 
ATOM     51  C   UNL A   1      44.835  30.573  30.919  1.00  0.00     0.074 A 
ATOM     52  C   UNL A   1      45.394  24.701  28.574  1.00  0.00     0.029 A 
ATOM     53  N   UNL A   1      44.622  26.664  29.278  1.00  0.00    -0.354 N 
ATOM     54  N   UNL A   1      44.852  29.362  30.416  1.00  0.00    -0.248 NA
ATOM     55  C   UNL A   1      46.139  31.048  31.399  1.00  0.00     0.031 C 
ATOM     56  C   UNL A   1      46.457  25.421  29.133  1.00  0.00     0.029 A 
ATOM     57  C   UNL A   1      45.981  26.655  29.545  1.00  0.00     0.049 A 
ATOM     58  H   UNL A   1      44.012  27.412  29.471  1.00  0.00     0.167 HD
ATOM     59  C   UNL A   1      46.173  28.936  30.501  1.00  0.00     0.074 A 
ATOM     60  C   UNL A   1      46.927  30.031  31.079  1.00  0.00     0.031 C 
ATOM     61  C   UNL A   1      46.713  27.747  30.138  1.00  0.00     0.031 A 
BRANCH  48  62
ATOM     62  C   UNL A   1      42.637  23.738  27.772  1.00  0.00    -0.014 A 
ATOM     63  C   UNL A   1      42.682  23.481  26.389  1.00  0.00     0.010 A 
ATOM     64  C   UNL A   1      42.381  22.673  28.656  1.00  0.00     0.010 A 
ATOM     65  C   UNL A   1      42.439  22.196  25.898  1.00  0.00     0.020 A 
ATOM     66  C   UNL A   1      42.166  21.379  28.170  1.00  0.00     0.020 A 
ATOM     67  C   UNL A   1      42.180  21.152  26.792  1.00  0.00     0.054 A 
BRANCH  67  68
ATOM     68  S   UNL A   1      41.894  19.490  26.127  1.00  0.00     0.124 S 
ATOM     69  O   UNL A   1      42.314  18.642  27.240  1.00  0.00    -0.237 OA
ATOM     70  O   UNL A   1      40.460  19.498  25.850  1.00  0.00    -0.237 OA
ATOM     71  O   UNL A   1      42.752  19.435  24.947  1.00  0.00    -0.744 OA
ENDBRANCH  67  68
ENDBRANCH  48  62
BRANCH  49  72
ATOM     72  C   UNL A   1      43.861  32.876  31.651  1.00  0.00    -0.014 A 
ATOM     73  C   UNL A   1      44.132  33.990  30.837  1.00  0.00     0.010 A 
ATOM     74  C   UNL A   1      43.751  33.057  33.041  1.00  0.00     0.010 A 
ATOM     75  C   UNL A   1      44.310  35.255  31.404  1.00  0.00     0.020 A 
ATOM     76  C   UNL A   1      43.900  34.326  33.609  1.00  0.00     0.020 A 
ATOM     77  C   UNL A   1      44.190  35.416  32.787  1.00  0.00     0.054 A 
BRANCH  77  78
ATOM     78  S   UNL A   1      44.377  37.075  33.495  1.00  0.00     0.124 S 
ATOM     79  O   UNL A   1      45.594  36.933  34.287  1.00  0.00    -0.237 OA
ATOM     80  O   UNL A   1      44.488  37.915  32.305  1.00  0.00    -0.237 OA
ATOM     81  O   UNL A   1      43.147  37.258  34.264  1.00  0.00    -0.744 OA
ENDBRANCH  77  78
ENDBRANCH  49  72
BRANCH  61  82
ATOM     82  C   UNL A   1      48.196  27.580  30.340  1.00  0.00    -0.014 A 
ATOM     83  C   UNL A   1      49.116  27.956  29.344  1.00  0.00     0.010 A 
ATOM     84  C   UNL A   1      48.677  27.050  31.552  1.00  0.00     0.010 A 
ATOM     85  C   UNL A   1      50.485  27.755  29.535  1.00  0.00     0.020 A 
ATOM     86  C   UNL A   1      50.048  26.879  31.760  1.00  0.00     0.020 A 
ATOM     87  C   UNL A   1      50.942  27.211  30.740  1.00  0.00     0.054 A 
BRANCH  87  88
ATOM     88  S   UNL A   1      52.724  26.966  30.967  1.00  0.00     0.124 S 
ATOM     89  O   UNL A   1      52.760  26.009  32.070  1.00  0.00    -0.237 OA
ATOM     90  O   UNL A   1      53.144  26.444  29.668  1.00  0.00    -0.237 OA
ATOM     91  O   UNL A   1      53.221  28.303  31.285  1.00  0.00    -0.744 OA
ENDBRANCH  87  88
ENDBRANCH  61  82
ENDBRANCH  35  36
ENDBRANCH  27  30
ENDBRANCH  25  26
ENDBRANCH   1  25
TORSDOF 17
ENDMDL
MODEL 3
REMARK VINA RESULT:     -10.8      4.411     10.205
REMARK SMILES CCN1C(=O)C[C@@H](C(=O)NCCCCNC(=O)c2ccc(-c3c4nc(c(-c5ccc(S(=O)(=O)[O-])cc5)c5ccc([nH]5)c(-c5ccc(S(=O)(=O)[O-])cc5)c5nc(c(-c6ccc(S(=O)(=O)[O-])cc6)c6ccc3[nH]6)C=C5)C=C4)cc2)[C@H]1c1ccccc1C1CC1
REMARK SMILES IDX 13 1 12 2 11 3 10 4 8 5 9 6 7 8 3 9 4 10 78 11 5 12 6 13
REMARK SMILES IDX 2 14 1 15 79 16 80 17 84 18 81 19 83 20 82 21 85 22 86 23
REMARK SMILES IDX 87 24 14 25 15 26 16 27 17 29 18 30 19 31 77 32 20 33 76 34
REMARK SMILES IDX 21 35 22 36 23 37 70 38 24 39 75 40 69 41 71 42 25 43 74 44
REMARK SMILES IDX 68 45 67 46 26 48 56 49 37 50 55 51 38 52 41 53 54 54 72 55
REMARK SMILES IDX 39 56 40 57 53 59 73 60 42 61 27 62 28 63 36 64 29 65 35 66
REMARK SMILES IDX 30 67 31 68 32 69 33 70 34 71 57 72 58 73 66 74 59 75 65 76
REMARK SMILES IDX 60 77 61 78 62 79 63 80 64 81 43 82 44 83 52 84 45 85 51 86
REMARK SMILES IDX 46 87 47 88 48 89 49 90 50 91
REMARK H PARENT 10 7 15 28 71 47 41 58
REMARK Flexibility Score: inf
ROOT
ATOM      1  C   UNL A   1      38.219  23.063  25.969  1.00  0.00     0.023 C 
ENDROOT
BRANCH   1   2
ATOM      2  C   UNL A   1      36.713  23.332  25.929  1.00  0.00     0.023 C 
BRANCH   2   3
ATOM      3  C   UNL A   1      36.149  23.656  24.543  1.00  0.00     0.116 C 
BRANCH   3   4
ATOM      4  N   UNL A   1      34.944  22.905  24.270  1.00  0.00    -0.356 N 
ATOM      5  C   UNL A   1      33.728  22.836  24.862  1.00  0.00     0.226 C 
ATOM      6  O   UNL A   1      32.893  22.243  24.175  1.00  0.00    -0.275 OA
ATOM      7  H   UNL A   1      35.025  22.317  23.484  1.00  0.00     0.163 HD
BRANCH   5   8
ATOM      8  C   UNL A   1      33.345  23.594  26.139  1.00  0.00     0.115 C 
ATOM      9  N   UNL A   1      31.313  24.849  26.202  1.00  0.00    -0.335 N 
ATOM     10  C   UNL A   1      31.042  23.668  26.858  1.00  0.00     0.223 C 
ATOM     11  C   UNL A   1      32.749  25.030  26.006  1.00  0.00     0.128 C 
ATOM     12  O   UNL A   1      29.955  23.298  27.289  1.00  0.00    -0.275 OA
ATOM     13  C   UNL A   1      32.332  22.941  27.083  1.00  0.00     0.116 C 
BRANCH   9  14
ATOM     14  C   UNL A   1      30.332  25.924  26.144  1.00  0.00     0.117 C 
ATOM     15  C   UNL A   1      29.618  25.994  24.804  1.00  0.00     0.027 C 
ENDBRANCH   9  14
BRANCH  11  16
ATOM     16  C   UNL A   1      33.106  25.970  24.869  1.00  0.00    -0.021 A 
ATOM     17  C   UNL A   1      32.832  25.507  23.555  1.00  0.00     0.006 A 
ATOM     18  C   UNL A   1      33.660  27.270  25.037  1.00  0.00    -0.040 A 
ATOM     19  C   UNL A   1      33.176  26.226  22.417  1.00  0.00     0.000 A 
ATOM     20  C   UNL A   1      33.999  27.964  23.841  1.00  0.00     0.004 A 
ATOM     21  C   UNL A   1      33.780  27.457  22.560  1.00  0.00     0.000 A 
BRANCH  18  22
ATOM     22  C   UNL A   1      33.945  28.058  26.320  1.00  0.00     0.019 C 
ATOM     23  C   UNL A   1      33.748  29.534  26.533  1.00  0.00     0.009 C 
ATOM     24  C   UNL A   1      32.849  28.542  27.230  1.00  0.00     0.009 C 
ENDBRANCH  18  22
ENDBRANCH  11  16
ENDBRANCH   5   8
ENDBRANCH   3   4
ENDBRANCH   2   3
ENDBRANCH   1   2
BRANCH   1  25
ATOM     25  C   UNL A   1      39.050  24.120  26.682  1.00  0.00     0.116 C 
BRANCH  25  26
ATOM     26  N   UNL A   1      40.269  24.458  25.967  1.00  0.00    -0.352 N 
ATOM     27  C   UNL A   1      41.083  25.553  26.115  1.00  0.00     0.251 C 
ATOM     28  H   UNL A   1      40.552  23.811  25.281  1.00  0.00     0.163 HD
ATOM     29  O   UNL A   1      42.014  25.735  25.337  1.00  0.00    -0.269 OA
BRANCH  27  30
ATOM     30  C   UNL A   1      40.801  26.526  27.189  1.00  0.00     0.039 A 
ATOM     31  C   UNL A   1      39.920  26.159  28.207  1.00  0.00     0.014 A 
ATOM     32  C   UNL A   1      41.427  27.776  27.209  1.00  0.00     0.014 A 
ATOM     33  C   UNL A   1      39.717  27.025  29.283  1.00  0.00     0.010 A 
ATOM     34  C   UNL A   1      41.281  28.604  28.317  1.00  0.00     0.010 A 
ATOM     35  C   UNL A   1      40.424  28.236  29.365  1.00  0.00    -0.014 A 
BRANCH  35  36
ATOM     36  C   UNL A   1      40.293  29.107  30.559  1.00  0.00     0.031 A 
ATOM     37  C   UNL A   1      41.179  28.901  31.757  1.00  0.00     0.074 A 
ATOM     38  C   UNL A   1      39.342  30.062  30.574  1.00  0.00     0.049 A 
ATOM     39  N   UNL A   1      41.217  29.576  32.876  1.00  0.00    -0.248 NA
ATOM     40  C   UNL A   1      42.129  27.779  31.701  1.00  0.00     0.031 C 
ATOM     41  C   UNL A   1      38.382  30.319  29.496  1.00  0.00     0.029 A 
ATOM     42  N   UNL A   1      39.026  30.996  31.527  1.00  0.00    -0.354 N 
ATOM     43  C   UNL A   1      42.185  28.960  33.659  1.00  0.00     0.074 A 
ATOM     44  C   UNL A   1      42.673  27.822  32.909  1.00  0.00     0.031 C 
ATOM     45  C   UNL A   1      37.615  31.368  29.831  1.00  0.00     0.029 A 
ATOM     46  C   UNL A   1      37.999  31.834  31.159  1.00  0.00     0.049 A 
ATOM     47  H   UNL A   1      39.490  31.062  32.393  1.00  0.00     0.167 HD
ATOM     48  C   UNL A   1      42.644  29.320  34.882  1.00  0.00     0.031 A 
ATOM     49  C   UNL A   1      37.431  32.864  31.815  1.00  0.00     0.031 A 
ATOM     50  C   UNL A   1      42.155  30.453  35.623  1.00  0.00     0.049 A 
ATOM     51  C   UNL A   1      37.960  33.245  33.170  1.00  0.00     0.074 A 
ATOM     52  C   UNL A   1      42.593  30.936  36.844  1.00  0.00     0.029 A 
ATOM     53  N   UNL A   1      41.116  31.278  35.217  1.00  0.00    -0.354 N 
ATOM     54  N   UNL A   1      38.933  32.698  33.859  1.00  0.00    -0.248 NA
ATOM     55  C   UNL A   1      37.324  34.394  33.827  1.00  0.00     0.031 C 
ATOM     56  C   UNL A   1      41.781  32.018  37.203  1.00  0.00     0.029 A 
ATOM     57  C   UNL A   1      40.880  32.249  36.176  1.00  0.00     0.049 A 
ATOM     58  H   UNL A   1      40.620  31.185  34.371  1.00  0.00     0.167 HD
ATOM     59  C   UNL A   1      39.039  33.449  35.024  1.00  0.00     0.074 A 
ATOM     60  C   UNL A   1      38.050  34.504  34.931  1.00  0.00     0.031 C 
ATOM     61  C   UNL A   1      39.878  33.281  36.077  1.00  0.00     0.031 A 
BRANCH  48  62
ATOM     62  C   UNL A   1      43.727  28.472  35.496  1.00  0.00    -0.014 A 
ATOM     63  C   UNL A   1      45.088  28.761  35.282  1.00  0.00     0.010 A 
ATOM     64  C   UNL A   1      43.383  27.395  36.334  1.00  0.00     0.010 A 
ATOM     65  C   UNL A   1      46.081  27.967  35.860  1.00  0.00     0.020 A 
ATOM     66  C   UNL A   1      44.375  26.616  36.938  1.00  0.00     0.020 A 
ATOM     67  C   UNL A   1      45.718  26.897  36.684  1.00  0.00     0.054 A 
BRANCH  67  68
ATOM     68  S   UNL A   1      47.030  25.900  37.441  1.00  0.00     0.124 S 
ATOM     69  O   UNL A   1      47.337  26.670  38.645  1.00  0.00    -0.237 OA
ATOM     70  O   UNL A   1      46.370  24.618  37.667  1.00  0.00    -0.237 OA
ATOM     71  O   UNL A   1      48.083  25.885  36.429  1.00  0.00    -0.744 OA
ENDBRANCH  67  68
ENDBRANCH  48  62
BRANCH  49  72
ATOM     72  C   UNL A   1      36.312  33.619  31.187  1.00  0.00    -0.014 A 
ATOM     73  C   UNL A   1      35.131  33.878  31.905  1.00  0.00     0.010 A 
ATOM     74  C   UNL A   1      36.429  34.096  29.869  1.00  0.00     0.010 A 
ATOM     75  C   UNL A   1      34.079  34.580  31.309  1.00  0.00     0.020 A 
ATOM     76  C   UNL A   1      35.391  34.824  29.280  1.00  0.00     0.020 A 
ATOM     77  C   UNL A   1      34.217  35.051  30.000  1.00  0.00     0.054 A 
BRANCH  77  78
ATOM     78  S   UNL A   1      32.859  36.003  29.265  1.00  0.00     0.124 S 
ATOM     79  O   UNL A   1      32.020  36.283  30.426  1.00  0.00    -0.237 OA
ATOM     80  O   UNL A   1      33.555  37.153  28.693  1.00  0.00    -0.237 OA
ATOM     81  O   UNL A   1      32.287  35.081  28.286  1.00  0.00    -0.744 OA
ENDBRANCH  77  78
ENDBRANCH  49  72
BRANCH  61  82
ATOM     82  C   UNL A   1      39.768  34.275  37.203  1.00  0.00    -0.014 A 
ATOM     83  C   UNL A   1      40.490  35.482  37.186  1.00  0.00     0.010 A 
ATOM     84  C   UNL A   1      38.917  34.001  38.290  1.00  0.00     0.010 A 
ATOM     85  C   UNL A   1      40.405  36.371  38.259  1.00  0.00     0.020 A 
ATOM     86  C   UNL A   1      38.805  34.904  39.351  1.00  0.00     0.020 A 
ATOM     87  C   UNL A   1      39.568  36.073  39.339  1.00  0.00     0.054 A 
BRANCH  87  88
ATOM     88  S   UNL A   1      39.471  37.246  40.718  1.00  0.00     0.124 S 
ATOM     89  O   UNL A   1      38.651  38.314  40.151  1.00  0.00    -0.237 OA
ATOM     90  O   UNL A   1      38.833  36.455  41.768  1.00  0.00    -0.237 OA
ATOM     91  O   UNL A   1      40.866  37.599  40.972  1.00  0.00    -0.744 OA
ENDBRANCH  87  88
ENDBRANCH  61  82
ENDBRANCH  35  36
ENDBRANCH  27  30
ENDBRANCH  25  26
ENDBRANCH   1  25
TORSDOF 17
ENDMDL
