MODEL 1
REMARK VINA RESULT:     -11.4      0.000      0.000
REMARK SMILES O=C(NCCCCNC(=O)[C@@H]1CCc2[nH]ncc2C1)c1ccc(-c2c3nc(c(-c4ccc(S(=O)(=O)[O-])cc4)c4ccc([nH]4)c(-c4ccc(S(=O)(=O)[O-])cc4)c4nc(c(-c5ccc(S(=O)(=O)[O-])cc5)c5ccc2[nH]5)C=C4)C=C3)cc1
REMARK SMILES IDX 4 1 3 2 1 3 2 4 20 6 21 7 79 8 22 9 78 10 23 11 24 12 25 13
REMARK SMILES IDX 72 14 26 15 77 16 71 17 73 18 27 19 76 20 70 21 69 22 28 24
REMARK SMILES IDX 58 25 39 26 57 27 40 28 43 29 56 30 74 31 41 32 42 33 55 35
REMARK SMILES IDX 75 36 44 37 29 38 30 39 38 40 31 41 37 42 32 43 33 44 34 45
REMARK SMILES IDX 35 46 36 47 59 48 60 49 68 50 61 51 67 52 62 53 63 54 64 55
REMARK SMILES IDX 65 56 66 57 45 58 46 59 54 60 47 61 53 62 48 63 49 64 50 65
REMARK SMILES IDX 51 66 52 67 5 68 6 69 7 70 8 71 9 72 10 74 11 75 12 76 19 77
REMARK SMILES IDX 13 78 18 79 14 80 17 81 15 82 16 83
REMARK H PARENT 3 5 73 23 43 34 8 73 15 84
REMARK Flexibility Score: inf
ROOT
ATOM      1  C   UNL A   1      41.259  23.155  27.906  1.00  0.00     0.116 C 
ENDROOT
BRANCH   1   2
ATOM      2  N   UNL A   1      41.485  23.819  26.631  1.00  0.00    -0.352 N 
ATOM      3  O   UNL A   1      41.510  25.510  25.140  1.00  0.00    -0.269 OA
ATOM      4  C   UNL A   1      41.380  25.153  26.308  1.00  0.00     0.251 C 
ATOM      5  H   UNL A   1      41.753  23.227  25.891  1.00  0.00     0.163 HD
BRANCH   4   6
ATOM      6  C   UNL A   1      41.068  26.145  27.359  1.00  0.00     0.039 A 
ATOM      7  C   UNL A   1      41.858  27.284  27.527  1.00  0.00     0.014 A 
ATOM      8  C   UNL A   1      39.982  25.916  28.208  1.00  0.00     0.014 A 
ATOM      9  C   UNL A   1      41.674  28.093  28.643  1.00  0.00     0.010 A 
ATOM     10  C   UNL A   1      39.742  26.782  29.280  1.00  0.00     0.010 A 
ATOM     11  C   UNL A   1      40.617  27.850  29.537  1.00  0.00    -0.014 A 
BRANCH  11  12
ATOM     12  C   UNL A   1      40.439  28.736  30.717  1.00  0.00     0.031 A 
ATOM     13  C   UNL A   1      41.363  28.647  31.902  1.00  0.00     0.074 A 
ATOM     14  C   UNL A   1      39.459  29.660  30.696  1.00  0.00     0.049 A 
ATOM     15  N   UNL A   1      41.381  29.381  32.987  1.00  0.00    -0.248 NA
ATOM     16  C   UNL A   1      42.395  27.598  31.874  1.00  0.00     0.031 C 
ATOM     17  C   UNL A   1      38.499  29.846  29.605  1.00  0.00     0.029 A 
ATOM     18  N   UNL A   1      39.127  30.635  31.602  1.00  0.00    -0.354 N 
ATOM     19  C   UNL A   1      42.400  28.866  33.781  1.00  0.00     0.074 A 
ATOM     20  C   UNL A   1      42.966  27.746  33.060  1.00  0.00     0.031 C 
ATOM     21  C   UNL A   1      37.728  30.909  29.877  1.00  0.00     0.029 A 
ATOM     22  C   UNL A   1      38.098  31.444  31.183  1.00  0.00     0.049 A 
ATOM     23  H   UNL A   1      39.581  30.744  32.468  1.00  0.00     0.167 HD
ATOM     24  C   UNL A   1      42.826  29.287  34.997  1.00  0.00     0.031 A 
ATOM     25  C   UNL A   1      37.512  32.498  31.779  1.00  0.00     0.031 A 
ATOM     26  C   UNL A   1      42.269  30.408  35.709  1.00  0.00     0.049 A 
ATOM     27  C   UNL A   1      37.998  32.943  33.127  1.00  0.00     0.074 A 
ATOM     28  C   UNL A   1      42.657  30.932  36.931  1.00  0.00     0.029 A 
ATOM     29  N   UNL A   1      41.205  31.177  35.266  1.00  0.00    -0.354 N 
ATOM     30  N   UNL A   1      38.979  32.456  33.848  1.00  0.00    -0.248 NA
ATOM     31  C   UNL A   1      37.299  34.080  33.739  1.00  0.00     0.031 C 
ATOM     32  C   UNL A   1      41.799  31.992  37.245  1.00  0.00     0.029 A 
ATOM     33  C   UNL A   1      40.908  32.159  36.197  1.00  0.00     0.049 A 
ATOM     34  H   UNL A   1      40.728  31.044  34.414  1.00  0.00     0.167 HD
ATOM     35  C   UNL A   1      39.029  33.240  34.994  1.00  0.00     0.074 A 
ATOM     36  C   UNL A   1      37.988  34.241  34.862  1.00  0.00     0.031 C 
ATOM     37  C   UNL A   1      39.864  33.142  36.057  1.00  0.00     0.031 A 
BRANCH  24  38
ATOM     38  C   UNL A   1      43.933  28.501  35.653  1.00  0.00    -0.014 A 
ATOM     39  C   UNL A   1      45.280  28.885  35.524  1.00  0.00     0.010 A 
ATOM     40  C   UNL A   1      43.616  27.368  36.424  1.00  0.00     0.010 A 
ATOM     41  C   UNL A   1      46.293  28.120  36.111  1.00  0.00     0.020 A 
ATOM     42  C   UNL A   1      44.624  26.614  37.032  1.00  0.00     0.020 A 
ATOM     43  C   UNL A   1      45.958  26.982  36.851  1.00  0.00     0.054 A 
BRANCH  43  44
ATOM     44  S   UNL A   1      47.290  25.996  37.592  1.00  0.00     0.124 S 
ATOM     45  O   UNL A   1      47.159  24.730  36.874  1.00  0.00    -0.237 OA
ATOM     46  O   UNL A   1      48.484  26.776  37.276  1.00  0.00    -0.237 OA
ATOM     47  O   UNL A   1      46.938  25.949  39.009  1.00  0.00    -0.744 OA
ENDBRANCH  43  44
ENDBRANCH  24  38
BRANCH  25  48
ATOM     48  C   UNL A   1      36.408  33.209  31.083  1.00  0.00    -0.014 A 
ATOM     49  C   UNL A   1      35.157  33.358  31.703  1.00  0.00     0.010 A 
ATOM     50  C   UNL A   1      36.622  33.790  29.819  1.00  0.00     0.010 A 
ATOM     51  C   UNL A   1      34.137  34.077  31.074  1.00  0.00     0.020 A 
ATOM     52  C   UNL A   1      35.613  34.531  29.198  1.00  0.00     0.020 A 
ATOM     53  C   UNL A   1      34.375  34.664  29.828  1.00  0.00     0.054 A 
BRANCH  53  54
ATOM     54  S   UNL A   1      33.067  35.666  29.067  1.00  0.00     0.124 S 
ATOM     55  O   UNL A   1      32.315  36.119  30.233  1.00  0.00    -0.237 OA
ATOM     56  O   UNL A   1      33.826  36.696  28.362  1.00  0.00    -0.237 OA
ATOM     57  O   UNL A   1      32.372  34.716  28.201  1.00  0.00    -0.744 OA
ENDBRANCH  53  54
ENDBRANCH  25  48
BRANCH  37  58
ATOM     58  C   UNL A   1      39.703  34.163  37.149  1.00  0.00    -0.014 A 
ATOM     59  C   UNL A   1      40.176  35.478  36.990  1.00  0.00     0.010 A 
ATOM     60  C   UNL A   1      39.045  33.808  38.340  1.00  0.00     0.010 A 
ATOM     61  C   UNL A   1      40.023  36.411  38.020  1.00  0.00     0.020 A 
ATOM     62  C   UNL A   1      38.870  34.744  39.361  1.00  0.00     0.020 A 
ATOM     63  C   UNL A   1      39.375  36.036  39.201  1.00  0.00     0.054 A 
BRANCH  63  64
ATOM     64  S   UNL A   1      39.161  37.269  40.514  1.00  0.00     0.124 S 
ATOM     65  O   UNL A   1      38.587  36.468  41.592  1.00  0.00    -0.237 OA
ATOM     66  O   UNL A   1      40.525  37.742  40.740  1.00  0.00    -0.237 OA
ATOM     67  O   UNL A   1      38.260  38.253  39.919  1.00  0.00    -0.744 OA
ENDBRANCH  63  64
ENDBRANCH  37  58
ENDBRANCH  11  12
ENDBRANCH   4   6
ENDBRANCH   1   2
BRANCH   1  68
ATOM     68  C   UNL A   1      42.542  22.862  28.674  1.00  0.00     0.023 C 
BRANCH  68  69
ATOM     69  C   UNL A   1      43.491  24.043  28.851  1.00  0.00     0.023 C 
BRANCH  69  70
ATOM     70  C   UNL A   1      44.884  23.864  28.259  1.00  0.00     0.116 C 
BRANCH  70  71
ATOM     71  N   UNL A   1      45.050  24.493  26.959  1.00  0.00    -0.356 N 
ATOM     72  C   UNL A   1      45.163  23.910  25.727  1.00  0.00     0.223 C 
ATOM     73  H   UNL A   1      45.089  25.477  26.967  1.00  0.00     0.163 HD
ATOM     74  O   UNL A   1      45.206  24.628  24.729  1.00  0.00    -0.275 OA
BRANCH  72  75
ATOM     75  C   UNL A   1      45.235  22.399  25.649  1.00  0.00     0.083 C 
ATOM     76  C   UNL A   1      46.258  21.903  24.591  1.00  0.00     0.020 C 
ATOM     77  C   UNL A   1      43.842  21.799  25.334  1.00  0.00     0.052 C 
ATOM     78  C   UNL A   1      46.452  20.368  24.653  1.00  0.00     0.057 C 
ATOM     79  C   UNL A   1      43.974  20.323  25.295  1.00  0.00    -0.006 A 
ATOM     80  C   UNL A   1      45.160  19.704  24.971  1.00  0.00     0.038 A 
ATOM     81  C   UNL A   1      43.096  19.275  25.607  1.00  0.00     0.138 A 
ATOM     82  N   UNL A   1      44.941  18.367  25.098  1.00  0.00    -0.282 N 
ATOM     83  N   UNL A   1      43.681  18.078  25.484  1.00  0.00    -0.184 NA
ATOM     84  H   UNL A   1      45.628  17.683  24.927  1.00  0.00     0.190 HD
ENDBRANCH  72  75
ENDBRANCH  70  71
ENDBRANCH  69  70
ENDBRANCH  68  69
ENDBRANCH   1  68
TORSDOF 14
ENDMDL
MODEL 2
REMARK VINA RESULT:     -11.3      4.067     12.111
REMARK SMILES O=C(NCCCCNC(=O)[C@@H]1CCc2[nH]ncc2C1)c1ccc(-c2c3nc(c(-c4ccc(S(=O)(=O)[O-])cc4)c4ccc([nH]4)c(-c4ccc(S(=O)(=O)[O-])cc4)c4nc(c(-c5ccc(S(=O)(=O)[O-])cc5)c5ccc2[nH]5)C=C4)C=C3)cc1
REMARK SMILES IDX 4 1 3 2 1 3 2 4 20 6 21 7 79 8 22 9 78 10 23 11 24 12 25 13
REMARK SMILES IDX 72 14 26 15 77 16 71 17 73 18 27 19 76 20 70 21 69 22 28 24
REMARK SMILES IDX 58 25 39 26 57 27 40 28 43 29 56 30 74 31 41 32 42 33 55 35
REMARK SMILES IDX 75 36 44 37 29 38 30 39 38 40 31 41 37 42 32 43 33 44 34 45
REMARK SMILES IDX 35 46 36 47 59 48 60 49 68 50 61 51 67 52 62 53 63 54 64 55
REMARK SMILES IDX 65 56 66 57 45 58 46 59 54 60 47 61 53 62 48 63 49 64 50 65
REMARK SMILES IDX 51 66 52 67 5 68 6 69 7 70 8 71 9 72 10 74 11 75 12 76 19 77
REMARK SMILES IDX 13 78 18 79 14 80 17 81 15 82 16 83
REMARK H PARENT 3 5 73 23 43 34 8 73 15 84
REMARK Flexibility Score: inf
ROOT
ATOM      1  C   UNL A   1      34.784  32.434  29.642  1.00  0.00     0.116 C 
ENDROOT
BRANCH   1   2
ATOM      2  N   UNL A   1      34.111  31.663  28.607  1.00  0.00    -0.352 N 
ATOM      3  O   UNL A   1      33.882  30.131  26.969  1.00  0.00    -0.269 OA
ATOM      4  C   UNL A   1      34.566  30.586  27.882  1.00  0.00     0.251 C 
ATOM      5  H   UNL A   1      33.195  31.956  28.395  1.00  0.00     0.163 HD
BRANCH   4   6
ATOM      6  C   UNL A   1      35.895  30.006  28.176  1.00  0.00     0.039 A 
ATOM      7  C   UNL A   1      36.148  29.375  29.396  1.00  0.00     0.014 A 
ATOM      8  C   UNL A   1      36.912  30.122  27.224  1.00  0.00     0.014 A 
ATOM      9  C   UNL A   1      37.451  29.022  29.732  1.00  0.00     0.010 A 
ATOM     10  C   UNL A   1      38.204  29.684  27.530  1.00  0.00     0.010 A 
ATOM     11  C   UNL A   1      38.496  29.177  28.806  1.00  0.00    -0.014 A 
BRANCH  11  12
ATOM     12  C   UNL A   1      39.877  28.784  29.191  1.00  0.00     0.031 A 
ATOM     13  C   UNL A   1      40.725  29.674  30.059  1.00  0.00     0.074 A 
ATOM     14  C   UNL A   1      40.351  27.589  28.786  1.00  0.00     0.049 A 
ATOM     15  N   UNL A   1      41.928  29.457  30.531  1.00  0.00    -0.248 NA
ATOM     16  C   UNL A   1      40.159  30.976  30.443  1.00  0.00     0.031 C 
ATOM     17  C   UNL A   1      39.626  26.637  27.942  1.00  0.00     0.029 A 
ATOM     18  N   UNL A   1      41.539  26.959  29.054  1.00  0.00    -0.354 N 
ATOM     19  C   UNL A   1      42.274  30.603  31.239  1.00  0.00     0.074 A 
ATOM     20  C   UNL A   1      41.160  31.520  31.121  1.00  0.00     0.031 C 
ATOM     21  C   UNL A   1      40.357  25.520  27.813  1.00  0.00     0.029 A 
ATOM     22  C   UNL A   1      41.624  25.698  28.514  1.00  0.00     0.049 A 
ATOM     23  H   UNL A   1      42.261  27.370  29.582  1.00  0.00     0.167 HD
ATOM     24  C   UNL A   1      43.413  30.867  31.926  1.00  0.00     0.031 A 
ATOM     25  C   UNL A   1      42.609  24.783  28.572  1.00  0.00     0.031 A 
ATOM     26  C   UNL A   1      44.515  29.951  32.052  1.00  0.00     0.049 A 
ATOM     27  C   UNL A   1      43.861  25.100  29.335  1.00  0.00     0.074 A 
ATOM     28  C   UNL A   1      45.697  30.115  32.756  1.00  0.00     0.029 A 
ATOM     29  N   UNL A   1      44.577  28.699  31.460  1.00  0.00    -0.354 N 
ATOM     30  N   UNL A   1      44.157  26.181  30.017  1.00  0.00    -0.248 NA
ATOM     31  C   UNL A   1      44.911  24.074  29.336  1.00  0.00     0.031 C 
ATOM     32  C   UNL A   1      46.489  28.979  32.555  1.00  0.00     0.029 A 
ATOM     33  C   UNL A   1      45.781  28.086  31.765  1.00  0.00     0.049 A 
ATOM     34  H   UNL A   1      43.867  28.303  30.903  1.00  0.00     0.167 HD
ATOM     35  C   UNL A   1      45.421  25.957  30.547  1.00  0.00     0.074 A 
ATOM     36  C   UNL A   1      45.828  24.633  30.116  1.00  0.00     0.031 C 
ATOM     37  C   UNL A   1      46.176  26.773  31.322  1.00  0.00     0.031 A 
BRANCH  24  38
ATOM     38  C   UNL A   1      43.535  32.226  32.566  1.00  0.00    -0.014 A 
ATOM     39  C   UNL A   1      43.102  32.457  33.884  1.00  0.00     0.010 A 
ATOM     40  C   UNL A   1      44.108  33.285  31.840  1.00  0.00     0.010 A 
ATOM     41  C   UNL A   1      43.191  33.735  34.445  1.00  0.00     0.020 A 
ATOM     42  C   UNL A   1      44.221  34.559  32.405  1.00  0.00     0.020 A 
ATOM     43  C   UNL A   1      43.740  34.781  33.696  1.00  0.00     0.054 A 
BRANCH  43  44
ATOM     44  S   UNL A   1      43.833  36.434  34.439  1.00  0.00     0.124 S 
ATOM     45  O   UNL A   1      44.012  36.116  35.854  1.00  0.00    -0.237 OA
ATOM     46  O   UNL A   1      44.996  37.021  33.777  1.00  0.00    -0.237 OA
ATOM     47  O   UNL A   1      42.551  37.042  34.094  1.00  0.00    -0.744 OA
ENDBRANCH  43  44
ENDBRANCH  24  38
BRANCH  25  48
ATOM     48  C   UNL A   1      42.428  23.472  27.895  1.00  0.00    -0.014 A 
ATOM     49  C   UNL A   1      43.063  23.214  26.669  1.00  0.00     0.010 A 
ATOM     50  C   UNL A   1      41.665  22.458  28.502  1.00  0.00     0.010 A 
ATOM     51  C   UNL A   1      42.941  21.962  26.060  1.00  0.00     0.020 A 
ATOM     52  C   UNL A   1      41.562  21.197  27.909  1.00  0.00     0.020 A 
ATOM     53  C   UNL A   1      42.196  20.960  26.688  1.00  0.00     0.054 A 
BRANCH  53  54
ATOM     54  S   UNL A   1      42.120  19.315  25.925  1.00  0.00     0.124 S 
ATOM     55  O   UNL A   1      40.691  19.165  25.669  1.00  0.00    -0.237 OA
ATOM     56  O   UNL A   1      42.963  19.474  24.743  1.00  0.00    -0.237 OA
ATOM     57  O   UNL A   1      42.670  18.437  26.956  1.00  0.00    -0.744 OA
ENDBRANCH  53  54
ENDBRANCH  25  48
BRANCH  37  58
ATOM     58  C   UNL A   1      47.507  26.244  31.780  1.00  0.00    -0.014 A 
ATOM     59  C   UNL A   1      48.669  26.435  31.011  1.00  0.00     0.010 A 
ATOM     60  C   UNL A   1      47.599  25.571  33.011  1.00  0.00     0.010 A 
ATOM     61  C   UNL A   1      49.895  25.929  31.450  1.00  0.00     0.020 A 
ATOM     62  C   UNL A   1      48.828  25.085  33.464  1.00  0.00     0.020 A 
ATOM     63  C   UNL A   1      49.966  25.253  32.672  1.00  0.00     0.054 A 
BRANCH  63  64
ATOM     64  S   UNL A   1      51.573  24.629  33.239  1.00  0.00     0.124 S 
ATOM     65  O   UNL A   1      52.489  25.235  32.277  1.00  0.00    -0.237 OA
ATOM     66  O   UNL A   1      51.659  25.148  34.602  1.00  0.00    -0.237 OA
ATOM     67  O   UNL A   1      51.433  23.178  33.140  1.00  0.00    -0.744 OA
ENDBRANCH  63  64
ENDBRANCH  37  58
ENDBRANCH  11  12
ENDBRANCH   4   6
ENDBRANCH   1   2
BRANCH   1  68
ATOM     68  C   UNL A   1      35.648  33.562  29.092  1.00  0.00     0.023 C 
BRANCH  68  69
ATOM     69  C   UNL A   1      37.147  33.284  29.043  1.00  0.00     0.023 C 
BRANCH  69  70
ATOM     70  C   UNL A   1      37.980  33.971  30.118  1.00  0.00     0.116 C 
BRANCH  70  71
ATOM     71  N   UNL A   1      37.183  34.622  31.145  1.00  0.00    -0.356 N 
ATOM     72  C   UNL A   1      37.036  34.288  32.464  1.00  0.00     0.223 C 
ATOM     73  H   UNL A   1      36.678  35.414  30.851  1.00  0.00     0.163 HD
ATOM     74  O   UNL A   1      36.382  35.028  33.196  1.00  0.00    -0.275 OA
BRANCH  72  75
ATOM     75  C   UNL A   1      37.684  33.012  32.960  1.00  0.00     0.083 C 
ATOM     76  C   UNL A   1      36.782  31.765  32.759  1.00  0.00     0.020 C 
ATOM     77  C   UNL A   1      38.061  33.136  34.458  1.00  0.00     0.052 C 
ATOM     78  C   UNL A   1      37.528  30.453  33.101  1.00  0.00     0.057 C 
ATOM     79  C   UNL A   1      38.710  31.870  34.875  1.00  0.00    -0.006 A 
ATOM     80  C   UNL A   1      38.440  30.671  34.255  1.00  0.00     0.038 A 
ATOM     81  C   UNL A   1      39.699  31.569  35.823  1.00  0.00     0.138 A 
ATOM     82  N   UNL A   1      39.250  29.747  34.840  1.00  0.00    -0.282 N 
ATOM     83  N   UNL A   1      40.029  30.273  35.807  1.00  0.00    -0.184 NA
ATOM     84  H   UNL A   1      39.265  28.796  34.586  1.00  0.00     0.190 HD
ENDBRANCH  72  75
ENDBRANCH  70  71
ENDBRANCH  69  70
ENDBRANCH  68  69
ENDBRANCH   1  68
TORSDOF 14
ENDMDL
MODEL 3
REMARK VINA RESULT:     -11.0      7.251     14.118
REMARK SMILES O=C(NCCCCNC(=O)[C@@H]1CCc2[nH]ncc2C1)c1ccc(-c2c3nc(c(-c4ccc(S(=O)(=O)[O-])cc4)c4ccc([nH]4)c(-c4ccc(S(=O)(=O)[O-])cc4)c4nc(c(-c5ccc(S(=O)(=O)[O-])cc5)c5ccc2[nH]5)C=C4)C=C3)cc1
REMARK SMILES IDX 4 1 3 2 1 3 2 4 20 6 21 7 79 8 22 9 78 10 23 11 24 12 25 13
REMARK SMILES IDX 72 14 26 15 77 16 71 17 73 18 27 19 76 20 70 21 69 22 28 24
REMARK SMILES IDX 58 25 39 26 57 27 40 28 43 29 56 30 74 31 41 32 42 33 55 35
REMARK SMILES IDX 75 36 44 37 29 38 30 39 38 40 31 41 37 42 32 43 33 44 34 45
REMARK SMILES IDX 35 46 36 47 59 48 60 49 68 50 61 51 67 52 62 53 63 54 64 55
REMARK SMILES IDX 65 56 66 57 45 58 46 59 54 60 47 61 53 62 48 63 49 64 50 65
REMARK SMILES IDX 51 66 52 67 5 68 6 69 7 70 8 71 9 72 10 74 11 75 12 76 19 77
REMARK SMILES IDX 13 78 18 79 14 80 17 81 15 82 16 83
REMARK H PARENT 3 5 73 23 43 34 8 73 15 84
REMARK Flexibility Score: inf
ROOT
ATOM      1  C   UNL A   1      35.576  30.032  27.709  1.00  0.00     0.116 C 
ENDROOT
BRANCH   1   2
ATOM      2  N   UNL A   1      35.493  29.965  29.160  1.00  0.00    -0.352 N 
ATOM      3  O   UNL A   1      36.200  29.617  31.272  1.00  0.00    -0.269 OA
ATOM      4  C   UNL A   1      36.488  29.745  30.085  1.00  0.00     0.251 C 
ATOM      5  H   UNL A   1      34.592  30.096  29.535  1.00  0.00     0.163 HD
BRANCH   4   6
ATOM      6  C   UNL A   1      37.893  29.620  29.642  1.00  0.00     0.039 A 
ATOM      7  C   UNL A   1      38.225  29.661  28.286  1.00  0.00     0.014 A 
ATOM      8  C   UNL A   1      38.893  29.432  30.601  1.00  0.00     0.014 A 
ATOM      9  C   UNL A   1      39.516  29.338  27.882  1.00  0.00     0.010 A 
ATOM     10  C   UNL A   1      40.210  29.196  30.196  1.00  0.00     0.010 A 
ATOM     11  C   UNL A   1      40.523  29.096  28.831  1.00  0.00    -0.014 A 
BRANCH  11  12
ATOM     12  C   UNL A   1      41.896  28.761  28.369  1.00  0.00     0.031 A 
ATOM     13  C   UNL A   1      42.990  29.796  28.365  1.00  0.00     0.074 A 
ATOM     14  C   UNL A   1      42.165  27.496  27.991  1.00  0.00     0.049 A 
ATOM     15  N   UNL A   1      44.252  29.656  28.045  1.00  0.00    -0.248 NA
ATOM     16  C   UNL A   1      42.622  31.164  28.762  1.00  0.00     0.031 C 
ATOM     17  C   UNL A   1      41.192  26.403  27.951  1.00  0.00     0.029 A 
ATOM     18  N   UNL A   1      43.341  26.909  27.599  1.00  0.00    -0.354 N 
ATOM     19  C   UNL A   1      44.822  30.918  28.172  1.00  0.00     0.074 A 
ATOM     20  C   UNL A   1      43.763  31.815  28.582  1.00  0.00     0.031 C 
ATOM     21  C   UNL A   1      41.821  25.267  27.618  1.00  0.00     0.029 A 
ATOM     22  C   UNL A   1      43.228  25.560  27.363  1.00  0.00     0.049 A 
ATOM     23  H   UNL A   1      44.185  27.406  27.496  1.00  0.00     0.167 HD
ATOM     24  C   UNL A   1      46.108  31.295  27.969  1.00  0.00     0.031 A 
ATOM     25  C   UNL A   1      44.148  24.655  26.984  1.00  0.00     0.031 A 
ATOM     26  C   UNL A   1      47.163  30.400  27.571  1.00  0.00     0.049 A 
ATOM     27  C   UNL A   1      45.564  25.097  26.760  1.00  0.00     0.074 A 
ATOM     28  C   UNL A   1      48.505  30.683  27.374  1.00  0.00     0.029 A 
ATOM     29  N   UNL A   1      46.999  29.049  27.308  1.00  0.00    -0.354 N 
ATOM     30  N   UNL A   1      46.085  26.292  26.911  1.00  0.00    -0.248 NA
ATOM     31  C   UNL A   1      46.515  24.069  26.319  1.00  0.00     0.031 C 
ATOM     32  C   UNL A   1      49.142  29.511  26.951  1.00  0.00     0.029 A 
ATOM     33  C   UNL A   1      48.207  28.487  26.931  1.00  0.00     0.049 A 
ATOM     34  H   UNL A   1      46.146  28.561  27.378  1.00  0.00     0.167 HD
ATOM     35  C   UNL A   1      47.432  26.155  26.600  1.00  0.00     0.074 A 
ATOM     36  C   UNL A   1      47.646  24.761  26.266  1.00  0.00     0.031 C 
ATOM     37  C   UNL A   1      48.404  27.101  26.594  1.00  0.00     0.031 A 
BRANCH  24  38
ATOM     38  C   UNL A   1      46.436  32.757  28.139  1.00  0.00    -0.014 A 
ATOM     39  C   UNL A   1      46.844  33.277  29.380  1.00  0.00     0.010 A 
ATOM     40  C   UNL A   1      46.348  33.620  27.032  1.00  0.00     0.010 A 
ATOM     41  C   UNL A   1      47.107  34.642  29.523  1.00  0.00     0.020 A 
ATOM     42  C   UNL A   1      46.632  34.983  27.165  1.00  0.00     0.020 A 
ATOM     43  C   UNL A   1      46.987  35.489  28.416  1.00  0.00     0.054 A 
BRANCH  43  44
ATOM     44  S   UNL A   1      47.321  37.260  28.628  1.00  0.00     0.124 S 
ATOM     45  O   UNL A   1      47.868  37.619  27.322  1.00  0.00    -0.237 OA
ATOM     46  O   UNL A   1      45.999  37.806  28.925  1.00  0.00    -0.237 OA
ATOM     47  O   UNL A   1      48.272  37.304  29.736  1.00  0.00    -0.744 OA
ENDBRANCH  43  44
ENDBRANCH  24  38
BRANCH  25  48
ATOM     48  C   UNL A   1      43.746  23.234  26.811  1.00  0.00    -0.014 A 
ATOM     49  C   UNL A   1      43.183  22.521  27.883  1.00  0.00     0.010 A 
ATOM     50  C   UNL A   1      43.873  22.606  25.558  1.00  0.00     0.010 A 
ATOM     51  C   UNL A   1      42.751  21.204  27.706  1.00  0.00     0.020 A 
ATOM     52  C   UNL A   1      43.419  21.298  25.371  1.00  0.00     0.020 A 
ATOM     53  C   UNL A   1      42.866  20.604  26.449  1.00  0.00     0.054 A 
BRANCH  53  54
ATOM     54  S   UNL A   1      42.221  18.923  26.216  1.00  0.00     0.124 S 
ATOM     55  O   UNL A   1      43.126  18.389  25.204  1.00  0.00    -0.237 OA
ATOM     56  O   UNL A   1      42.351  18.346  27.552  1.00  0.00    -0.237 OA
ATOM     57  O   UNL A   1      40.845  19.146  25.776  1.00  0.00    -0.744 OA
ENDBRANCH  53  54
ENDBRANCH  25  48
BRANCH  37  58
ATOM     58  C   UNL A   1      49.795  26.649  26.243  1.00  0.00    -0.014 A 
ATOM     59  C   UNL A   1      50.288  26.764  24.932  1.00  0.00     0.010 A 
ATOM     60  C   UNL A   1      50.629  26.129  27.249  1.00  0.00     0.010 A 
ATOM     61  C   UNL A   1      51.581  26.332  24.625  1.00  0.00     0.020 A 
ATOM     62  C   UNL A   1      51.930  25.719  26.951  1.00  0.00     0.020 A 
ATOM     63  C   UNL A   1      52.392  25.808  25.636  1.00  0.00     0.054 A 
BRANCH  63  64
ATOM     64  S   UNL A   1      54.078  25.280  25.224  1.00  0.00     0.124 S 
ATOM     65  O   UNL A   1      54.790  25.536  26.473  1.00  0.00    -0.237 OA
ATOM     66  O   UNL A   1      53.902  23.871  24.878  1.00  0.00    -0.237 OA
ATOM     67  O   UNL A   1      54.447  26.146  24.105  1.00  0.00    -0.744 OA
ENDBRANCH  63  64
ENDBRANCH  37  58
ENDBRANCH  11  12
ENDBRANCH   4   6
ENDBRANCH   1   2
BRANCH   1  68
ATOM     68  C   UNL A   1      34.779  28.942  27.004  1.00  0.00     0.023 C 
BRANCH  68  69
ATOM     69  C   UNL A   1      33.268  29.148  26.964  1.00  0.00     0.023 C 
BRANCH  69  70
ATOM     70  C   UNL A   1      32.748  29.981  25.799  1.00  0.00     0.116 C 
BRANCH  70  71
ATOM     71  N   UNL A   1      33.290  29.582  24.509  1.00  0.00    -0.356 N 
ATOM     72  C   UNL A   1      32.656  28.981  23.457  1.00  0.00     0.223 C 
ATOM     73  H   UNL A   1      34.247  29.771  24.375  1.00  0.00     0.163 HD
ATOM     74  O   UNL A   1      33.275  28.807  22.409  1.00  0.00    -0.275 OA
BRANCH  72  75
ATOM     75  C   UNL A   1      31.215  28.550  23.635  1.00  0.00     0.083 C 
ATOM     76  C   UNL A   1      31.015  27.025  23.416  1.00  0.00     0.020 C 
ATOM     77  C   UNL A   1      30.286  29.331  22.672  1.00  0.00     0.052 C 
ATOM     78  C   UNL A   1      29.580  26.574  23.780  1.00  0.00     0.057 C 
ATOM     79  C   UNL A   1      28.894  28.883  22.912  1.00  0.00    -0.006 A 
ATOM     80  C   UNL A   1      28.602  27.629  23.398  1.00  0.00     0.038 A 
ATOM     81  C   UNL A   1      27.651  29.525  22.809  1.00  0.00     0.138 A 
ATOM     82  N   UNL A   1      27.251  27.584  23.556  1.00  0.00    -0.282 N 
ATOM     83  N   UNL A   1      26.645  28.733  23.199  1.00  0.00    -0.184 NA
ATOM     84  H   UNL A   1      26.768  26.796  23.895  1.00  0.00     0.190 HD
ENDBRANCH  72  75
ENDBRANCH  70  71
ENDBRANCH  69  70
ENDBRANCH  68  69
ENDBRANCH   1  68
TORSDOF 14
ENDMDL
