MODEL 1
REMARK VINA RESULT:      -9.8      0.000      0.000
REMARK SMILES O=C(NCCCCNC(=O)[C@@H]1C=C[C@@H](NS(=O)(=O)c2ccc(F)c(F)c2F)C1)c1ccc(-c2c3nc(c(-c4ccc(S(=O)(=O)[O-])cc4)c4ccc([nH]4)c(-c4ccc(S(=O)(=O)[O-])cc4)c4nc(c(-c5ccc(S(=O)(=O)[O-])cc5)c5ccc2[nH]5)C=C4)C=C3)cc1
REMARK SMILES IDX 5 1 4 2 3 3 1 4 2 5 29 7 30 8 88 9 31 10 87 11 32 12 33 13
REMARK SMILES IDX 34 14 81 15 35 16 86 17 80 18 82 19 36 20 85 21 79 22 78 23
REMARK SMILES IDX 37 25 67 26 48 27 66 28 49 29 52 30 65 31 83 32 50 33 51 34
REMARK SMILES IDX 64 36 84 37 53 38 38 39 39 40 47 41 40 42 46 43 41 44 42 45
REMARK SMILES IDX 43 46 44 47 45 48 68 49 69 50 77 51 70 52 76 53 71 54 72 55
REMARK SMILES IDX 73 56 74 57 75 58 54 59 55 60 63 61 56 62 62 63 57 64 58 65
REMARK SMILES IDX 59 66 60 67 61 68 6 69 7 70 8 71 9 72 10 74 11 75 12 76
REMARK SMILES IDX 28 77 13 78 14 79 15 80 16 82 17 83 18 84 19 85 20 86 26 87
REMARK SMILES IDX 21 88 24 89 27 90 22 91 25 92 23 93
REMARK H PARENT 3 6 82 24 52 35 8 73 15 81
REMARK Flexibility Score: inf
ROOT
ATOM      1  C   UNL A   1      33.593  33.725  28.146  1.00  0.00     0.023 C 
ENDROOT
BRANCH   1   2
ATOM      2  C   UNL A   1      34.504  32.509  28.235  1.00  0.00     0.116 C 
BRANCH   2   3
ATOM      3  N   UNL A   1      33.836  31.254  27.918  1.00  0.00    -0.352 N 
ATOM      4  O   UNL A   1      33.703  29.042  27.475  1.00  0.00    -0.269 OA
ATOM      5  C   UNL A   1      34.377  29.988  27.867  1.00  0.00     0.251 C 
ATOM      6  H   UNL A   1      32.875  31.320  27.714  1.00  0.00     0.163 HD
BRANCH   5   7
ATOM      7  C   UNL A   1      35.790  29.798  28.259  1.00  0.00     0.039 A 
ATOM      8  C   UNL A   1      36.803  29.983  27.319  1.00  0.00     0.014 A 
ATOM      9  C   UNL A   1      36.101  29.375  29.555  1.00  0.00     0.014 A 
ATOM     10  C   UNL A   1      38.096  29.578  27.618  1.00  0.00     0.010 A 
ATOM     11  C   UNL A   1      37.426  29.071  29.887  1.00  0.00     0.010 A 
ATOM     12  C   UNL A   1      38.430  29.135  28.909  1.00  0.00    -0.014 A 
BRANCH  12  13
ATOM     13  C   UNL A   1      39.855  28.826  29.201  1.00  0.00     0.031 A 
ATOM     14  C   UNL A   1      40.483  27.518  28.802  1.00  0.00     0.074 A 
ATOM     15  C   UNL A   1      40.606  29.792  29.769  1.00  0.00     0.049 A 
ATOM     16  N   UNL A   1      41.735  27.147  28.905  1.00  0.00    -0.248 NA
ATOM     17  C   UNL A   1      39.603  26.491  28.222  1.00  0.00     0.031 C 
ATOM     18  C   UNL A   1      40.100  31.095  30.216  1.00  0.00     0.029 A 
ATOM     19  N   UNL A   1      41.950  29.854  30.026  1.00  0.00    -0.354 N 
ATOM     20  C   UNL A   1      41.795  25.849  28.413  1.00  0.00     0.074 A 
ATOM     21  C   UNL A   1      40.445  25.481  28.041  1.00  0.00     0.031 C 
ATOM     22  C   UNL A   1      41.128  31.851  30.623  1.00  0.00     0.029 A 
ATOM     23  C   UNL A   1      42.353  31.065  30.538  1.00  0.00     0.049 A 
ATOM     24  H   UNL A   1      42.567  29.105  29.863  1.00  0.00     0.167 HD
ATOM     25  C   UNL A   1      42.875  25.042  28.278  1.00  0.00     0.031 A 
ATOM     26  C   UNL A   1      43.569  31.500  30.915  1.00  0.00     0.031 A 
ATOM     27  C   UNL A   1      44.216  25.412  28.660  1.00  0.00     0.049 A 
ATOM     28  C   UNL A   1      44.743  30.580  30.764  1.00  0.00     0.074 A 
ATOM     29  C   UNL A   1      45.378  24.664  28.560  1.00  0.00     0.029 A 
ATOM     30  N   UNL A   1      44.577  26.633  29.212  1.00  0.00    -0.354 N 
ATOM     31  N   UNL A   1      44.777  29.362  30.280  1.00  0.00    -0.248 NA
ATOM     32  C   UNL A   1      46.045  31.094  31.209  1.00  0.00     0.031 C 
ATOM     33  C   UNL A   1      46.432  25.415  29.093  1.00  0.00     0.029 A 
ATOM     34  C   UNL A   1      45.939  26.653  29.471  1.00  0.00     0.049 A 
ATOM     35  H   UNL A   1      43.957  27.376  29.393  1.00  0.00     0.167 HD
ATOM     36  C   UNL A   1      46.104  28.962  30.360  1.00  0.00     0.074 A 
ATOM     37  C   UNL A   1      46.846  30.084  30.899  1.00  0.00     0.031 C 
ATOM     38  C   UNL A   1      46.658  27.770  30.028  1.00  0.00     0.031 A 
BRANCH  25  39
ATOM     39  C   UNL A   1      42.659  23.665  27.702  1.00  0.00    -0.014 A 
ATOM     40  C   UNL A   1      43.070  23.354  26.393  1.00  0.00     0.010 A 
ATOM     41  C   UNL A   1      42.108  22.647  28.503  1.00  0.00     0.010 A 
ATOM     42  C   UNL A   1      42.909  22.061  25.887  1.00  0.00     0.020 A 
ATOM     43  C   UNL A   1      41.968  21.345  28.008  1.00  0.00     0.020 A 
ATOM     44  C   UNL A   1      42.359  21.064  26.698  1.00  0.00     0.054 A 
BRANCH  44  45
ATOM     45  S   UNL A   1      42.198  19.386  26.026  1.00  0.00     0.124 S 
ATOM     46  O   UNL A   1      40.757  19.282  25.817  1.00  0.00    -0.237 OA
ATOM     47  O   UNL A   1      43.006  19.449  24.811  1.00  0.00    -0.237 OA
ATOM     48  O   UNL A   1      42.737  18.534  27.085  1.00  0.00    -0.744 OA
ENDBRANCH  44  45
ENDBRANCH  25  39
BRANCH  26  49
ATOM     49  C   UNL A   1      43.717  32.858  31.503  1.00  0.00    -0.014 A 
ATOM     50  C   UNL A   1      43.632  33.063  32.890  1.00  0.00     0.010 A 
ATOM     51  C   UNL A   1      43.964  33.959  30.662  1.00  0.00     0.010 A 
ATOM     52  C   UNL A   1      43.768  34.349  33.422  1.00  0.00     0.020 A 
ATOM     53  C   UNL A   1      44.136  35.238  31.192  1.00  0.00     0.020 A 
ATOM     54  C   UNL A   1      44.019  35.428  32.570  1.00  0.00     0.054 A 
BRANCH  54  55
ATOM     55  S   UNL A   1      44.233  37.082  33.280  1.00  0.00     0.124 S 
ATOM     56  O   UNL A   1      44.660  37.856  32.119  1.00  0.00    -0.237 OA
ATOM     57  O   UNL A   1      42.896  37.385  33.786  1.00  0.00    -0.237 OA
ATOM     58  O   UNL A   1      45.249  36.882  34.311  1.00  0.00    -0.744 OA
ENDBRANCH  54  55
ENDBRANCH  26  49
BRANCH  38  59
ATOM     59  C   UNL A   1      48.143  27.635  30.231  1.00  0.00    -0.014 A 
ATOM     60  C   UNL A   1      49.042  27.828  29.164  1.00  0.00     0.010 A 
ATOM     61  C   UNL A   1      48.647  27.312  31.503  1.00  0.00     0.010 A 
ATOM     62  C   UNL A   1      50.413  27.647  29.355  1.00  0.00     0.020 A 
ATOM     63  C   UNL A   1      50.020  27.160  31.705  1.00  0.00     0.020 A 
ATOM     64  C   UNL A   1      50.893  27.307  30.624  1.00  0.00     0.054 A 
BRANCH  64  65
ATOM     65  S   UNL A   1      52.678  27.080  30.850  1.00  0.00     0.124 S 
ATOM     66  O   UNL A   1      52.778  25.635  31.035  1.00  0.00    -0.237 OA
ATOM     67  O   UNL A   1      53.228  27.593  29.598  1.00  0.00    -0.237 OA
ATOM     68  O   UNL A   1      52.981  27.882  32.032  1.00  0.00    -0.744 OA
ENDBRANCH  64  65
ENDBRANCH  38  59
ENDBRANCH  12  13
ENDBRANCH   5   7
ENDBRANCH   2   3
ENDBRANCH   1   2
BRANCH   1  69
ATOM     69  C   UNL A   1      34.233  35.049  28.567  1.00  0.00     0.023 C 
BRANCH  69  70
ATOM     70  C   UNL A   1      33.613  35.677  29.813  1.00  0.00     0.116 C 
BRANCH  70  71
ATOM     71  N   UNL A   1      33.348  34.688  30.841  1.00  0.00    -0.356 N 
ATOM     72  C   UNL A   1      34.211  34.066  31.695  1.00  0.00     0.226 C 
ATOM     73  H   UNL A   1      32.403  34.426  30.936  1.00  0.00     0.163 HD
ATOM     74  O   UNL A   1      33.755  33.260  32.508  1.00  0.00    -0.274 OA
BRANCH  72  75
ATOM     75  C   UNL A   1      35.694  34.429  31.660  1.00  0.00     0.103 C 
ATOM     76  C   UNL A   1      36.494  33.434  30.880  1.00  0.00    -0.016 C 
ATOM     77  C   UNL A   1      36.288  34.323  33.072  1.00  0.00     0.042 C 
ATOM     78  C   UNL A   1      37.255  32.677  31.674  1.00  0.00    -0.011 C 
ATOM     79  C   UNL A   1      37.053  32.989  33.116  1.00  0.00     0.093 C 
BRANCH  79  80
ATOM     80  N   UNL A   1      38.312  33.162  33.818  1.00  0.00    -0.204 NA
ATOM     81  H   UNL A   1      38.302  34.118  34.172  1.00  0.00     0.142 HD
BRANCH  80  82
ATOM     82  S   UNL A   1      38.808  32.214  35.095  1.00  0.00     0.244 S 
ATOM     83  O   UNL A   1      39.737  32.964  35.910  1.00  0.00    -0.207 OA
ATOM     84  O   UNL A   1      37.598  31.679  35.680  1.00  0.00    -0.207 OA
BRANCH  82  85
ATOM     85  C   UNL A   1      39.716  30.913  34.330  1.00  0.00     0.121 A 
ATOM     86  C   UNL A   1      41.111  30.878  34.502  1.00  0.00     0.028 A 
ATOM     87  C   UNL A   1      39.070  29.894  33.640  1.00  0.00     0.181 A 
ATOM     88  C   UNL A   1      41.855  29.835  33.948  1.00  0.00     0.044 A 
ATOM     89  C   UNL A   1      39.816  28.848  33.107  1.00  0.00     0.195 A 
ATOM     90  F   UNL A   1      37.743  29.894  33.462  1.00  0.00    -0.202 F 
ATOM     91  C   UNL A   1      41.199  28.823  33.256  1.00  0.00     0.161 A 
ATOM     92  F   UNL A   1      39.199  27.857  32.447  1.00  0.00    -0.200 F 
ATOM     93  F   UNL A   1      41.914  27.815  32.740  1.00  0.00    -0.204 F 
ENDBRANCH  82  85
ENDBRANCH  80  82
ENDBRANCH  79  80
ENDBRANCH  72  75
ENDBRANCH  70  71
ENDBRANCH  69  70
ENDBRANCH   1  69
TORSDOF 17
ENDMDL
MODEL 2
REMARK VINA RESULT:      -9.5      0.885      8.156
REMARK SMILES O=C(NCCCCNC(=O)[C@@H]1C=C[C@@H](NS(=O)(=O)c2ccc(F)c(F)c2F)C1)c1ccc(-c2c3nc(c(-c4ccc(S(=O)(=O)[O-])cc4)c4ccc([nH]4)c(-c4ccc(S(=O)(=O)[O-])cc4)c4nc(c(-c5ccc(S(=O)(=O)[O-])cc5)c5ccc2[nH]5)C=C4)C=C3)cc1
REMARK SMILES IDX 5 1 4 2 3 3 1 4 2 5 29 7 30 8 88 9 31 10 87 11 32 12 33 13
REMARK SMILES IDX 34 14 81 15 35 16 86 17 80 18 82 19 36 20 85 21 79 22 78 23
REMARK SMILES IDX 37 25 67 26 48 27 66 28 49 29 52 30 65 31 83 32 50 33 51 34
REMARK SMILES IDX 64 36 84 37 53 38 38 39 39 40 47 41 40 42 46 43 41 44 42 45
REMARK SMILES IDX 43 46 44 47 45 48 68 49 69 50 77 51 70 52 76 53 71 54 72 55
REMARK SMILES IDX 73 56 74 57 75 58 54 59 55 60 63 61 56 62 62 63 57 64 58 65
REMARK SMILES IDX 59 66 60 67 61 68 6 69 7 70 8 71 9 72 10 74 11 75 12 76
REMARK SMILES IDX 28 77 13 78 14 79 15 80 16 82 17 83 18 84 19 85 20 86 26 87
REMARK SMILES IDX 21 88 24 89 27 90 22 91 25 92 23 93
REMARK H PARENT 3 6 82 24 52 35 8 73 15 81
REMARK Flexibility Score: inf
ROOT
ATOM      1  C   UNL A   1      33.564  33.803  27.836  1.00  0.00     0.023 C 
ENDROOT
BRANCH   1   2
ATOM      2  C   UNL A   1      34.356  32.592  28.309  1.00  0.00     0.116 C 
BRANCH   2   3
ATOM      3  N   UNL A   1      33.733  31.319  27.971  1.00  0.00    -0.352 N 
ATOM      4  O   UNL A   1      33.681  29.113  27.482  1.00  0.00    -0.269 OA
ATOM      5  C   UNL A   1      34.321  30.076  27.889  1.00  0.00     0.251 C 
ATOM      6  H   UNL A   1      32.769  31.352  27.776  1.00  0.00     0.163 HD
BRANCH   5   7
ATOM      7  C   UNL A   1      35.744  29.932  28.265  1.00  0.00     0.039 A 
ATOM      8  C   UNL A   1      36.738  30.088  27.300  1.00  0.00     0.014 A 
ATOM      9  C   UNL A   1      36.085  29.581  29.575  1.00  0.00     0.014 A 
ATOM     10  C   UNL A   1      38.044  29.722  27.596  1.00  0.00     0.010 A 
ATOM     11  C   UNL A   1      37.420  29.319  29.899  1.00  0.00     0.010 A 
ATOM     12  C   UNL A   1      38.407  29.352  28.902  1.00  0.00    -0.014 A 
BRANCH  12  13
ATOM     13  C   UNL A   1      39.842  29.085  29.184  1.00  0.00     0.031 A 
ATOM     14  C   UNL A   1      40.702  30.068  29.933  1.00  0.00     0.074 A 
ATOM     15  C   UNL A   1      40.344  27.888  28.819  1.00  0.00     0.049 A 
ATOM     16  N   UNL A   1      41.941  29.930  30.334  1.00  0.00    -0.248 NA
ATOM     17  C   UNL A   1      40.108  31.371  30.269  1.00  0.00     0.031 C 
ATOM     18  C   UNL A   1      39.609  26.861  28.071  1.00  0.00     0.029 A 
ATOM     19  N   UNL A   1      41.562  27.309  29.061  1.00  0.00    -0.354 N 
ATOM     20  C   UNL A   1      42.279  31.123  30.961  1.00  0.00     0.074 A 
ATOM     21  C   UNL A   1      41.123  31.990  30.859  1.00  0.00     0.031 C 
ATOM     22  C   UNL A   1      40.362  25.758  27.979  1.00  0.00     0.029 A 
ATOM     23  C   UNL A   1      41.658  26.020  28.593  1.00  0.00     0.049 A 
ATOM     24  H   UNL A   1      42.298  27.772  29.523  1.00  0.00     0.167 HD
ATOM     25  C   UNL A   1      43.440  31.462  31.571  1.00  0.00     0.031 A 
ATOM     26  C   UNL A   1      42.677  25.142  28.635  1.00  0.00     0.031 A 
ATOM     27  C   UNL A   1      44.591  30.596  31.661  1.00  0.00     0.049 A 
ATOM     28  C   UNL A   1      43.954  25.550  29.307  1.00  0.00     0.074 A 
ATOM     29  C   UNL A   1      45.814  30.848  32.261  1.00  0.00     0.029 A 
ATOM     30  N   UNL A   1      44.662  29.313  31.139  1.00  0.00    -0.354 N 
ATOM     31  N   UNL A   1      44.243  26.679  29.908  1.00  0.00    -0.248 NA
ATOM     32  C   UNL A   1      45.043  24.565  29.308  1.00  0.00     0.031 C 
ATOM     33  C   UNL A   1      46.639  29.735  32.063  1.00  0.00     0.029 A 
ATOM     34  C   UNL A   1      45.912  28.767  31.391  1.00  0.00     0.049 A 
ATOM     35  H   UNL A   1      43.933  28.856  30.661  1.00  0.00     0.167 HD
ATOM     36  C   UNL A   1      45.548  26.540  30.361  1.00  0.00     0.074 A 
ATOM     37  C   UNL A   1      45.975  25.203  30.001  1.00  0.00     0.031 C 
ATOM     38  C   UNL A   1      46.327  27.442  31.008  1.00  0.00     0.031 A 
BRANCH  25  39
ATOM     39  C   UNL A   1      43.540  32.836  32.185  1.00  0.00    -0.014 A 
ATOM     40  C   UNL A   1      43.207  33.053  33.534  1.00  0.00     0.010 A 
ATOM     41  C   UNL A   1      44.044  33.909  31.427  1.00  0.00     0.010 A 
ATOM     42  C   UNL A   1      43.350  34.321  34.106  1.00  0.00     0.020 A 
ATOM     43  C   UNL A   1      44.212  35.174  32.002  1.00  0.00     0.020 A 
ATOM     44  C   UNL A   1      43.852  35.374  33.335  1.00  0.00     0.054 A 
BRANCH  44  45
ATOM     45  S   UNL A   1      44.062  36.998  34.116  1.00  0.00     0.124 S 
ATOM     46  O   UNL A   1      42.719  37.561  34.008  1.00  0.00    -0.237 OA
ATOM     47  O   UNL A   1      44.490  36.651  35.469  1.00  0.00    -0.237 OA
ATOM     48  O   UNL A   1      45.079  37.651  33.293  1.00  0.00    -0.744 OA
ENDBRANCH  44  45
ENDBRANCH  25  39
BRANCH  26  49
ATOM     49  C   UNL A   1      42.531  23.811  27.988  1.00  0.00    -0.014 A 
ATOM     50  C   UNL A   1      42.723  23.650  26.605  1.00  0.00     0.010 A 
ATOM     51  C   UNL A   1      42.212  22.686  28.770  1.00  0.00     0.010 A 
ATOM     52  C   UNL A   1      42.575  22.391  26.015  1.00  0.00     0.020 A 
ATOM     53  C   UNL A   1      42.098  21.422  28.191  1.00  0.00     0.020 A 
ATOM     54  C   UNL A   1      42.264  21.286  26.812  1.00  0.00     0.054 A 
BRANCH  54  55
ATOM     55  S   UNL A   1      42.115  19.653  26.036  1.00  0.00     0.124 S 
ATOM     56  O   UNL A   1      43.070  19.754  24.937  1.00  0.00    -0.237 OA
ATOM     57  O   UNL A   1      42.492  18.751  27.122  1.00  0.00    -0.237 OA
ATOM     58  O   UNL A   1      40.710  19.589  25.644  1.00  0.00    -0.744 OA
ENDBRANCH  54  55
ENDBRANCH  26  49
BRANCH  38  59
ATOM     59  C   UNL A   1      47.717  26.995  31.374  1.00  0.00    -0.014 A 
ATOM     60  C   UNL A   1      48.806  27.231  30.512  1.00  0.00     0.010 A 
ATOM     61  C   UNL A   1      47.938  26.331  32.594  1.00  0.00     0.010 A 
ATOM     62  C   UNL A   1      50.079  26.763  30.841  1.00  0.00     0.020 A 
ATOM     63  C   UNL A   1      49.217  25.889  32.939  1.00  0.00     0.020 A 
ATOM     64  C   UNL A   1      50.275  26.089  32.050  1.00  0.00     0.054 A 
BRANCH  64  65
ATOM     65  S   UNL A   1      51.939  25.494  32.458  1.00  0.00     0.124 S 
ATOM     66  O   UNL A   1      51.827  24.065  32.177  1.00  0.00    -0.237 OA
ATOM     67  O   UNL A   1      52.786  26.250  31.539  1.00  0.00    -0.237 OA
ATOM     68  O   UNL A   1      52.094  25.841  33.868  1.00  0.00    -0.744 OA
ENDBRANCH  64  65
ENDBRANCH  38  59
ENDBRANCH  12  13
ENDBRANCH   5   7
ENDBRANCH   2   3
ENDBRANCH   1   2
BRANCH   1  69
ATOM     69  C   UNL A   1      32.905  34.622  28.946  1.00  0.00     0.023 C 
BRANCH  69  70
ATOM     70  C   UNL A   1      33.801  35.704  29.545  1.00  0.00     0.116 C 
BRANCH  70  71
ATOM     71  N   UNL A   1      33.713  35.736  30.994  1.00  0.00    -0.356 N 
ATOM     72  C   UNL A   1      34.408  35.021  31.925  1.00  0.00     0.226 C 
ATOM     73  H   UNL A   1      33.052  36.368  31.359  1.00  0.00     0.163 HD
ATOM     74  O   UNL A   1      34.175  35.227  33.117  1.00  0.00    -0.274 OA
BRANCH  72  75
ATOM     75  C   UNL A   1      35.486  34.040  31.467  1.00  0.00     0.103 C 
ATOM     76  C   UNL A   1      35.136  32.627  31.810  1.00  0.00    -0.016 C 
ATOM     77  C   UNL A   1      36.777  34.282  32.262  1.00  0.00     0.042 C 
ATOM     78  C   UNL A   1      35.894  32.154  32.803  1.00  0.00    -0.011 C 
ATOM     79  C   UNL A   1      36.833  33.180  33.335  1.00  0.00     0.093 C 
BRANCH  79  80
ATOM     80  N   UNL A   1      38.188  32.670  33.453  1.00  0.00    -0.204 NA
ATOM     81  H   UNL A   1      38.798  33.452  33.215  1.00  0.00     0.142 HD
BRANCH  80  82
ATOM     82  S   UNL A   1      38.820  32.014  34.847  1.00  0.00     0.244 S 
ATOM     83  O   UNL A   1      39.713  32.971  35.460  1.00  0.00    -0.207 OA
ATOM     84  O   UNL A   1      37.689  31.498  35.587  1.00  0.00    -0.207 OA
BRANCH  82  85
ATOM     85  C   UNL A   1      39.806  30.671  34.273  1.00  0.00     0.121 A 
ATOM     86  C   UNL A   1      41.128  30.563  34.739  1.00  0.00     0.028 A 
ATOM     87  C   UNL A   1      39.274  29.691  33.445  1.00  0.00     0.181 A 
ATOM     88  C   UNL A   1      41.922  29.487  34.340  1.00  0.00     0.044 A 
ATOM     89  C   UNL A   1      40.065  28.611  33.067  1.00  0.00     0.195 A 
ATOM     90  F   UNL A   1      38.018  29.759  32.986  1.00  0.00    -0.202 F 
ATOM     91  C   UNL A   1      41.381  28.514  33.508  1.00  0.00     0.161 A 
ATOM     92  F   UNL A   1      39.556  27.656  32.275  1.00  0.00    -0.200 F 
ATOM     93  F   UNL A   1      42.140  27.472  33.141  1.00  0.00    -0.204 F 
ENDBRANCH  82  85
ENDBRANCH  80  82
ENDBRANCH  79  80
ENDBRANCH  72  75
ENDBRANCH  70  71
ENDBRANCH  69  70
ENDBRANCH   1  69
TORSDOF 17
ENDMDL
MODEL 3
REMARK VINA RESULT:      -9.3      4.350     10.345
REMARK SMILES O=C(NCCCCNC(=O)[C@@H]1C=C[C@@H](NS(=O)(=O)c2ccc(F)c(F)c2F)C1)c1ccc(-c2c3nc(c(-c4ccc(S(=O)(=O)[O-])cc4)c4ccc([nH]4)c(-c4ccc(S(=O)(=O)[O-])cc4)c4nc(c(-c5ccc(S(=O)(=O)[O-])cc5)c5ccc2[nH]5)C=C4)C=C3)cc1
REMARK SMILES IDX 5 1 4 2 3 3 1 4 2 5 29 7 30 8 88 9 31 10 87 11 32 12 33 13
REMARK SMILES IDX 34 14 81 15 35 16 86 17 80 18 82 19 36 20 85 21 79 22 78 23
REMARK SMILES IDX 37 25 67 26 48 27 66 28 49 29 52 30 65 31 83 32 50 33 51 34
REMARK SMILES IDX 64 36 84 37 53 38 38 39 39 40 47 41 40 42 46 43 41 44 42 45
REMARK SMILES IDX 43 46 44 47 45 48 68 49 69 50 77 51 70 52 76 53 71 54 72 55
REMARK SMILES IDX 73 56 74 57 75 58 54 59 55 60 63 61 56 62 62 63 57 64 58 65
REMARK SMILES IDX 59 66 60 67 61 68 6 69 7 70 8 71 9 72 10 74 11 75 12 76
REMARK SMILES IDX 28 77 13 78 14 79 15 80 16 82 17 83 18 84 19 85 20 86 26 87
REMARK SMILES IDX 21 88 24 89 27 90 22 91 25 92 23 93
REMARK H PARENT 3 6 82 24 52 35 8 73 15 81
REMARK Flexibility Score: inf
ROOT
ATOM      1  C   UNL A   1      35.897  32.848  28.078  1.00  0.00     0.023 C 
ENDROOT
BRANCH   1   2
ATOM      2  C   UNL A   1      36.753  32.808  29.336  1.00  0.00     0.116 C 
BRANCH   2   3
ATOM      3  N   UNL A   1      36.225  31.934  30.374  1.00  0.00    -0.352 N 
ATOM      4  O   UNL A   1      36.100  30.053  31.620  1.00  0.00    -0.269 OA
ATOM      5  C   UNL A   1      36.724  30.726  30.807  1.00  0.00     0.251 C 
ATOM      6  H   UNL A   1      35.407  32.248  30.823  1.00  0.00     0.163 HD
BRANCH   5   7
ATOM      7  C   UNL A   1      38.004  30.239  30.250  1.00  0.00     0.039 A 
ATOM      8  C   UNL A   1      39.098  30.037  31.092  1.00  0.00     0.014 A 
ATOM      9  C   UNL A   1      38.131  30.039  28.872  1.00  0.00     0.014 A 
ATOM     10  C   UNL A   1      40.352  29.813  30.542  1.00  0.00     0.010 A 
ATOM     11  C   UNL A   1      39.377  29.703  28.331  1.00  0.00     0.010 A 
ATOM     12  C   UNL A   1      40.507  29.623  29.158  1.00  0.00    -0.014 A 
BRANCH  12  13
ATOM     13  C   UNL A   1      41.855  29.269  28.643  1.00  0.00     0.031 A 
ATOM     14  C   UNL A   1      42.985  30.264  28.622  1.00  0.00     0.074 A 
ATOM     15  C   UNL A   1      42.070  27.993  28.263  1.00  0.00     0.049 A 
ATOM     16  N   UNL A   1      44.238  30.071  28.291  1.00  0.00    -0.248 NA
ATOM     17  C   UNL A   1      42.678  31.649  29.012  1.00  0.00     0.031 C 
ATOM     18  C   UNL A   1      41.044  26.945  28.223  1.00  0.00     0.029 A 
ATOM     19  N   UNL A   1      43.217  27.346  27.884  1.00  0.00    -0.354 N 
ATOM     20  C   UNL A   1      44.866  31.303  28.424  1.00  0.00     0.074 A 
ATOM     21  C   UNL A   1      43.849  32.248  28.835  1.00  0.00     0.031 C 
ATOM     22  C   UNL A   1      41.619  25.776  27.913  1.00  0.00     0.029 A 
ATOM     23  C   UNL A   1      43.037  26.002  27.659  1.00  0.00     0.049 A 
ATOM     24  H   UNL A   1      44.084  27.800  27.782  1.00  0.00     0.167 HD
ATOM     25  C   UNL A   1      46.170  31.616  28.228  1.00  0.00     0.031 A 
ATOM     26  C   UNL A   1      43.907  25.050  27.275  1.00  0.00     0.031 A 
ATOM     27  C   UNL A   1      47.176  30.671  27.809  1.00  0.00     0.049 A 
ATOM     28  C   UNL A   1      45.341  25.429  27.056  1.00  0.00     0.074 A 
ATOM     29  C   UNL A   1      48.526  30.891  27.587  1.00  0.00     0.029 A 
ATOM     30  N   UNL A   1      46.946  29.327  27.552  1.00  0.00    -0.354 N 
ATOM     31  N   UNL A   1      45.915  26.599  27.205  1.00  0.00    -0.248 NA
ATOM     32  C   UNL A   1      46.246  24.359  26.618  1.00  0.00     0.031 C 
ATOM     33  C   UNL A   1      49.102  29.692  27.151  1.00  0.00     0.029 A 
ATOM     34  C   UNL A   1      48.124  28.710  27.159  1.00  0.00     0.049 A 
ATOM     35  H   UNL A   1      46.075  28.877  27.637  1.00  0.00     0.167 HD
ATOM     36  C   UNL A   1      47.251  26.406  26.880  1.00  0.00     0.074 A 
ATOM     37  C   UNL A   1      47.406  25.000  26.568  1.00  0.00     0.031 C 
ATOM     38  C   UNL A   1      48.257  27.313  26.833  1.00  0.00     0.031 A 
BRANCH  25  39
ATOM     39  C   UNL A   1      46.593  33.046  28.452  1.00  0.00    -0.014 A 
ATOM     40  C   UNL A   1      46.393  34.025  27.462  1.00  0.00     0.010 A 
ATOM     41  C   UNL A   1      47.129  33.434  29.694  1.00  0.00     0.010 A 
ATOM     42  C   UNL A   1      46.744  35.357  27.699  1.00  0.00     0.020 A 
ATOM     43  C   UNL A   1      47.459  34.771  29.944  1.00  0.00     0.020 A 
ATOM     44  C   UNL A   1      47.275  35.722  28.939  1.00  0.00     0.054 A 
BRANCH  44  45
ATOM     45  S   UNL A   1      47.685  37.465  29.231  1.00  0.00     0.124 S 
ATOM     46  O   UNL A   1      47.379  37.613  30.651  1.00  0.00    -0.237 OA
ATOM     47  O   UNL A   1      49.104  37.522  28.886  1.00  0.00    -0.237 OA
ATOM     48  O   UNL A   1      46.797  38.188  28.323  1.00  0.00    -0.744 OA
ENDBRANCH  44  45
ENDBRANCH  25  39
BRANCH  26  49
ATOM     49  C   UNL A   1      43.427  23.662  27.043  1.00  0.00    -0.014 A 
ATOM     50  C   UNL A   1      43.181  22.788  28.115  1.00  0.00     0.010 A 
ATOM     51  C   UNL A   1      43.197  23.214  25.728  1.00  0.00     0.010 A 
ATOM     52  C   UNL A   1      42.736  21.484  27.875  1.00  0.00     0.020 A 
ATOM     53  C   UNL A   1      42.719  21.926  25.486  1.00  0.00     0.020 A 
ATOM     54  C   UNL A   1      42.507  21.062  26.562  1.00  0.00     0.054 A 
BRANCH  54  55
ATOM     55  S   UNL A   1      41.892  19.382  26.271  1.00  0.00     0.124 S 
ATOM     56  O   UNL A   1      42.614  19.002  25.061  1.00  0.00    -0.237 OA
ATOM     57  O   UNL A   1      42.288  18.683  27.491  1.00  0.00    -0.237 OA
ATOM     58  O   UNL A   1      40.452  19.569  26.110  1.00  0.00    -0.744 OA
ENDBRANCH  54  55
ENDBRANCH  26  49
BRANCH  38  59
ATOM     59  C   UNL A   1      49.615  26.797  26.441  1.00  0.00    -0.014 A 
ATOM     60  C   UNL A   1      50.101  26.958  25.129  1.00  0.00     0.010 A 
ATOM     61  C   UNL A   1      50.416  26.145  27.394  1.00  0.00     0.010 A 
ATOM     62  C   UNL A   1      51.340  26.427  24.766  1.00  0.00     0.020 A 
ATOM     63  C   UNL A   1      51.669  25.639  27.042  1.00  0.00     0.020 A 
ATOM     64  C   UNL A   1      52.114  25.764  25.724  1.00  0.00     0.054 A 
BRANCH  64  65
ATOM     65  S   UNL A   1      53.722  25.086  25.231  1.00  0.00     0.124 S 
ATOM     66  O   UNL A   1      53.861  25.598  23.870  1.00  0.00    -0.237 OA
ATOM     67  O   UNL A   1      54.631  25.665  26.216  1.00  0.00    -0.237 OA
ATOM     68  O   UNL A   1      53.535  23.642  25.336  1.00  0.00    -0.744 OA
ENDBRANCH  64  65
ENDBRANCH  38  59
ENDBRANCH  12  13
ENDBRANCH   5   7
ENDBRANCH   2   3
ENDBRANCH   1   2
BRANCH   1  69
ATOM     69  C   UNL A   1      34.509  32.222  28.216  1.00  0.00     0.023 C 
BRANCH  69  70
ATOM     70  C   UNL A   1      34.369  30.852  27.555  1.00  0.00     0.116 C 
BRANCH  70  71
ATOM     71  N   UNL A   1      33.126  30.735  26.815  1.00  0.00    -0.356 N 
ATOM     72  C   UNL A   1      32.747  29.806  25.890  1.00  0.00     0.226 C 
ATOM     73  H   UNL A   1      32.457  31.431  27.009  1.00  0.00     0.163 HD
ATOM     74  O   UNL A   1      31.622  29.896  25.395  1.00  0.00    -0.274 OA
BRANCH  72  75
ATOM     75  C   UNL A   1      33.696  28.661  25.544  1.00  0.00     0.103 C 
ATOM     76  C   UNL A   1      33.586  28.260  24.107  1.00  0.00    -0.016 C 
ATOM     77  C   UNL A   1      33.269  27.390  26.293  1.00  0.00     0.042 C 
ATOM     78  C   UNL A   1      32.979  27.079  23.965  1.00  0.00    -0.011 C 
ATOM     79  C   UNL A   1      32.525  26.517  25.268  1.00  0.00     0.093 C 
BRANCH  79  80
ATOM     80  N   UNL A   1      32.912  25.126  25.426  1.00  0.00    -0.204 NA
ATOM     81  H   UNL A   1      33.651  25.124  26.128  1.00  0.00     0.142 HD
BRANCH  80  82
ATOM     82  S   UNL A   1      31.864  23.910  25.871  1.00  0.00     0.244 S 
ATOM     83  O   UNL A   1      31.637  23.978  27.296  1.00  0.00    -0.207 OA
ATOM     84  O   UNL A   1      30.749  23.996  24.953  1.00  0.00    -0.207 OA
BRANCH  82  85
ATOM     85  C   UNL A   1      32.772  22.433  25.555  1.00  0.00     0.121 A 
ATOM     86  C   UNL A   1      32.163  21.422  24.790  1.00  0.00     0.028 A 
ATOM     87  C   UNL A   1      34.088  22.294  25.975  1.00  0.00     0.181 A 
ATOM     88  C   UNL A   1      32.870  20.260  24.483  1.00  0.00     0.044 A 
ATOM     89  C   UNL A   1      34.794  21.141  25.649  1.00  0.00     0.195 A 
ATOM     90  F   UNL A   1      34.701  23.239  26.701  1.00  0.00    -0.202 F 
ATOM     91  C   UNL A   1      34.186  20.130  24.912  1.00  0.00     0.161 A 
ATOM     92  F   UNL A   1      36.068  21.003  26.044  1.00  0.00    -0.200 F 
ATOM     93  F   UNL A   1      34.868  19.020  24.600  1.00  0.00    -0.204 F 
ENDBRANCH  82  85
ENDBRANCH  80  82
ENDBRANCH  79  80
ENDBRANCH  72  75
ENDBRANCH  70  71
ENDBRANCH  69  70
ENDBRANCH   1  69
TORSDOF 17
ENDMDL
