MODEL 1
REMARK VINA RESULT:     -12.1      0.000      0.000
REMARK SMILES O=C(NCCCCNC(=O)c1ccc2nc(-c3c[nH]nc3-c3ccc(F)cc3F)[nH]c2c1)c1ccc(-c2c3nc(c(-c4ccc(S(=O)(=O)[O-])cc4)c4ccc([nH]4)c(-c4ccc(S(=O)(=O)[O-])cc4)c4nc(c(-c5ccc(S(=O)(=O)[O-])cc5)c5ccc2[nH]5)C=C4)C=C3)cc1
REMARK SMILES IDX 5 1 4 2 3 3 1 4 2 5 33 7 34 8 92 9 35 10 91 11 36 12 37 13
REMARK SMILES IDX 38 14 85 15 39 16 90 17 84 18 86 19 40 20 89 21 83 22 82 23
REMARK SMILES IDX 41 25 71 26 52 27 70 28 53 29 56 30 69 31 87 32 54 33 55 34
REMARK SMILES IDX 68 36 88 37 57 38 42 39 43 40 51 41 44 42 50 43 45 44 46 45
REMARK SMILES IDX 47 46 48 47 49 48 72 49 73 50 81 51 74 52 80 53 75 54 76 55
REMARK SMILES IDX 77 56 78 57 79 58 58 59 59 60 67 61 60 62 66 63 61 64 62 65
REMARK SMILES IDX 63 66 64 67 65 68 6 69 7 70 8 71 9 72 10 74 11 75 12 76
REMARK SMILES IDX 32 77 13 78 31 79 14 80 30 81 15 82 16 83 17 85 18 86 21 87
REMARK SMILES IDX 19 88 20 89 22 91 23 92 28 93 24 94 27 95 29 96 25 97 26 98
REMARK H PARENT 3 6 86 24 56 35 8 73 30 84 19 90
REMARK Flexibility Score: inf
ROOT
ATOM      1  C   UNL A   1      35.648  23.189  25.446  1.00  0.00     0.023 C 
ENDROOT
BRANCH   1   2
ATOM      2  C   UNL A   1      37.030  23.721  25.088  1.00  0.00     0.116 C 
BRANCH   2   3
ATOM      3  N   UNL A   1      38.099  22.777  25.375  1.00  0.00    -0.352 N 
ATOM      4  O   UNL A   1      40.105  22.076  26.132  1.00  0.00    -0.269 OA
ATOM      5  C   UNL A   1      39.255  22.963  26.097  1.00  0.00     0.251 C 
ATOM      6  H   UNL A   1      37.979  21.876  24.997  1.00  0.00     0.163 HD
BRANCH   5   7
ATOM      7  C   UNL A   1      39.489  24.246  26.797  1.00  0.00     0.039 A 
ATOM      8  C   UNL A   1      40.230  25.263  26.192  1.00  0.00     0.014 A 
ATOM      9  C   UNL A   1      38.986  24.420  28.089  1.00  0.00     0.014 A 
ATOM     10  C   UNL A   1      40.615  26.371  26.939  1.00  0.00     0.010 A 
ATOM     11  C   UNL A   1      39.299  25.579  28.808  1.00  0.00     0.010 A 
ATOM     12  C   UNL A   1      40.158  26.543  28.257  1.00  0.00    -0.014 A 
BRANCH  12  13
ATOM     13  C   UNL A   1      40.583  27.746  29.020  1.00  0.00     0.031 A 
ATOM     14  C   UNL A   1      41.982  27.871  29.567  1.00  0.00     0.074 A 
ATOM     15  C   UNL A   1      39.709  28.761  29.172  1.00  0.00     0.049 A 
ATOM     16  N   UNL A   1      42.535  28.886  30.184  1.00  0.00    -0.248 NA
ATOM     17  C   UNL A   1      42.874  26.712  29.407  1.00  0.00     0.031 C 
ATOM     18  C   UNL A   1      38.323  28.758  28.696  1.00  0.00     0.029 A 
ATOM     19  N   UNL A   1      39.864  30.003  29.733  1.00  0.00    -0.354 N 
ATOM     20  C   UNL A   1      43.823  28.480  30.514  1.00  0.00     0.074 A 
ATOM     21  C   UNL A   1      43.966  27.119  30.042  1.00  0.00     0.031 C 
ATOM     22  C   UNL A   1      37.778  29.962  28.922  1.00  0.00     0.029 A 
ATOM     23  C   UNL A   1      38.752  30.801  29.610  1.00  0.00     0.049 A 
ATOM     24  H   UNL A   1      40.691  30.293  30.182  1.00  0.00     0.167 HD
ATOM     25  C   UNL A   1      44.799  29.175  31.147  1.00  0.00     0.031 A 
ATOM     26  C   UNL A   1      38.535  32.071  30.003  1.00  0.00     0.031 A 
ATOM     27  C   UNL A   1      44.661  30.535  31.601  1.00  0.00     0.049 A 
ATOM     28  C   UNL A   1      39.634  32.820  30.698  1.00  0.00     0.074 A 
ATOM     29  C   UNL A   1      45.609  31.337  32.216  1.00  0.00     0.029 A 
ATOM     30  N   UNL A   1      43.508  31.295  31.490  1.00  0.00    -0.354 N 
ATOM     31  N   UNL A   1      40.854  32.426  30.971  1.00  0.00    -0.248 NA
ATOM     32  C   UNL A   1      39.325  34.188  31.136  1.00  0.00     0.031 C 
ATOM     33  C   UNL A   1      45.013  32.568  32.515  1.00  0.00     0.029 A 
ATOM     34  C   UNL A   1      43.711  32.549  32.042  1.00  0.00     0.049 A 
ATOM     35  H   UNL A   1      42.667  30.989  31.079  1.00  0.00     0.167 HD
ATOM     36  C   UNL A   1      41.464  33.502  31.601  1.00  0.00     0.074 A 
ATOM     37  C   UNL A   1      40.486  34.570  31.651  1.00  0.00     0.031 C 
ATOM     38  C   UNL A   1      42.724  33.598  32.093  1.00  0.00     0.031 A 
BRANCH  25  39
ATOM     39  C   UNL A   1      46.099  28.464  31.418  1.00  0.00    -0.014 A 
ATOM     40  C   UNL A   1      46.291  27.713  32.592  1.00  0.00     0.010 A 
ATOM     41  C   UNL A   1      47.130  28.517  30.464  1.00  0.00     0.010 A 
ATOM     42  C   UNL A   1      47.508  27.063  32.824  1.00  0.00     0.020 A 
ATOM     43  C   UNL A   1      48.340  27.849  30.681  1.00  0.00     0.020 A 
ATOM     44  C   UNL A   1      48.528  27.142  31.870  1.00  0.00     0.054 A 
BRANCH  44  45
ATOM     45  S   UNL A   1      50.094  26.285  32.191  1.00  0.00     0.124 S 
ATOM     46  O   UNL A   1      50.949  26.817  31.133  1.00  0.00    -0.237 OA
ATOM     47  O   UNL A   1      50.429  26.719  33.545  1.00  0.00    -0.237 OA
ATOM     48  O   UNL A   1      49.748  24.871  32.062  1.00  0.00    -0.744 OA
ENDBRANCH  44  45
ENDBRANCH  25  39
BRANCH  26  49
ATOM     49  C   UNL A   1      37.220  32.708  29.735  1.00  0.00    -0.014 A 
ATOM     50  C   UNL A   1      36.197  32.665  30.697  1.00  0.00     0.010 A 
ATOM     51  C   UNL A   1      36.997  33.394  28.526  1.00  0.00     0.010 A 
ATOM     52  C   UNL A   1      34.972  33.292  30.455  1.00  0.00     0.020 A 
ATOM     53  C   UNL A   1      35.784  34.043  28.291  1.00  0.00     0.020 A 
ATOM     54  C   UNL A   1      34.774  33.979  29.253  1.00  0.00     0.054 A 
BRANCH  54  55
ATOM     55  S   UNL A   1      33.202  34.844  28.984  1.00  0.00     0.124 S 
ATOM     56  O   UNL A   1      32.613  34.822  30.318  1.00  0.00    -0.237 OA
ATOM     57  O   UNL A   1      33.637  36.153  28.504  1.00  0.00    -0.237 OA
ATOM     58  O   UNL A   1      32.527  34.017  27.985  1.00  0.00    -0.744 OA
ENDBRANCH  54  55
ENDBRANCH  26  49
BRANCH  38  59
ATOM     59  C   UNL A   1      43.118  34.913  32.707  1.00  0.00    -0.014 A 
ATOM     60  C   UNL A   1      42.938  35.155  34.081  1.00  0.00     0.010 A 
ATOM     61  C   UNL A   1      43.697  35.910  31.902  1.00  0.00     0.010 A 
ATOM     62  C   UNL A   1      43.292  36.390  34.631  1.00  0.00     0.020 A 
ATOM     63  C   UNL A   1      44.074  37.137  32.453  1.00  0.00     0.020 A 
ATOM     64  C   UNL A   1      43.852  37.376  33.812  1.00  0.00     0.054 A 
BRANCH  64  65
ATOM     65  S   UNL A   1      44.327  38.964  34.547  1.00  0.00     0.124 S 
ATOM     66  O   UNL A   1      45.681  39.144  34.032  1.00  0.00    -0.237 OA
ATOM     67  O   UNL A   1      43.324  39.881  34.012  1.00  0.00    -0.237 OA
ATOM     68  O   UNL A   1      44.233  38.720  35.985  1.00  0.00    -0.744 OA
ENDBRANCH  64  65
ENDBRANCH  38  59
ENDBRANCH  12  13
ENDBRANCH   5   7
ENDBRANCH   2   3
ENDBRANCH   1   2
BRANCH   1  69
ATOM     69  C   UNL A   1      35.619  21.780  26.038  1.00  0.00     0.023 C 
BRANCH  69  70
ATOM     70  C   UNL A   1      34.404  21.464  26.907  1.00  0.00     0.116 C 
BRANCH  70  71
ATOM     71  N   UNL A   1      33.571  20.427  26.325  1.00  0.00    -0.352 N 
ATOM     72  C   UNL A   1      32.629  20.534  25.339  1.00  0.00     0.251 C 
ATOM     73  H   UNL A   1      33.702  19.521  26.691  1.00  0.00     0.163 HD
ATOM     74  O   UNL A   1      31.889  19.596  25.064  1.00  0.00    -0.269 OA
BRANCH  72  75
ATOM     75  C   UNL A   1      32.495  21.800  24.599  1.00  0.00     0.042 A 
ATOM     76  C   UNL A   1      32.888  21.866  23.255  1.00  0.00     0.016 A 
ATOM     77  C   UNL A   1      31.918  22.891  25.263  1.00  0.00     0.042 A 
ATOM     78  C   UNL A   1      32.701  23.043  22.523  1.00  0.00     0.031 A 
ATOM     79  C   UNL A   1      31.766  24.054  24.508  1.00  0.00     0.067 A 
ATOM     80  C   UNL A   1      32.103  24.139  23.162  1.00  0.00     0.089 A 
ATOM     81  N   UNL A   1      31.286  25.303  24.814  1.00  0.00    -0.338 N 
ATOM     82  N   UNL A   1      31.734  25.350  22.646  1.00  0.00    -0.228 NA
ATOM     83  C   UNL A   1      31.229  26.030  23.653  1.00  0.00     0.142 A 
ATOM     84  H   UNL A   1      31.027  25.621  25.709  1.00  0.00     0.168 HD
BRANCH  83  85
ATOM     85  C   UNL A   1      30.633  27.377  23.520  1.00  0.00     0.063 A 
ATOM     86  C   UNL A   1      29.721  27.776  22.574  1.00  0.00     0.117 A 
ATOM     87  C   UNL A   1      30.901  28.529  24.314  1.00  0.00     0.106 A 
ATOM     88  N   UNL A   1      29.423  29.070  22.888  1.00  0.00    -0.284 N 
ATOM     89  N   UNL A   1      30.150  29.565  23.901  1.00  0.00    -0.175 NA
ATOM     90  H   UNL A   1      28.736  29.593  22.414  1.00  0.00     0.189 HD
BRANCH  87  91
ATOM     91  C   UNL A   1      31.942  28.699  25.323  1.00  0.00     0.039 A 
ATOM     92  C   UNL A   1      31.636  28.467  26.678  1.00  0.00     0.016 A 
ATOM     93  C   UNL A   1      33.245  29.067  24.983  1.00  0.00     0.135 A 
ATOM     94  C   UNL A   1      32.614  28.612  27.662  1.00  0.00     0.040 A 
ATOM     95  C   UNL A   1      34.228  29.208  25.962  1.00  0.00     0.079 A 
ATOM     96  F   UNL A   1      33.584  29.311  23.707  1.00  0.00    -0.206 F 
ATOM     97  C   UNL A   1      33.901  28.979  27.292  1.00  0.00     0.126 A 
ATOM     98  F   UNL A   1      34.843  29.111  28.236  1.00  0.00    -0.207 F 
ENDBRANCH  87  91
ENDBRANCH  83  85
ENDBRANCH  72  75
ENDBRANCH  70  71
ENDBRANCH  69  70
ENDBRANCH   1  69
TORSDOF 16
ENDMDL
MODEL 2
REMARK VINA RESULT:     -12.1      2.828      9.316
REMARK SMILES O=C(NCCCCNC(=O)c1ccc2nc(-c3c[nH]nc3-c3ccc(F)cc3F)[nH]c2c1)c1ccc(-c2c3nc(c(-c4ccc(S(=O)(=O)[O-])cc4)c4ccc([nH]4)c(-c4ccc(S(=O)(=O)[O-])cc4)c4nc(c(-c5ccc(S(=O)(=O)[O-])cc5)c5ccc2[nH]5)C=C4)C=C3)cc1
REMARK SMILES IDX 5 1 4 2 3 3 1 4 2 5 33 7 34 8 92 9 35 10 91 11 36 12 37 13
REMARK SMILES IDX 38 14 85 15 39 16 90 17 84 18 86 19 40 20 89 21 83 22 82 23
REMARK SMILES IDX 41 25 71 26 52 27 70 28 53 29 56 30 69 31 87 32 54 33 55 34
REMARK SMILES IDX 68 36 88 37 57 38 42 39 43 40 51 41 44 42 50 43 45 44 46 45
REMARK SMILES IDX 47 46 48 47 49 48 72 49 73 50 81 51 74 52 80 53 75 54 76 55
REMARK SMILES IDX 77 56 78 57 79 58 58 59 59 60 67 61 60 62 66 63 61 64 62 65
REMARK SMILES IDX 63 66 64 67 65 68 6 69 7 70 8 71 9 72 10 74 11 75 12 76
REMARK SMILES IDX 32 77 13 78 31 79 14 80 30 81 15 82 16 83 17 85 18 86 21 87
REMARK SMILES IDX 19 88 20 89 22 91 23 92 28 93 24 94 27 95 29 96 25 97 26 98
REMARK H PARENT 3 6 86 24 56 35 8 73 30 84 19 90
REMARK Flexibility Score: inf
ROOT
ATOM      1  C   UNL A   1      33.919  28.327  25.682  1.00  0.00     0.023 C 
ENDROOT
BRANCH   1   2
ATOM      2  C   UNL A   1      33.569  28.500  27.155  1.00  0.00     0.116 C 
BRANCH   2   3
ATOM      3  N   UNL A   1      33.493  29.893  27.567  1.00  0.00    -0.352 N 
ATOM      4  O   UNL A   1      34.161  31.809  28.551  1.00  0.00    -0.269 OA
ATOM      5  C   UNL A   1      34.449  30.679  28.166  1.00  0.00     0.251 C 
ATOM      6  H   UNL A   1      32.632  30.338  27.391  1.00  0.00     0.163 HD
BRANCH   5   7
ATOM      7  C   UNL A   1      35.813  30.145  28.381  1.00  0.00     0.039 A 
ATOM      8  C   UNL A   1      36.182  29.607  29.615  1.00  0.00     0.014 A 
ATOM      9  C   UNL A   1      36.744  30.212  27.340  1.00  0.00     0.014 A 
ATOM     10  C   UNL A   1      37.516  29.305  29.863  1.00  0.00     0.010 A 
ATOM     11  C   UNL A   1      38.068  29.821  27.565  1.00  0.00     0.010 A 
ATOM     12  C   UNL A   1      38.478  29.411  28.843  1.00  0.00    -0.014 A 
BRANCH  12  13
ATOM     13  C   UNL A   1      39.893  29.069  29.144  1.00  0.00     0.031 A 
ATOM     14  C   UNL A   1      40.775  30.007  29.928  1.00  0.00     0.074 A 
ATOM     15  C   UNL A   1      40.369  27.870  28.751  1.00  0.00     0.049 A 
ATOM     16  N   UNL A   1      42.004  29.825  30.342  1.00  0.00    -0.248 NA
ATOM     17  C   UNL A   1      40.211  31.317  30.290  1.00  0.00     0.031 C 
ATOM     18  C   UNL A   1      39.619  26.877  27.979  1.00  0.00     0.029 A 
ATOM     19  N   UNL A   1      41.581  27.268  28.976  1.00  0.00    -0.354 N 
ATOM     20  C   UNL A   1      42.372  31.003  30.982  1.00  0.00     0.074 A 
ATOM     21  C   UNL A   1      41.241  31.901  30.889  1.00  0.00     0.031 C 
ATOM     22  C   UNL A   1      40.357  25.765  27.855  1.00  0.00     0.029 A 
ATOM     23  C   UNL A   1      41.654  25.986  28.485  1.00  0.00     0.049 A 
ATOM     24  H   UNL A   1      42.326  27.711  29.443  1.00  0.00     0.167 HD
ATOM     25  C   UNL A   1      43.542  31.309  31.596  1.00  0.00     0.031 A 
ATOM     26  C   UNL A   1      42.651  25.082  28.536  1.00  0.00     0.031 A 
ATOM     27  C   UNL A   1      44.661  30.408  31.703  1.00  0.00     0.049 A 
ATOM     28  C   UNL A   1      43.933  25.444  29.225  1.00  0.00     0.074 A 
ATOM     29  C   UNL A   1      45.873  30.615  32.341  1.00  0.00     0.029 A 
ATOM     30  N   UNL A   1      44.708  29.134  31.161  1.00  0.00    -0.354 N 
ATOM     31  N   UNL A   1      44.246  26.553  29.851  1.00  0.00    -0.248 NA
ATOM     32  C   UNL A   1      44.996  24.431  29.215  1.00  0.00     0.031 C 
ATOM     33  C   UNL A   1      46.668  29.479  32.148  1.00  0.00     0.029 A 
ATOM     34  C   UNL A   1      45.934  28.548  31.431  1.00  0.00     0.049 A 
ATOM     35  H   UNL A   1      43.977  28.707  30.657  1.00  0.00     0.167 HD
ATOM     36  C   UNL A   1      45.539  26.365  30.323  1.00  0.00     0.074 A 
ATOM     37  C   UNL A   1      45.941  25.031  29.926  1.00  0.00     0.031 C 
ATOM     38  C   UNL A   1      46.323  27.222  31.022  1.00  0.00     0.031 A 
BRANCH  25  39
ATOM     39  C   UNL A   1      43.685  32.692  32.174  1.00  0.00    -0.014 A 
ATOM     40  C   UNL A   1      43.351  32.965  33.512  1.00  0.00     0.010 A 
ATOM     41  C   UNL A   1      44.200  33.728  31.374  1.00  0.00     0.010 A 
ATOM     42  C   UNL A   1      43.488  34.258  34.027  1.00  0.00     0.020 A 
ATOM     43  C   UNL A   1      44.362  35.017  31.891  1.00  0.00     0.020 A 
ATOM     44  C   UNL A   1      43.986  35.278  33.210  1.00  0.00     0.054 A 
BRANCH  44  45
ATOM     45  S   UNL A   1      44.162  36.945  33.902  1.00  0.00     0.124 S 
ATOM     46  O   UNL A   1      42.769  37.367  34.028  1.00  0.00    -0.237 OA
ATOM     47  O   UNL A   1      44.858  36.701  35.163  1.00  0.00    -0.237 OA
ATOM     48  O   UNL A   1      44.941  37.660  32.894  1.00  0.00    -0.744 OA
ENDBRANCH  44  45
ENDBRANCH  25  39
BRANCH  26  49
ATOM     49  C   UNL A   1      42.460  23.743  27.920  1.00  0.00    -0.014 A 
ATOM     50  C   UNL A   1      42.935  23.481  26.624  1.00  0.00     0.010 A 
ATOM     51  C   UNL A   1      41.833  22.712  28.643  1.00  0.00     0.010 A 
ATOM     52  C   UNL A   1      42.782  22.212  26.058  1.00  0.00     0.020 A 
ATOM     53  C   UNL A   1      41.701  21.436  28.092  1.00  0.00     0.020 A 
ATOM     54  C   UNL A   1      42.167  21.197  26.797  1.00  0.00     0.054 A 
BRANCH  54  55
ATOM     55  S   UNL A   1      42.038  19.538  26.074  1.00  0.00     0.124 S 
ATOM     56  O   UNL A   1      42.542  18.697  27.154  1.00  0.00    -0.237 OA
ATOM     57  O   UNL A   1      40.609  19.423  25.795  1.00  0.00    -0.237 OA
ATOM     58  O   UNL A   1      42.891  19.618  24.889  1.00  0.00    -0.744 OA
ENDBRANCH  54  55
ENDBRANCH  26  49
BRANCH  38  59
ATOM     59  C   UNL A   1      47.686  26.728  31.422  1.00  0.00    -0.014 A 
ATOM     60  C   UNL A   1      47.867  25.958  32.584  1.00  0.00     0.010 A 
ATOM     61  C   UNL A   1      48.795  27.019  30.609  1.00  0.00     0.010 A 
ATOM     62  C   UNL A   1      49.143  25.522  32.950  1.00  0.00     0.020 A 
ATOM     63  C   UNL A   1      50.070  26.566  30.959  1.00  0.00     0.020 A 
ATOM     64  C   UNL A   1      50.238  25.836  32.138  1.00  0.00     0.054 A 
BRANCH  64  65
ATOM     65  S   UNL A   1      51.884  25.243  32.616  1.00  0.00     0.124 S 
ATOM     66  O   UNL A   1      52.322  26.281  33.546  1.00  0.00    -0.237 OA
ATOM     67  O   UNL A   1      51.598  23.942  33.217  1.00  0.00    -0.237 OA
ATOM     68  O   UNL A   1      52.613  25.190  31.351  1.00  0.00    -0.744 OA
ENDBRANCH  64  65
ENDBRANCH  38  59
ENDBRANCH  12  13
ENDBRANCH   5   7
ENDBRANCH   2   3
ENDBRANCH   1   2
BRANCH   1  69
ATOM     69  C   UNL A   1      33.358  29.396  24.744  1.00  0.00     0.023 C 
BRANCH  69  70
ATOM     70  C   UNL A   1      33.432  29.059  23.256  1.00  0.00     0.116 C 
BRANCH  70  71
ATOM     71  N   UNL A   1      32.121  29.053  22.632  1.00  0.00    -0.352 N 
ATOM     72  C   UNL A   1      31.196  28.046  22.588  1.00  0.00     0.251 C 
ATOM     73  H   UNL A   1      31.863  29.888  22.177  1.00  0.00     0.163 HD
ATOM     74  O   UNL A   1      30.197  28.133  21.883  1.00  0.00    -0.269 OA
BRANCH  72  75
ATOM     75  C   UNL A   1      31.406  26.832  23.395  1.00  0.00     0.042 A 
ATOM     76  C   UNL A   1      30.768  26.702  24.637  1.00  0.00     0.016 A 
ATOM     77  C   UNL A   1      32.206  25.815  22.856  1.00  0.00     0.042 A 
ATOM     78  C   UNL A   1      30.905  25.525  25.380  1.00  0.00     0.031 A 
ATOM     79  C   UNL A   1      32.337  24.664  23.634  1.00  0.00     0.067 A 
ATOM     80  C   UNL A   1      31.681  24.485  24.846  1.00  0.00     0.089 A 
ATOM     81  N   UNL A   1      33.045  23.502  23.459  1.00  0.00    -0.338 N 
ATOM     82  N   UNL A   1      31.890  23.223  25.328  1.00  0.00    -0.228 NA
ATOM     83  C   UNL A   1      32.701  22.642  24.470  1.00  0.00     0.142 A 
ATOM     84  H   UNL A   1      33.688  23.318  22.736  1.00  0.00     0.168 HD
BRANCH  83  85
ATOM     85  C   UNL A   1      33.129  21.230  24.569  1.00  0.00     0.063 A 
ATOM     86  C   UNL A   1      32.319  20.124  24.492  1.00  0.00     0.117 A 
ATOM     87  C   UNL A   1      34.446  20.734  24.792  1.00  0.00     0.106 A 
ATOM     88  N   UNL A   1      33.163  19.056  24.574  1.00  0.00    -0.284 N 
ATOM     89  N   UNL A   1      34.442  19.389  24.800  1.00  0.00    -0.175 NA
ATOM     90  H   UNL A   1      32.861  18.123  24.475  1.00  0.00     0.189 HD
BRANCH  87  91
ATOM     91  C   UNL A   1      35.642  21.493  25.144  1.00  0.00     0.039 A 
ATOM     92  C   UNL A   1      35.508  22.805  25.637  1.00  0.00     0.016 A 
ATOM     93  C   UNL A   1      36.921  20.947  25.028  1.00  0.00     0.135 A 
ATOM     94  C   UNL A   1      36.633  23.549  25.992  1.00  0.00     0.040 A 
ATOM     95  C   UNL A   1      38.050  21.684  25.387  1.00  0.00     0.079 A 
ATOM     96  F   UNL A   1      37.103  19.705  24.553  1.00  0.00    -0.206 F 
ATOM     97  C   UNL A   1      37.893  22.978  25.865  1.00  0.00     0.126 A 
ATOM     98  F   UNL A   1      38.974  23.690  26.213  1.00  0.00    -0.207 F 
ENDBRANCH  87  91
ENDBRANCH  83  85
ENDBRANCH  72  75
ENDBRANCH  70  71
ENDBRANCH  69  70
ENDBRANCH   1  69
TORSDOF 16
ENDMDL
MODEL 3
REMARK VINA RESULT:     -12.0      2.857      8.375
REMARK SMILES O=C(NCCCCNC(=O)c1ccc2nc(-c3c[nH]nc3-c3ccc(F)cc3F)[nH]c2c1)c1ccc(-c2c3nc(c(-c4ccc(S(=O)(=O)[O-])cc4)c4ccc([nH]4)c(-c4ccc(S(=O)(=O)[O-])cc4)c4nc(c(-c5ccc(S(=O)(=O)[O-])cc5)c5ccc2[nH]5)C=C4)C=C3)cc1
REMARK SMILES IDX 5 1 4 2 3 3 1 4 2 5 33 7 34 8 92 9 35 10 91 11 36 12 37 13
REMARK SMILES IDX 38 14 85 15 39 16 90 17 84 18 86 19 40 20 89 21 83 22 82 23
REMARK SMILES IDX 41 25 71 26 52 27 70 28 53 29 56 30 69 31 87 32 54 33 55 34
REMARK SMILES IDX 68 36 88 37 57 38 42 39 43 40 51 41 44 42 50 43 45 44 46 45
REMARK SMILES IDX 47 46 48 47 49 48 72 49 73 50 81 51 74 52 80 53 75 54 76 55
REMARK SMILES IDX 77 56 78 57 79 58 58 59 59 60 67 61 60 62 66 63 61 64 62 65
REMARK SMILES IDX 63 66 64 67 65 68 6 69 7 70 8 71 9 72 10 74 11 75 12 76
REMARK SMILES IDX 32 77 13 78 31 79 14 80 30 81 15 82 16 83 17 85 18 86 21 87
REMARK SMILES IDX 19 88 20 89 22 91 23 92 28 93 24 94 27 95 29 96 25 97 26 98
REMARK H PARENT 3 6 86 24 56 35 8 73 30 84 19 90
REMARK Flexibility Score: inf
ROOT
ATOM      1  C   UNL A   1      33.888  28.284  25.609  1.00  0.00     0.023 C 
ENDROOT
BRANCH   1   2
ATOM      2  C   UNL A   1      33.579  28.431  27.094  1.00  0.00     0.116 C 
BRANCH   2   3
ATOM      3  N   UNL A   1      33.455  29.817  27.519  1.00  0.00    -0.352 N 
ATOM      4  O   UNL A   1      34.055  31.743  28.529  1.00  0.00    -0.269 OA
ATOM      5  C   UNL A   1      34.382  30.626  28.135  1.00  0.00     0.251 C 
ATOM      6  H   UNL A   1      32.582  30.237  27.341  1.00  0.00     0.163 HD
BRANCH   5   7
ATOM      7  C   UNL A   1      35.760  30.133  28.355  1.00  0.00     0.039 A 
ATOM      8  C   UNL A   1      36.164  29.683  29.613  1.00  0.00     0.014 A 
ATOM      9  C   UNL A   1      36.670  30.151  27.292  1.00  0.00     0.014 A 
ATOM     10  C   UNL A   1      37.509  29.422  29.851  1.00  0.00     0.010 A 
ATOM     11  C   UNL A   1      38.005  29.800  27.514  1.00  0.00     0.010 A 
ATOM     12  C   UNL A   1      38.449  29.481  28.807  1.00  0.00    -0.014 A 
BRANCH  12  13
ATOM     13  C   UNL A   1      39.876  29.185  29.099  1.00  0.00     0.031 A 
ATOM     14  C   UNL A   1      40.496  27.867  28.715  1.00  0.00     0.074 A 
ATOM     15  C   UNL A   1      40.634  30.144  29.668  1.00  0.00     0.049 A 
ATOM     16  N   UNL A   1      41.743  27.482  28.826  1.00  0.00    -0.248 NA
ATOM     17  C   UNL A   1      39.606  26.846  28.137  1.00  0.00     0.031 C 
ATOM     18  C   UNL A   1      40.150  31.459  30.095  1.00  0.00     0.029 A 
ATOM     19  N   UNL A   1      41.975  30.176  29.953  1.00  0.00    -0.354 N 
ATOM     20  C   UNL A   1      41.783  26.171  28.365  1.00  0.00     0.074 A 
ATOM     21  C   UNL A   1      40.431  25.819  27.986  1.00  0.00     0.031 C 
ATOM     22  C   UNL A   1      41.188  32.193  30.520  1.00  0.00     0.029 A 
ATOM     23  C   UNL A   1      42.399  31.385  30.453  1.00  0.00     0.049 A 
ATOM     24  H   UNL A   1      42.576  29.409  29.813  1.00  0.00     0.167 HD
ATOM     25  C   UNL A   1      42.848  25.337  28.262  1.00  0.00     0.031 A 
ATOM     26  C   UNL A   1      43.627  31.801  30.818  1.00  0.00     0.031 A 
ATOM     27  C   UNL A   1      44.195  25.694  28.623  1.00  0.00     0.049 A 
ATOM     28  C   UNL A   1      44.788  30.860  30.689  1.00  0.00     0.074 A 
ATOM     29  C   UNL A   1      45.346  24.930  28.515  1.00  0.00     0.029 A 
ATOM     30  N   UNL A   1      44.576  26.914  29.160  1.00  0.00    -0.354 N 
ATOM     31  N   UNL A   1      44.807  29.636  30.220  1.00  0.00    -0.248 NA
ATOM     32  C   UNL A   1      46.095  31.360  31.136  1.00  0.00     0.031 C 
ATOM     33  C   UNL A   1      46.415  25.675  29.026  1.00  0.00     0.029 A 
ATOM     34  C   UNL A   1      45.938  26.918  29.408  1.00  0.00     0.049 A 
ATOM     35  H   UNL A   1      43.967  27.667  29.338  1.00  0.00     0.167 HD
ATOM     36  C   UNL A   1      46.131  29.223  30.304  1.00  0.00     0.074 A 
ATOM     37  C   UNL A   1      46.884  30.334  30.850  1.00  0.00     0.031 C 
ATOM     38  C   UNL A   1      46.673  28.029  29.959  1.00  0.00     0.031 A 
BRANCH  25  39
ATOM     39  C   UNL A   1      42.592  23.938  27.765  1.00  0.00    -0.014 A 
ATOM     40  C   UNL A   1      42.671  23.621  26.397  1.00  0.00     0.010 A 
ATOM     41  C   UNL A   1      42.305  22.916  28.689  1.00  0.00     0.010 A 
ATOM     42  C   UNL A   1      42.426  22.315  25.959  1.00  0.00     0.020 A 
ATOM     43  C   UNL A   1      42.083  21.605  28.257  1.00  0.00     0.020 A 
ATOM     44  C   UNL A   1      42.126  21.317  26.891  1.00  0.00     0.054 A 
BRANCH  44  45
ATOM     45  S   UNL A   1      41.819  19.631  26.298  1.00  0.00     0.124 S 
ATOM     46  O   UNL A   1      42.290  18.826  27.423  1.00  0.00    -0.237 OA
ATOM     47  O   UNL A   1      40.374  19.621  26.084  1.00  0.00    -0.237 OA
ATOM     48  O   UNL A   1      42.626  19.537  25.084  1.00  0.00    -0.744 OA
ENDBRANCH  44  45
ENDBRANCH  25  39
BRANCH  26  49
ATOM     49  C   UNL A   1      43.810  33.184  31.329  1.00  0.00    -0.014 A 
ATOM     50  C   UNL A   1      44.165  34.226  30.455  1.00  0.00     0.010 A 
ATOM     51  C   UNL A   1      43.594  33.472  32.690  1.00  0.00     0.010 A 
ATOM     52  C   UNL A   1      44.307  35.532  30.934  1.00  0.00     0.020 A 
ATOM     53  C   UNL A   1      43.710  34.779  33.166  1.00  0.00     0.020 A 
ATOM     54  C   UNL A   1      44.076  35.800  32.286  1.00  0.00     0.054 A 
BRANCH  54  55
ATOM     55  S   UNL A   1      44.199  37.512  32.876  1.00  0.00     0.124 S 
ATOM     56  O   UNL A   1      43.822  38.268  31.687  1.00  0.00    -0.237 OA
ATOM     57  O   UNL A   1      43.239  37.539  33.976  1.00  0.00    -0.237 OA
ATOM     58  O   UNL A   1      45.599  37.632  33.279  1.00  0.00    -0.744 OA
ENDBRANCH  54  55
ENDBRANCH  26  49
BRANCH  38  59
ATOM     59  C   UNL A   1      48.158  27.876  30.142  1.00  0.00    -0.014 A 
ATOM     60  C   UNL A   1      49.054  28.205  29.109  1.00  0.00     0.010 A 
ATOM     61  C   UNL A   1      48.662  27.421  31.372  1.00  0.00     0.010 A 
ATOM     62  C   UNL A   1      50.430  28.040  29.291  1.00  0.00     0.020 A 
ATOM     63  C   UNL A   1      50.039  27.277  31.566  1.00  0.00     0.020 A 
ATOM     64  C   UNL A   1      50.913  27.570  30.516  1.00  0.00     0.054 A 
BRANCH  64  65
ATOM     65  S   UNL A   1      52.703  27.383  30.741  1.00  0.00     0.124 S 
ATOM     66  O   UNL A   1      52.984  26.188  29.951  1.00  0.00    -0.237 OA
ATOM     67  O   UNL A   1      53.229  28.633  30.198  1.00  0.00    -0.237 OA
ATOM     68  O   UNL A   1      52.855  27.227  32.186  1.00  0.00    -0.744 OA
ENDBRANCH  64  65
ENDBRANCH  38  59
ENDBRANCH  12  13
ENDBRANCH   5   7
ENDBRANCH   2   3
ENDBRANCH   1   2
BRANCH   1  69
ATOM     69  C   UNL A   1      33.285  29.357  24.703  1.00  0.00     0.023 C 
BRANCH  69  70
ATOM     70  C   UNL A   1      33.344  29.054  23.207  1.00  0.00     0.116 C 
BRANCH  70  71
ATOM     71  N   UNL A   1      32.025  29.048  22.599  1.00  0.00    -0.352 N 
ATOM     72  C   UNL A   1      31.098  28.042  22.568  1.00  0.00     0.251 C 
ATOM     73  H   UNL A   1      31.762  29.882  22.146  1.00  0.00     0.163 HD
ATOM     74  O   UNL A   1      30.091  28.129  21.875  1.00  0.00    -0.269 OA
BRANCH  72  75
ATOM     75  C   UNL A   1      31.316  26.830  23.376  1.00  0.00     0.042 A 
ATOM     76  C   UNL A   1      30.669  26.690  24.611  1.00  0.00     0.016 A 
ATOM     77  C   UNL A   1      32.132  25.823  22.842  1.00  0.00     0.042 A 
ATOM     78  C   UNL A   1      30.814  25.514  25.354  1.00  0.00     0.031 A 
ATOM     79  C   UNL A   1      32.271  24.673  23.619  1.00  0.00     0.067 A 
ATOM     80  C   UNL A   1      31.606  24.484  24.826  1.00  0.00     0.089 A 
ATOM     81  N   UNL A   1      32.995  23.520  23.449  1.00  0.00    -0.338 N 
ATOM     82  N   UNL A   1      31.827  23.224  25.307  1.00  0.00    -0.228 NA
ATOM     83  C   UNL A   1      32.652  22.654  24.455  1.00  0.00     0.142 A 
ATOM     84  H   UNL A   1      33.645  23.344  22.731  1.00  0.00     0.168 HD
BRANCH  83  85
ATOM     85  C   UNL A   1      33.097  21.247  24.556  1.00  0.00     0.063 A 
ATOM     86  C   UNL A   1      32.298  20.132  24.488  1.00  0.00     0.117 A 
ATOM     87  C   UNL A   1      34.420  20.766  24.771  1.00  0.00     0.106 A 
ATOM     88  N   UNL A   1      33.155  19.073  24.567  1.00  0.00    -0.284 N 
ATOM     89  N   UNL A   1      34.432  19.421  24.784  1.00  0.00    -0.175 NA
ATOM     90  H   UNL A   1      32.862  18.137  24.473  1.00  0.00     0.189 HD
BRANCH  87  91
ATOM     91  C   UNL A   1      35.610  21.539  25.113  1.00  0.00     0.039 A 
ATOM     92  C   UNL A   1      35.469  22.877  25.531  1.00  0.00     0.016 A 
ATOM     93  C   UNL A   1      36.890  20.984  25.060  1.00  0.00     0.135 A 
ATOM     94  C   UNL A   1      36.589  23.635  25.875  1.00  0.00     0.040 A 
ATOM     95  C   UNL A   1      38.012  21.736  25.408  1.00  0.00     0.079 A 
ATOM     96  F   UNL A   1      37.078  19.718  24.657  1.00  0.00    -0.206 F 
ATOM     97  C   UNL A   1      37.848  23.055  25.811  1.00  0.00     0.126 A 
ATOM     98  F   UNL A   1      38.923  23.781  26.148  1.00  0.00    -0.207 F 
ENDBRANCH  87  91
ENDBRANCH  83  85
ENDBRANCH  72  75
ENDBRANCH  70  71
ENDBRANCH  69  70
ENDBRANCH   1  69
TORSDOF 16
ENDMDL
