MODEL 1
REMARK VINA RESULT:     -11.3      0.000      0.000
REMARK SMILES CN(C)c1ccc(CCC(=O)N2C[C@@H](C(=O)NCCCCNC(=O)c3ccc(-c4c5nc(c(-c6ccc(S(=O)(=O)[O-])cc6)c6ccc([nH]6)c(-c6ccc(S(=O)(=O)[O-])cc6)c6nc(c(-c7ccc(S(=O)(=O)[O-])cc7)c7ccc4[nH]7)C=C6)C=C5)cc3)[C@H](c3cccnc3)C2)cc1
REMARK SMILES IDX 18 1 17 2 15 3 16 4 14 6 12 7 13 8 92 9 85 10 10 11 11 12
REMARK SMILES IDX 9 13 8 14 7 15 4 16 5 17 94 18 6 19 93 20 2 21 1 22 3 23
REMARK SMILES IDX 86 24 87 25 91 26 88 27 90 28 89 29 19 30 20 31 21 32 22 33
REMARK SMILES IDX 23 34 24 36 25 37 26 38 84 39 27 40 83 41 28 42 29 43 30 44
REMARK SMILES IDX 77 45 31 46 82 47 76 48 78 49 32 50 81 51 75 52 74 53 33 55
REMARK SMILES IDX 63 56 44 57 62 58 45 59 48 60 61 61 79 62 46 63 47 64 60 66
REMARK SMILES IDX 80 67 49 68 34 69 35 70 43 71 36 72 42 73 37 74 38 75 39 76
REMARK SMILES IDX 40 77 41 78 64 79 65 80 73 81 66 82 72 83 67 84 68 85 69 86
REMARK SMILES IDX 70 87 71 88 50 89 51 90 59 91 52 92 58 93 53 94 54 95 55 96
REMARK SMILES IDX 56 97 57 98
REMARK H PARENT 17 5 22 35 78 54 48 65
REMARK Flexibility Score: inf
ROOT
ATOM      1  C   UNL A   1      33.593  22.030  25.650  1.00  0.00     0.116 C 
ENDROOT
BRANCH   1   2
ATOM      2  N   UNL A   1      32.713  22.458  26.715  1.00  0.00    -0.356 N 
ATOM      3  C   UNL A   1      31.743  23.418  26.718  1.00  0.00     0.225 C 
ATOM      4  O   UNL A   1      30.869  23.316  27.579  1.00  0.00    -0.275 OA
ATOM      5  H   UNL A   1      32.832  21.983  27.570  1.00  0.00     0.163 HD
BRANCH   3   6
ATOM      6  C   UNL A   1      31.864  24.634  25.806  1.00  0.00     0.107 C 
ATOM      7  N   UNL A   1      32.903  24.846  23.650  1.00  0.00    -0.341 N 
ATOM      8  C   UNL A   1      31.787  24.259  24.333  1.00  0.00     0.133 C 
ATOM      9  C   UNL A   1      33.879  25.330  24.594  1.00  0.00     0.128 C 
ATOM     10  C   UNL A   1      33.132  25.502  25.934  1.00  0.00     0.054 C 
BRANCH   7  11
ATOM     11  C   UNL A   1      33.186  24.668  22.311  1.00  0.00     0.222 C 
ATOM     12  O   UNL A   1      33.644  23.600  21.895  1.00  0.00    -0.275 OA
BRANCH  11  13
ATOM     13  C   UNL A   1      33.086  25.876  21.373  1.00  0.00     0.105 C 
BRANCH  13  14
ATOM     14  C   UNL A   1      33.259  27.297  21.941  1.00  0.00     0.045 C 
BRANCH  14  15
ATOM     15  C   UNL A   1      32.025  27.868  22.613  1.00  0.00    -0.047 A 
ATOM     16  C   UNL A   1      29.743  29.360  23.368  1.00  0.00     0.036 A 
ATOM     17  C   UNL A   1      31.011  29.693  23.858  1.00  0.00     0.026 A 
ATOM     18  C   UNL A   1      29.617  28.190  22.613  1.00  0.00     0.026 A 
ATOM     19  C   UNL A   1      32.140  28.943  23.506  1.00  0.00     0.006 A 
ATOM     20  C   UNL A   1      30.740  27.435  22.256  1.00  0.00     0.006 A 
BRANCH  16  21
ATOM     21  N   UNL A   1      28.635  30.195  23.520  1.00  0.00    -0.378 N 
ATOM     22  C   UNL A   1      28.827  31.598  23.183  1.00  0.00     0.143 C 
ATOM     23  C   UNL A   1      27.366  29.593  23.125  1.00  0.00     0.143 C 
ENDBRANCH  16  21
ENDBRANCH  14  15
ENDBRANCH  13  14
ENDBRANCH  11  13
ENDBRANCH   7  11
BRANCH  10  24
ATOM     24  C   UNL A   1      32.889  26.952  26.366  1.00  0.00    -0.024 A 
ATOM     25  C   UNL A   1      31.676  27.436  26.888  1.00  0.00     0.007 A 
ATOM     26  C   UNL A   1      33.959  27.845  26.421  1.00  0.00     0.115 A 
ATOM     27  C   UNL A   1      31.590  28.705  27.455  1.00  0.00     0.020 A 
ATOM     28  N   UNL A   1      33.901  29.094  26.947  1.00  0.00    -0.264 NA
ATOM     29  C   UNL A   1      32.721  29.490  27.465  1.00  0.00     0.111 A 
ENDBRANCH  10  24
ENDBRANCH   3   6
ENDBRANCH   1   2
BRANCH   1  30
ATOM     30  C   UNL A   1      35.077  22.020  25.989  1.00  0.00     0.023 C 
BRANCH  30  31
ATOM     31  C   UNL A   1      36.021  22.557  24.923  1.00  0.00     0.023 C 
BRANCH  31  32
ATOM     32  C   UNL A   1      37.209  23.359  25.428  1.00  0.00     0.116 C 
BRANCH  32  33
ATOM     33  N   UNL A   1      38.436  22.589  25.577  1.00  0.00    -0.352 N 
ATOM     34  C   UNL A   1      39.594  22.917  26.243  1.00  0.00     0.251 C 
ATOM     35  H   UNL A   1      38.437  21.707  25.139  1.00  0.00     0.163 HD
ATOM     36  O   UNL A   1      40.525  22.132  26.291  1.00  0.00    -0.269 OA
BRANCH  34  37
ATOM     37  C   UNL A   1      39.709  24.267  26.820  1.00  0.00     0.039 A 
ATOM     38  C   UNL A   1      39.259  24.458  28.127  1.00  0.00     0.014 A 
ATOM     39  C   UNL A   1      40.365  25.286  26.127  1.00  0.00     0.014 A 
ATOM     40  C   UNL A   1      39.547  25.655  28.777  1.00  0.00     0.010 A 
ATOM     41  C   UNL A   1      40.736  26.435  26.809  1.00  0.00     0.010 A 
ATOM     42  C   UNL A   1      40.327  26.632  28.138  1.00  0.00    -0.014 A 
BRANCH  42  43
ATOM     43  C   UNL A   1      40.711  27.879  28.836  1.00  0.00     0.031 A 
ATOM     44  C   UNL A   1      42.074  27.982  29.463  1.00  0.00     0.074 A 
ATOM     45  C   UNL A   1      39.819  28.881  28.958  1.00  0.00     0.049 A 
ATOM     46  N   UNL A   1      42.579  28.950  30.179  1.00  0.00    -0.248 NA
ATOM     47  C   UNL A   1      42.971  26.825  29.295  1.00  0.00     0.031 C 
ATOM     48  C   UNL A   1      38.448  28.870  28.439  1.00  0.00     0.029 A 
ATOM     49  N   UNL A   1      39.931  30.107  29.562  1.00  0.00    -0.354 N 
ATOM     50  C   UNL A   1      43.837  28.508  30.571  1.00  0.00     0.074 A 
ATOM     51  C   UNL A   1      43.994  27.164  30.064  1.00  0.00     0.031 C 
ATOM     52  C   UNL A   1      37.861  30.046  28.715  1.00  0.00     0.029 A 
ATOM     53  C   UNL A   1      38.798  30.880  29.460  1.00  0.00     0.049 A 
ATOM     54  H   UNL A   1      40.746  30.406  30.027  1.00  0.00     0.167 HD
ATOM     55  C   UNL A   1      44.788  29.171  31.268  1.00  0.00     0.031 A 
ATOM     56  C   UNL A   1      38.547  32.123  29.914  1.00  0.00     0.031 A 
ATOM     57  C   UNL A   1      44.637  30.522  31.732  1.00  0.00     0.049 A 
ATOM     58  C   UNL A   1      39.633  32.858  30.650  1.00  0.00     0.074 A 
ATOM     59  C   UNL A   1      45.559  31.316  32.390  1.00  0.00     0.029 A 
ATOM     60  N   UNL A   1      43.488  31.284  31.574  1.00  0.00    -0.354 N 
ATOM     61  N   UNL A   1      40.840  32.444  30.961  1.00  0.00    -0.248 NA
ATOM     62  C   UNL A   1      39.332  34.228  31.085  1.00  0.00     0.031 C 
ATOM     63  C   UNL A   1      44.956  32.548  32.660  1.00  0.00     0.029 A 
ATOM     64  C   UNL A   1      43.674  32.536  32.130  1.00  0.00     0.049 A 
ATOM     65  H   UNL A   1      42.664  30.979  31.132  1.00  0.00     0.167 HD
ATOM     66  C   UNL A   1      41.450  33.513  31.607  1.00  0.00     0.074 A 
ATOM     67  C   UNL A   1      40.485  34.594  31.629  1.00  0.00     0.031 C 
ATOM     68  C   UNL A   1      42.696  33.595  32.135  1.00  0.00     0.031 A 
BRANCH  55  69
ATOM     69  C   UNL A   1      46.070  28.439  31.555  1.00  0.00    -0.014 A 
ATOM     70  C   UNL A   1      47.156  28.500  30.663  1.00  0.00     0.010 A 
ATOM     71  C   UNL A   1      46.194  27.683  32.735  1.00  0.00     0.010 A 
ATOM     72  C   UNL A   1      48.324  27.779  30.919  1.00  0.00     0.020 A 
ATOM     73  C   UNL A   1      47.373  26.983  33.009  1.00  0.00     0.020 A 
ATOM     74  C   UNL A   1      48.422  27.019  32.088  1.00  0.00     0.054 A 
BRANCH  74  75
ATOM     75  S   UNL A   1      49.953  26.100  32.402  1.00  0.00     0.124 S 
ATOM     76  O   UNL A   1      49.841  24.996  31.452  1.00  0.00    -0.237 OA
ATOM     77  O   UNL A   1      50.989  27.086  32.098  1.00  0.00    -0.237 OA
ATOM     78  O   UNL A   1      49.849  25.724  33.809  1.00  0.00    -0.744 OA
ENDBRANCH  74  75
ENDBRANCH  55  69
BRANCH  56  79
ATOM     79  C   UNL A   1      37.227  32.759  29.654  1.00  0.00    -0.014 A 
ATOM     80  C   UNL A   1      36.237  32.776  30.653  1.00  0.00     0.010 A 
ATOM     81  C   UNL A   1      36.960  33.370  28.416  1.00  0.00     0.010 A 
ATOM     82  C   UNL A   1      34.998  33.377  30.412  1.00  0.00     0.020 A 
ATOM     83  C   UNL A   1      35.730  33.993  28.180  1.00  0.00     0.020 A 
ATOM     84  C   UNL A   1      34.753  33.983  29.176  1.00  0.00     0.054 A 
BRANCH  84  85
ATOM     85  S   UNL A   1      33.159  34.807  28.904  1.00  0.00     0.124 S 
ATOM     86  O   UNL A   1      33.573  36.101  28.373  1.00  0.00    -0.237 OA
ATOM     87  O   UNL A   1      32.498  33.914  27.956  1.00  0.00    -0.237 OA
ATOM     88  O   UNL A   1      32.560  34.839  30.237  1.00  0.00    -0.744 OA
ENDBRANCH  84  85
ENDBRANCH  56  79
BRANCH  68  89
ATOM     89  C   UNL A   1      43.096  34.903  32.754  1.00  0.00    -0.014 A 
ATOM     90  C   UNL A   1      42.826  35.179  34.105  1.00  0.00     0.010 A 
ATOM     91  C   UNL A   1      43.810  35.841  31.987  1.00  0.00     0.010 A 
ATOM     92  C   UNL A   1      43.240  36.386  34.673  1.00  0.00     0.020 A 
ATOM     93  C   UNL A   1      44.248  37.038  32.557  1.00  0.00     0.020 A 
ATOM     94  C   UNL A   1      43.948  37.308  33.894  1.00  0.00     0.054 A 
BRANCH  94  95
ATOM     95  S   UNL A   1      44.521  38.845  34.668  1.00  0.00     0.124 S 
ATOM     96  O   UNL A   1      43.453  39.776  34.315  1.00  0.00    -0.237 OA
ATOM     97  O   UNL A   1      44.598  38.485  36.081  1.00  0.00    -0.237 OA
ATOM     98  O   UNL A   1      45.808  39.097  34.024  1.00  0.00    -0.744 OA
ENDBRANCH  94  95
ENDBRANCH  68  89
ENDBRANCH  42  43
ENDBRANCH  34  37
ENDBRANCH  32  33
ENDBRANCH  31  32
ENDBRANCH  30  31
ENDBRANCH   1  30
TORSDOF 20
ENDMDL
MODEL 2
REMARK VINA RESULT:     -11.0      4.197      9.586
REMARK SMILES CN(C)c1ccc(CCC(=O)N2C[C@@H](C(=O)NCCCCNC(=O)c3ccc(-c4c5nc(c(-c6ccc(S(=O)(=O)[O-])cc6)c6ccc([nH]6)c(-c6ccc(S(=O)(=O)[O-])cc6)c6nc(c(-c7ccc(S(=O)(=O)[O-])cc7)c7ccc4[nH]7)C=C6)C=C5)cc3)[C@H](c3cccnc3)C2)cc1
REMARK SMILES IDX 18 1 17 2 15 3 16 4 14 6 12 7 13 8 92 9 85 10 10 11 11 12
REMARK SMILES IDX 9 13 8 14 7 15 4 16 5 17 94 18 6 19 93 20 2 21 1 22 3 23
REMARK SMILES IDX 86 24 87 25 91 26 88 27 90 28 89 29 19 30 20 31 21 32 22 33
REMARK SMILES IDX 23 34 24 36 25 37 26 38 84 39 27 40 83 41 28 42 29 43 30 44
REMARK SMILES IDX 77 45 31 46 82 47 76 48 78 49 32 50 81 51 75 52 74 53 33 55
REMARK SMILES IDX 63 56 44 57 62 58 45 59 48 60 61 61 79 62 46 63 47 64 60 66
REMARK SMILES IDX 80 67 49 68 34 69 35 70 43 71 36 72 42 73 37 74 38 75 39 76
REMARK SMILES IDX 40 77 41 78 64 79 65 80 73 81 66 82 72 83 67 84 68 85 69 86
REMARK SMILES IDX 70 87 71 88 50 89 51 90 59 91 52 92 58 93 53 94 54 95 55 96
REMARK SMILES IDX 56 97 57 98
REMARK H PARENT 17 5 22 35 78 54 48 65
REMARK Flexibility Score: inf
ROOT
ATOM      1  C   UNL A   1      32.581  27.517  26.207  1.00  0.00     0.116 C 
ENDROOT
BRANCH   1   2
ATOM      2  N   UNL A   1      31.312  26.938  26.590  1.00  0.00    -0.356 N 
ATOM      3  C   UNL A   1      30.445  26.172  25.866  1.00  0.00     0.225 C 
ATOM      4  O   UNL A   1      29.666  25.467  26.507  1.00  0.00    -0.275 OA
ATOM      5  H   UNL A   1      31.031  27.125  27.515  1.00  0.00     0.163 HD
BRANCH   3   6
ATOM      6  C   UNL A   1      30.351  26.340  24.354  1.00  0.00     0.107 C 
ATOM      7  N   UNL A   1      31.997  25.926  22.653  1.00  0.00    -0.341 N 
ATOM      8  C   UNL A   1      31.146  25.277  23.607  1.00  0.00     0.133 C 
ATOM      9  C   UNL A   1      32.059  27.343  22.908  1.00  0.00     0.128 C 
ATOM     10  C   UNL A   1      30.811  27.683  23.751  1.00  0.00     0.054 C 
BRANCH   7  11
ATOM     11  C   UNL A   1      32.902  25.275  21.840  1.00  0.00     0.222 C 
ATOM     12  O   UNL A   1      33.362  25.822  20.833  1.00  0.00    -0.275 OA
BRANCH  11  13
ATOM     13  C   UNL A   1      33.198  23.795  22.108  1.00  0.00     0.105 C 
BRANCH  13  14
ATOM     14  C   UNL A   1      34.280  23.409  23.134  1.00  0.00     0.045 C 
BRANCH  14  15
ATOM     15  C   UNL A   1      34.012  22.119  23.886  1.00  0.00    -0.047 A 
ATOM     16  C   UNL A   1      33.710  19.434  24.725  1.00  0.00     0.036 A 
ATOM     17  C   UNL A   1      32.642  20.128  24.144  1.00  0.00     0.026 A 
ATOM     18  C   UNL A   1      34.880  20.145  25.006  1.00  0.00     0.026 A 
ATOM     19  C   UNL A   1      32.780  21.464  23.749  1.00  0.00     0.006 A 
ATOM     20  C   UNL A   1      35.027  21.481  24.614  1.00  0.00     0.006 A 
BRANCH  16  21
ATOM     21  N   UNL A   1      33.684  18.055  24.938  1.00  0.00    -0.378 N 
ATOM     22  C   UNL A   1      32.371  17.445  25.091  1.00  0.00     0.143 C 
ATOM     23  C   UNL A   1      34.670  17.306  24.166  1.00  0.00     0.143 C 
ENDBRANCH  16  21
ENDBRANCH  14  15
ENDBRANCH  13  14
ENDBRANCH  11  13
ENDBRANCH   7  11
BRANCH  10  24
ATOM     24  C   UNL A   1      29.723  28.476  23.021  1.00  0.00    -0.024 A 
ATOM     25  C   UNL A   1      28.356  28.443  23.349  1.00  0.00     0.007 A 
ATOM     26  C   UNL A   1      30.084  29.433  22.073  1.00  0.00     0.115 A 
ATOM     27  C   UNL A   1      27.456  29.345  22.785  1.00  0.00     0.020 A 
ATOM     28  N   UNL A   1      29.230  30.310  21.490  1.00  0.00    -0.264 NA
ATOM     29  C   UNL A   1      27.937  30.255  21.870  1.00  0.00     0.111 A 
ENDBRANCH  10  24
ENDBRANCH   3   6
ENDBRANCH   1   2
BRANCH   1  30
ATOM     30  C   UNL A   1      33.229  28.422  27.247  1.00  0.00     0.023 C 
BRANCH  30  31
ATOM     31  C   UNL A   1      34.361  29.314  26.760  1.00  0.00     0.023 C 
BRANCH  31  32
ATOM     32  C   UNL A   1      35.642  29.272  27.578  1.00  0.00     0.116 C 
BRANCH  32  33
ATOM     33  N   UNL A   1      35.441  29.379  29.017  1.00  0.00    -0.352 N 
ATOM     34  C   UNL A   1      36.367  29.592  30.011  1.00  0.00     0.251 C 
ATOM     35  H   UNL A   1      34.509  29.287  29.320  1.00  0.00     0.163 HD
ATOM     36  O   UNL A   1      36.016  29.684  31.174  1.00  0.00    -0.269 OA
BRANCH  34  37
ATOM     37  C   UNL A   1      37.792  29.620  29.643  1.00  0.00     0.039 A 
ATOM     38  C   UNL A   1      38.724  29.252  30.614  1.00  0.00     0.014 A 
ATOM     39  C   UNL A   1      38.185  29.879  28.329  1.00  0.00     0.014 A 
ATOM     40  C   UNL A   1      40.052  29.058  30.244  1.00  0.00     0.010 A 
ATOM     41  C   UNL A   1      39.486  29.589  27.943  1.00  0.00     0.010 A 
ATOM     42  C   UNL A   1      40.431  29.180  28.898  1.00  0.00    -0.014 A 
BRANCH  42  43
ATOM     43  C   UNL A   1      41.820  28.903  28.468  1.00  0.00     0.031 A 
ATOM     44  C   UNL A   1      42.189  27.516  28.021  1.00  0.00     0.074 A 
ATOM     45  C   UNL A   1      42.750  29.875  28.541  1.00  0.00     0.049 A 
ATOM     46  N   UNL A   1      43.358  27.047  27.677  1.00  0.00    -0.248 NA
ATOM     47  C   UNL A   1      41.107  26.516  27.996  1.00  0.00     0.031 C 
ATOM     48  C   UNL A   1      42.519  31.243  29.014  1.00  0.00     0.029 A 
ATOM     49  N   UNL A   1      44.084  29.859  28.221  1.00  0.00    -0.354 N 
ATOM     50  C   UNL A   1      43.159  25.695  27.426  1.00  0.00     0.074 A 
ATOM     51  C   UNL A   1      41.772  25.407  27.713  1.00  0.00     0.031 C 
ATOM     52  C   UNL A   1      43.662  31.943  28.917  1.00  0.00     0.029 A 
ATOM     53  C   UNL A   1      44.713  31.068  28.411  1.00  0.00     0.049 A 
ATOM     54  H   UNL A   1      44.548  29.058  27.887  1.00  0.00     0.167 HD
ATOM     55  C   UNL A   1      44.044  24.779  26.969  1.00  0.00     0.031 A 
ATOM     56  C   UNL A   1      45.993  31.426  28.197  1.00  0.00     0.031 A 
ATOM     57  C   UNL A   1      45.410  25.084  26.648  1.00  0.00     0.049 A 
ATOM     58  C   UNL A   1      46.950  30.403  27.651  1.00  0.00     0.074 A 
ATOM     59  C   UNL A   1      46.378  24.252  26.117  1.00  0.00     0.029 A 
ATOM     60  N   UNL A   1      45.999  26.330  26.818  1.00  0.00    -0.354 N 
ATOM     61  N   UNL A   1      46.728  29.142  27.363  1.00  0.00    -0.248 NA
ATOM     62  C   UNL A   1      48.324  30.852  27.388  1.00  0.00     0.031 C 
ATOM     63  C   UNL A   1      47.562  24.985  25.997  1.00  0.00     0.029 A 
ATOM     64  C   UNL A   1      47.319  26.286  26.411  1.00  0.00     0.049 A 
ATOM     65  H   UNL A   1      45.543  27.126  27.175  1.00  0.00     0.167 HD
ATOM     66  C   UNL A   1      47.929  28.652  26.862  1.00  0.00     0.074 A 
ATOM     67  C   UNL A   1      48.867  29.757  26.874  1.00  0.00     0.031 C 
ATOM     68  C   UNL A   1      48.230  27.403  26.431  1.00  0.00     0.031 A 
BRANCH  55  69
ATOM     69  C   UNL A   1      43.549  23.371  26.788  1.00  0.00    -0.014 A 
ATOM     70  C   UNL A   1      43.013  22.646  27.868  1.00  0.00     0.010 A 
ATOM     71  C   UNL A   1      43.615  22.763  25.522  1.00  0.00     0.010 A 
ATOM     72  C   UNL A   1      42.599  21.323  27.698  1.00  0.00     0.020 A 
ATOM     73  C   UNL A   1      43.175  21.448  25.341  1.00  0.00     0.020 A 
ATOM     74  C   UNL A   1      42.689  20.730  26.436  1.00  0.00     0.054 A 
BRANCH  74  75
ATOM     75  S   UNL A   1      42.135  19.015  26.239  1.00  0.00     0.124 S 
ATOM     76  O   UNL A   1      42.350  18.475  27.579  1.00  0.00    -0.237 OA
ATOM     77  O   UNL A   1      40.737  19.172  25.842  1.00  0.00    -0.237 OA
ATOM     78  O   UNL A   1      43.017  18.483  25.203  1.00  0.00    -0.744 OA
ENDBRANCH  74  75
ENDBRANCH  55  69
BRANCH  56  79
ATOM     79  C   UNL A   1      46.431  32.823  28.467  1.00  0.00    -0.014 A 
ATOM     80  C   UNL A   1      46.461  33.772  27.430  1.00  0.00     0.010 A 
ATOM     81  C   UNL A   1      46.800  33.218  29.765  1.00  0.00     0.010 A 
ATOM     82  C   UNL A   1      46.869  35.085  27.682  1.00  0.00     0.020 A 
ATOM     83  C   UNL A   1      47.186  34.537  30.026  1.00  0.00     0.020 A 
ATOM     84  C   UNL A   1      47.228  35.459  28.980  1.00  0.00     0.054 A 
BRANCH  84  85
ATOM     85  S   UNL A   1      47.699  37.183  29.297  1.00  0.00     0.124 S 
ATOM     86  O   UNL A   1      48.949  37.025  30.035  1.00  0.00    -0.237 OA
ATOM     87  O   UNL A   1      47.824  37.731  27.949  1.00  0.00    -0.237 OA
ATOM     88  O   UNL A   1      46.576  37.706  30.071  1.00  0.00    -0.744 OA
ENDBRANCH  84  85
ENDBRANCH  56  79
BRANCH  68  89
ATOM     89  C   UNL A   1      49.620  27.171  25.910  1.00  0.00    -0.014 A 
ATOM     90  C   UNL A   1      50.619  26.618  26.730  1.00  0.00     0.010 A 
ATOM     91  C   UNL A   1      49.908  27.452  24.563  1.00  0.00     0.010 A 
ATOM     92  C   UNL A   1      51.894  26.375  26.216  1.00  0.00     0.020 A 
ATOM     93  C   UNL A   1      51.175  27.186  24.039  1.00  0.00     0.020 A 
ATOM     94  C   UNL A   1      52.164  26.660  24.873  1.00  0.00     0.054 A 
BRANCH  94  95
ATOM     95  S   UNL A   1      53.812  26.287  24.216  1.00  0.00     0.124 S 
ATOM     96  O   UNL A   1      54.499  27.565  24.378  1.00  0.00    -0.237 OA
ATOM     97  O   UNL A   1      54.271  25.211  25.092  1.00  0.00    -0.237 OA
ATOM     98  O   UNL A   1      53.551  25.888  22.835  1.00  0.00    -0.744 OA
ENDBRANCH  94  95
ENDBRANCH  68  89
ENDBRANCH  42  43
ENDBRANCH  34  37
ENDBRANCH  32  33
ENDBRANCH  31  32
ENDBRANCH  30  31
ENDBRANCH   1  30
TORSDOF 20
ENDMDL
MODEL 3
REMARK VINA RESULT:     -11.0      2.874      9.182
REMARK SMILES CN(C)c1ccc(CCC(=O)N2C[C@@H](C(=O)NCCCCNC(=O)c3ccc(-c4c5nc(c(-c6ccc(S(=O)(=O)[O-])cc6)c6ccc([nH]6)c(-c6ccc(S(=O)(=O)[O-])cc6)c6nc(c(-c7ccc(S(=O)(=O)[O-])cc7)c7ccc4[nH]7)C=C6)C=C5)cc3)[C@H](c3cccnc3)C2)cc1
REMARK SMILES IDX 18 1 17 2 15 3 16 4 14 6 12 7 13 8 92 9 85 10 10 11 11 12
REMARK SMILES IDX 9 13 8 14 7 15 4 16 5 17 94 18 6 19 93 20 2 21 1 22 3 23
REMARK SMILES IDX 86 24 87 25 91 26 88 27 90 28 89 29 19 30 20 31 21 32 22 33
REMARK SMILES IDX 23 34 24 36 25 37 26 38 84 39 27 40 83 41 28 42 29 43 30 44
REMARK SMILES IDX 77 45 31 46 82 47 76 48 78 49 32 50 81 51 75 52 74 53 33 55
REMARK SMILES IDX 63 56 44 57 62 58 45 59 48 60 61 61 79 62 46 63 47 64 60 66
REMARK SMILES IDX 80 67 49 68 34 69 35 70 43 71 36 72 42 73 37 74 38 75 39 76
REMARK SMILES IDX 40 77 41 78 64 79 65 80 73 81 66 82 72 83 67 84 68 85 69 86
REMARK SMILES IDX 70 87 71 88 50 89 51 90 59 91 52 92 58 93 53 94 54 95 55 96
REMARK SMILES IDX 56 97 57 98
REMARK H PARENT 17 5 22 35 78 54 48 65
REMARK Flexibility Score: inf
ROOT
ATOM      1  C   UNL A   1      32.318  26.447  26.377  1.00  0.00     0.116 C 
ENDROOT
BRANCH   1   2
ATOM      2  N   UNL A   1      30.917  26.188  26.628  1.00  0.00    -0.356 N 
ATOM      3  C   UNL A   1      29.949  25.721  25.788  1.00  0.00     0.225 C 
ATOM      4  O   UNL A   1      28.967  25.198  26.316  1.00  0.00    -0.275 OA
ATOM      5  H   UNL A   1      30.616  26.380  27.546  1.00  0.00     0.163 HD
BRANCH   3   6
ATOM      6  C   UNL A   1      30.027  26.006  24.292  1.00  0.00     0.107 C 
ATOM      7  N   UNL A   1      31.844  25.681  22.754  1.00  0.00    -0.341 N 
ATOM      8  C   UNL A   1      30.880  24.984  23.555  1.00  0.00     0.133 C 
ATOM      9  C   UNL A   1      31.901  27.073  23.126  1.00  0.00     0.128 C 
ATOM     10  C   UNL A   1      30.574  27.379  23.852  1.00  0.00     0.054 C 
BRANCH   7  11
ATOM     11  C   UNL A   1      32.821  25.072  21.995  1.00  0.00     0.222 C 
ATOM     12  O   UNL A   1      33.340  25.654  21.038  1.00  0.00    -0.275 OA
BRANCH  11  13
ATOM     13  C   UNL A   1      33.132  23.593  22.250  1.00  0.00     0.105 C 
BRANCH  13  14
ATOM     14  C   UNL A   1      34.176  23.207  23.316  1.00  0.00     0.045 C 
BRANCH  14  15
ATOM     15  C   UNL A   1      33.934  21.868  23.987  1.00  0.00    -0.047 A 
ATOM     16  C   UNL A   1      33.661  19.132  24.653  1.00  0.00     0.036 A 
ATOM     17  C   UNL A   1      32.573  19.862  24.159  1.00  0.00     0.026 A 
ATOM     18  C   UNL A   1      34.840  19.825  24.940  1.00  0.00     0.026 A 
ATOM     19  C   UNL A   1      32.698  21.222  23.850  1.00  0.00     0.006 A 
ATOM     20  C   UNL A   1      34.973  21.185  24.634  1.00  0.00     0.006 A 
BRANCH  16  21
ATOM     21  N   UNL A   1      33.642  17.742  24.773  1.00  0.00    -0.378 N 
ATOM     22  C   UNL A   1      32.427  17.152  25.318  1.00  0.00     0.143 C 
ATOM     23  C   UNL A   1      34.277  17.032  23.668  1.00  0.00     0.143 C 
ENDBRANCH  16  21
ENDBRANCH  14  15
ENDBRANCH  13  14
ENDBRANCH  11  13
ENDBRANCH   7  11
BRANCH  10  24
ATOM     24  C   UNL A   1      29.588  28.255  23.073  1.00  0.00    -0.024 A 
ATOM     25  C   UNL A   1      28.201  28.292  23.301  1.00  0.00     0.007 A 
ATOM     26  C   UNL A   1      30.070  29.216  22.184  1.00  0.00     0.115 A 
ATOM     27  C   UNL A   1      27.396  29.259  22.705  1.00  0.00     0.020 A 
ATOM     28  N   UNL A   1      29.310  30.157  21.572  1.00  0.00    -0.264 NA
ATOM     29  C   UNL A   1      27.992  30.167  21.857  1.00  0.00     0.111 A 
ENDBRANCH  10  24
ENDBRANCH   3   6
ENDBRANCH   1   2
BRANCH   1  30
ATOM     30  C   UNL A   1      32.807  27.838  26.757  1.00  0.00     0.023 C 
BRANCH  30  31
ATOM     31  C   UNL A   1      33.957  28.402  25.935  1.00  0.00     0.023 C 
BRANCH  31  32
ATOM     32  C   UNL A   1      34.862  29.393  26.649  1.00  0.00     0.116 C 
BRANCH  32  33
ATOM     33  N   UNL A   1      34.221  30.655  26.992  1.00  0.00    -0.352 N 
ATOM     34  C   UNL A   1      34.627  31.623  27.881  1.00  0.00     0.251 C 
ATOM     35  H   UNL A   1      33.378  30.842  26.519  1.00  0.00     0.163 HD
ATOM     36  O   UNL A   1      33.976  32.643  28.025  1.00  0.00    -0.269 OA
BRANCH  34  37
ATOM     37  C   UNL A   1      35.814  31.357  28.710  1.00  0.00     0.039 A 
ATOM     38  C   UNL A   1      35.747  30.307  29.627  1.00  0.00     0.014 A 
ATOM     39  C   UNL A   1      37.007  32.047  28.492  1.00  0.00     0.014 A 
ATOM     40  C   UNL A   1      36.909  29.889  30.269  1.00  0.00     0.010 A 
ATOM     41  C   UNL A   1      38.179  31.566  29.055  1.00  0.00     0.010 A 
ATOM     42  C   UNL A   1      38.140  30.485  29.952  1.00  0.00    -0.014 A 
BRANCH  42  43
ATOM     43  C   UNL A   1      39.400  30.006  30.563  1.00  0.00     0.031 A 
ATOM     44  C   UNL A   1      39.932  30.696  31.788  1.00  0.00     0.074 A 
ATOM     45  C   UNL A   1      40.087  29.003  29.983  1.00  0.00     0.049 A 
ATOM     46  N   UNL A   1      41.047  30.483  32.433  1.00  0.00    -0.248 NA
ATOM     47  C   UNL A   1      39.121  31.797  32.336  1.00  0.00     0.031 C 
ATOM     48  C   UNL A   1      39.696  28.296  28.760  1.00  0.00     0.029 A 
ATOM     49  N   UNL A   1      41.267  28.403  30.346  1.00  0.00    -0.354 N 
ATOM     50  C   UNL A   1      41.086  31.441  33.439  1.00  0.00     0.074 A 
ATOM     51  C   UNL A   1      39.913  32.271  33.284  1.00  0.00     0.031 C 
ATOM     52  C   UNL A   1      40.598  27.337  28.496  1.00  0.00     0.029 A 
ATOM     53  C   UNL A   1      41.649  27.382  29.507  1.00  0.00     0.049 A 
ATOM     54  H   UNL A   1      41.791  28.678  31.132  1.00  0.00     0.167 HD
ATOM     55  C   UNL A   1      42.001  31.598  34.424  1.00  0.00     0.031 A 
ATOM     56  C   UNL A   1      42.724  26.573  29.553  1.00  0.00     0.031 A 
ATOM     57  C   UNL A   1      43.142  30.742  34.593  1.00  0.00     0.049 A 
ATOM     58  C   UNL A   1      43.707  26.739  30.679  1.00  0.00     0.074 A 
ATOM     59  C   UNL A   1      44.098  30.768  35.592  1.00  0.00     0.029 A 
ATOM     60  N   UNL A   1      43.472  29.695  33.745  1.00  0.00    -0.354 N 
ATOM     61  N   UNL A   1      43.695  27.614  31.658  1.00  0.00    -0.248 NA
ATOM     62  C   UNL A   1      44.839  25.804  30.716  1.00  0.00     0.031 C 
ATOM     63  C   UNL A   1      45.027  29.756  35.329  1.00  0.00     0.029 A 
ATOM     64  C   UNL A   1      44.623  29.073  34.191  1.00  0.00     0.049 A 
ATOM     65  H   UNL A   1      42.963  29.434  32.944  1.00  0.00     0.167 HD
ATOM     66  C   UNL A   1      44.805  27.319  32.441  1.00  0.00     0.074 A 
ATOM     67  C   UNL A   1      45.456  26.177  31.829  1.00  0.00     0.031 C 
ATOM     68  C   UNL A   1      45.247  27.935  33.565  1.00  0.00     0.031 A 
BRANCH  55  69
ATOM     69  C   UNL A   1      41.791  32.734  35.387  1.00  0.00    -0.014 A 
ATOM     70  C   UNL A   1      42.381  33.991  35.165  1.00  0.00     0.010 A 
ATOM     71  C   UNL A   1      40.988  32.546  36.526  1.00  0.00     0.010 A 
ATOM     72  C   UNL A   1      42.216  35.024  36.091  1.00  0.00     0.020 A 
ATOM     73  C   UNL A   1      40.796  33.586  37.439  1.00  0.00     0.020 A 
ATOM     74  C   UNL A   1      41.429  34.812  37.226  1.00  0.00     0.054 A 
BRANCH  74  75
ATOM     75  S   UNL A   1      41.222  36.173  38.406  1.00  0.00     0.124 S 
ATOM     76  O   UNL A   1      41.076  35.454  39.670  1.00  0.00    -0.237 OA
ATOM     77  O   UNL A   1      42.465  36.925  38.253  1.00  0.00    -0.237 OA
ATOM     78  O   UNL A   1      40.021  36.858  37.937  1.00  0.00    -0.744 OA
ENDBRANCH  74  75
ENDBRANCH  55  69
BRANCH  56  79
ATOM     79  C   UNL A   1      42.906  25.515  28.523  1.00  0.00    -0.014 A 
ATOM     80  C   UNL A   1      43.755  25.732  27.423  1.00  0.00     0.010 A 
ATOM     81  C   UNL A   1      42.248  24.278  28.645  1.00  0.00     0.010 A 
ATOM     82  C   UNL A   1      43.930  24.738  26.456  1.00  0.00     0.020 A 
ATOM     83  C   UNL A   1      42.439  23.273  27.692  1.00  0.00     0.020 A 
ATOM     84  C   UNL A   1      43.271  23.513  26.597  1.00  0.00     0.054 A 
BRANCH  84  85
ATOM     85  S   UNL A   1      43.557  22.216  25.361  1.00  0.00     0.124 S 
ATOM     86  O   UNL A   1      44.945  21.848  25.621  1.00  0.00    -0.237 OA
ATOM     87  O   UNL A   1      42.558  21.212  25.718  1.00  0.00    -0.237 OA
ATOM     88  O   UNL A   1      43.316  22.897  24.091  1.00  0.00    -0.744 OA
ENDBRANCH  84  85
ENDBRANCH  56  79
BRANCH  68  89
ATOM     89  C   UNL A   1      46.475  27.371  34.221  1.00  0.00    -0.014 A 
ATOM     90  C   UNL A   1      46.379  26.352  35.184  1.00  0.00     0.010 A 
ATOM     91  C   UNL A   1      47.744  27.824  33.818  1.00  0.00     0.010 A 
ATOM     92  C   UNL A   1      47.534  25.813  35.755  1.00  0.00     0.020 A 
ATOM     93  C   UNL A   1      48.902  27.269  34.368  1.00  0.00     0.020 A 
ATOM     94  C   UNL A   1      48.788  26.275  35.343  1.00  0.00     0.054 A 
BRANCH  94  95
ATOM     95  S   UNL A   1      50.275  25.524  36.060  1.00  0.00     0.124 S 
ATOM     96  O   UNL A   1      51.327  26.059  35.202  1.00  0.00    -0.237 OA
ATOM     97  O   UNL A   1      50.262  26.031  37.430  1.00  0.00    -0.237 OA
ATOM     98  O   UNL A   1      50.032  24.089  35.931  1.00  0.00    -0.744 OA
ENDBRANCH  94  95
ENDBRANCH  68  89
ENDBRANCH  42  43
ENDBRANCH  34  37
ENDBRANCH  32  33
ENDBRANCH  31  32
ENDBRANCH  30  31
ENDBRANCH   1  30
TORSDOF 20
ENDMDL
