MODEL 1
REMARK VINA RESULT:     -12.1      0.000      0.000
REMARK SMILES O=C(NCCCCNC(=O)c1cncnc1N1CC[C@H]2[NH2+]CCC[C@]2(CO)C1)c1ccc(-c2c3nc(c(-c4ccc(S(=O)(=O)[O-])cc4)c4ccc([nH]4)c(-c4ccc(S(=O)(=O)[O-])cc4)c4nc(c(-c5ccc(S(=O)(=O)[O-])cc5)c5ccc2[nH]5)C=C4)C=C3)cc1
REMARK SMILES IDX 5 1 4 2 3 3 1 4 2 5 29 7 30 8 88 9 31 10 87 11 32 12 33 13
REMARK SMILES IDX 34 14 81 15 35 16 86 17 80 18 82 19 36 20 85 21 79 22 78 23
REMARK SMILES IDX 37 25 67 26 48 27 66 28 49 29 52 30 65 31 83 32 50 33 51 34
REMARK SMILES IDX 64 36 84 37 53 38 38 39 39 40 47 41 40 42 46 43 41 44 42 45
REMARK SMILES IDX 43 46 44 47 45 48 68 49 69 50 77 51 70 52 76 53 71 54 72 55
REMARK SMILES IDX 73 56 74 57 75 58 54 59 55 60 63 61 56 62 62 63 57 64 58 65
REMARK SMILES IDX 59 66 60 67 61 68 6 69 7 70 8 71 9 72 10 74 11 75 12 76
REMARK SMILES IDX 16 77 13 78 15 79 14 80 17 81 18 82 28 83 19 84 25 85 20 86
REMARK SMILES IDX 24 87 21 88 23 89 22 90 26 93 27 94
REMARK H PARENT 3 6 82 24 52 35 8 73 21 91 21 92 27 95
REMARK Flexibility Score: inf
ROOT
ATOM      1  C   UNL A   1      34.083  29.397  26.902  1.00  0.00     0.023 C 
ENDROOT
BRANCH   1   2
ATOM      2  C   UNL A   1      35.417  29.371  27.636  1.00  0.00     0.116 C 
BRANCH   2   3
ATOM      3  N   UNL A   1      35.310  29.767  29.031  1.00  0.00    -0.352 N 
ATOM      4  O   UNL A   1      35.996  30.029  31.163  1.00  0.00    -0.269 OA
ATOM      5  C   UNL A   1      36.289  29.790  30.000  1.00  0.00     0.251 C 
ATOM      6  H   UNL A   1      34.416  30.060  29.322  1.00  0.00     0.163 HD
BRANCH   5   7
ATOM      7  C   UNL A   1      37.690  29.495  29.624  1.00  0.00     0.039 A 
ATOM      8  C   UNL A   1      38.140  29.733  28.324  1.00  0.00     0.014 A 
ATOM      9  C   UNL A   1      38.559  28.969  30.585  1.00  0.00     0.014 A 
ATOM     10  C   UNL A   1      39.414  29.322  27.948  1.00  0.00     0.010 A 
ATOM     11  C   UNL A   1      39.869  28.636  30.225  1.00  0.00     0.010 A 
ATOM     12  C   UNL A   1      40.300  28.790  28.900  1.00  0.00    -0.014 A 
BRANCH  12  13
ATOM     13  C   UNL A   1      41.701  28.506  28.500  1.00  0.00     0.031 A 
ATOM     14  C   UNL A   1      42.754  29.580  28.496  1.00  0.00     0.074 A 
ATOM     15  C   UNL A   1      42.016  27.242  28.154  1.00  0.00     0.049 A 
ATOM     16  N   UNL A   1      44.022  29.479  28.191  1.00  0.00    -0.248 NA
ATOM     17  C   UNL A   1      42.337  30.940  28.875  1.00  0.00     0.031 C 
ATOM     18  C   UNL A   1      41.071  26.121  28.106  1.00  0.00     0.029 A 
ATOM     19  N   UNL A   1      43.213  26.678  27.793  1.00  0.00    -0.354 N 
ATOM     20  C   UNL A   1      44.552  30.757  28.319  1.00  0.00     0.074 A 
ATOM     21  C   UNL A   1      43.464  31.624  28.718  1.00  0.00     0.031 C 
ATOM     22  C   UNL A   1      41.729  25.001  27.778  1.00  0.00     0.029 A 
ATOM     23  C   UNL A   1      43.127  25.332  27.529  1.00  0.00     0.049 A 
ATOM     24  H   UNL A   1      44.052  27.188  27.730  1.00  0.00     0.167 HD
ATOM     25  C   UNL A   1      45.829  31.166  28.119  1.00  0.00     0.031 A 
ATOM     26  C   UNL A   1      44.060  24.459  27.106  1.00  0.00     0.031 A 
ATOM     27  C   UNL A   1      46.907  30.292  27.730  1.00  0.00     0.049 A 
ATOM     28  C   UNL A   1      45.458  24.949  26.873  1.00  0.00     0.074 A 
ATOM     29  C   UNL A   1      48.245  30.605  27.558  1.00  0.00     0.029 A 
ATOM     30  N   UNL A   1      46.774  28.942  27.443  1.00  0.00    -0.354 N 
ATOM     31  N   UNL A   1      45.947  26.152  27.055  1.00  0.00    -0.248 NA
ATOM     32  C   UNL A   1      46.429  23.968  26.373  1.00  0.00     0.031 C 
ATOM     33  C   UNL A   1      48.909  29.458  27.113  1.00  0.00     0.029 A 
ATOM     34  C   UNL A   1      47.997  28.417  27.061  1.00  0.00     0.049 A 
ATOM     35  H   UNL A   1      45.934  28.433  27.503  1.00  0.00     0.167 HD
ATOM     36  C   UNL A   1      47.287  26.070  26.698  1.00  0.00     0.074 A 
ATOM     37  C   UNL A   1      47.537  24.693  26.320  1.00  0.00     0.031 C 
ATOM     38  C   UNL A   1      48.225  27.047  26.679  1.00  0.00     0.031 A 
BRANCH  25  39
ATOM     39  C   UNL A   1      46.147  32.627  28.295  1.00  0.00    -0.014 A 
ATOM     40  C   UNL A   1      46.653  33.121  29.510  1.00  0.00     0.010 A 
ATOM     41  C   UNL A   1      46.042  33.496  27.193  1.00  0.00     0.010 A 
ATOM     42  C   UNL A   1      47.038  34.462  29.621  1.00  0.00     0.020 A 
ATOM     43  C   UNL A   1      46.444  34.831  27.294  1.00  0.00     0.020 A 
ATOM     44  C   UNL A   1      46.935  35.308  28.512  1.00  0.00     0.054 A 
BRANCH  44  45
ATOM     45  S   UNL A   1      47.504  37.024  28.668  1.00  0.00     0.124 S 
ATOM     46  O   UNL A   1      48.952  36.853  28.751  1.00  0.00    -0.237 OA
ATOM     47  O   UNL A   1      47.015  37.637  27.436  1.00  0.00    -0.237 OA
ATOM     48  O   UNL A   1      46.861  37.493  29.894  1.00  0.00    -0.744 OA
ENDBRANCH  44  45
ENDBRANCH  25  39
BRANCH  26  49
ATOM     49  C   UNL A   1      43.685  23.047  26.832  1.00  0.00    -0.014 A 
ATOM     50  C   UNL A   1      44.097  22.408  25.651  1.00  0.00     0.010 A 
ATOM     51  C   UNL A   1      42.908  22.333  27.763  1.00  0.00     0.010 A 
ATOM     52  C   UNL A   1      43.714  21.088  25.392  1.00  0.00     0.020 A 
ATOM     53  C   UNL A   1      42.550  21.005  27.524  1.00  0.00     0.020 A 
ATOM     54  C   UNL A   1      42.941  20.397  26.329  1.00  0.00     0.054 A 
BRANCH  54  55
ATOM     55  S   UNL A   1      42.475  18.677  25.990  1.00  0.00     0.124 S 
ATOM     56  O   UNL A   1      43.323  18.356  24.846  1.00  0.00    -0.237 OA
ATOM     57  O   UNL A   1      42.816  18.003  27.240  1.00  0.00    -0.237 OA
ATOM     58  O   UNL A   1      41.044  18.761  25.708  1.00  0.00    -0.744 OA
ENDBRANCH  54  55
ENDBRANCH  26  49
BRANCH  38  59
ATOM     59  C   UNL A   1      49.610  26.655  26.244  1.00  0.00    -0.014 A 
ATOM     60  C   UNL A   1      50.489  26.003  27.129  1.00  0.00     0.010 A 
ATOM     61  C   UNL A   1      50.027  26.914  24.926  1.00  0.00     0.010 A 
ATOM     62  C   UNL A   1      51.773  25.649  26.711  1.00  0.00     0.020 A 
ATOM     63  C   UNL A   1      51.302  26.537  24.498  1.00  0.00     0.020 A 
ATOM     64  C   UNL A   1      52.173  25.920  25.399  1.00  0.00     0.054 A 
BRANCH  64  65
ATOM     65  S   UNL A   1      53.834  25.420  24.871  1.00  0.00     0.124 S 
ATOM     66  O   UNL A   1      53.939  26.053  23.560  1.00  0.00    -0.237 OA
ATOM     67  O   UNL A   1      54.687  25.986  25.913  1.00  0.00    -0.237 OA
ATOM     68  O   UNL A   1      53.766  23.960  24.855  1.00  0.00    -0.744 OA
ENDBRANCH  64  65
ENDBRANCH  38  59
ENDBRANCH  12  13
ENDBRANCH   5   7
ENDBRANCH   2   3
ENDBRANCH   1   2
BRANCH   1  69
ATOM     69  C   UNL A   1      32.973  28.558  27.530  1.00  0.00     0.023 C 
BRANCH  69  70
ATOM     70  C   UNL A   1      31.764  28.308  26.636  1.00  0.00     0.116 C 
BRANCH  70  71
ATOM     71  N   UNL A   1      31.098  27.043  26.917  1.00  0.00    -0.352 N 
ATOM     72  C   UNL A   1      30.697  26.063  26.037  1.00  0.00     0.256 C 
ATOM     73  H   UNL A   1      30.908  26.865  27.866  1.00  0.00     0.163 HD
ATOM     74  O   UNL A   1      30.179  25.031  26.451  1.00  0.00    -0.269 OA
BRANCH  72  75
ATOM     75  C   UNL A   1      30.938  26.252  24.607  1.00  0.00     0.100 A 
ATOM     76  C   UNL A   1      30.193  27.230  23.967  1.00  0.00     0.130 A 
ATOM     77  C   UNL A   1      31.903  25.598  23.853  1.00  0.00     0.144 A 
ATOM     78  N   UNL A   1      30.274  27.503  22.653  1.00  0.00    -0.244 NA
ATOM     79  N   UNL A   1      31.999  25.860  22.525  1.00  0.00    -0.219 NA
ATOM     80  C   UNL A   1      31.179  26.778  21.991  1.00  0.00     0.224 A 
BRANCH  77  81
ATOM     81  N   UNL A   1      32.872  24.726  24.332  1.00  0.00    -0.355 N 
ATOM     82  C   UNL A   1      34.273  25.117  24.466  1.00  0.00     0.124 C 
ATOM     83  C   UNL A   1      32.590  23.338  23.925  1.00  0.00     0.133 C 
ATOM     84  C   UNL A   1      35.017  24.141  25.383  1.00  0.00     0.087 C 
ATOM     85  C   UNL A   1      33.326  22.320  24.820  1.00  0.00     0.063 C 
ATOM     86  C   UNL A   1      34.825  22.705  24.878  1.00  0.00     0.194 C 
ATOM     87  C   UNL A   1      33.228  20.918  24.166  1.00  0.00     0.023 C 
ATOM     88  N   UNL A   1      35.590  21.739  25.687  1.00  0.00    -0.343 N 
ATOM     89  C   UNL A   1      34.100  19.896  24.896  1.00  0.00     0.062 C 
ATOM     90  C   UNL A   1      35.532  20.400  25.085  1.00  0.00     0.260 C 
ATOM     91  H   UNL A   1      35.195  21.701  26.626  1.00  0.00     0.346 HD
ATOM     92  H   UNL A   1      36.564  22.039  25.725  1.00  0.00     0.346 HD
BRANCH  85  93
ATOM     93  C   UNL A   1      32.669  22.314  26.226  1.00  0.00     0.171 C 
BRANCH  93  94
ATOM     94  O   UNL A   1      31.251  22.166  26.135  1.00  0.00    -0.395 OA
ATOM     95  H   UNL A   1      30.824  23.013  26.339  1.00  0.00     0.210 HD
ENDBRANCH  93  94
ENDBRANCH  85  93
ENDBRANCH  77  81
ENDBRANCH  72  75
ENDBRANCH  70  71
ENDBRANCH  69  70
ENDBRANCH   1  69
TORSDOF 17
ENDMDL
MODEL 2
REMARK VINA RESULT:     -12.0      0.421      8.112
REMARK SMILES O=C(NCCCCNC(=O)c1cncnc1N1CC[C@H]2[NH2+]CCC[C@]2(CO)C1)c1ccc(-c2c3nc(c(-c4ccc(S(=O)(=O)[O-])cc4)c4ccc([nH]4)c(-c4ccc(S(=O)(=O)[O-])cc4)c4nc(c(-c5ccc(S(=O)(=O)[O-])cc5)c5ccc2[nH]5)C=C4)C=C3)cc1
REMARK SMILES IDX 5 1 4 2 3 3 1 4 2 5 29 7 30 8 88 9 31 10 87 11 32 12 33 13
REMARK SMILES IDX 34 14 81 15 35 16 86 17 80 18 82 19 36 20 85 21 79 22 78 23
REMARK SMILES IDX 37 25 67 26 48 27 66 28 49 29 52 30 65 31 83 32 50 33 51 34
REMARK SMILES IDX 64 36 84 37 53 38 38 39 39 40 47 41 40 42 46 43 41 44 42 45
REMARK SMILES IDX 43 46 44 47 45 48 68 49 69 50 77 51 70 52 76 53 71 54 72 55
REMARK SMILES IDX 73 56 74 57 75 58 54 59 55 60 63 61 56 62 62 63 57 64 58 65
REMARK SMILES IDX 59 66 60 67 61 68 6 69 7 70 8 71 9 72 10 74 11 75 12 76
REMARK SMILES IDX 16 77 13 78 15 79 14 80 17 81 18 82 28 83 19 84 25 85 20 86
REMARK SMILES IDX 24 87 21 88 23 89 22 90 26 93 27 94
REMARK H PARENT 3 6 82 24 52 35 8 73 21 91 21 92 27 95
REMARK Flexibility Score: inf
ROOT
ATOM      1  C   UNL A   1      34.135  29.301  26.748  1.00  0.00     0.023 C 
ENDROOT
BRANCH   1   2
ATOM      2  C   UNL A   1      35.505  29.353  27.413  1.00  0.00     0.116 C 
BRANCH   2   3
ATOM      3  N   UNL A   1      35.444  29.717  28.819  1.00  0.00    -0.352 N 
ATOM      4  O   UNL A   1      36.188  29.897  30.940  1.00  0.00    -0.269 OA
ATOM      5  C   UNL A   1      36.445  29.677  29.766  1.00  0.00     0.251 C 
ATOM      6  H   UNL A   1      34.569  30.036  29.138  1.00  0.00     0.163 HD
BRANCH   5   7
ATOM      7  C   UNL A   1      37.825  29.338  29.349  1.00  0.00     0.039 A 
ATOM      8  C   UNL A   1      38.720  28.770  30.259  1.00  0.00     0.014 A 
ATOM      9  C   UNL A   1      38.226  29.597  28.036  1.00  0.00     0.014 A 
ATOM     10  C   UNL A   1      40.049  28.587  29.896  1.00  0.00     0.010 A 
ATOM     11  C   UNL A   1      39.543  29.332  27.648  1.00  0.00     0.010 A 
ATOM     12  C   UNL A   1      40.470  28.844  28.581  1.00  0.00    -0.014 A 
BRANCH  12  13
ATOM     13  C   UNL A   1      41.857  28.491  28.186  1.00  0.00     0.031 A 
ATOM     14  C   UNL A   1      42.220  27.104  27.733  1.00  0.00     0.074 A 
ATOM     15  C   UNL A   1      42.792  29.461  28.226  1.00  0.00     0.049 A 
ATOM     16  N   UNL A   1      43.383  26.652  27.338  1.00  0.00    -0.248 NA
ATOM     17  C   UNL A   1      41.151  26.092  27.724  1.00  0.00     0.031 C 
ATOM     18  C   UNL A   1      42.556  30.841  28.665  1.00  0.00     0.029 A 
ATOM     19  N   UNL A   1      44.119  29.448  27.882  1.00  0.00    -0.354 N 
ATOM     20  C   UNL A   1      43.196  25.304  27.055  1.00  0.00     0.074 A 
ATOM     21  C   UNL A   1      41.808  25.005  27.334  1.00  0.00     0.031 C 
ATOM     22  C   UNL A   1      43.685  31.548  28.525  1.00  0.00     0.029 A 
ATOM     23  C   UNL A   1      44.740  30.663  28.050  1.00  0.00     0.049 A 
ATOM     24  H   UNL A   1      44.581  28.647  27.545  1.00  0.00     0.167 HD
ATOM     25  C   UNL A   1      44.103  24.403  26.604  1.00  0.00     0.031 A 
ATOM     26  C   UNL A   1      46.024  31.024  27.870  1.00  0.00     0.031 A 
ATOM     27  C   UNL A   1      45.481  24.713  26.321  1.00  0.00     0.049 A 
ATOM     28  C   UNL A   1      47.007  29.996  27.393  1.00  0.00     0.074 A 
ATOM     29  C   UNL A   1      46.461  23.879  25.809  1.00  0.00     0.029 A 
ATOM     30  N   UNL A   1      46.080  25.946  26.533  1.00  0.00    -0.354 N 
ATOM     31  N   UNL A   1      46.793  28.741  27.077  1.00  0.00    -0.248 NA
ATOM     32  C   UNL A   1      48.402  30.429  27.251  1.00  0.00     0.031 C 
ATOM     33  C   UNL A   1      47.664  24.591  25.764  1.00  0.00     0.029 A 
ATOM     34  C   UNL A   1      47.422  25.884  26.196  1.00  0.00     0.049 A 
ATOM     35  H   UNL A   1      45.618  26.746  26.872  1.00  0.00     0.167 HD
ATOM     36  C   UNL A   1      48.029  28.236  26.692  1.00  0.00     0.074 A 
ATOM     37  C   UNL A   1      48.976  29.329  26.785  1.00  0.00     0.031 C 
ATOM     38  C   UNL A   1      48.352  26.979  26.303  1.00  0.00     0.031 A 
BRANCH  25  39
ATOM     39  C   UNL A   1      43.655  22.980  26.402  1.00  0.00    -0.014 A 
ATOM     40  C   UNL A   1      44.049  22.246  25.270  1.00  0.00     0.010 A 
ATOM     41  C   UNL A   1      42.921  22.334  27.415  1.00  0.00     0.010 A 
ATOM     42  C   UNL A   1      43.707  20.895  25.149  1.00  0.00     0.020 A 
ATOM     43  C   UNL A   1      42.594  20.979  27.308  1.00  0.00     0.020 A 
ATOM     44  C   UNL A   1      42.985  20.268  26.171  1.00  0.00     0.054 A 
BRANCH  44  45
ATOM     45  S   UNL A   1      42.613  18.499  26.017  1.00  0.00     0.124 S 
ATOM     46  O   UNL A   1      43.010  17.994  27.329  1.00  0.00    -0.237 OA
ATOM     47  O   UNL A   1      41.178  18.494  25.752  1.00  0.00    -0.237 OA
ATOM     48  O   UNL A   1      43.452  18.063  24.902  1.00  0.00    -0.744 OA
ENDBRANCH  44  45
ENDBRANCH  25  39
BRANCH  26  49
ATOM     49  C   UNL A   1      46.457  32.410  28.189  1.00  0.00    -0.014 A 
ATOM     50  C   UNL A   1      46.511  33.396  27.190  1.00  0.00     0.010 A 
ATOM     51  C   UNL A   1      46.818  32.748  29.507  1.00  0.00     0.010 A 
ATOM     52  C   UNL A   1      46.947  34.690  27.498  1.00  0.00     0.020 A 
ATOM     53  C   UNL A   1      47.223  34.045  29.825  1.00  0.00     0.020 A 
ATOM     54  C   UNL A   1      47.302  35.004  28.813  1.00  0.00     0.054 A 
BRANCH  54  55
ATOM     55  S   UNL A   1      47.840  36.692  29.201  1.00  0.00     0.124 S 
ATOM     56  O   UNL A   1      49.262  36.637  28.876  1.00  0.00    -0.237 OA
ATOM     57  O   UNL A   1      47.017  37.501  28.306  1.00  0.00    -0.237 OA
ATOM     58  O   UNL A   1      47.525  36.832  30.620  1.00  0.00    -0.744 OA
ENDBRANCH  54  55
ENDBRANCH  26  49
BRANCH  38  59
ATOM     59  C   UNL A   1      49.788  26.725  25.939  1.00  0.00    -0.014 A 
ATOM     60  C   UNL A   1      50.678  26.150  26.865  1.00  0.00     0.010 A 
ATOM     61  C   UNL A   1      50.246  27.037  24.647  1.00  0.00     0.010 A 
ATOM     62  C   UNL A   1      52.010  25.924  26.514  1.00  0.00     0.020 A 
ATOM     63  C   UNL A   1      51.572  26.787  24.285  1.00  0.00     0.020 A 
ATOM     64  C   UNL A   1      52.450  26.246  25.226  1.00  0.00     0.054 A 
BRANCH  64  65
ATOM     65  S   UNL A   1      54.176  25.912  24.783  1.00  0.00     0.124 S 
ATOM     66  O   UNL A   1      54.901  26.751  25.732  1.00  0.00    -0.237 OA
ATOM     67  O   UNL A   1      54.291  24.472  25.002  1.00  0.00    -0.237 OA
ATOM     68  O   UNL A   1      54.261  26.332  23.386  1.00  0.00    -0.744 OA
ENDBRANCH  64  65
ENDBRANCH  38  59
ENDBRANCH  12  13
ENDBRANCH   5   7
ENDBRANCH   2   3
ENDBRANCH   1   2
BRANCH   1  69
ATOM     69  C   UNL A   1      33.119  28.378  27.413  1.00  0.00     0.023 C 
BRANCH  69  70
ATOM     70  C   UNL A   1      31.755  28.317  26.735  1.00  0.00     0.116 C 
BRANCH  70  71
ATOM     71  N   UNL A   1      31.042  27.073  26.995  1.00  0.00    -0.352 N 
ATOM     72  C   UNL A   1      30.637  26.106  26.103  1.00  0.00     0.256 C 
ATOM     73  H   UNL A   1      30.819  26.901  27.938  1.00  0.00     0.163 HD
ATOM     74  O   UNL A   1      30.075  25.091  26.500  1.00  0.00    -0.269 OA
BRANCH  72  75
ATOM     75  C   UNL A   1      30.926  26.287  24.681  1.00  0.00     0.100 A 
ATOM     76  C   UNL A   1      30.161  27.220  23.998  1.00  0.00     0.130 A 
ATOM     77  C   UNL A   1      31.949  25.670  23.975  1.00  0.00     0.144 A 
ATOM     78  N   UNL A   1      30.281  27.479  22.684  1.00  0.00    -0.244 NA
ATOM     79  N   UNL A   1      32.086  25.919  22.648  1.00  0.00    -0.219 NA
ATOM     80  C   UNL A   1      31.245  26.789  22.069  1.00  0.00     0.224 A 
BRANCH  77  81
ATOM     81  N   UNL A   1      32.939  24.853  24.505  1.00  0.00    -0.355 N 
ATOM     82  C   UNL A   1      34.292  25.337  24.766  1.00  0.00     0.124 C 
ATOM     83  C   UNL A   1      32.794  23.464  24.033  1.00  0.00     0.133 C 
ATOM     84  C   UNL A   1      35.031  24.383  25.711  1.00  0.00     0.087 C 
ATOM     85  C   UNL A   1      33.529  22.468  24.953  1.00  0.00     0.063 C 
ATOM     86  C   UNL A   1      34.987  22.957  25.147  1.00  0.00     0.194 C 
ATOM     87  C   UNL A   1      33.589  21.088  24.250  1.00  0.00     0.023 C 
ATOM     88  N   UNL A   1      35.754  22.018  25.985  1.00  0.00    -0.343 N 
ATOM     89  C   UNL A   1      34.472  20.104  25.017  1.00  0.00     0.062 C 
ATOM     90  C   UNL A   1      35.844  20.701  25.339  1.00  0.00     0.260 C 
ATOM     91  H   UNL A   1      35.289  21.918  26.887  1.00  0.00     0.346 HD
ATOM     92  H   UNL A   1      36.697  22.386  26.113  1.00  0.00     0.346 HD
BRANCH  85  93
ATOM     93  C   UNL A   1      32.765  22.363  26.299  1.00  0.00     0.171 C 
BRANCH  93  94
ATOM     94  O   UNL A   1      31.352  22.310  26.091  1.00  0.00    -0.395 OA
ATOM     95  H   UNL A   1      31.095  22.991  25.449  1.00  0.00     0.210 HD
ENDBRANCH  93  94
ENDBRANCH  85  93
ENDBRANCH  77  81
ENDBRANCH  72  75
ENDBRANCH  70  71
ENDBRANCH  69  70
ENDBRANCH   1  69
TORSDOF 17
ENDMDL
MODEL 3
REMARK VINA RESULT:     -12.0      2.939      8.690
REMARK SMILES O=C(NCCCCNC(=O)c1cncnc1N1CC[C@H]2[NH2+]CCC[C@]2(CO)C1)c1ccc(-c2c3nc(c(-c4ccc(S(=O)(=O)[O-])cc4)c4ccc([nH]4)c(-c4ccc(S(=O)(=O)[O-])cc4)c4nc(c(-c5ccc(S(=O)(=O)[O-])cc5)c5ccc2[nH]5)C=C4)C=C3)cc1
REMARK SMILES IDX 5 1 4 2 3 3 1 4 2 5 29 7 30 8 88 9 31 10 87 11 32 12 33 13
REMARK SMILES IDX 34 14 81 15 35 16 86 17 80 18 82 19 36 20 85 21 79 22 78 23
REMARK SMILES IDX 37 25 67 26 48 27 66 28 49 29 52 30 65 31 83 32 50 33 51 34
REMARK SMILES IDX 64 36 84 37 53 38 38 39 39 40 47 41 40 42 46 43 41 44 42 45
REMARK SMILES IDX 43 46 44 47 45 48 68 49 69 50 77 51 70 52 76 53 71 54 72 55
REMARK SMILES IDX 73 56 74 57 75 58 54 59 55 60 63 61 56 62 62 63 57 64 58 65
REMARK SMILES IDX 59 66 60 67 61 68 6 69 7 70 8 71 9 72 10 74 11 75 12 76
REMARK SMILES IDX 16 77 13 78 15 79 14 80 17 81 18 82 28 83 19 84 25 85 20 86
REMARK SMILES IDX 24 87 21 88 23 89 22 90 26 93 27 94
REMARK H PARENT 3 6 82 24 52 35 8 73 21 91 21 92 27 95
REMARK Flexibility Score: inf
ROOT
ATOM      1  C   UNL A   1      33.281  28.082  25.624  1.00  0.00     0.023 C 
ENDROOT
BRANCH   1   2
ATOM      2  C   UNL A   1      34.080  28.435  26.872  1.00  0.00     0.116 C 
BRANCH   2   3
ATOM      3  N   UNL A   1      33.777  29.759  27.390  1.00  0.00    -0.352 N 
ATOM      4  O   UNL A   1      34.108  31.625  28.612  1.00  0.00    -0.269 OA
ATOM      5  C   UNL A   1      34.569  30.592  28.149  1.00  0.00     0.251 C 
ATOM      6  H   UNL A   1      32.884  30.108  27.167  1.00  0.00     0.163 HD
BRANCH   5   7
ATOM      7  C   UNL A   1      35.974  30.209  28.421  1.00  0.00     0.039 A 
ATOM      8  C   UNL A   1      36.957  30.381  27.444  1.00  0.00     0.014 A 
ATOM      9  C   UNL A   1      36.306  29.668  29.666  1.00  0.00     0.014 A 
ATOM     10  C   UNL A   1      38.239  29.889  27.661  1.00  0.00     0.010 A 
ATOM     11  C   UNL A   1      37.618  29.252  29.914  1.00  0.00     0.010 A 
ATOM     12  C   UNL A   1      38.590  29.340  28.906  1.00  0.00    -0.014 A 
BRANCH  12  13
ATOM     13  C   UNL A   1      40.005  28.968  29.157  1.00  0.00     0.031 A 
ATOM     14  C   UNL A   1      40.555  27.632  28.741  1.00  0.00     0.074 A 
ATOM     15  C   UNL A   1      40.800  29.876  29.757  1.00  0.00     0.049 A 
ATOM     16  N   UNL A   1      41.774  27.173  28.875  1.00  0.00    -0.248 NA
ATOM     17  C   UNL A   1      39.627  26.686  28.100  1.00  0.00     0.031 C 
ATOM     18  C   UNL A   1      40.368  31.200  30.219  1.00  0.00     0.029 A 
ATOM     19  N   UNL A   1      42.134  29.837  30.070  1.00  0.00    -0.354 N 
ATOM     20  C   UNL A   1      41.758  25.884  28.357  1.00  0.00     0.074 A 
ATOM     21  C   UNL A   1      40.404  25.624  27.916  1.00  0.00     0.031 C 
ATOM     22  C   UNL A   1      41.423  31.859  30.716  1.00  0.00     0.029 A 
ATOM     23  C   UNL A   1      42.590  30.987  30.670  1.00  0.00     0.049 A 
ATOM     24  H   UNL A   1      42.711  29.062  29.881  1.00  0.00     0.167 HD
ATOM     25  C   UNL A   1      42.782  25.000  28.262  1.00  0.00     0.031 A 
ATOM     26  C   UNL A   1      43.804  31.301  31.158  1.00  0.00     0.031 A 
ATOM     27  C   UNL A   1      44.129  25.272  28.696  1.00  0.00     0.049 A 
ATOM     28  C   UNL A   1      44.909  30.291  31.057  1.00  0.00     0.074 A 
ATOM     29  C   UNL A   1      45.245  24.458  28.589  1.00  0.00     0.029 A 
ATOM     30  N   UNL A   1      44.543  26.435  29.326  1.00  0.00    -0.354 N 
ATOM     31  N   UNL A   1      44.883  29.099  30.512  1.00  0.00    -0.248 NA
ATOM     32  C   UNL A   1      46.203  30.666  31.640  1.00  0.00     0.031 C 
ATOM     33  C   UNL A   1      46.320  25.107  29.205  1.00  0.00     0.029 A 
ATOM     34  C   UNL A   1      45.888  26.347  29.646  1.00  0.00     0.049 A 
ATOM     35  H   UNL A   1      43.966  27.209  29.517  1.00  0.00     0.167 HD
ATOM     36  C   UNL A   1      46.162  28.583  30.680  1.00  0.00     0.074 A 
ATOM     37  C   UNL A   1      46.942  29.605  31.349  1.00  0.00     0.031 C 
ATOM     38  C   UNL A   1      46.646  27.369  30.320  1.00  0.00     0.031 A 
BRANCH  25  39
ATOM     39  C   UNL A   1      42.498  23.639  27.683  1.00  0.00    -0.014 A 
ATOM     40  C   UNL A   1      42.708  23.369  26.320  1.00  0.00     0.010 A 
ATOM     41  C   UNL A   1      42.124  22.587  28.541  1.00  0.00     0.010 A 
ATOM     42  C   UNL A   1      42.536  22.072  25.822  1.00  0.00     0.020 A 
ATOM     43  C   UNL A   1      41.971  21.286  28.051  1.00  0.00     0.020 A 
ATOM     44  C   UNL A   1      42.173  21.038  26.692  1.00  0.00     0.054 A 
BRANCH  44  45
ATOM     45  S   UNL A   1      42.023  19.355  26.029  1.00  0.00     0.124 S 
ATOM     46  O   UNL A   1      40.583  19.249  25.804  1.00  0.00    -0.237 OA
ATOM     47  O   UNL A   1      42.843  19.411  24.823  1.00  0.00    -0.237 OA
ATOM     48  O   UNL A   1      42.549  18.511  27.100  1.00  0.00    -0.744 OA
ENDBRANCH  44  45
ENDBRANCH  25  39
BRANCH  26  49
ATOM     49  C   UNL A   1      44.020  32.611  31.826  1.00  0.00    -0.014 A 
ATOM     50  C   UNL A   1      44.427  33.737  31.090  1.00  0.00     0.010 A 
ATOM     51  C   UNL A   1      43.815  32.736  33.213  1.00  0.00     0.010 A 
ATOM     52  C   UNL A   1      44.653  34.957  31.736  1.00  0.00     0.020 A 
ATOM     53  C   UNL A   1      44.009  33.959  33.855  1.00  0.00     0.020 A 
ATOM     54  C   UNL A   1      44.445  35.059  33.114  1.00  0.00     0.054 A 
BRANCH  54  55
ATOM     55  S   UNL A   1      44.718  36.655  33.931  1.00  0.00     0.124 S 
ATOM     56  O   UNL A   1      43.574  36.730  34.834  1.00  0.00    -0.237 OA
ATOM     57  O   UNL A   1      46.018  36.468  34.569  1.00  0.00    -0.237 OA
ATOM     58  O   UNL A   1      44.708  37.609  32.825  1.00  0.00    -0.744 OA
ENDBRANCH  54  55
ENDBRANCH  26  49
BRANCH  38  59
ATOM     59  C   UNL A   1      48.089  27.089  30.634  1.00  0.00    -0.014 A 
ATOM     60  C   UNL A   1      49.101  27.377  29.700  1.00  0.00     0.010 A 
ATOM     61  C   UNL A   1      48.440  26.560  31.888  1.00  0.00     0.010 A 
ATOM     62  C   UNL A   1      50.437  27.108  30.004  1.00  0.00     0.020 A 
ATOM     63  C   UNL A   1      49.778  26.314  32.205  1.00  0.00     0.020 A 
ATOM     64  C   UNL A   1      50.767  26.576  31.255  1.00  0.00     0.054 A 
BRANCH  64  65
ATOM     65  S   UNL A   1      52.512  26.266  31.639  1.00  0.00     0.124 S 
ATOM     66  O   UNL A   1      52.739  27.166  32.766  1.00  0.00    -0.237 OA
ATOM     67  O   UNL A   1      52.523  24.841  31.960  1.00  0.00    -0.237 OA
ATOM     68  O   UNL A   1      53.206  26.625  30.404  1.00  0.00    -0.744 OA
ENDBRANCH  64  65
ENDBRANCH  38  59
ENDBRANCH  12  13
ENDBRANCH   5   7
ENDBRANCH   2   3
ENDBRANCH   1   2
BRANCH   1  69
ATOM     69  C   UNL A   1      34.041  28.197  24.306  1.00  0.00     0.023 C 
BRANCH  69  70
ATOM     70  C   UNL A   1      33.184  28.084  23.050  1.00  0.00     0.116 C 
BRANCH  70  71
ATOM     71  N   UNL A   1      33.435  26.864  22.294  1.00  0.00    -0.352 N 
ATOM     72  C   UNL A   1      32.979  25.588  22.536  1.00  0.00     0.256 C 
ATOM     73  H   UNL A   1      34.010  26.966  21.502  1.00  0.00     0.163 HD
ATOM     74  O   UNL A   1      33.257  24.672  21.769  1.00  0.00    -0.269 OA
BRANCH  72  75
ATOM     75  C   UNL A   1      32.121  25.349  23.697  1.00  0.00     0.100 A 
ATOM     76  C   UNL A   1      30.795  25.737  23.589  1.00  0.00     0.130 A 
ATOM     77  C   UNL A   1      32.495  24.695  24.863  1.00  0.00     0.144 A 
ATOM     78  N   UNL A   1      29.889  25.616  24.575  1.00  0.00    -0.244 NA
ATOM     79  N   UNL A   1      31.595  24.563  25.869  1.00  0.00    -0.219 NA
ATOM     80  C   UNL A   1      30.354  25.038  25.686  1.00  0.00     0.224 A 
BRANCH  77  81
ATOM     81  N   UNL A   1      33.711  24.065  25.100  1.00  0.00    -0.355 N 
ATOM     82  C   UNL A   1      34.983  24.779  25.036  1.00  0.00     0.124 C 
ATOM     83  C   UNL A   1      33.690  22.670  24.627  1.00  0.00     0.133 C 
ATOM     84  C   UNL A   1      36.086  23.975  25.732  1.00  0.00     0.087 C 
ATOM     85  C   UNL A   1      34.791  21.823  25.299  1.00  0.00     0.063 C 
ATOM     86  C   UNL A   1      36.145  22.559  25.144  1.00  0.00     0.194 C 
ATOM     87  C   UNL A   1      34.906  20.469  24.552  1.00  0.00     0.023 C 
ATOM     88  N   UNL A   1      37.246  21.774  25.730  1.00  0.00    -0.343 N 
ATOM     89  C   UNL A   1      36.107  19.660  25.038  1.00  0.00     0.062 C 
ATOM     90  C   UNL A   1      37.394  20.489  25.034  1.00  0.00     0.260 C 
ATOM     91  H   UNL A   1      37.046  21.600  26.714  1.00  0.00     0.346 HD
ATOM     92  H   UNL A   1      38.114  22.301  25.634  1.00  0.00     0.346 HD
BRANCH  85  93
ATOM     93  C   UNL A   1      34.417  21.595  26.788  1.00  0.00     0.171 C 
BRANCH  93  94
ATOM     94  O   UNL A   1      33.433  20.568  26.924  1.00  0.00    -0.395 OA
ATOM     95  H   UNL A   1      33.317  20.117  26.072  1.00  0.00     0.210 HD
ENDBRANCH  93  94
ENDBRANCH  85  93
ENDBRANCH  77  81
ENDBRANCH  72  75
ENDBRANCH  70  71
ENDBRANCH  69  70
ENDBRANCH   1  69
TORSDOF 17
ENDMDL
