MODEL 1
REMARK VINA RESULT:     -11.3      0.000      0.000
REMARK SMILES CS(=O)(=O)[C@@H]1CCC[C@@H](Sc2ccc(C(=O)NCCCCNC(=O)c3ccc(-c4c5nc(c(-c6ccc(S(=O)(=O)[O-])cc6)c6ccc([nH]6)c(-c6ccc(S(=O)(=O)[O-])cc6)c6nc(c(-c7ccc(S(=O)(=O)[O-])cc7)c7ccc4[nH]7)C=C6)C=C5)cc3)cn2)C1
REMARK SMILES IDX 19 1 18 2 17 3 15 4 16 5 14 7 11 8 12 9 86 10 13 11 85 12
REMARK SMILES IDX 10 13 9 14 5 15 6 16 87 17 7 18 8 19 2 20 1 21 3 22 4 23
REMARK SMILES IDX 20 24 21 25 22 26 23 27 24 29 25 30 26 31 84 32 27 33 83 34
REMARK SMILES IDX 28 35 29 36 30 37 77 38 31 39 82 40 76 41 78 42 32 43 81 44
REMARK SMILES IDX 75 45 74 46 33 48 63 49 44 50 62 51 45 52 48 53 61 54 79 55
REMARK SMILES IDX 46 56 47 57 60 59 80 60 49 61 34 62 35 63 43 64 36 65 42 66
REMARK SMILES IDX 37 67 38 68 39 69 40 70 41 71 64 72 65 73 73 74 66 75 72 76
REMARK SMILES IDX 67 77 68 78 69 79 70 80 71 81 50 82 51 83 59 84 52 85 58 86
REMARK SMILES IDX 53 87 54 88 55 89 56 90 57 91
REMARK H PARENT 17 6 22 28 78 47 48 58
REMARK Flexibility Score: inf
ROOT
ATOM      1  C   UNL A   1      39.361  21.889  26.139  1.00  0.00     0.023 C 
ENDROOT
BRANCH   1   2
ATOM      2  C   UNL A   1      38.083  22.503  25.548  1.00  0.00     0.116 C 
BRANCH   2   3
ATOM      3  N   UNL A   1      36.889  21.741  25.913  1.00  0.00    -0.352 N 
ATOM      4  C   UNL A   1      35.539  21.841  25.638  1.00  0.00     0.252 C 
ATOM      5  O   UNL A   1      34.798  20.956  26.063  1.00  0.00    -0.269 OA
ATOM      6  H   UNL A   1      37.097  20.976  26.495  1.00  0.00     0.163 HD
BRANCH   4   7
ATOM      7  C   UNL A   1      34.933  22.935  24.845  1.00  0.00     0.058 A 
ATOM      8  C   UNL A   1      33.847  24.976  23.266  1.00  0.00     0.096 A 
ATOM      9  C   UNL A   1      34.367  25.210  24.499  1.00  0.00     0.036 A 
ATOM     10  N   UNL A   1      33.915  23.734  22.749  1.00  0.00    -0.249 NA
ATOM     11  C   UNL A   1      34.770  24.199  25.340  1.00  0.00     0.018 A 
ATOM     12  C   UNL A   1      34.498  22.754  23.530  1.00  0.00     0.126 A 
BRANCH   8  13
ATOM     13  S   UNL A   1      33.015  26.300  22.406  1.00  0.00    -0.103 SA
BRANCH  13  14
ATOM     14  C   UNL A   1      31.516  26.888  23.440  1.00  0.00     0.054 C 
ATOM     15  C   UNL A   1      31.948  29.010  24.829  1.00  0.00     0.109 C 
ATOM     16  C   UNL A   1      30.785  29.739  24.134  1.00  0.00     0.020 C 
ATOM     17  C   UNL A   1      31.769  27.496  24.834  1.00  0.00     0.034 C 
ATOM     18  C   UNL A   1      30.241  29.120  22.835  1.00  0.00     0.002 C 
ATOM     19  C   UNL A   1      30.373  27.598  22.685  1.00  0.00     0.015 C 
BRANCH  15  20
ATOM     20  S   UNL A   1      32.292  29.704  26.458  1.00  0.00     0.150 S 
ATOM     21  C   UNL A   1      31.544  28.503  27.548  1.00  0.00     0.158 C 
ATOM     22  O   UNL A   1      31.530  30.933  26.602  1.00  0.00    -0.229 OA
ATOM     23  O   UNL A   1      33.719  29.690  26.688  1.00  0.00    -0.229 OA
ENDBRANCH  15  20
ENDBRANCH  13  14
ENDBRANCH   8  13
ENDBRANCH   4   7
ENDBRANCH   2   3
ENDBRANCH   1   2
BRANCH   1  24
ATOM     24  C   UNL A   1      39.912  22.680  27.330  1.00  0.00     0.023 C 
BRANCH  24  25
ATOM     25  C   UNL A   1      41.356  23.150  27.167  1.00  0.00     0.116 C 
BRANCH  25  26
ATOM     26  N   UNL A   1      41.561  24.018  26.017  1.00  0.00    -0.352 N 
ATOM     27  C   UNL A   1      41.605  25.395  25.997  1.00  0.00     0.251 C 
ATOM     28  H   UNL A   1      41.683  23.568  25.150  1.00  0.00     0.163 HD
ATOM     29  O   UNL A   1      41.683  25.997  24.932  1.00  0.00    -0.269 OA
BRANCH  27  30
ATOM     30  C   UNL A   1      41.513  26.133  27.276  1.00  0.00     0.039 A 
ATOM     31  C   UNL A   1      42.601  26.900  27.695  1.00  0.00     0.014 A 
ATOM     32  C   UNL A   1      40.330  26.119  28.019  1.00  0.00     0.014 A 
ATOM     33  C   UNL A   1      42.473  27.716  28.822  1.00  0.00     0.010 A 
ATOM     34  C   UNL A   1      40.178  26.993  29.090  1.00  0.00     0.010 A 
ATOM     35  C   UNL A   1      41.246  27.803  29.503  1.00  0.00    -0.014 A 
BRANCH  35  36
ATOM     36  C   UNL A   1      41.059  28.739  30.642  1.00  0.00     0.031 A 
ATOM     37  C   UNL A   1      41.916  28.610  31.873  1.00  0.00     0.074 A 
ATOM     38  C   UNL A   1      40.079  29.662  30.596  1.00  0.00     0.049 A 
ATOM     39  N   UNL A   1      41.864  29.294  32.988  1.00  0.00    -0.248 NA
ATOM     40  C   UNL A   1      42.948  27.561  31.862  1.00  0.00     0.031 C 
ATOM     41  C   UNL A   1      39.151  29.858  29.479  1.00  0.00     0.029 A 
ATOM     42  N   UNL A   1      39.693  30.608  31.513  1.00  0.00    -0.354 N 
ATOM     43  C   UNL A   1      42.846  28.753  33.809  1.00  0.00     0.074 A 
ATOM     44  C   UNL A   1      43.436  27.645  33.091  1.00  0.00     0.031 C 
ATOM     45  C   UNL A   1      38.323  30.877  29.766  1.00  0.00     0.029 A 
ATOM     46  C   UNL A   1      38.629  31.378  31.102  1.00  0.00     0.049 A 
ATOM     47  H   UNL A   1      40.136  30.724  32.385  1.00  0.00     0.167 HD
ATOM     48  C   UNL A   1      43.242  29.157  35.040  1.00  0.00     0.031 A 
ATOM     49  C   UNL A   1      37.966  32.367  31.732  1.00  0.00     0.031 A 
ATOM     50  C   UNL A   1      42.655  30.262  35.751  1.00  0.00     0.049 A 
ATOM     51  C   UNL A   1      38.408  32.784  33.109  1.00  0.00     0.074 A 
ATOM     52  C   UNL A   1      43.014  30.776  36.985  1.00  0.00     0.029 A 
ATOM     53  N   UNL A   1      41.586  31.020  35.297  1.00  0.00    -0.354 N 
ATOM     54  N   UNL A   1      39.384  32.302  33.841  1.00  0.00    -0.248 NA
ATOM     55  C   UNL A   1      37.669  33.887  33.738  1.00  0.00     0.031 C 
ATOM     56  C   UNL A   1      42.123  31.807  37.302  1.00  0.00     0.029 A 
ATOM     57  C   UNL A   1      41.256  31.982  36.237  1.00  0.00     0.049 A 
ATOM     58  H   UNL A   1      41.130  30.892  34.434  1.00  0.00     0.167 HD
ATOM     59  C   UNL A   1      39.393  33.062  35.006  1.00  0.00     0.074 A 
ATOM     60  C   UNL A   1      38.340  34.047  34.872  1.00  0.00     0.031 C 
ATOM     61  C   UNL A   1      40.204  32.956  36.089  1.00  0.00     0.031 A 
BRANCH  48  62
ATOM     62  C   UNL A   1      44.367  28.397  35.695  1.00  0.00    -0.014 A 
ATOM     63  C   UNL A   1      45.708  28.775  35.498  1.00  0.00     0.010 A 
ATOM     64  C   UNL A   1      44.080  27.319  36.552  1.00  0.00     0.010 A 
ATOM     65  C   UNL A   1      46.742  28.062  36.110  1.00  0.00     0.020 A 
ATOM     66  C   UNL A   1      45.111  26.624  37.192  1.00  0.00     0.020 A 
ATOM     67  C   UNL A   1      46.436  26.991  36.954  1.00  0.00     0.054 A 
BRANCH  67  68
ATOM     68  S   UNL A   1      47.800  26.102  37.755  1.00  0.00     0.124 S 
ATOM     69  O   UNL A   1      47.318  24.723  37.724  1.00  0.00    -0.237 OA
ATOM     70  O   UNL A   1      48.929  26.392  36.876  1.00  0.00    -0.237 OA
ATOM     71  O   UNL A   1      47.874  26.705  39.084  1.00  0.00    -0.744 OA
ENDBRANCH  67  68
ENDBRANCH  48  62
BRANCH  49  72
ATOM     72  C   UNL A   1      36.813  33.035  31.063  1.00  0.00    -0.014 A 
ATOM     73  C   UNL A   1      35.495  32.800  31.495  1.00  0.00     0.010 A 
ATOM     74  C   UNL A   1      37.031  33.916  29.989  1.00  0.00     0.010 A 
ATOM     75  C   UNL A   1      34.418  33.416  30.852  1.00  0.00     0.020 A 
ATOM     76  C   UNL A   1      35.959  34.560  29.364  1.00  0.00     0.020 A 
ATOM     77  C   UNL A   1      34.656  34.295  29.791  1.00  0.00     0.054 A 
BRANCH  77  78
ATOM     78  S   UNL A   1      33.246  35.120  29.002  1.00  0.00     0.124 S 
ATOM     79  O   UNL A   1      32.780  34.098  28.071  1.00  0.00    -0.237 OA
ATOM     80  O   UNL A   1      32.367  35.392  30.137  1.00  0.00    -0.237 OA
ATOM     81  O   UNL A   1      33.843  36.303  28.387  1.00  0.00    -0.744 OA
ENDBRANCH  77  78
ENDBRANCH  49  72
BRANCH  61  82
ATOM     82  C   UNL A   1      40.011  33.952  37.203  1.00  0.00    -0.014 A 
ATOM     83  C   UNL A   1      40.786  35.123  37.283  1.00  0.00     0.010 A 
ATOM     84  C   UNL A   1      38.995  33.738  38.154  1.00  0.00     0.010 A 
ATOM     85  C   UNL A   1      40.571  36.044  38.312  1.00  0.00     0.020 A 
ATOM     86  C   UNL A   1      38.754  34.672  39.163  1.00  0.00     0.020 A 
ATOM     87  C   UNL A   1      39.554  35.813  39.244  1.00  0.00     0.054 A 
BRANCH  87  88
ATOM     88  S   UNL A   1      39.265  37.047  40.542  1.00  0.00     0.124 S 
ATOM     89  O   UNL A   1      40.567  37.702  40.633  1.00  0.00    -0.237 OA
ATOM     90  O   UNL A   1      38.191  37.859  39.976  1.00  0.00    -0.237 OA
ATOM     91  O   UNL A   1      38.887  36.246  41.704  1.00  0.00    -0.744 OA
ENDBRANCH  87  88
ENDBRANCH  61  82
ENDBRANCH  35  36
ENDBRANCH  27  30
ENDBRANCH  25  26
ENDBRANCH  24  25
ENDBRANCH   1  24
TORSDOF 17
ENDMDL
MODEL 2
REMARK VINA RESULT:     -11.0      1.329      8.274
REMARK SMILES CS(=O)(=O)[C@@H]1CCC[C@@H](Sc2ccc(C(=O)NCCCCNC(=O)c3ccc(-c4c5nc(c(-c6ccc(S(=O)(=O)[O-])cc6)c6ccc([nH]6)c(-c6ccc(S(=O)(=O)[O-])cc6)c6nc(c(-c7ccc(S(=O)(=O)[O-])cc7)c7ccc4[nH]7)C=C6)C=C5)cc3)cn2)C1
REMARK SMILES IDX 19 1 18 2 17 3 15 4 16 5 14 7 11 8 12 9 86 10 13 11 85 12
REMARK SMILES IDX 10 13 9 14 5 15 6 16 87 17 7 18 8 19 2 20 1 21 3 22 4 23
REMARK SMILES IDX 20 24 21 25 22 26 23 27 24 29 25 30 26 31 84 32 27 33 83 34
REMARK SMILES IDX 28 35 29 36 30 37 77 38 31 39 82 40 76 41 78 42 32 43 81 44
REMARK SMILES IDX 75 45 74 46 33 48 63 49 44 50 62 51 45 52 48 53 61 54 79 55
REMARK SMILES IDX 46 56 47 57 60 59 80 60 49 61 34 62 35 63 43 64 36 65 42 66
REMARK SMILES IDX 37 67 38 68 39 69 40 70 41 71 64 72 65 73 73 74 66 75 72 76
REMARK SMILES IDX 67 77 68 78 69 79 70 80 71 81 50 82 51 83 59 84 52 85 58 86
REMARK SMILES IDX 53 87 54 88 55 89 56 90 57 91
REMARK H PARENT 17 6 22 28 78 47 48 58
REMARK Flexibility Score: inf
ROOT
ATOM      1  C   UNL A   1      39.550  21.571  26.246  1.00  0.00     0.023 C 
ENDROOT
BRANCH   1   2
ATOM      2  C   UNL A   1      38.118  22.081  26.028  1.00  0.00     0.116 C 
BRANCH   2   3
ATOM      3  N   UNL A   1      37.828  22.310  24.612  1.00  0.00    -0.352 N 
ATOM      4  C   UNL A   1      36.735  22.755  23.895  1.00  0.00     0.252 C 
ATOM      5  O   UNL A   1      36.865  22.903  22.681  1.00  0.00    -0.269 OA
ATOM      6  H   UNL A   1      38.594  22.094  24.034  1.00  0.00     0.163 HD
BRANCH   4   7
ATOM      7  C   UNL A   1      35.424  23.086  24.499  1.00  0.00     0.058 A 
ATOM      8  C   UNL A   1      32.993  23.727  25.733  1.00  0.00     0.096 A 
ATOM      9  C   UNL A   1      33.172  22.576  25.032  1.00  0.00     0.036 A 
ATOM     10  N   UNL A   1      34.038  24.560  25.904  1.00  0.00    -0.249 NA
ATOM     11  C   UNL A   1      34.309  22.319  24.303  1.00  0.00     0.018 A 
ATOM     12  C   UNL A   1      35.240  24.198  25.324  1.00  0.00     0.126 A 
BRANCH   8  13
ATOM     13  S   UNL A   1      31.364  24.138  26.332  1.00  0.00    -0.103 SA
BRANCH  13  14
ATOM     14  C   UNL A   1      30.540  25.382  25.134  1.00  0.00     0.054 C 
ATOM     15  C   UNL A   1      32.097  27.256  24.309  1.00  0.00     0.109 C 
ATOM     16  C   UNL A   1      31.856  26.853  22.844  1.00  0.00     0.020 C 
ATOM     17  C   UNL A   1      30.938  26.869  25.220  1.00  0.00     0.034 C 
ATOM     18  C   UNL A   1      31.229  25.473  22.586  1.00  0.00     0.002 C 
ATOM     19  C   UNL A   1      30.309  24.915  23.682  1.00  0.00     0.015 C 
BRANCH  15  20
ATOM     20  S   UNL A   1      32.586  28.986  24.453  1.00  0.00     0.150 S 
ATOM     21  C   UNL A   1      33.698  28.952  25.851  1.00  0.00     0.158 C 
ATOM     22  O   UNL A   1      31.424  29.758  24.860  1.00  0.00    -0.229 OA
ATOM     23  O   UNL A   1      33.348  29.362  23.284  1.00  0.00    -0.229 OA
ENDBRANCH  15  20
ENDBRANCH  13  14
ENDBRANCH   8  13
ENDBRANCH   4   7
ENDBRANCH   2   3
ENDBRANCH   1   2
BRANCH   1  24
ATOM     24  C   UNL A   1      40.438  22.573  26.993  1.00  0.00     0.023 C 
BRANCH  24  25
ATOM     25  C   UNL A   1      40.092  24.039  26.742  1.00  0.00     0.116 C 
BRANCH  25  26
ATOM     26  N   UNL A   1      40.969  24.690  25.781  1.00  0.00    -0.352 N 
ATOM     27  C   UNL A   1      41.419  25.992  25.797  1.00  0.00     0.251 C 
ATOM     28  H   UNL A   1      41.278  24.134  25.029  1.00  0.00     0.163 HD
ATOM     29  O   UNL A   1      42.074  26.432  24.859  1.00  0.00    -0.269 OA
BRANCH  27  30
ATOM     30  C   UNL A   1      41.063  26.858  26.942  1.00  0.00     0.039 A 
ATOM     31  C   UNL A   1      40.273  26.335  27.967  1.00  0.00     0.014 A 
ATOM     32  C   UNL A   1      41.567  28.158  27.031  1.00  0.00     0.014 A 
ATOM     33  C   UNL A   1      40.055  27.092  29.120  1.00  0.00     0.010 A 
ATOM     34  C   UNL A   1      41.416  28.876  28.213  1.00  0.00     0.010 A 
ATOM     35  C   UNL A   1      40.661  28.351  29.272  1.00  0.00    -0.014 A 
BRANCH  35  36
ATOM     36  C   UNL A   1      40.522  29.129  30.530  1.00  0.00     0.031 A 
ATOM     37  C   UNL A   1      39.482  30.213  30.637  1.00  0.00     0.074 A 
ATOM     38  C   UNL A   1      41.371  28.905  31.553  1.00  0.00     0.049 A 
ATOM     39  N   UNL A   1      39.248  31.034  31.629  1.00  0.00    -0.248 NA
ATOM     40  C   UNL A   1      38.608  30.417  29.471  1.00  0.00     0.031 C 
ATOM     41  C   UNL A   1      42.452  27.916  31.556  1.00  0.00     0.029 A 
ATOM     42  N   UNL A   1      41.466  29.499  32.787  1.00  0.00    -0.354 N 
ATOM     43  C   UNL A   1      38.210  31.854  31.203  1.00  0.00     0.074 A 
ATOM     44  C   UNL A   1      37.903  31.476  29.842  1.00  0.00     0.031 C 
ATOM     45  C   UNL A   1      43.081  27.953  32.742  1.00  0.00     0.029 A 
ATOM     46  C   UNL A   1      42.481  28.996  33.568  1.00  0.00     0.049 A 
ATOM     47  H   UNL A   1      40.862  30.218  33.086  1.00  0.00     0.167 HD
ATOM     48  C   UNL A   1      37.553  32.820  31.889  1.00  0.00     0.031 A 
ATOM     49  C   UNL A   1      42.892  29.342  34.804  1.00  0.00     0.031 A 
ATOM     50  C   UNL A   1      37.861  33.193  33.245  1.00  0.00     0.049 A 
ATOM     51  C   UNL A   1      42.162  30.433  35.539  1.00  0.00     0.074 A 
ATOM     52  C   UNL A   1      37.226  34.129  34.042  1.00  0.00     0.029 A 
ATOM     53  N   UNL A   1      38.890  32.655  34.002  1.00  0.00    -0.354 N 
ATOM     54  N   UNL A   1      41.139  31.152  35.142  1.00  0.00    -0.248 NA
ATOM     55  C   UNL A   1      42.632  30.750  36.895  1.00  0.00     0.031 C 
ATOM     56  C   UNL A   1      37.909  34.199  35.261  1.00  0.00     0.029 A 
ATOM     57  C   UNL A   1      38.924  33.256  35.249  1.00  0.00     0.049 A 
ATOM     58  H   UNL A   1      39.506  31.950  33.698  1.00  0.00     0.167 HD
ATOM     59  C   UNL A   1      40.826  31.987  36.210  1.00  0.00     0.074 A 
ATOM     60  C   UNL A   1      41.755  31.670  37.274  1.00  0.00     0.031 C 
ATOM     61  C   UNL A   1      39.855  32.930  36.300  1.00  0.00     0.031 A 
BRANCH  48  62
ATOM     62  C   UNL A   1      36.434  33.540  31.182  1.00  0.00    -0.014 A 
ATOM     63  C   UNL A   1      36.579  33.980  29.854  1.00  0.00     0.010 A 
ATOM     64  C   UNL A   1      35.206  33.742  31.838  1.00  0.00     0.010 A 
ATOM     65  C   UNL A   1      35.534  34.646  29.210  1.00  0.00     0.020 A 
ATOM     66  C   UNL A   1      34.146  34.380  31.185  1.00  0.00     0.020 A 
ATOM     67  C   UNL A   1      34.324  34.843  29.880  1.00  0.00     0.054 A 
BRANCH  67  68
ATOM     68  S   UNL A   1      32.977  35.688  29.007  1.00  0.00     0.124 S 
ATOM     69  O   UNL A   1      32.392  34.597  28.231  1.00  0.00    -0.237 OA
ATOM     70  O   UNL A   1      32.153  36.190  30.104  1.00  0.00    -0.237 OA
ATOM     71  O   UNL A   1      33.660  36.713  28.223  1.00  0.00    -0.744 OA
ENDBRANCH  67  68
ENDBRANCH  48  62
BRANCH  49  72
ATOM     72  C   UNL A   1      44.053  28.643  35.426  1.00  0.00    -0.014 A 
ATOM     73  C   UNL A   1      43.864  27.490  36.208  1.00  0.00     0.010 A 
ATOM     74  C   UNL A   1      45.358  29.129  35.231  1.00  0.00     0.010 A 
ATOM     75  C   UNL A   1      44.956  26.850  36.802  1.00  0.00     0.020 A 
ATOM     76  C   UNL A   1      46.456  28.473  35.796  1.00  0.00     0.020 A 
ATOM     77  C   UNL A   1      46.247  27.345  36.590  1.00  0.00     0.054 A 
BRANCH  77  78
ATOM     78  S   UNL A   1      47.653  26.470  37.332  1.00  0.00     0.124 S 
ATOM     79  O   UNL A   1      48.449  26.126  36.159  1.00  0.00    -0.237 OA
ATOM     80  O   UNL A   1      48.226  27.487  38.211  1.00  0.00    -0.237 OA
ATOM     81  O   UNL A   1      47.029  25.342  38.019  1.00  0.00    -0.744 OA
ENDBRANCH  77  78
ENDBRANCH  49  72
BRANCH  61  82
ATOM     82  C   UNL A   1      39.719  33.665  37.609  1.00  0.00    -0.014 A 
ATOM     83  C   UNL A   1      40.260  34.950  37.789  1.00  0.00     0.010 A 
ATOM     84  C   UNL A   1      38.983  33.079  38.657  1.00  0.00     0.010 A 
ATOM     85  C   UNL A   1      40.098  35.621  39.004  1.00  0.00     0.020 A 
ATOM     86  C   UNL A   1      38.790  33.761  39.860  1.00  0.00     0.020 A 
ATOM     87  C   UNL A   1      39.361  35.023  40.031  1.00  0.00     0.054 A 
BRANCH  87  88
ATOM     88  S   UNL A   1      39.126  35.934  41.581  1.00  0.00     0.124 S 
ATOM     89  O   UNL A   1      40.233  35.441  42.395  1.00  0.00    -0.237 OA
ATOM     90  O   UNL A   1      39.234  37.326  41.151  1.00  0.00    -0.237 OA
ATOM     91  O   UNL A   1      37.795  35.526  42.026  1.00  0.00    -0.744 OA
ENDBRANCH  87  88
ENDBRANCH  61  82
ENDBRANCH  35  36
ENDBRANCH  27  30
ENDBRANCH  25  26
ENDBRANCH  24  25
ENDBRANCH   1  24
TORSDOF 17
ENDMDL
MODEL 3
REMARK VINA RESULT:     -11.0      6.100      8.252
REMARK SMILES CS(=O)(=O)[C@@H]1CCC[C@@H](Sc2ccc(C(=O)NCCCCNC(=O)c3ccc(-c4c5nc(c(-c6ccc(S(=O)(=O)[O-])cc6)c6ccc([nH]6)c(-c6ccc(S(=O)(=O)[O-])cc6)c6nc(c(-c7ccc(S(=O)(=O)[O-])cc7)c7ccc4[nH]7)C=C6)C=C5)cc3)cn2)C1
REMARK SMILES IDX 19 1 18 2 17 3 15 4 16 5 14 7 11 8 12 9 86 10 13 11 85 12
REMARK SMILES IDX 10 13 9 14 5 15 6 16 87 17 7 18 8 19 2 20 1 21 3 22 4 23
REMARK SMILES IDX 20 24 21 25 22 26 23 27 24 29 25 30 26 31 84 32 27 33 83 34
REMARK SMILES IDX 28 35 29 36 30 37 77 38 31 39 82 40 76 41 78 42 32 43 81 44
REMARK SMILES IDX 75 45 74 46 33 48 63 49 44 50 62 51 45 52 48 53 61 54 79 55
REMARK SMILES IDX 46 56 47 57 60 59 80 60 49 61 34 62 35 63 43 64 36 65 42 66
REMARK SMILES IDX 37 67 38 68 39 69 40 70 41 71 64 72 65 73 73 74 66 75 72 76
REMARK SMILES IDX 67 77 68 78 69 79 70 80 71 81 50 82 51 83 59 84 52 85 58 86
REMARK SMILES IDX 53 87 54 88 55 89 56 90 57 91
REMARK H PARENT 17 6 22 28 78 47 48 58
REMARK Flexibility Score: inf
ROOT
ATOM      1  C   UNL A   1      39.292  23.215  26.723  1.00  0.00     0.023 C 
ENDROOT
BRANCH   1   2
ATOM      2  C   UNL A   1      38.094  23.974  26.132  1.00  0.00     0.116 C 
BRANCH   2   3
ATOM      3  N   UNL A   1      37.779  23.528  24.775  1.00  0.00    -0.352 N 
ATOM      4  C   UNL A   1      36.620  23.346  24.047  1.00  0.00     0.252 C 
ATOM      5  O   UNL A   1      36.727  23.020  22.866  1.00  0.00    -0.269 OA
ATOM      6  H   UNL A   1      38.586  23.303  24.258  1.00  0.00     0.163 HD
BRANCH   4   7
ATOM      7  C   UNL A   1      35.257  23.542  24.594  1.00  0.00     0.058 A 
ATOM      8  C   UNL A   1      32.676  24.002  25.576  1.00  0.00     0.096 A 
ATOM      9  C   UNL A   1      33.722  23.706  26.392  1.00  0.00     0.036 A 
ATOM     10  N   UNL A   1      32.894  24.150  24.255  1.00  0.00    -0.249 NA
ATOM     11  C   UNL A   1      34.957  23.337  25.912  1.00  0.00     0.018 A 
ATOM     12  C   UNL A   1      34.187  23.963  23.801  1.00  0.00     0.126 A 
BRANCH   8  13
ATOM     13  S   UNL A   1      31.034  24.103  26.268  1.00  0.00    -0.103 SA
BRANCH  13  14
ATOM     14  C   UNL A   1      30.334  25.863  25.993  1.00  0.00     0.054 C 
ATOM     15  C   UNL A   1      31.948  27.475  24.803  1.00  0.00     0.109 C 
ATOM     16  C   UNL A   1      30.925  27.719  23.680  1.00  0.00     0.020 C 
ATOM     17  C   UNL A   1      31.289  27.068  26.116  1.00  0.00     0.034 C 
ATOM     18  C   UNL A   1      29.753  26.729  23.566  1.00  0.00     0.002 C 
ATOM     19  C   UNL A   1      29.300  26.042  24.862  1.00  0.00     0.015 C 
BRANCH  15  20
ATOM     20  S   UNL A   1      33.099  28.855  24.967  1.00  0.00     0.150 S 
ATOM     21  C   UNL A   1      33.742  29.012  23.309  1.00  0.00     0.158 C 
ATOM     22  O   UNL A   1      34.205  28.431  25.809  1.00  0.00    -0.229 OA
ATOM     23  O   UNL A   1      32.356  30.057  25.275  1.00  0.00    -0.229 OA
ENDBRANCH  15  20
ENDBRANCH  13  14
ENDBRANCH   8  13
ENDBRANCH   4   7
ENDBRANCH   2   3
ENDBRANCH   1   2
BRANCH   1  24
ATOM     24  C   UNL A   1      39.483  21.823  26.112  1.00  0.00     0.023 C 
BRANCH  24  25
ATOM     25  C   UNL A   1      40.234  20.836  27.002  1.00  0.00     0.116 C 
BRANCH  25  26
ATOM     26  N   UNL A   1      41.073  19.904  26.262  1.00  0.00    -0.352 N 
ATOM     27  C   UNL A   1      42.327  20.131  25.739  1.00  0.00     0.251 C 
ATOM     28  H   UNL A   1      40.699  19.004  26.119  1.00  0.00     0.163 HD
ATOM     29  O   UNL A   1      42.872  19.279  25.047  1.00  0.00    -0.269 OA
BRANCH  27  30
ATOM     30  C   UNL A   1      42.983  21.433  25.990  1.00  0.00     0.039 A 
ATOM     31  C   UNL A   1      43.070  22.360  24.950  1.00  0.00     0.014 A 
ATOM     32  C   UNL A   1      43.443  21.759  27.268  1.00  0.00     0.014 A 
ATOM     33  C   UNL A   1      43.551  23.644  25.214  1.00  0.00     0.010 A 
ATOM     34  C   UNL A   1      43.844  23.062  27.545  1.00  0.00     0.010 A 
ATOM     35  C   UNL A   1      43.901  24.020  26.522  1.00  0.00    -0.014 A 
BRANCH  35  36
ATOM     36  C   UNL A   1      44.320  25.410  26.842  1.00  0.00     0.031 A 
ATOM     37  C   UNL A   1      45.748  25.835  26.631  1.00  0.00     0.074 A 
ATOM     38  C   UNL A   1      43.432  26.270  27.379  1.00  0.00     0.049 A 
ATOM     39  N   UNL A   1      46.315  26.983  26.903  1.00  0.00    -0.248 NA
ATOM     40  C   UNL A   1      46.666  24.833  26.065  1.00  0.00     0.031 C 
ATOM     41  C   UNL A   1      42.029  25.966  27.676  1.00  0.00     0.029 A 
ATOM     42  N   UNL A   1      43.576  27.575  27.779  1.00  0.00    -0.354 N 
ATOM     43  C   UNL A   1      47.651  26.838  26.550  1.00  0.00     0.074 A 
ATOM     44  C   UNL A   1      47.826  25.473  26.106  1.00  0.00     0.031 C 
ATOM     45  C   UNL A   1      41.438  27.060  28.184  1.00  0.00     0.029 A 
ATOM     46  C   UNL A   1      42.426  28.129  28.292  1.00  0.00     0.049 A 
ATOM     47  H   UNL A   1      44.425  28.069  27.706  1.00  0.00     0.167 HD
ATOM     48  C   UNL A   1      48.640  27.763  26.570  1.00  0.00     0.031 A 
ATOM     49  C   UNL A   1      42.193  29.354  28.804  1.00  0.00     0.031 A 
ATOM     50  C   UNL A   1      48.463  29.121  27.012  1.00  0.00     0.049 A 
ATOM     51  C   UNL A   1      43.313  30.357  28.838  1.00  0.00     0.074 A 
ATOM     52  C   UNL A   1      49.392  30.146  27.030  1.00  0.00     0.029 A 
ATOM     53  N   UNL A   1      47.281  29.643  27.517  1.00  0.00    -0.354 N 
ATOM     54  N   UNL A   1      44.555  30.220  28.438  1.00  0.00    -0.248 NA
ATOM     55  C   UNL A   1      42.997  31.687  29.379  1.00  0.00     0.031 C 
ATOM     56  C   UNL A   1      48.788  31.272  27.601  1.00  0.00     0.029 A 
ATOM     57  C   UNL A   1      47.464  30.969  27.872  1.00  0.00     0.049 A 
ATOM     58  H   UNL A   1      46.437  29.144  27.608  1.00  0.00     0.167 HD
ATOM     59  C   UNL A   1      45.160  31.454  28.653  1.00  0.00     0.074 A 
ATOM     60  C   UNL A   1      44.144  32.329  29.199  1.00  0.00     0.031 C 
ATOM     61  C   UNL A   1      46.442  31.828  28.416  1.00  0.00     0.031 A 
BRANCH  48  62
ATOM     62  C   UNL A   1      50.006  27.334  26.098  1.00  0.00    -0.014 A 
ATOM     63  C   UNL A   1      50.942  26.782  26.991  1.00  0.00     0.010 A 
ATOM     64  C   UNL A   1      50.344  27.444  24.737  1.00  0.00     0.010 A 
ATOM     65  C   UNL A   1      52.205  26.389  26.541  1.00  0.00     0.020 A 
ATOM     66  C   UNL A   1      51.595  27.021  24.276  1.00  0.00     0.020 A 
ATOM     67  C   UNL A   1      52.523  26.512  25.186  1.00  0.00     0.054 A 
BRANCH  67  68
ATOM     68  S   UNL A   1      54.162  25.968  24.628  1.00  0.00     0.124 S 
ATOM     69  O   UNL A   1      55.044  26.672  25.556  1.00  0.00    -0.237 OA
ATOM     70  O   UNL A   1      54.093  24.520  24.803  1.00  0.00    -0.237 OA
ATOM     71  O   UNL A   1      54.226  26.425  23.242  1.00  0.00    -0.744 OA
ENDBRANCH  67  68
ENDBRANCH  48  62
BRANCH  49  72
ATOM     72  C   UNL A   1      40.839  29.698  29.324  1.00  0.00    -0.014 A 
ATOM     73  C   UNL A   1      40.628  29.908  30.699  1.00  0.00     0.010 A 
ATOM     74  C   UNL A   1      39.752  29.823  28.441  1.00  0.00     0.010 A 
ATOM     75  C   UNL A   1      39.352  30.214  31.181  1.00  0.00     0.020 A 
ATOM     76  C   UNL A   1      38.481  30.162  28.915  1.00  0.00     0.020 A 
ATOM     77  C   UNL A   1      38.286  30.342  30.285  1.00  0.00     0.054 A 
BRANCH  77  78
ATOM     78  S   UNL A   1      36.649  30.786  30.929  1.00  0.00     0.124 S 
ATOM     79  O   UNL A   1      35.905  31.056  29.703  1.00  0.00    -0.237 OA
ATOM     80  O   UNL A   1      36.259  29.580  31.654  1.00  0.00    -0.237 OA
ATOM     81  O   UNL A   1      36.917  31.951  31.769  1.00  0.00    -0.744 OA
ENDBRANCH  77  78
ENDBRANCH  49  72
BRANCH  61  82
ATOM     82  C   UNL A   1      46.815  33.258  28.710  1.00  0.00    -0.014 A 
ATOM     83  C   UNL A   1      47.359  33.634  29.951  1.00  0.00     0.010 A 
ATOM     84  C   UNL A   1      46.671  34.231  27.703  1.00  0.00     0.010 A 
ATOM     85  C   UNL A   1      47.721  34.963  30.190  1.00  0.00     0.020 A 
ATOM     86  C   UNL A   1      47.063  35.553  27.927  1.00  0.00     0.020 A 
ATOM     87  C   UNL A   1      47.572  35.913  29.175  1.00  0.00     0.054 A 
BRANCH  87  88
ATOM     88  S   UNL A   1      48.093  37.621  29.496  1.00  0.00     0.124 S 
ATOM     89  O   UNL A   1      48.074  37.675  30.955  1.00  0.00    -0.237 OA
ATOM     90  O   UNL A   1      49.417  37.671  28.882  1.00  0.00    -0.237 OA
ATOM     91  O   UNL A   1      47.072  38.427  28.829  1.00  0.00    -0.744 OA
ENDBRANCH  87  88
ENDBRANCH  61  82
ENDBRANCH  35  36
ENDBRANCH  27  30
ENDBRANCH  25  26
ENDBRANCH  24  25
ENDBRANCH   1  24
TORSDOF 17
ENDMDL
