MODEL 1
REMARK VINA RESULT:     -10.1      0.000      0.000
REMARK SMILES CC[C@H](C(=O)NCCCCNC(=O)c1ccc(-c2c3nc(c(-c4ccc(S(=O)(=O)[O-])cc4)c4ccc([nH]4)c(-c4ccc(S(=O)(=O)[O-])cc4)c4nc(c(-c5ccc(S(=O)(=O)[O-])cc5)c5ccc2[nH]5)C=C4)C=C3)cc1)[N@@H+](C)[C@H]1CC[C@@H]([NH2+]C)CC1
REMARK SMILES IDX 8 1 7 2 6 3 4 4 5 5 3 7 2 8 1 9 74 10 75 11 76 13 83 14
REMARK SMILES IDX 77 15 82 16 78 17 79 18 80 19 81 20 9 23 10 24 11 25 12 26
REMARK SMILES IDX 13 28 14 29 15 30 73 31 16 32 72 33 17 34 18 35 19 36 66 37
REMARK SMILES IDX 20 38 71 39 65 40 67 41 21 42 70 43 64 44 63 45 22 47 52 48
REMARK SMILES IDX 33 49 51 50 34 51 37 52 50 53 68 54 35 55 36 56 49 58 69 59
REMARK SMILES IDX 38 60 23 61 24 62 32 63 25 64 31 65 26 66 27 67 28 68 29 69
REMARK SMILES IDX 30 70 53 71 54 72 62 73 55 74 61 75 56 76 57 77 58 78 59 79
REMARK SMILES IDX 60 80 39 81 40 82 48 83 41 84 47 85 42 86 43 87 44 88 45 89
REMARK SMILES IDX 46 90
REMARK H PARENT 6 6 74 12 80 21 80 22 11 27 67 46 37 57
REMARK Flexibility Score: inf
ROOT
ATOM      1  C   UNL A   1      37.155  22.062  24.572  1.00  0.00     0.023 C 
ENDROOT
BRANCH   1   2
ATOM      2  C   UNL A   1      36.577  23.017  25.615  1.00  0.00     0.116 C 
BRANCH   2   3
ATOM      3  N   UNL A   1      35.799  22.336  26.627  1.00  0.00    -0.351 N 
ATOM      4  C   UNL A   1      34.468  22.038  26.688  1.00  0.00     0.278 C 
ATOM      5  O   UNL A   1      34.101  21.524  27.748  1.00  0.00    -0.268 OA
ATOM      6  H   UNL A   1      36.320  22.035  27.407  1.00  0.00     0.163 HD
BRANCH   4   7
ATOM      7  C   UNL A   1      33.518  22.389  25.499  1.00  0.00     0.273 C 
BRANCH   7   8
ATOM      8  C   UNL A   1      33.024  21.186  24.657  1.00  0.00     0.072 C 
ATOM      9  C   UNL A   1      33.924  19.972  24.531  1.00  0.00     0.011 C 
ENDBRANCH   7   8
BRANCH   7  10
ATOM     10  N   UNL A   1      32.512  23.432  25.810  1.00  0.00    -0.325 N 
ATOM     11  C   UNL A   1      31.294  22.928  26.431  1.00  0.00     0.333 C 
ATOM     12  H   UNL A   1      32.410  23.648  24.819  1.00  0.00     0.348 HD
BRANCH  10  13
ATOM     13  C   UNL A   1      32.810  24.832  26.154  1.00  0.00     0.184 C 
ATOM     14  C   UNL A   1      33.850  25.595  25.313  1.00  0.00     0.071 C 
ATOM     15  C   UNL A   1      31.462  25.568  26.345  1.00  0.00     0.071 C 
ATOM     16  C   UNL A   1      33.874  27.100  25.559  1.00  0.00     0.071 C 
ATOM     17  C   UNL A   1      31.604  27.078  26.545  1.00  0.00     0.071 C 
ATOM     18  C   UNL A   1      32.485  27.740  25.475  1.00  0.00     0.182 C 
BRANCH  18  19
ATOM     19  N   UNL A   1      31.822  27.635  24.171  1.00  0.00    -0.346 N 
ATOM     20  C   UNL A   1      30.753  28.598  23.964  1.00  0.00     0.331 C 
ATOM     21  H   UNL A   1      31.429  26.698  24.088  1.00  0.00     0.346 HD
ATOM     22  H   UNL A   1      32.532  27.832  23.467  1.00  0.00     0.346 HD
ENDBRANCH  18  19
ENDBRANCH  10  13
ENDBRANCH   7  10
ENDBRANCH   4   7
ENDBRANCH   2   3
ENDBRANCH   1   2
BRANCH   1  23
ATOM     23  C   UNL A   1      37.871  20.827  25.119  1.00  0.00     0.023 C 
BRANCH  23  24
ATOM     24  C   UNL A   1      39.236  21.083  25.748  1.00  0.00     0.116 C 
BRANCH  24  25
ATOM     25  N   UNL A   1      40.039  19.875  25.864  1.00  0.00    -0.352 N 
ATOM     26  C   UNL A   1      41.392  19.757  26.098  1.00  0.00     0.251 C 
ATOM     27  H   UNL A   1      39.550  19.027  25.761  1.00  0.00     0.163 HD
ATOM     28  O   UNL A   1      41.938  18.664  26.030  1.00  0.00    -0.269 OA
BRANCH  26  29
ATOM     29  C   UNL A   1      42.180  20.971  26.401  1.00  0.00     0.039 A 
ATOM     30  C   UNL A   1      42.621  21.778  25.350  1.00  0.00     0.014 A 
ATOM     31  C   UNL A   1      42.441  21.329  27.725  1.00  0.00     0.014 A 
ATOM     32  C   UNL A   1      43.253  22.994  25.630  1.00  0.00     0.010 A 
ATOM     33  C   UNL A   1      43.008  22.568  28.002  1.00  0.00     0.010 A 
ATOM     34  C   UNL A   1      43.415  23.416  26.958  1.00  0.00    -0.014 A 
BRANCH  34  35
ATOM     35  C   UNL A   1      44.012  24.730  27.308  1.00  0.00     0.031 A 
ATOM     36  C   UNL A   1      43.118  25.846  27.774  1.00  0.00     0.074 A 
ATOM     37  C   UNL A   1      45.325  24.957  27.099  1.00  0.00     0.049 A 
ATOM     38  N   UNL A   1      43.392  27.114  27.934  1.00  0.00    -0.248 NA
ATOM     39  C   UNL A   1      41.719  25.491  28.066  1.00  0.00     0.031 C 
ATOM     40  C   UNL A   1      46.296  23.965  26.633  1.00  0.00     0.029 A 
ATOM     41  N   UNL A   1      46.063  26.108  27.228  1.00  0.00    -0.354 N 
ATOM     42  C   UNL A   1      42.196  27.714  28.305  1.00  0.00     0.074 A 
ATOM     43  C   UNL A   1      41.187  26.678  28.316  1.00  0.00     0.031 C 
ATOM     44  C   UNL A   1      47.502  24.549  26.523  1.00  0.00     0.029 A 
ATOM     45  C   UNL A   1      47.380  25.964  26.858  1.00  0.00     0.049 A 
ATOM     46  H   UNL A   1      45.685  26.957  27.553  1.00  0.00     0.167 HD
ATOM     47  C   UNL A   1      41.959  29.010  28.617  1.00  0.00     0.031 A 
ATOM     48  C   UNL A   1      48.373  26.873  26.775  1.00  0.00     0.031 A 
ATOM     49  C   UNL A   1      42.971  30.031  28.632  1.00  0.00     0.049 A 
ATOM     50  C   UNL A   1      48.088  28.308  27.127  1.00  0.00     0.074 A 
ATOM     51  C   UNL A   1      42.842  31.364  28.980  1.00  0.00     0.029 A 
ATOM     52  N   UNL A   1      44.299  29.831  28.292  1.00  0.00    -0.354 N 
ATOM     53  N   UNL A   1      46.956  28.851  27.506  1.00  0.00    -0.248 NA
ATOM     54  C   UNL A   1      49.212  29.252  27.044  1.00  0.00     0.031 C 
ATOM     55  C   UNL A   1      44.087  31.979  28.817  1.00  0.00     0.029 A 
ATOM     56  C   UNL A   1      45.001  31.017  28.415  1.00  0.00     0.049 A 
ATOM     57  H   UNL A   1      44.687  28.972  28.006  1.00  0.00     0.167 HD
ATOM     58  C   UNL A   1      47.241  30.192  27.743  1.00  0.00     0.074 A 
ATOM     59  C   UNL A   1      48.650  30.379  27.463  1.00  0.00     0.031 C 
ATOM     60  C   UNL A   1      46.410  31.177  28.159  1.00  0.00     0.031 A 
BRANCH  47  61
ATOM     61  C   UNL A   1      40.546  29.396  28.961  1.00  0.00    -0.014 A 
ATOM     62  C   UNL A   1      39.519  29.321  28.003  1.00  0.00     0.010 A 
ATOM     63  C   UNL A   1      40.235  29.814  30.268  1.00  0.00     0.010 A 
ATOM     64  C   UNL A   1      38.215  29.702  28.333  1.00  0.00     0.020 A 
ATOM     65  C   UNL A   1      38.927  30.169  30.609  1.00  0.00     0.020 A 
ATOM     66  C   UNL A   1      37.930  30.129  29.632  1.00  0.00     0.054 A 
BRANCH  66  67
ATOM     67  S   UNL A   1      36.228  30.609  30.036  1.00  0.00     0.124 S 
ATOM     68  O   UNL A   1      35.908  29.687  31.123  1.00  0.00    -0.237 OA
ATOM     69  O   UNL A   1      36.371  32.010  30.424  1.00  0.00    -0.237 OA
ATOM     70  O   UNL A   1      35.499  30.382  28.791  1.00  0.00    -0.744 OA
ENDBRANCH  66  67
ENDBRANCH  47  61
BRANCH  48  71
ATOM     71  C   UNL A   1      49.735  26.450  26.349  1.00  0.00    -0.014 A 
ATOM     72  C   UNL A   1      50.181  26.708  25.041  1.00  0.00     0.010 A 
ATOM     73  C   UNL A   1      50.597  25.798  27.250  1.00  0.00     0.010 A 
ATOM     74  C   UNL A   1      51.458  26.310  24.636  1.00  0.00     0.020 A 
ATOM     75  C   UNL A   1      51.886  25.420  26.855  1.00  0.00     0.020 A 
ATOM     76  C   UNL A   1      52.303  25.668  25.546  1.00  0.00     0.054 A 
BRANCH  76  77
ATOM     77  S   UNL A   1      53.975  25.207  25.012  1.00  0.00     0.124 S 
ATOM     78  O   UNL A   1      53.867  23.757  24.894  1.00  0.00    -0.237 OA
ATOM     79  O   UNL A   1      54.118  25.935  23.754  1.00  0.00    -0.237 OA
ATOM     80  O   UNL A   1      54.825  25.687  26.100  1.00  0.00    -0.744 OA
ENDBRANCH  76  77
ENDBRANCH  48  71
BRANCH  60  81
ATOM     81  C   UNL A   1      46.998  32.540  28.406  1.00  0.00    -0.014 A 
ATOM     82  C   UNL A   1      47.006  33.523  27.404  1.00  0.00     0.010 A 
ATOM     83  C   UNL A   1      47.439  32.870  29.701  1.00  0.00     0.010 A 
ATOM     84  C   UNL A   1      47.445  34.818  27.694  1.00  0.00     0.020 A 
ATOM     85  C   UNL A   1      47.860  34.168  29.999  1.00  0.00     0.020 A 
ATOM     86  C   UNL A   1      47.861  35.135  28.992  1.00  0.00     0.054 A 
BRANCH  86  87
ATOM     87  S   UNL A   1      48.331  36.846  29.367  1.00  0.00     0.124 S 
ATOM     88  O   UNL A   1      49.326  36.665  30.420  1.00  0.00    -0.237 OA
ATOM     89  O   UNL A   1      48.849  37.325  28.088  1.00  0.00    -0.237 OA
ATOM     90  O   UNL A   1      47.078  37.464  29.793  1.00  0.00    -0.744 OA
ENDBRANCH  86  87
ENDBRANCH  60  81
ENDBRANCH  34  35
ENDBRANCH  26  29
ENDBRANCH  24  25
ENDBRANCH  23  24
ENDBRANCH   1  23
TORSDOF 18
ENDMDL
MODEL 2
REMARK VINA RESULT:     -10.0      4.428      9.819
REMARK SMILES CC[C@H](C(=O)NCCCCNC(=O)c1ccc(-c2c3nc(c(-c4ccc(S(=O)(=O)[O-])cc4)c4ccc([nH]4)c(-c4ccc(S(=O)(=O)[O-])cc4)c4nc(c(-c5ccc(S(=O)(=O)[O-])cc5)c5ccc2[nH]5)C=C4)C=C3)cc1)[N@@H+](C)[C@H]1CC[C@@H]([NH2+]C)CC1
REMARK SMILES IDX 8 1 7 2 6 3 4 4 5 5 3 7 2 8 1 9 74 10 75 11 76 13 83 14
REMARK SMILES IDX 77 15 82 16 78 17 79 18 80 19 81 20 9 23 10 24 11 25 12 26
REMARK SMILES IDX 13 28 14 29 15 30 73 31 16 32 72 33 17 34 18 35 19 36 66 37
REMARK SMILES IDX 20 38 71 39 65 40 67 41 21 42 70 43 64 44 63 45 22 47 52 48
REMARK SMILES IDX 33 49 51 50 34 51 37 52 50 53 68 54 35 55 36 56 49 58 69 59
REMARK SMILES IDX 38 60 23 61 24 62 32 63 25 64 31 65 26 66 27 67 28 68 29 69
REMARK SMILES IDX 30 70 53 71 54 72 62 73 55 74 61 75 56 76 57 77 58 78 59 79
REMARK SMILES IDX 60 80 39 81 40 82 48 83 41 84 47 85 42 86 43 87 44 88 45 89
REMARK SMILES IDX 46 90
REMARK H PARENT 6 6 74 12 80 21 80 22 11 27 67 46 37 57
REMARK Flexibility Score: inf
ROOT
ATOM      1  C   UNL A   1      34.627  23.138  24.984  1.00  0.00     0.023 C 
ENDROOT
BRANCH   1   2
ATOM      2  C   UNL A   1      33.598  24.117  24.422  1.00  0.00     0.116 C 
BRANCH   2   3
ATOM      3  N   UNL A   1      34.040  25.493  24.487  1.00  0.00    -0.351 N 
ATOM      4  C   UNL A   1      33.338  26.663  24.478  1.00  0.00     0.278 C 
ATOM      5  O   UNL A   1      34.032  27.683  24.452  1.00  0.00    -0.268 OA
ATOM      6  H   UNL A   1      35.017  25.604  24.549  1.00  0.00     0.163 HD
BRANCH   4   7
ATOM      7  C   UNL A   1      31.777  26.656  24.450  1.00  0.00     0.273 C 
BRANCH   7   8
ATOM      8  C   UNL A   1      31.081  26.502  25.827  1.00  0.00     0.072 C 
ATOM      9  C   UNL A   1      29.880  25.582  25.931  1.00  0.00     0.011 C 
ENDBRANCH   7   8
BRANCH   7  10
ATOM     10  N   UNL A   1      31.178  27.641  23.518  1.00  0.00    -0.325 N 
ATOM     11  C   UNL A   1      31.067  27.178  22.141  1.00  0.00     0.333 C 
ATOM     12  H   UNL A   1      31.956  28.282  23.676  1.00  0.00     0.348 HD
BRANCH  10  13
ATOM     13  C   UNL A   1      30.177  28.659  23.878  1.00  0.00     0.184 C 
ATOM     14  C   UNL A   1      30.657  30.082  24.216  1.00  0.00     0.071 C 
ATOM     15  C   UNL A   1      29.037  28.588  22.834  1.00  0.00     0.071 C 
ATOM     16  C   UNL A   1      29.542  31.120  24.288  1.00  0.00     0.071 C 
ATOM     17  C   UNL A   1      27.996  29.700  22.977  1.00  0.00     0.071 C 
ATOM     18  C   UNL A   1      28.626  31.098  23.061  1.00  0.00     0.182 C 
BRANCH  18  19
ATOM     19  N   UNL A   1      29.278  31.411  21.784  1.00  0.00    -0.346 N 
ATOM     20  C   UNL A   1      28.376  31.906  20.758  1.00  0.00     0.331 C 
ATOM     21  H   UNL A   1      29.723  30.561  21.437  1.00  0.00     0.346 HD
ATOM     22  H   UNL A   1      29.943  32.160  21.973  1.00  0.00     0.346 HD
ENDBRANCH  18  19
ENDBRANCH  10  13
ENDBRANCH   7  10
ENDBRANCH   4   7
ENDBRANCH   2   3
ENDBRANCH   1   2
BRANCH   1  23
ATOM     23  C   UNL A   1      35.841  23.764  25.671  1.00  0.00     0.023 C 
BRANCH  23  24
ATOM     24  C   UNL A   1      37.136  23.736  24.868  1.00  0.00     0.116 C 
BRANCH  24  25
ATOM     25  N   UNL A   1      38.070  22.723  25.338  1.00  0.00    -0.352 N 
ATOM     26  C   UNL A   1      39.160  22.869  26.168  1.00  0.00     0.251 C 
ATOM     27  H   UNL A   1      37.899  21.807  25.018  1.00  0.00     0.163 HD
ATOM     28  O   UNL A   1      39.925  21.933  26.355  1.00  0.00    -0.269 OA
BRANCH  26  29
ATOM     29  C   UNL A   1      39.410  24.181  26.803  1.00  0.00     0.039 A 
ATOM     30  C   UNL A   1      38.931  24.417  28.094  1.00  0.00     0.014 A 
ATOM     31  C   UNL A   1      40.157  25.155  26.136  1.00  0.00     0.014 A 
ATOM     32  C   UNL A   1      39.273  25.603  28.752  1.00  0.00     0.010 A 
ATOM     33  C   UNL A   1      40.552  26.301  26.816  1.00  0.00     0.010 A 
ATOM     34  C   UNL A   1      40.120  26.535  28.133  1.00  0.00    -0.014 A 
BRANCH  34  35
ATOM     35  C   UNL A   1      40.573  27.774  28.816  1.00  0.00     0.031 A 
ATOM     36  C   UNL A   1      41.913  27.792  29.498  1.00  0.00     0.074 A 
ATOM     37  C   UNL A   1      39.744  28.832  28.924  1.00  0.00     0.049 A 
ATOM     38  N   UNL A   1      42.414  28.681  30.315  1.00  0.00    -0.248 NA
ATOM     39  C   UNL A   1      42.792  26.636  29.252  1.00  0.00     0.031 C 
ATOM     40  C   UNL A   1      38.412  28.935  28.324  1.00  0.00     0.029 A 
ATOM     41  N   UNL A   1      39.893  30.016  29.602  1.00  0.00    -0.354 N 
ATOM     42  C   UNL A   1      43.645  28.176  30.712  1.00  0.00     0.074 A 
ATOM     43  C   UNL A   1      43.803  26.888  30.071  1.00  0.00     0.031 C 
ATOM     44  C   UNL A   1      37.871  30.119  28.656  1.00  0.00     0.029 A 
ATOM     45  C   UNL A   1      38.792  30.837  29.531  1.00  0.00     0.049 A 
ATOM     46  H   UNL A   1      40.712  30.256  30.095  1.00  0.00     0.167 HD
ATOM     47  C   UNL A   1      44.567  28.737  31.530  1.00  0.00     0.031 A 
ATOM     48  C   UNL A   1      38.540  32.022  30.123  1.00  0.00     0.031 A 
ATOM     49  C   UNL A   1      44.419  30.029  32.141  1.00  0.00     0.049 A 
ATOM     50  C   UNL A   1      39.578  32.628  31.028  1.00  0.00     0.074 A 
ATOM     51  C   UNL A   1      45.316  30.706  32.948  1.00  0.00     0.029 A 
ATOM     52  N   UNL A   1      43.305  30.842  32.007  1.00  0.00    -0.354 N 
ATOM     53  N   UNL A   1      40.752  32.149  31.368  1.00  0.00    -0.248 NA
ATOM     54  C   UNL A   1      39.264  33.933  31.628  1.00  0.00     0.031 C 
ATOM     55  C   UNL A   1      44.729  31.916  33.331  1.00  0.00     0.029 A 
ATOM     56  C   UNL A   1      43.488  32.013  32.722  1.00  0.00     0.049 A 
ATOM     57  H   UNL A   1      42.502  30.622  31.481  1.00  0.00     0.167 HD
ATOM     58  C   UNL A   1      41.329  33.112  32.190  1.00  0.00     0.074 A 
ATOM     59  C   UNL A   1      40.378  34.198  32.299  1.00  0.00     0.031 C 
ATOM     60  C   UNL A   1      42.541  33.096  32.795  1.00  0.00     0.031 A 
BRANCH  47  61
ATOM     61  C   UNL A   1      45.816  27.947  31.814  1.00  0.00    -0.014 A 
ATOM     62  C   UNL A   1      46.972  28.108  31.030  1.00  0.00     0.010 A 
ATOM     63  C   UNL A   1      45.843  27.051  32.899  1.00  0.00     0.010 A 
ATOM     64  C   UNL A   1      48.117  27.352  31.295  1.00  0.00     0.020 A 
ATOM     65  C   UNL A   1      46.995  26.314  33.185  1.00  0.00     0.020 A 
ATOM     66  C   UNL A   1      48.119  26.456  32.367  1.00  0.00     0.054 A 
BRANCH  66  67
ATOM     67  S   UNL A   1      49.621  25.495  32.696  1.00  0.00     0.124 S 
ATOM     68  O   UNL A   1      50.517  26.515  33.235  1.00  0.00    -0.237 OA
ATOM     69  O   UNL A   1      49.161  24.495  33.655  1.00  0.00    -0.237 OA
ATOM     70  O   UNL A   1      49.992  24.971  31.383  1.00  0.00    -0.744 OA
ENDBRANCH  66  67
ENDBRANCH  47  61
BRANCH  48  71
ATOM     71  C   UNL A   1      37.250  32.721  29.870  1.00  0.00    -0.014 A 
ATOM     72  C   UNL A   1      37.125  33.611  28.789  1.00  0.00     0.010 A 
ATOM     73  C   UNL A   1      36.137  32.493  30.701  1.00  0.00     0.010 A 
ATOM     74  C   UNL A   1      35.917  34.272  28.550  1.00  0.00     0.020 A 
ATOM     75  C   UNL A   1      34.919  33.134  30.450  1.00  0.00     0.020 A 
ATOM     76  C   UNL A   1      34.821  34.028  29.382  1.00  0.00     0.054 A 
BRANCH  76  77
ATOM     77  S   UNL A   1      33.248  34.858  29.022  1.00  0.00     0.124 S 
ATOM     78  O   UNL A   1      33.696  36.141  28.489  1.00  0.00    -0.237 OA
ATOM     79  O   UNL A   1      32.627  33.955  28.056  1.00  0.00    -0.237 OA
ATOM     80  O   UNL A   1      32.586  34.916  30.323  1.00  0.00    -0.744 OA
ENDBRANCH  76  77
ENDBRANCH  48  71
BRANCH  60  81
ATOM     81  C   UNL A   1      42.952  34.311  33.581  1.00  0.00    -0.014 A 
ATOM     82  C   UNL A   1      42.507  34.513  34.898  1.00  0.00     0.010 A 
ATOM     83  C   UNL A   1      43.895  35.198  33.027  1.00  0.00     0.010 A 
ATOM     84  C   UNL A   1      43.000  35.584  35.649  1.00  0.00     0.020 A 
ATOM     85  C   UNL A   1      44.404  36.256  33.782  1.00  0.00     0.020 A 
ATOM     86  C   UNL A   1      43.952  36.444  35.090  1.00  0.00     0.054 A 
BRANCH  86  87
ATOM     87  S   UNL A   1      44.650  37.765  36.118  1.00  0.00     0.124 S 
ATOM     88  O   UNL A   1      44.261  38.963  35.381  1.00  0.00    -0.237 OA
ATOM     89  O   UNL A   1      43.975  37.566  37.398  1.00  0.00    -0.237 OA
ATOM     90  O   UNL A   1      46.082  37.476  36.127  1.00  0.00    -0.744 OA
ENDBRANCH  86  87
ENDBRANCH  60  81
ENDBRANCH  34  35
ENDBRANCH  26  29
ENDBRANCH  24  25
ENDBRANCH  23  24
ENDBRANCH   1  23
TORSDOF 18
ENDMDL
MODEL 3
REMARK VINA RESULT:      -9.7      1.383      3.090
REMARK SMILES CC[C@H](C(=O)NCCCCNC(=O)c1ccc(-c2c3nc(c(-c4ccc(S(=O)(=O)[O-])cc4)c4ccc([nH]4)c(-c4ccc(S(=O)(=O)[O-])cc4)c4nc(c(-c5ccc(S(=O)(=O)[O-])cc5)c5ccc2[nH]5)C=C4)C=C3)cc1)[N@@H+](C)[C@H]1CC[C@@H]([NH2+]C)CC1
REMARK SMILES IDX 8 1 7 2 6 3 4 4 5 5 3 7 2 8 1 9 74 10 75 11 76 13 83 14
REMARK SMILES IDX 77 15 82 16 78 17 79 18 80 19 81 20 9 23 10 24 11 25 12 26
REMARK SMILES IDX 13 28 14 29 15 30 73 31 16 32 72 33 17 34 18 35 19 36 66 37
REMARK SMILES IDX 20 38 71 39 65 40 67 41 21 42 70 43 64 44 63 45 22 47 52 48
REMARK SMILES IDX 33 49 51 50 34 51 37 52 50 53 68 54 35 55 36 56 49 58 69 59
REMARK SMILES IDX 38 60 23 61 24 62 32 63 25 64 31 65 26 66 27 67 28 68 29 69
REMARK SMILES IDX 30 70 53 71 54 72 62 73 55 74 61 75 56 76 57 77 58 78 59 79
REMARK SMILES IDX 60 80 39 81 40 82 48 83 41 84 47 85 42 86 43 87 44 88 45 89
REMARK SMILES IDX 46 90
REMARK H PARENT 6 6 74 12 80 21 80 22 11 27 67 46 37 57
REMARK Flexibility Score: inf
ROOT
ATOM      1  C   UNL A   1      37.064  22.581  24.523  1.00  0.00     0.023 C 
ENDROOT
BRANCH   1   2
ATOM      2  C   UNL A   1      36.505  23.558  25.555  1.00  0.00     0.116 C 
BRANCH   2   3
ATOM      3  N   UNL A   1      35.404  24.344  25.043  1.00  0.00    -0.351 N 
ATOM      4  C   UNL A   1      34.067  24.077  24.969  1.00  0.00     0.278 C 
ATOM      5  O   UNL A   1      33.400  24.933  24.382  1.00  0.00    -0.268 OA
ATOM      6  H   UNL A   1      35.663  25.225  24.687  1.00  0.00     0.163 HD
BRANCH   4   7
ATOM      7  C   UNL A   1      33.487  22.750  25.553  1.00  0.00     0.273 C 
BRANCH   7   8
ATOM      8  C   UNL A   1      32.743  22.881  26.906  1.00  0.00     0.072 C 
ATOM      9  C   UNL A   1      31.242  23.099  26.889  1.00  0.00     0.011 C 
ENDBRANCH   7   8
BRANCH   7  10
ATOM     10  N   UNL A   1      32.864  21.861  24.543  1.00  0.00    -0.325 N 
ATOM     11  C   UNL A   1      32.047  22.551  23.554  1.00  0.00     0.333 C 
ATOM     12  H   UNL A   1      32.323  21.393  25.270  1.00  0.00     0.348 HD
BRANCH  10  13
ATOM     13  C   UNL A   1      33.431  20.593  24.055  1.00  0.00     0.184 C 
ATOM     14  C   UNL A   1      34.444  19.846  24.941  1.00  0.00     0.071 C 
ATOM     15  C   UNL A   1      32.262  19.725  23.530  1.00  0.00     0.071 C 
ATOM     16  C   UNL A   1      34.746  18.421  24.485  1.00  0.00     0.071 C 
ATOM     17  C   UNL A   1      32.673  18.304  23.138  1.00  0.00     0.071 C 
ATOM     18  C   UNL A   1      33.481  17.595  24.235  1.00  0.00     0.182 C 
BRANCH  18  19
ATOM     19  N   UNL A   1      32.624  17.386  25.407  1.00  0.00    -0.346 N 
ATOM     20  C   UNL A   1      32.360  15.990  25.714  1.00  0.00     0.331 C 
ATOM     21  H   UNL A   1      31.732  17.850  25.236  1.00  0.00     0.346 HD
ATOM     22  H   UNL A   1      33.126  17.770  26.207  1.00  0.00     0.346 HD
ENDBRANCH  18  19
ENDBRANCH  10  13
ENDBRANCH   7  10
ENDBRANCH   4   7
ENDBRANCH   2   3
ENDBRANCH   1   2
BRANCH   1  23
ATOM     23  C   UNL A   1      37.657  21.287  25.079  1.00  0.00     0.023 C 
BRANCH  23  24
ATOM     24  C   UNL A   1      38.952  21.444  25.868  1.00  0.00     0.116 C 
BRANCH  24  25
ATOM     25  N   UNL A   1      39.727  20.214  25.933  1.00  0.00    -0.352 N 
ATOM     26  C   UNL A   1      41.082  20.056  26.126  1.00  0.00     0.251 C 
ATOM     27  H   UNL A   1      39.213  19.382  25.824  1.00  0.00     0.163 HD
ATOM     28  O   UNL A   1      41.597  18.951  26.016  1.00  0.00    -0.269 OA
BRANCH  26  29
ATOM     29  C   UNL A   1      41.910  21.242  26.435  1.00  0.00     0.039 A 
ATOM     30  C   UNL A   1      42.284  22.101  25.399  1.00  0.00     0.014 A 
ATOM     31  C   UNL A   1      42.273  21.522  27.753  1.00  0.00     0.014 A 
ATOM     32  C   UNL A   1      42.955  23.292  25.697  1.00  0.00     0.010 A 
ATOM     33  C   UNL A   1      42.879  22.737  28.054  1.00  0.00     0.010 A 
ATOM     34  C   UNL A   1      43.220  23.638  27.031  1.00  0.00    -0.014 A 
BRANCH  34  35
ATOM     35  C   UNL A   1      43.862  24.923  27.406  1.00  0.00     0.031 A 
ATOM     36  C   UNL A   1      43.012  26.048  27.928  1.00  0.00     0.074 A 
ATOM     37  C   UNL A   1      45.176  25.120  27.172  1.00  0.00     0.049 A 
ATOM     38  N   UNL A   1      43.325  27.302  28.120  1.00  0.00    -0.248 NA
ATOM     39  C   UNL A   1      41.611  25.722  28.243  1.00  0.00     0.031 C 
ATOM     40  C   UNL A   1      46.108  24.117  26.653  1.00  0.00     0.029 A 
ATOM     41  N   UNL A   1      45.949  26.245  27.319  1.00  0.00    -0.354 N 
ATOM     42  C   UNL A   1      42.156  27.923  28.539  1.00  0.00     0.074 A 
ATOM     43  C   UNL A   1      41.118  26.915  28.542  1.00  0.00     0.031 C 
ATOM     44  C   UNL A   1      47.327  24.671  26.531  1.00  0.00     0.029 A 
ATOM     45  C   UNL A   1      47.253  26.077  26.913  1.00  0.00     0.049 A 
ATOM     46  H   UNL A   1      45.603  27.095  27.679  1.00  0.00     0.167 HD
ATOM     47  C   UNL A   1      41.963  29.215  28.896  1.00  0.00     0.031 A 
ATOM     48  C   UNL A   1      48.269  26.961  26.834  1.00  0.00     0.031 A 
ATOM     49  C   UNL A   1      43.003  30.206  28.918  1.00  0.00     0.049 A 
ATOM     50  C   UNL A   1      48.033  28.391  27.236  1.00  0.00     0.074 A 
ATOM     51  C   UNL A   1      42.920  31.531  29.310  1.00  0.00     0.029 A 
ATOM     52  N   UNL A   1      44.317  29.980  28.539  1.00  0.00    -0.354 N 
ATOM     53  N   UNL A   1      46.926  28.954  27.660  1.00  0.00    -0.248 NA
ATOM     54  C   UNL A   1      49.181  29.307  27.155  1.00  0.00     0.031 C 
ATOM     55  C   UNL A   1      44.178  32.116  29.135  1.00  0.00     0.029 A 
ATOM     56  C   UNL A   1      45.054  31.142  28.682  1.00  0.00     0.049 A 
ATOM     57  H   UNL A   1      44.674  29.121  28.218  1.00  0.00     0.167 HD
ATOM     58  C   UNL A   1      47.254  30.278  27.930  1.00  0.00     0.074 A 
ATOM     59  C   UNL A   1      48.661  30.435  27.622  1.00  0.00     0.031 C 
ATOM     60  C   UNL A   1      46.461  31.272  28.397  1.00  0.00     0.031 A 
BRANCH  47  61
ATOM     61  C   UNL A   1      40.569  29.628  29.286  1.00  0.00    -0.014 A 
ATOM     62  C   UNL A   1      40.228  29.856  30.631  1.00  0.00     0.010 A 
ATOM     63  C   UNL A   1      39.593  29.817  28.289  1.00  0.00     0.010 A 
ATOM     64  C   UNL A   1      38.924  30.220  30.977  1.00  0.00     0.020 A 
ATOM     65  C   UNL A   1      38.296  30.209  28.630  1.00  0.00     0.020 A 
ATOM     66  C   UNL A   1      37.965  30.387  29.975  1.00  0.00     0.054 A 
BRANCH  66  67
ATOM     67  S   UNL A   1      36.283  30.869  30.452  1.00  0.00     0.124 S 
ATOM     68  O   UNL A   1      36.464  32.275  30.807  1.00  0.00    -0.237 OA
ATOM     69  O   UNL A   1      35.520  30.624  29.232  1.00  0.00    -0.237 OA
ATOM     70  O   UNL A   1      35.971  29.980  31.568  1.00  0.00    -0.744 OA
ENDBRANCH  66  67
ENDBRANCH  47  61
BRANCH  48  71
ATOM     71  C   UNL A   1      49.608  26.514  26.362  1.00  0.00    -0.014 A 
ATOM     72  C   UNL A   1      50.014  26.764  25.039  1.00  0.00     0.010 A 
ATOM     73  C   UNL A   1      50.489  25.848  27.234  1.00  0.00     0.010 A 
ATOM     74  C   UNL A   1      51.269  26.344  24.591  1.00  0.00     0.020 A 
ATOM     75  C   UNL A   1      51.757  25.447  26.795  1.00  0.00     0.020 A 
ATOM     76  C   UNL A   1      52.133  25.688  25.472  1.00  0.00     0.054 A 
BRANCH  76  77
ATOM     77  S   UNL A   1      53.777  25.198  24.882  1.00  0.00     0.124 S 
ATOM     78  O   UNL A   1      53.838  25.847  23.577  1.00  0.00    -0.237 OA
ATOM     79  O   UNL A   1      54.660  25.752  25.906  1.00  0.00    -0.237 OA
ATOM     80  O   UNL A   1      53.709  23.738  24.855  1.00  0.00    -0.744 OA
ENDBRANCH  76  77
ENDBRANCH  48  71
BRANCH  60  81
ATOM     81  C   UNL A   1      47.093  32.609  28.671  1.00  0.00    -0.014 A 
ATOM     82  C   UNL A   1      47.159  33.602  27.680  1.00  0.00     0.010 A 
ATOM     83  C   UNL A   1      47.518  32.910  29.979  1.00  0.00     0.010 A 
ATOM     84  C   UNL A   1      47.639  34.877  27.993  1.00  0.00     0.020 A 
ATOM     85  C   UNL A   1      47.978  34.188  30.300  1.00  0.00     0.020 A 
ATOM     86  C   UNL A   1      48.037  35.165  29.304  1.00  0.00     0.054 A 
BRANCH  86  87
ATOM     87  S   UNL A   1      48.561  36.853  29.708  1.00  0.00     0.124 S 
ATOM     88  O   UNL A   1      49.850  36.627  30.354  1.00  0.00    -0.237 OA
ATOM     89  O   UNL A   1      48.619  37.495  28.396  1.00  0.00    -0.237 OA
ATOM     90  O   UNL A   1      47.501  37.344  30.586  1.00  0.00    -0.744 OA
ENDBRANCH  86  87
ENDBRANCH  60  81
ENDBRANCH  34  35
ENDBRANCH  26  29
ENDBRANCH  24  25
ENDBRANCH  23  24
ENDBRANCH   1  23
TORSDOF 18
ENDMDL
