MODEL 1
REMARK VINA RESULT:     -11.5      0.000      0.000
REMARK SMILES Cc1cc2c(c(C)c1Br)C=C(C(=O)NCCCCNC(=O)c1ccc(-c3c4nc(c(-c5ccc(S(=O)(=O)[O-])cc5)c5ccc([nH]5)c(-c5ccc(S(=O)(=O)[O-])cc5)c5nc(c(-c6ccc(S(=O)(=O)[O-])cc6)c6ccc3[nH]6)C=C5)C=C4)cc1)[C@@H](C(F)(F)F)O2
REMARK SMILES IDX 17 1 16 2 15 3 14 4 12 5 13 6 11 8 1 9 2 10 3 11 8 12 4 13
REMARK SMILES IDX 6 14 9 15 5 16 87 17 7 18 10 19 82 20 83 21 84 22 85 23
REMARK SMILES IDX 86 24 18 25 19 26 20 27 21 29 22 30 23 31 81 32 24 33 80 34
REMARK SMILES IDX 25 35 26 36 27 37 74 38 28 39 79 40 73 41 75 42 29 43 78 44
REMARK SMILES IDX 72 45 71 46 30 48 60 49 41 50 59 51 42 52 45 53 58 54 76 55
REMARK SMILES IDX 43 56 44 57 57 59 77 60 46 61 31 62 32 63 40 64 33 65 39 66
REMARK SMILES IDX 34 67 35 68 36 69 37 70 38 71 61 72 62 73 70 74 63 75 69 76
REMARK SMILES IDX 64 77 65 78 66 79 67 80 68 81 47 82 48 83 56 84 49 85 55 86
REMARK SMILES IDX 50 87 51 88 52 89 53 90 54 91
REMARK H PARENT 14 7 19 28 75 47 45 58
REMARK Flexibility Score: inf
ROOT
ATOM      1  C   UNL A   1      32.350  28.065  26.883  1.00  0.00     0.023 C 
ENDROOT
BRANCH   1   2
ATOM      2  C   UNL A   1      31.258  29.079  26.532  1.00  0.00     0.023 C 
BRANCH   2   3
ATOM      3  C   UNL A   1      31.400  29.697  25.144  1.00  0.00     0.116 C 
BRANCH   3   4
ATOM      4  N   UNL A   1      30.555  29.034  24.165  1.00  0.00    -0.352 N 
ATOM      5  C   UNL A   1      30.624  27.934  23.381  1.00  0.00     0.251 C 
ATOM      6  O   UNL A   1      29.636  27.738  22.665  1.00  0.00    -0.270 OA
ATOM      7  H   UNL A   1      29.704  29.513  24.041  1.00  0.00     0.163 HD
BRANCH   5   8
ATOM      8  C   UNL A   1      31.770  26.977  23.329  1.00  0.00     0.067 C 
ATOM      9  C   UNL A   1      36.113  22.186  24.123  1.00  0.00     0.046 C 
ATOM     10  C   UNL A   1      34.985  23.175  24.255  1.00  0.00    -0.033 A 
ATOM     11  C   UNL A   1      34.785  24.080  23.208  1.00  0.00     0.051 A 
ATOM     12  C   UNL A   1      34.102  23.203  25.355  1.00  0.00     0.024 A 
ATOM     13  C   UNL A   1      33.750  25.006  23.257  1.00  0.00     0.128 A 
ATOM     14  C   UNL A   1      33.050  24.153  25.427  1.00  0.00    -0.026 A 
ATOM     15  Br  UNL A   1      34.335  21.897  26.737  1.00  0.00    -0.050 Br
ATOM     16  C   UNL A   1      32.873  25.053  24.345  1.00  0.00     0.021 A 
ATOM     17  O   UNL A   1      33.629  25.812  22.161  1.00  0.00    -0.475 OA
ATOM     18  C   UNL A   1      32.099  24.220  26.600  1.00  0.00     0.046 C 
ATOM     19  C   UNL A   1      31.771  26.019  24.275  1.00  0.00     0.026 C 
ATOM     20  C   UNL A   1      32.894  27.051  22.341  1.00  0.00     0.314 C 
BRANCH  20  21
ATOM     21  C   UNL A   1      33.885  28.189  22.647  1.00  0.00     0.429 C 
ATOM     22  F   UNL A   1      33.277  29.395  22.507  1.00  0.00    -0.167 F 
ATOM     23  F   UNL A   1      34.356  28.143  23.914  1.00  0.00    -0.167 F 
ATOM     24  F   UNL A   1      34.958  28.180  21.825  1.00  0.00    -0.167 F 
ENDBRANCH  20  21
ENDBRANCH   5   8
ENDBRANCH   3   4
ENDBRANCH   2   3
ENDBRANCH   1   2
BRANCH   1  25
ATOM     25  C   UNL A   1      33.716  28.660  27.231  1.00  0.00     0.116 C 
BRANCH  25  26
ATOM     26  N   UNL A   1      33.653  30.027  27.728  1.00  0.00    -0.352 N 
ATOM     27  C   UNL A   1      34.651  30.750  28.338  1.00  0.00     0.251 C 
ATOM     28  H   UNL A   1      32.792  30.490  27.614  1.00  0.00     0.163 HD
ATOM     29  O   UNL A   1      34.431  31.876  28.772  1.00  0.00    -0.269 OA
BRANCH  27  30
ATOM     30  C   UNL A   1      35.977  30.124  28.502  1.00  0.00     0.039 A 
ATOM     31  C   UNL A   1      36.867  30.146  27.427  1.00  0.00     0.014 A 
ATOM     32  C   UNL A   1      36.359  29.600  29.740  1.00  0.00     0.014 A 
ATOM     33  C   UNL A   1      38.178  29.709  27.617  1.00  0.00     0.010 A 
ATOM     34  C   UNL A   1      37.682  29.218  29.940  1.00  0.00     0.010 A 
ATOM     35  C   UNL A   1      38.604  29.282  28.885  1.00  0.00    -0.014 A 
BRANCH  35  36
ATOM     36  C   UNL A   1      40.020  28.920  29.134  1.00  0.00     0.031 A 
ATOM     37  C   UNL A   1      40.956  29.920  29.747  1.00  0.00     0.074 A 
ATOM     38  C   UNL A   1      40.472  27.709  28.750  1.00  0.00     0.049 A 
ATOM     39  N   UNL A   1      42.237  29.807  29.986  1.00  0.00    -0.248 NA
ATOM     40  C   UNL A   1      40.383  31.222  30.124  1.00  0.00     0.031 C 
ATOM     41  C   UNL A   1      39.665  26.665  28.113  1.00  0.00     0.029 A 
ATOM     42  N   UNL A   1      41.723  27.153  28.839  1.00  0.00    -0.354 N 
ATOM     43  C   UNL A   1      42.626  31.025  30.530  1.00  0.00     0.074 A 
ATOM     44  C   UNL A   1      41.456  31.876  30.546  1.00  0.00     0.031 C 
ATOM     45  C   UNL A   1      40.435  25.584  27.901  1.00  0.00     0.029 A 
ATOM     46  C   UNL A   1      41.793  25.870  28.351  1.00  0.00     0.049 A 
ATOM     47  H   UNL A   1      42.498  27.629  29.216  1.00  0.00     0.167 HD
ATOM     48  C   UNL A   1      43.843  31.394  30.995  1.00  0.00     0.031 A 
ATOM     49  C   UNL A   1      42.832  25.017  28.279  1.00  0.00     0.031 A 
ATOM     50  C   UNL A   1      45.002  30.544  30.987  1.00  0.00     0.049 A 
ATOM     51  C   UNL A   1      44.176  25.452  28.793  1.00  0.00     0.074 A 
ATOM     52  C   UNL A   1      46.272  30.817  31.463  1.00  0.00     0.029 A 
ATOM     53  N   UNL A   1      45.031  29.252  30.485  1.00  0.00    -0.354 N 
ATOM     54  N   UNL A   1      44.517  26.598  29.331  1.00  0.00    -0.248 NA
ATOM     55  C   UNL A   1      45.271  24.478  28.695  1.00  0.00     0.031 C 
ATOM     56  C   UNL A   1      47.078  29.698  31.220  1.00  0.00     0.029 A 
ATOM     57  C   UNL A   1      46.298  28.717  30.629  1.00  0.00     0.049 A 
ATOM     58  H   UNL A   1      44.263  28.785  30.084  1.00  0.00     0.167 HD
ATOM     59  C   UNL A   1      45.863  26.477  29.655  1.00  0.00     0.074 A 
ATOM     60  C   UNL A   1      46.271  25.143  29.261  1.00  0.00     0.031 C 
ATOM     61  C   UNL A   1      46.685  27.388  30.228  1.00  0.00     0.031 A 
BRANCH  48  62
ATOM     62  C   UNL A   1      43.972  32.783  31.555  1.00  0.00    -0.014 A 
ATOM     63  C   UNL A   1      43.738  33.031  32.920  1.00  0.00     0.010 A 
ATOM     64  C   UNL A   1      44.348  33.848  30.717  1.00  0.00     0.010 A 
ATOM     65  C   UNL A   1      43.840  34.327  33.430  1.00  0.00     0.020 A 
ATOM     66  C   UNL A   1      44.473  35.143  31.230  1.00  0.00     0.020 A 
ATOM     67  C   UNL A   1      44.201  35.377  32.579  1.00  0.00     0.054 A 
BRANCH  67  68
ATOM     68  S   UNL A   1      44.336  37.048  33.270  1.00  0.00     0.124 S 
ATOM     69  O   UNL A   1      45.729  37.078  33.711  1.00  0.00    -0.237 OA
ATOM     70  O   UNL A   1      44.022  37.897  32.123  1.00  0.00    -0.237 OA
ATOM     71  O   UNL A   1      43.343  37.060  34.342  1.00  0.00    -0.744 OA
ENDBRANCH  67  68
ENDBRANCH  48  62
BRANCH  49  72
ATOM     72  C   UNL A   1      42.629  23.652  27.729  1.00  0.00    -0.014 A 
ATOM     73  C   UNL A   1      42.820  23.409  26.356  1.00  0.00     0.010 A 
ATOM     74  C   UNL A   1      42.283  22.581  28.573  1.00  0.00     0.010 A 
ATOM     75  C   UNL A   1      42.664  22.120  25.838  1.00  0.00     0.020 A 
ATOM     76  C   UNL A   1      42.147  21.288  28.060  1.00  0.00     0.020 A 
ATOM     77  C   UNL A   1      42.334  21.067  26.695  1.00  0.00     0.054 A 
BRANCH  77  78
ATOM     78  S   UNL A   1      42.211  19.390  26.010  1.00  0.00     0.124 S 
ATOM     79  O   UNL A   1      43.073  19.478  24.835  1.00  0.00    -0.237 OA
ATOM     80  O   UNL A   1      42.715  18.565  27.105  1.00  0.00    -0.237 OA
ATOM     81  O   UNL A   1      40.785  19.239  25.733  1.00  0.00    -0.744 OA
ENDBRANCH  77  78
ENDBRANCH  49  72
BRANCH  61  82
ATOM     82  C   UNL A   1      48.107  26.973  30.486  1.00  0.00    -0.014 A 
ATOM     83  C   UNL A   1      49.125  27.275  29.564  1.00  0.00     0.010 A 
ATOM     84  C   UNL A   1      48.437  26.340  31.697  1.00  0.00     0.010 A 
ATOM     85  C   UNL A   1      50.450  26.936  29.844  1.00  0.00     0.020 A 
ATOM     86  C   UNL A   1      49.765  26.018  31.990  1.00  0.00     0.020 A 
ATOM     87  C   UNL A   1      50.762  26.312  31.056  1.00  0.00     0.054 A 
BRANCH  87  88
ATOM     88  S   UNL A   1      52.499  25.938  31.424  1.00  0.00     0.124 S 
ATOM     89  O   UNL A   1      53.108  25.986  30.099  1.00  0.00    -0.237 OA
ATOM     90  O   UNL A   1      52.877  27.022  32.330  1.00  0.00    -0.237 OA
ATOM     91  O   UNL A   1      52.445  24.613  32.039  1.00  0.00    -0.744 OA
ENDBRANCH  87  88
ENDBRANCH  61  82
ENDBRANCH  35  36
ENDBRANCH  27  30
ENDBRANCH  25  26
ENDBRANCH   1  25
TORSDOF 15
ENDMDL
MODEL 2
REMARK VINA RESULT:     -11.2      4.995     10.534
REMARK SMILES Cc1cc2c(c(C)c1Br)C=C(C(=O)NCCCCNC(=O)c1ccc(-c3c4nc(c(-c5ccc(S(=O)(=O)[O-])cc5)c5ccc([nH]5)c(-c5ccc(S(=O)(=O)[O-])cc5)c5nc(c(-c6ccc(S(=O)(=O)[O-])cc6)c6ccc3[nH]6)C=C5)C=C4)cc1)[C@@H](C(F)(F)F)O2
REMARK SMILES IDX 17 1 16 2 15 3 14 4 12 5 13 6 11 8 1 9 2 10 3 11 8 12 4 13
REMARK SMILES IDX 6 14 9 15 5 16 87 17 7 18 10 19 82 20 83 21 84 22 85 23
REMARK SMILES IDX 86 24 18 25 19 26 20 27 21 29 22 30 23 31 81 32 24 33 80 34
REMARK SMILES IDX 25 35 26 36 27 37 74 38 28 39 79 40 73 41 75 42 29 43 78 44
REMARK SMILES IDX 72 45 71 46 30 48 60 49 41 50 59 51 42 52 45 53 58 54 76 55
REMARK SMILES IDX 43 56 44 57 57 59 77 60 46 61 31 62 32 63 40 64 33 65 39 66
REMARK SMILES IDX 34 67 35 68 36 69 37 70 38 71 61 72 62 73 70 74 63 75 69 76
REMARK SMILES IDX 64 77 65 78 66 79 67 80 68 81 47 82 48 83 56 84 49 85 55 86
REMARK SMILES IDX 50 87 51 88 52 89 53 90 54 91
REMARK H PARENT 14 7 19 28 75 47 45 58
REMARK Flexibility Score: inf
ROOT
ATOM      1  C   UNL A   1      40.064  22.497  27.430  1.00  0.00     0.023 C 
ENDROOT
BRANCH   1   2
ATOM      2  C   UNL A   1      39.419  22.073  26.108  1.00  0.00     0.023 C 
BRANCH   2   3
ATOM      3  C   UNL A   1      38.013  22.626  25.890  1.00  0.00     0.116 C 
BRANCH   3   4
ATOM      4  N   UNL A   1      37.713  22.804  24.480  1.00  0.00    -0.352 N 
ATOM      5  C   UNL A   1      36.614  23.025  23.722  1.00  0.00     0.251 C 
ATOM      6  O   UNL A   1      36.824  23.111  22.507  1.00  0.00    -0.270 OA
ATOM      7  H   UNL A   1      38.526  22.749  23.928  1.00  0.00     0.163 HD
BRANCH   5   8
ATOM      8  C   UNL A   1      35.219  23.170  24.238  1.00  0.00     0.067 C 
ATOM      9  C   UNL A   1      29.439  25.133  26.512  1.00  0.00     0.046 C 
ATOM     10  C   UNL A   1      30.873  25.014  26.069  1.00  0.00    -0.033 A 
ATOM     11  C   UNL A   1      31.282  23.804  25.501  1.00  0.00     0.051 A 
ATOM     12  C   UNL A   1      31.803  26.072  26.160  1.00  0.00     0.024 A 
ATOM     13  C   UNL A   1      32.588  23.635  25.053  1.00  0.00     0.128 A 
ATOM     14  C   UNL A   1      33.143  25.909  25.721  1.00  0.00    -0.026 A 
ATOM     15  Br  UNL A   1      31.200  27.752  26.857  1.00  0.00    -0.050 Br
ATOM     16  C   UNL A   1      33.523  24.670  25.146  1.00  0.00     0.021 A 
ATOM     17  O   UNL A   1      32.861  22.425  24.482  1.00  0.00    -0.475 OA
ATOM     18  C   UNL A   1      34.167  27.016  25.822  1.00  0.00     0.046 C 
ATOM     19  C   UNL A   1      34.855  24.420  24.585  1.00  0.00     0.026 C 
ATOM     20  C   UNL A   1      34.258  22.035  24.419  1.00  0.00     0.314 C 
BRANCH  20  21
ATOM     21  C   UNL A   1      34.595  21.155  25.637  1.00  0.00     0.429 C 
ATOM     22  F   UNL A   1      34.949  21.929  26.695  1.00  0.00    -0.167 F 
ATOM     23  F   UNL A   1      33.545  20.406  26.044  1.00  0.00    -0.167 F 
ATOM     24  F   UNL A   1      35.619  20.306  25.398  1.00  0.00    -0.167 F 
ENDBRANCH  20  21
ENDBRANCH   5   8
ENDBRANCH   3   4
ENDBRANCH   2   3
ENDBRANCH   1   2
BRANCH   1  25
ATOM     25  C   UNL A   1      41.332  23.343  27.304  1.00  0.00     0.116 C 
BRANCH  25  26
ATOM     26  N   UNL A   1      41.346  24.212  26.135  1.00  0.00    -0.352 N 
ATOM     27  C   UNL A   1      41.276  25.585  26.103  1.00  0.00     0.251 C 
ATOM     28  H   UNL A   1      41.415  23.762  25.263  1.00  0.00     0.163 HD
ATOM     29  O   UNL A   1      41.227  26.183  25.034  1.00  0.00    -0.269 OA
BRANCH  27  30
ATOM     30  C   UNL A   1      41.211  26.319  27.381  1.00  0.00     0.039 A 
ATOM     31  C   UNL A   1      42.247  27.198  27.703  1.00  0.00     0.014 A 
ATOM     32  C   UNL A   1      40.091  26.197  28.206  1.00  0.00     0.014 A 
ATOM     33  C   UNL A   1      42.122  28.020  28.822  1.00  0.00     0.010 A 
ATOM     34  C   UNL A   1      39.944  27.058  29.290  1.00  0.00     0.010 A 
ATOM     35  C   UNL A   1      40.951  27.985  29.598  1.00  0.00    -0.014 A 
BRANCH  35  36
ATOM     36  C   UNL A   1      40.753  28.927  30.725  1.00  0.00     0.031 A 
ATOM     37  C   UNL A   1      41.615  28.828  31.950  1.00  0.00     0.074 A 
ATOM     38  C   UNL A   1      39.755  29.831  30.666  1.00  0.00     0.049 A 
ATOM     39  N   UNL A   1      41.553  29.521  33.057  1.00  0.00    -0.248 NA
ATOM     40  C   UNL A   1      42.671  27.803  31.936  1.00  0.00     0.031 C 
ATOM     41  C   UNL A   1      38.830  30.002  29.542  1.00  0.00     0.029 A 
ATOM     42  N   UNL A   1      39.352  30.778  31.574  1.00  0.00    -0.354 N 
ATOM     43  C   UNL A   1      42.554  29.012  33.875  1.00  0.00     0.074 A 
ATOM     44  C   UNL A   1      43.177  27.923  33.155  1.00  0.00     0.031 C 
ATOM     45  C   UNL A   1      37.990  31.015  29.815  1.00  0.00     0.029 A 
ATOM     46  C   UNL A   1      38.293  31.541  31.142  1.00  0.00     0.049 A 
ATOM     47  H   UNL A   1      39.781  30.899  32.451  1.00  0.00     0.167 HD
ATOM     48  C   UNL A   1      42.932  29.427  35.107  1.00  0.00     0.031 A 
ATOM     49  C   UNL A   1      37.640  32.552  31.746  1.00  0.00     0.031 A 
ATOM     50  C   UNL A   1      42.317  30.516  35.816  1.00  0.00     0.049 A 
ATOM     51  C   UNL A   1      38.073  32.990  33.117  1.00  0.00     0.074 A 
ATOM     52  C   UNL A   1      42.649  31.031  37.056  1.00  0.00     0.029 A 
ATOM     53  N   UNL A   1      41.248  31.261  35.345  1.00  0.00    -0.354 N 
ATOM     54  N   UNL A   1      39.041  32.514  33.863  1.00  0.00    -0.248 NA
ATOM     55  C   UNL A   1      37.331  34.103  33.723  1.00  0.00     0.031 C 
ATOM     56  C   UNL A   1      41.759  32.070  37.349  1.00  0.00     0.029 A 
ATOM     57  C   UNL A   1      40.900  32.227  36.273  1.00  0.00     0.049 A 
ATOM     58  H   UNL A   1      40.801  31.124  34.479  1.00  0.00     0.167 HD
ATOM     59  C   UNL A   1      39.037  33.284  35.021  1.00  0.00     0.074 A 
ATOM     60  C   UNL A   1      37.977  34.261  34.872  1.00  0.00     0.031 C 
ATOM     61  C   UNL A   1      39.840  33.188  36.108  1.00  0.00     0.031 A 
BRANCH  48  62
ATOM     62  C   UNL A   1      44.073  28.696  35.757  1.00  0.00    -0.014 A 
ATOM     63  C   UNL A   1      45.401  29.112  35.555  1.00  0.00     0.010 A 
ATOM     64  C   UNL A   1      43.818  27.596  36.594  1.00  0.00     0.010 A 
ATOM     65  C   UNL A   1      46.458  28.416  36.146  1.00  0.00     0.020 A 
ATOM     66  C   UNL A   1      44.872  26.910  37.206  1.00  0.00     0.020 A 
ATOM     67  C   UNL A   1      46.186  27.315  36.964  1.00  0.00     0.054 A 
BRANCH  67  68
ATOM     68  S   UNL A   1      47.577  26.436  37.727  1.00  0.00     0.124 S 
ATOM     69  O   UNL A   1      46.896  25.348  38.425  1.00  0.00    -0.237 OA
ATOM     70  O   UNL A   1      48.378  26.036  36.573  1.00  0.00    -0.237 OA
ATOM     71  O   UNL A   1      48.190  27.442  38.590  1.00  0.00    -0.744 OA
ENDBRANCH  67  68
ENDBRANCH  48  62
BRANCH  49  72
ATOM     72  C   UNL A   1      36.532  33.242  31.036  1.00  0.00    -0.014 A 
ATOM     73  C   UNL A   1      35.314  33.485  31.698  1.00  0.00     0.010 A 
ATOM     74  C   UNL A   1      36.696  33.694  29.715  1.00  0.00     0.010 A 
ATOM     75  C   UNL A   1      34.280  34.164  31.048  1.00  0.00     0.020 A 
ATOM     76  C   UNL A   1      35.671  34.392  29.070  1.00  0.00     0.020 A 
ATOM     77  C   UNL A   1      34.467  34.618  29.740  1.00  0.00     0.054 A 
BRANCH  77  78
ATOM     78  S   UNL A   1      33.136  35.563  28.945  1.00  0.00     0.124 S 
ATOM     79  O   UNL A   1      32.350  36.004  30.092  1.00  0.00    -0.237 OA
ATOM     80  O   UNL A   1      33.872  36.611  28.241  1.00  0.00    -0.237 OA
ATOM     81  O   UNL A   1      32.490  34.579  28.080  1.00  0.00    -0.744 OA
ENDBRANCH  77  78
ENDBRANCH  49  72
BRANCH  61  82
ATOM     82  C   UNL A   1      39.622  34.178  37.218  1.00  0.00    -0.014 A 
ATOM     83  C   UNL A   1      39.034  33.782  38.432  1.00  0.00     0.010 A 
ATOM     84  C   UNL A   1      40.079  35.500  37.071  1.00  0.00     0.010 A 
ATOM     85  C   UNL A   1      38.893  34.698  39.477  1.00  0.00     0.020 A 
ATOM     86  C   UNL A   1      39.958  36.413  38.121  1.00  0.00     0.020 A 
ATOM     87  C   UNL A   1      39.358  36.007  39.315  1.00  0.00     0.054 A 
BRANCH  87  88
ATOM     88  S   UNL A   1      39.220  37.161  40.708  1.00  0.00     0.124 S 
ATOM     89  O   UNL A   1      38.334  38.187  40.167  1.00  0.00    -0.237 OA
ATOM     90  O   UNL A   1      38.645  36.327  41.762  1.00  0.00    -0.237 OA
ATOM     91  O   UNL A   1      40.598  37.587  40.943  1.00  0.00    -0.744 OA
ENDBRANCH  87  88
ENDBRANCH  61  82
ENDBRANCH  35  36
ENDBRANCH  27  30
ENDBRANCH  25  26
ENDBRANCH   1  25
TORSDOF 15
ENDMDL
MODEL 3
REMARK VINA RESULT:     -11.0      4.983     10.545
REMARK SMILES Cc1cc2c(c(C)c1Br)C=C(C(=O)NCCCCNC(=O)c1ccc(-c3c4nc(c(-c5ccc(S(=O)(=O)[O-])cc5)c5ccc([nH]5)c(-c5ccc(S(=O)(=O)[O-])cc5)c5nc(c(-c6ccc(S(=O)(=O)[O-])cc6)c6ccc3[nH]6)C=C5)C=C4)cc1)[C@@H](C(F)(F)F)O2
REMARK SMILES IDX 17 1 16 2 15 3 14 4 12 5 13 6 11 8 1 9 2 10 3 11 8 12 4 13
REMARK SMILES IDX 6 14 9 15 5 16 87 17 7 18 10 19 82 20 83 21 84 22 85 23
REMARK SMILES IDX 86 24 18 25 19 26 20 27 21 29 22 30 23 31 81 32 24 33 80 34
REMARK SMILES IDX 25 35 26 36 27 37 74 38 28 39 79 40 73 41 75 42 29 43 78 44
REMARK SMILES IDX 72 45 71 46 30 48 60 49 41 50 59 51 42 52 45 53 58 54 76 55
REMARK SMILES IDX 43 56 44 57 57 59 77 60 46 61 31 62 32 63 40 64 33 65 39 66
REMARK SMILES IDX 34 67 35 68 36 69 37 70 38 71 61 72 62 73 70 74 63 75 69 76
REMARK SMILES IDX 64 77 65 78 66 79 67 80 68 81 47 82 48 83 56 84 49 85 55 86
REMARK SMILES IDX 50 87 51 88 52 89 53 90 54 91
REMARK H PARENT 14 7 19 28 75 47 45 58
REMARK Flexibility Score: inf
ROOT
ATOM      1  C   UNL A   1      37.418  23.423  25.550  1.00  0.00     0.023 C 
ENDROOT
BRANCH   1   2
ATOM      2  C   UNL A   1      36.985  21.976  25.800  1.00  0.00     0.023 C 
BRANCH   2   3
ATOM      3  C   UNL A   1      36.691  21.181  24.531  1.00  0.00     0.116 C 
BRANCH   3   4
ATOM      4  N   UNL A   1      35.720  20.126  24.764  1.00  0.00    -0.352 N 
ATOM      5  C   UNL A   1      34.395  20.039  25.021  1.00  0.00     0.251 C 
ATOM      6  O   UNL A   1      33.962  18.889  25.160  1.00  0.00    -0.270 OA
ATOM      7  H   UNL A   1      36.139  19.236  24.723  1.00  0.00     0.163 HD
BRANCH   5   8
ATOM      8  C   UNL A   1      33.457  21.195  25.140  1.00  0.00     0.067 C 
ATOM      9  C   UNL A   1      29.663  26.431  24.344  1.00  0.00     0.046 C 
ATOM     10  C   UNL A   1      30.673  25.322  24.210  1.00  0.00    -0.033 A 
ATOM     11  C   UNL A   1      30.715  24.354  25.218  1.00  0.00     0.051 A 
ATOM     12  C   UNL A   1      31.540  25.191  23.104  1.00  0.00     0.024 A 
ATOM     13  C   UNL A   1      31.610  23.292  25.146  1.00  0.00     0.128 A 
ATOM     14  C   UNL A   1      32.469  24.122  23.025  1.00  0.00    -0.026 A 
ATOM     15  Br  UNL A   1      31.404  26.476  21.690  1.00  0.00    -0.050 Br
ATOM     16  C   UNL A   1      32.482  23.155  24.062  1.00  0.00     0.021 A 
ATOM     17  O   UNL A   1      31.534  22.389  26.167  1.00  0.00    -0.475 OA
ATOM     18  C   UNL A   1      33.424  23.965  21.863  1.00  0.00     0.046 C 
ATOM     19  C   UNL A   1      33.342  21.966  24.041  1.00  0.00     0.026 C 
ATOM     20  C   UNL A   1      32.700  21.550  26.383  1.00  0.00     0.314 C 
BRANCH  20  21
ATOM     21  C   UNL A   1      33.590  22.187  27.465  1.00  0.00     0.429 C 
ATOM     22  F   UNL A   1      34.545  21.310  27.867  1.00  0.00    -0.167 F 
ATOM     23  F   UNL A   1      34.242  23.287  27.022  1.00  0.00    -0.167 F 
ATOM     24  F   UNL A   1      32.893  22.556  28.563  1.00  0.00    -0.167 F 
ENDBRANCH  20  21
ENDBRANCH   5   8
ENDBRANCH   3   4
ENDBRANCH   2   3
ENDBRANCH   1   2
BRANCH   1  25
ATOM     25  C   UNL A   1      38.371  24.015  26.588  1.00  0.00     0.116 C 
BRANCH  25  26
ATOM     26  N   UNL A   1      39.779  23.843  26.260  1.00  0.00    -0.352 N 
ATOM     27  C   UNL A   1      40.843  24.612  26.673  1.00  0.00     0.251 C 
ATOM     28  H   UNL A   1      39.997  23.085  25.672  1.00  0.00     0.163 HD
ATOM     29  O   UNL A   1      41.974  24.388  26.256  1.00  0.00    -0.269 OA
BRANCH  27  30
ATOM     30  C   UNL A   1      40.586  25.740  27.588  1.00  0.00     0.039 A 
ATOM     31  C   UNL A   1      39.592  25.603  28.559  1.00  0.00     0.014 A 
ATOM     32  C   UNL A   1      41.383  26.886  27.533  1.00  0.00     0.014 A 
ATOM     33  C   UNL A   1      39.450  26.590  29.534  1.00  0.00     0.010 A 
ATOM     34  C   UNL A   1      41.275  27.841  28.539  1.00  0.00     0.010 A 
ATOM     35  C   UNL A   1      40.318  27.694  29.555  1.00  0.00    -0.014 A 
BRANCH  35  36
ATOM     36  C   UNL A   1      40.254  28.696  30.645  1.00  0.00     0.031 A 
ATOM     37  C   UNL A   1      41.175  28.583  31.826  1.00  0.00     0.074 A 
ATOM     38  C   UNL A   1      39.326  29.672  30.597  1.00  0.00     0.049 A 
ATOM     39  N   UNL A   1      41.228  29.326  32.900  1.00  0.00    -0.248 NA
ATOM     40  C   UNL A   1      42.149  27.480  31.804  1.00  0.00     0.031 C 
ATOM     41  C   UNL A   1      38.354  29.865  29.517  1.00  0.00     0.029 A 
ATOM     42  N   UNL A   1      39.047  30.685  31.479  1.00  0.00    -0.354 N 
ATOM     43  C   UNL A   1      42.232  28.776  33.687  1.00  0.00     0.074 A 
ATOM     44  C   UNL A   1      42.730  27.613  32.988  1.00  0.00     0.031 C 
ATOM     45  C   UNL A   1      37.609  30.951  29.786  1.00  0.00     0.029 A 
ATOM     46  C   UNL A   1      38.025  31.508  31.069  1.00  0.00     0.049 A 
ATOM     47  H   UNL A   1      39.533  30.810  32.326  1.00  0.00     0.167 HD
ATOM     48  C   UNL A   1      42.710  29.213  34.877  1.00  0.00     0.031 A 
ATOM     49  C   UNL A   1      37.486  32.592  31.658  1.00  0.00     0.031 A 
ATOM     50  C   UNL A   1      42.219  30.375  35.565  1.00  0.00     0.049 A 
ATOM     51  C   UNL A   1      38.027  33.053  32.982  1.00  0.00     0.074 A 
ATOM     52  C   UNL A   1      42.659  30.916  36.761  1.00  0.00     0.029 A 
ATOM     53  N   UNL A   1      41.184  31.181  35.118  1.00  0.00    -0.354 N 
ATOM     54  N   UNL A   1      38.997  32.537  33.697  1.00  0.00    -0.248 NA
ATOM     55  C   UNL A   1      37.405  34.246  33.574  1.00  0.00     0.031 C 
ATOM     56  C   UNL A   1      41.867  32.033  37.051  1.00  0.00     0.029 A 
ATOM     57  C   UNL A   1      40.962  32.210  36.017  1.00  0.00     0.049 A 
ATOM     58  H   UNL A   1      40.680  31.041  34.284  1.00  0.00     0.167 HD
ATOM     59  C   UNL A   1      39.116  33.353  34.817  1.00  0.00     0.074 A 
ATOM     60  C   UNL A   1      38.126  34.402  34.678  1.00  0.00     0.031 C 
ATOM     61  C   UNL A   1      39.970  33.242  35.863  1.00  0.00     0.031 A 
BRANCH  48  62
ATOM     62  C   UNL A   1      43.827  28.424  35.499  1.00  0.00    -0.014 A 
ATOM     63  C   UNL A   1      43.553  27.352  36.367  1.00  0.00     0.010 A 
ATOM     64  C   UNL A   1      45.164  28.742  35.201  1.00  0.00     0.010 A 
ATOM     65  C   UNL A   1      44.595  26.635  36.958  1.00  0.00     0.020 A 
ATOM     66  C   UNL A   1      46.211  28.012  35.774  1.00  0.00     0.020 A 
ATOM     67  C   UNL A   1      45.919  26.975  36.662  1.00  0.00     0.054 A 
BRANCH  67  68
ATOM     68  S   UNL A   1      47.254  26.021  37.435  1.00  0.00     0.124 S 
ATOM     69  O   UNL A   1      48.355  26.982  37.423  1.00  0.00    -0.237 OA
ATOM     70  O   UNL A   1      46.707  25.711  38.753  1.00  0.00    -0.237 OA
ATOM     71  O   UNL A   1      47.419  24.874  36.546  1.00  0.00    -0.744 OA
ENDBRANCH  67  68
ENDBRANCH  48  62
BRANCH  49  72
ATOM     72  C   UNL A   1      36.394  33.335  30.977  1.00  0.00    -0.014 A 
ATOM     73  C   UNL A   1      35.084  33.287  31.487  1.00  0.00     0.010 A 
ATOM     74  C   UNL A   1      36.660  34.122  29.843  1.00  0.00     0.010 A 
ATOM     75  C   UNL A   1      34.059  34.012  30.872  1.00  0.00     0.020 A 
ATOM     76  C   UNL A   1      35.641  34.863  29.237  1.00  0.00     0.020 A 
ATOM     77  C   UNL A   1      34.345  34.799  29.754  1.00  0.00     0.054 A 
BRANCH  77  78
ATOM     78  S   UNL A   1      33.013  35.789  29.018  1.00  0.00     0.124 S 
ATOM     79  O   UNL A   1      32.353  34.816  28.154  1.00  0.00    -0.237 OA
ATOM     80  O   UNL A   1      32.252  36.214  30.190  1.00  0.00    -0.237 OA
ATOM     81  O   UNL A   1      33.727  36.860  28.327  1.00  0.00    -0.744 OA
ENDBRANCH  77  78
ENDBRANCH  49  72
BRANCH  61  82
ATOM     82  C   UNL A   1      39.890  34.292  36.935  1.00  0.00    -0.014 A 
ATOM     83  C   UNL A   1      40.586  35.507  36.808  1.00  0.00     0.010 A 
ATOM     84  C   UNL A   1      39.049  34.091  38.044  1.00  0.00     0.010 A 
ATOM     85  C   UNL A   1      40.454  36.498  37.783  1.00  0.00     0.020 A 
ATOM     86  C   UNL A   1      38.899  35.088  39.011  1.00  0.00     0.020 A 
ATOM     87  C   UNL A   1      39.610  36.283  38.877  1.00  0.00     0.054 A 
BRANCH  87  88
ATOM     88  S   UNL A   1      39.407  37.610  40.098  1.00  0.00     0.124 S 
ATOM     89  O   UNL A   1      38.327  38.399  39.513  1.00  0.00    -0.237 OA
ATOM     90  O   UNL A   1      39.062  36.878  41.315  1.00  0.00    -0.237 OA
ATOM     91  O   UNL A   1      40.714  38.262  40.121  1.00  0.00    -0.744 OA
ENDBRANCH  87  88
ENDBRANCH  61  82
ENDBRANCH  35  36
ENDBRANCH  27  30
ENDBRANCH  25  26
ENDBRANCH   1  25
TORSDOF 15
ENDMDL
