MODEL 1
REMARK VINA RESULT:     -10.0      0.000      0.000
REMARK SMILES CC[C@H](C)[NH2+]CCc1ccc(C(=O)NCCCCNC(=O)c2ccc(-c3c4nc(c(-c5ccc(S(=O)(=O)[O-])cc5)c5ccc([nH]5)c(-c5ccc(S(=O)(=O)[O-])cc5)c5nc(c(-c6ccc(S(=O)(=O)[O-])cc6)c6ccc3[nH]6)C=C5)C=C4)cc2)cc1
REMARK SMILES IDX 15 1 14 2 12 3 13 4 11 6 8 7 9 8 83 9 10 10 82 11 7 12 6 13
REMARK SMILES IDX 5 14 3 17 4 18 2 19 1 20 16 21 17 22 18 23 19 24 20 25 21 27
REMARK SMILES IDX 22 28 23 29 81 30 24 31 80 32 25 33 26 34 27 35 74 36 28 37
REMARK SMILES IDX 79 38 73 39 75 40 29 41 78 42 72 43 71 44 30 46 60 47 41 48
REMARK SMILES IDX 59 49 42 50 45 51 58 52 76 53 43 54 44 55 57 57 77 58 46 59
REMARK SMILES IDX 31 60 32 61 40 62 33 63 39 64 34 65 35 66 36 67 37 68 38 69
REMARK SMILES IDX 61 70 62 71 70 72 63 73 69 74 64 75 65 76 66 77 67 78 68 79
REMARK SMILES IDX 47 80 48 81 56 82 49 83 55 84 50 85 51 86 52 87 53 88 54 89
REMARK H PARENT 14 5 5 15 5 16 19 26 75 45 45 56
REMARK Flexibility Score: inf
ROOT
ATOM      1  C   UNL A   1      32.200  29.281  24.630  1.00  0.00     0.116 C 
ENDROOT
BRANCH   1   2
ATOM      2  N   UNL A   1      31.269  29.332  23.517  1.00  0.00    -0.352 N 
ATOM      3  C   UNL A   1      30.721  28.346  22.731  1.00  0.00     0.251 C 
ATOM      4  O   UNL A   1      29.857  28.673  21.916  1.00  0.00    -0.269 OA
ATOM      5  H   UNL A   1      30.977  30.242  23.281  1.00  0.00     0.163 HD
BRANCH   3   6
ATOM      6  C   UNL A   1      31.095  26.908  22.841  1.00  0.00     0.039 A 
ATOM      7  C   UNL A   1      31.895  24.177  22.963  1.00  0.00    -0.042 A 
ATOM      8  C   UNL A   1      32.715  25.148  22.364  1.00  0.00     0.005 A 
ATOM      9  C   UNL A   1      30.689  24.608  23.502  1.00  0.00     0.005 A 
ATOM     10  C   UNL A   1      32.321  26.495  22.303  1.00  0.00     0.014 A 
ATOM     11  C   UNL A   1      30.316  25.951  23.478  1.00  0.00     0.014 A 
BRANCH   7  12
ATOM     12  C   UNL A   1      32.298  22.721  22.889  1.00  0.00     0.097 C 
BRANCH  12  13
ATOM     13  C   UNL A   1      33.143  22.055  24.006  1.00  0.00     0.265 C 
BRANCH  13  14
ATOM     14  N   UNL A   1      32.805  22.163  25.414  1.00  0.00    -0.344 N 
ATOM     15  H   UNL A   1      31.847  22.515  25.449  1.00  0.00     0.346 HD
ATOM     16  H   UNL A   1      33.013  21.222  25.749  1.00  0.00     0.346 HD
BRANCH  14  17
ATOM     17  C   UNL A   1      33.568  22.982  26.352  1.00  0.00     0.178 C 
ATOM     18  C   UNL A   1      34.058  22.046  27.471  1.00  0.00     0.075 C 
BRANCH  17  19
ATOM     19  C   UNL A   1      34.739  23.788  25.764  1.00  0.00     0.061 C 
ATOM     20  C   UNL A   1      34.402  25.247  25.476  1.00  0.00     0.010 C 
ENDBRANCH  17  19
ENDBRANCH  14  17
ENDBRANCH  13  14
ENDBRANCH  12  13
ENDBRANCH   7  12
ENDBRANCH   3   6
ENDBRANCH   1   2
BRANCH   1  21
ATOM     21  C   UNL A   1      31.514  28.811  25.918  1.00  0.00     0.023 C 
BRANCH  21  22
ATOM     22  C   UNL A   1      32.382  27.947  26.830  1.00  0.00     0.023 C 
BRANCH  22  23
ATOM     23  C   UNL A   1      33.717  28.567  27.215  1.00  0.00     0.116 C 
BRANCH  23  24
ATOM     24  N   UNL A   1      33.602  29.940  27.688  1.00  0.00    -0.352 N 
ATOM     25  C   UNL A   1      34.561  30.695  28.319  1.00  0.00     0.251 C 
ATOM     26  H   UNL A   1      32.734  30.379  27.538  1.00  0.00     0.163 HD
ATOM     27  O   UNL A   1      34.288  31.810  28.754  1.00  0.00    -0.269 OA
BRANCH  25  28
ATOM     28  C   UNL A   1      35.910  30.123  28.508  1.00  0.00     0.039 A 
ATOM     29  C   UNL A   1      36.829  30.198  27.459  1.00  0.00     0.014 A 
ATOM     30  C   UNL A   1      36.283  29.574  29.739  1.00  0.00     0.014 A 
ATOM     31  C   UNL A   1      38.146  29.785  27.668  1.00  0.00     0.010 A 
ATOM     32  C   UNL A   1      37.611  29.231  29.966  1.00  0.00     0.010 A 
ATOM     33  C   UNL A   1      38.556  29.335  28.934  1.00  0.00    -0.014 A 
BRANCH  33  34
ATOM     34  C   UNL A   1      39.970  28.975  29.203  1.00  0.00     0.031 A 
ATOM     35  C   UNL A   1      40.906  29.991  29.798  1.00  0.00     0.074 A 
ATOM     36  C   UNL A   1      40.428  27.758  28.846  1.00  0.00     0.049 A 
ATOM     37  N   UNL A   1      42.185  29.885  30.048  1.00  0.00    -0.248 NA
ATOM     38  C   UNL A   1      40.335  31.307  30.130  1.00  0.00     0.031 C 
ATOM     39  C   UNL A   1      39.631  26.702  28.217  1.00  0.00     0.029 A 
ATOM     40  N   UNL A   1      41.681  27.207  28.953  1.00  0.00    -0.354 N 
ATOM     41  C   UNL A   1      42.575  31.122  30.547  1.00  0.00     0.074 A 
ATOM     42  C   UNL A   1      41.410  31.977  30.522  1.00  0.00     0.031 C 
ATOM     43  C   UNL A   1      40.407  25.623  28.020  1.00  0.00     0.029 A 
ATOM     44  C   UNL A   1      41.762  25.922  28.472  1.00  0.00     0.049 A 
ATOM     45  H   UNL A   1      42.448  27.688  29.339  1.00  0.00     0.167 HD
ATOM     46  C   UNL A   1      43.792  31.505  31.005  1.00  0.00     0.031 A 
ATOM     47  C   UNL A   1      42.810  25.079  28.399  1.00  0.00     0.031 A 
ATOM     48  C   UNL A   1      44.944  30.648  31.047  1.00  0.00     0.049 A 
ATOM     49  C   UNL A   1      44.149  25.527  28.919  1.00  0.00     0.074 A 
ATOM     50  C   UNL A   1      46.204  30.924  31.550  1.00  0.00     0.029 A 
ATOM     51  N   UNL A   1      44.981  29.347  30.567  1.00  0.00    -0.354 N 
ATOM     52  N   UNL A   1      44.482  26.679  29.451  1.00  0.00    -0.248 NA
ATOM     53  C   UNL A   1      45.250  24.558  28.837  1.00  0.00     0.031 C 
ATOM     54  C   UNL A   1      47.014  29.805  31.334  1.00  0.00     0.029 A 
ATOM     55  C   UNL A   1      46.246  28.814  30.744  1.00  0.00     0.049 A 
ATOM     56  H   UNL A   1      44.220  28.873  30.161  1.00  0.00     0.167 HD
ATOM     57  C   UNL A   1      45.824  26.563  29.793  1.00  0.00     0.074 A 
ATOM     58  C   UNL A   1      46.237  25.225  29.419  1.00  0.00     0.031 C 
ATOM     59  C   UNL A   1      46.640  27.480  30.368  1.00  0.00     0.031 A 
BRANCH  46  60
ATOM     60  C   UNL A   1      43.933  32.923  31.495  1.00  0.00    -0.014 A 
ATOM     61  C   UNL A   1      44.305  33.958  30.621  1.00  0.00     0.010 A 
ATOM     62  C   UNL A   1      43.655  33.228  32.840  1.00  0.00     0.010 A 
ATOM     63  C   UNL A   1      44.439  35.268  31.090  1.00  0.00     0.020 A 
ATOM     64  C   UNL A   1      43.761  34.541  33.307  1.00  0.00     0.020 A 
ATOM     65  C   UNL A   1      44.170  35.550  32.433  1.00  0.00     0.054 A 
BRANCH  65  66
ATOM     66  S   UNL A   1      44.333  37.260  33.012  1.00  0.00     0.124 S 
ATOM     67  O   UNL A   1      43.114  37.428  33.799  1.00  0.00    -0.237 OA
ATOM     68  O   UNL A   1      45.576  37.223  33.780  1.00  0.00    -0.237 OA
ATOM     69  O   UNL A   1      44.390  38.040  31.778  1.00  0.00    -0.744 OA
ENDBRANCH  65  66
ENDBRANCH  46  60
BRANCH  47  70
ATOM     70  C   UNL A   1      42.630  23.714  27.835  1.00  0.00    -0.014 A 
ATOM     71  C   UNL A   1      42.273  22.641  28.668  1.00  0.00     0.010 A 
ATOM     72  C   UNL A   1      42.806  23.482  26.458  1.00  0.00     0.010 A 
ATOM     73  C   UNL A   1      42.112  21.355  28.141  1.00  0.00     0.020 A 
ATOM     74  C   UNL A   1      42.623  22.204  25.923  1.00  0.00     0.020 A 
ATOM     75  C   UNL A   1      42.289  21.146  26.770  1.00  0.00     0.054 A 
BRANCH  75  76
ATOM     76  S   UNL A   1      42.029  19.481  26.099  1.00  0.00     0.124 S 
ATOM     77  O   UNL A   1      42.494  18.635  27.195  1.00  0.00    -0.237 OA
ATOM     78  O   UNL A   1      40.590  19.460  25.851  1.00  0.00    -0.237 OA
ATOM     79  O   UNL A   1      42.860  19.463  24.897  1.00  0.00    -0.744 OA
ENDBRANCH  75  76
ENDBRANCH  47  70
BRANCH  59  80
ATOM     80  C   UNL A   1      48.055  27.061  30.660  1.00  0.00    -0.014 A 
ATOM     81  C   UNL A   1      49.098  27.340  29.760  1.00  0.00     0.010 A 
ATOM     82  C   UNL A   1      48.351  26.427  31.882  1.00  0.00     0.010 A 
ATOM     83  C   UNL A   1      50.410  26.967  30.065  1.00  0.00     0.020 A 
ATOM     84  C   UNL A   1      49.665  26.076  32.200  1.00  0.00     0.020 A 
ATOM     85  C   UNL A   1      50.685  26.337  31.282  1.00  0.00     0.054 A 
BRANCH  85  86
ATOM     86  S   UNL A   1      52.402  25.905  31.676  1.00  0.00     0.124 S 
ATOM     87  O   UNL A   1      53.063  26.084  30.385  1.00  0.00    -0.237 OA
ATOM     88  O   UNL A   1      52.753  26.882  32.702  1.00  0.00    -0.237 OA
ATOM     89  O   UNL A   1      52.313  24.524  32.144  1.00  0.00    -0.744 OA
ENDBRANCH  85  86
ENDBRANCH  59  80
ENDBRANCH  33  34
ENDBRANCH  25  28
ENDBRANCH  23  24
ENDBRANCH  22  23
ENDBRANCH  21  22
ENDBRANCH   1  21
TORSDOF 19
ENDMDL
MODEL 2
REMARK VINA RESULT:      -9.2      2.876      3.536
REMARK SMILES CC[C@H](C)[NH2+]CCc1ccc(C(=O)NCCCCNC(=O)c2ccc(-c3c4nc(c(-c5ccc(S(=O)(=O)[O-])cc5)c5ccc([nH]5)c(-c5ccc(S(=O)(=O)[O-])cc5)c5nc(c(-c6ccc(S(=O)(=O)[O-])cc6)c6ccc3[nH]6)C=C5)C=C4)cc2)cc1
REMARK SMILES IDX 15 1 14 2 12 3 13 4 11 6 8 7 9 8 83 9 10 10 82 11 7 12 6 13
REMARK SMILES IDX 5 14 3 17 4 18 2 19 1 20 16 21 17 22 18 23 19 24 20 25 21 27
REMARK SMILES IDX 22 28 23 29 81 30 24 31 80 32 25 33 26 34 27 35 74 36 28 37
REMARK SMILES IDX 79 38 73 39 75 40 29 41 78 42 72 43 71 44 30 46 60 47 41 48
REMARK SMILES IDX 59 49 42 50 45 51 58 52 76 53 43 54 44 55 57 57 77 58 46 59
REMARK SMILES IDX 31 60 32 61 40 62 33 63 39 64 34 65 35 66 36 67 37 68 38 69
REMARK SMILES IDX 61 70 62 71 70 72 63 73 69 74 64 75 65 76 66 77 67 78 68 79
REMARK SMILES IDX 47 80 48 81 56 82 49 83 55 84 50 85 51 86 52 87 53 88 54 89
REMARK H PARENT 14 5 5 15 5 16 19 26 75 45 45 56
REMARK Flexibility Score: inf
ROOT
ATOM      1  C   UNL A   1      31.539  28.775  23.757  1.00  0.00     0.116 C 
ENDROOT
BRANCH   1   2
ATOM      2  N   UNL A   1      30.151  28.464  23.462  1.00  0.00    -0.352 N 
ATOM      3  C   UNL A   1      29.395  27.336  23.680  1.00  0.00     0.251 C 
ATOM      4  O   UNL A   1      28.191  27.392  23.425  1.00  0.00    -0.269 OA
ATOM      5  H   UNL A   1      29.660  29.197  23.024  1.00  0.00     0.163 HD
BRANCH   3   6
ATOM      6  C   UNL A   1      29.952  26.071  24.237  1.00  0.00     0.039 A 
ATOM      7  C   UNL A   1      30.997  23.601  25.193  1.00  0.00    -0.042 A 
ATOM      8  C   UNL A   1      30.862  23.848  23.816  1.00  0.00     0.005 A 
ATOM      9  C   UNL A   1      30.613  24.614  26.062  1.00  0.00     0.005 A 
ATOM     10  C   UNL A   1      30.346  25.066  23.344  1.00  0.00     0.014 A 
ATOM     11  C   UNL A   1      30.140  25.838  25.593  1.00  0.00     0.014 A 
BRANCH   7  12
ATOM     12  C   UNL A   1      31.432  22.228  25.658  1.00  0.00     0.097 C 
BRANCH  12  13
ATOM     13  C   UNL A   1      32.492  21.406  24.880  1.00  0.00     0.265 C 
BRANCH  13  14
ATOM     14  N   UNL A   1      33.850  21.222  25.363  1.00  0.00    -0.344 N 
ATOM     15  H   UNL A   1      33.892  21.687  26.271  1.00  0.00     0.346 HD
ATOM     16  H   UNL A   1      33.953  20.209  25.306  1.00  0.00     0.346 HD
BRANCH  14  17
ATOM     17  C   UNL A   1      35.023  21.677  24.623  1.00  0.00     0.178 C 
ATOM     18  C   UNL A   1      34.730  23.116  24.159  1.00  0.00     0.075 C 
BRANCH  17  19
ATOM     19  C   UNL A   1      36.371  21.607  25.363  1.00  0.00     0.061 C 
ATOM     20  C   UNL A   1      37.323  20.553  24.810  1.00  0.00     0.010 C 
ENDBRANCH  17  19
ENDBRANCH  14  17
ENDBRANCH  13  14
ENDBRANCH  12  13
ENDBRANCH   7  12
ENDBRANCH   3   6
ENDBRANCH   1   2
BRANCH   1  21
ATOM     21  C   UNL A   1      31.690  29.424  25.137  1.00  0.00     0.023 C 
BRANCH  21  22
ATOM     22  C   UNL A   1      32.497  28.610  26.146  1.00  0.00     0.023 C 
BRANCH  22  23
ATOM     23  C   UNL A   1      33.771  29.283  26.634  1.00  0.00     0.116 C 
BRANCH  23  24
ATOM     24  N   UNL A   1      33.573  30.665  27.049  1.00  0.00    -0.352 N 
ATOM     25  C   UNL A   1      34.372  31.418  27.877  1.00  0.00     0.251 C 
ATOM     26  H   UNL A   1      32.771  31.113  26.695  1.00  0.00     0.163 HD
ATOM     27  O   UNL A   1      34.024  32.543  28.221  1.00  0.00    -0.269 OA
BRANCH  25  28
ATOM     28  C   UNL A   1      35.630  30.831  28.382  1.00  0.00     0.039 A 
ATOM     29  C   UNL A   1      36.845  31.400  27.992  1.00  0.00     0.014 A 
ATOM     30  C   UNL A   1      35.604  29.766  29.287  1.00  0.00     0.014 A 
ATOM     31  C   UNL A   1      38.032  30.943  28.566  1.00  0.00     0.010 A 
ATOM     32  C   UNL A   1      36.780  29.363  29.910  1.00  0.00     0.010 A 
ATOM     33  C   UNL A   1      38.005  29.949  29.557  1.00  0.00    -0.014 A 
BRANCH  33  34
ATOM     34  C   UNL A   1      39.246  29.511  30.244  1.00  0.00     0.031 A 
ATOM     35  C   UNL A   1      39.714  30.227  31.482  1.00  0.00     0.074 A 
ATOM     36  C   UNL A   1      39.987  28.518  29.714  1.00  0.00     0.049 A 
ATOM     37  N   UNL A   1      40.799  30.032  32.184  1.00  0.00    -0.248 NA
ATOM     38  C   UNL A   1      38.864  31.322  31.978  1.00  0.00     0.031 C 
ATOM     39  C   UNL A   1      39.664  27.778  28.491  1.00  0.00     0.029 A 
ATOM     40  N   UNL A   1      41.171  27.965  30.132  1.00  0.00    -0.354 N 
ATOM     41  C   UNL A   1      40.773  30.989  33.191  1.00  0.00     0.074 A 
ATOM     42  C   UNL A   1      39.589  31.793  32.983  1.00  0.00     0.031 C 
ATOM     43  C   UNL A   1      40.612  26.850  28.275  1.00  0.00     0.029 A 
ATOM     44  C   UNL A   1      41.627  26.955  29.318  1.00  0.00     0.049 A 
ATOM     45  H   UNL A   1      41.649  28.263  30.940  1.00  0.00     0.167 HD
ATOM     46  C   UNL A   1      41.646  31.170  34.212  1.00  0.00     0.031 A 
ATOM     47  C   UNL A   1      42.739  26.199  29.400  1.00  0.00     0.031 A 
ATOM     48  C   UNL A   1      42.812  30.358  34.428  1.00  0.00     0.049 A 
ATOM     49  C   UNL A   1      43.691  26.416  30.545  1.00  0.00     0.074 A 
ATOM     50  C   UNL A   1      43.724  30.422  35.467  1.00  0.00     0.029 A 
ATOM     51  N   UNL A   1      43.229  29.333  33.592  1.00  0.00    -0.354 N 
ATOM     52  N   UNL A   1      43.613  27.283  31.527  1.00  0.00    -0.248 NA
ATOM     53  C   UNL A   1      44.874  25.547  30.598  1.00  0.00     0.031 C 
ATOM     54  C   UNL A   1      44.717  29.465  35.235  1.00  0.00     0.029 A 
ATOM     55  C   UNL A   1      44.396  28.770  34.079  1.00  0.00     0.049 A 
ATOM     56  H   UNL A   1      42.764  29.048  32.772  1.00  0.00     0.167 HD
ATOM     57  C   UNL A   1      44.722  27.044  32.330  1.00  0.00     0.074 A 
ATOM     58  C   UNL A   1      45.448  25.944  31.726  1.00  0.00     0.031 C 
ATOM     59  C   UNL A   1      45.104  27.675  33.467  1.00  0.00     0.031 A 
BRANCH  46  60
ATOM     60  C   UNL A   1      41.369  32.298  35.171  1.00  0.00    -0.014 A 
ATOM     61  C   UNL A   1      41.900  33.581  34.953  1.00  0.00     0.010 A 
ATOM     62  C   UNL A   1      40.538  32.080  36.285  1.00  0.00     0.010 A 
ATOM     63  C   UNL A   1      41.641  34.617  35.854  1.00  0.00     0.020 A 
ATOM     64  C   UNL A   1      40.253  33.120  37.173  1.00  0.00     0.020 A 
ATOM     65  C   UNL A   1      40.822  34.378  36.962  1.00  0.00     0.054 A 
BRANCH  65  66
ATOM     66  S   UNL A   1      40.485  35.745  38.105  1.00  0.00     0.124 S 
ATOM     67  O   UNL A   1      41.833  36.129  38.519  1.00  0.00    -0.237 OA
ATOM     68  O   UNL A   1      39.790  36.710  37.256  1.00  0.00    -0.237 OA
ATOM     69  O   UNL A   1      39.664  35.132  39.146  1.00  0.00    -0.744 OA
ENDBRANCH  65  66
ENDBRANCH  46  60
BRANCH  47  70
ATOM     70  C   UNL A   1      43.002  25.148  28.380  1.00  0.00    -0.014 A 
ATOM     71  C   UNL A   1      43.693  25.461  27.197  1.00  0.00     0.010 A 
ATOM     72  C   UNL A   1      42.572  23.825  28.591  1.00  0.00     0.010 A 
ATOM     73  C   UNL A   1      43.932  24.477  26.233  1.00  0.00     0.020 A 
ATOM     74  C   UNL A   1      42.831  22.832  27.641  1.00  0.00     0.020 A 
ATOM     75  C   UNL A   1      43.500  23.168  26.463  1.00  0.00     0.054 A 
BRANCH  75  76
ATOM     76  S   UNL A   1      43.864  21.896  25.222  1.00  0.00     0.124 S 
ATOM     77  O   UNL A   1      43.699  22.634  23.973  1.00  0.00    -0.237 OA
ATOM     78  O   UNL A   1      45.234  21.512  25.553  1.00  0.00    -0.237 OA
ATOM     79  O   UNL A   1      42.858  20.868  25.481  1.00  0.00    -0.744 OA
ENDBRANCH  75  76
ENDBRANCH  47  70
BRANCH  59  80
ATOM     80  C   UNL A   1      46.345  27.174  34.154  1.00  0.00    -0.014 A 
ATOM     81  C   UNL A   1      47.607  27.725  33.870  1.00  0.00     0.010 A 
ATOM     82  C   UNL A   1      46.236  26.174  35.138  1.00  0.00     0.010 A 
ATOM     83  C   UNL A   1      48.743  27.264  34.541  1.00  0.00     0.020 A 
ATOM     84  C   UNL A   1      47.366  25.729  35.828  1.00  0.00     0.020 A 
ATOM     85  C   UNL A   1      48.616  26.269  35.515  1.00  0.00     0.054 A 
BRANCH  85  86
ATOM     86  S   UNL A   1      50.098  25.721  36.405  1.00  0.00     0.124 S 
ATOM     87  O   UNL A   1      49.681  24.418  36.916  1.00  0.00    -0.237 OA
ATOM     88  O   UNL A   1      51.111  25.688  35.354  1.00  0.00    -0.237 OA
ATOM     89  O   UNL A   1      50.295  26.755  37.419  1.00  0.00    -0.744 OA
ENDBRANCH  85  86
ENDBRANCH  59  80
ENDBRANCH  33  34
ENDBRANCH  25  28
ENDBRANCH  23  24
ENDBRANCH  22  23
ENDBRANCH  21  22
ENDBRANCH   1  21
TORSDOF 19
ENDMDL
MODEL 3
REMARK VINA RESULT:      -8.8      6.052     13.055
REMARK SMILES CC[C@H](C)[NH2+]CCc1ccc(C(=O)NCCCCNC(=O)c2ccc(-c3c4nc(c(-c5ccc(S(=O)(=O)[O-])cc5)c5ccc([nH]5)c(-c5ccc(S(=O)(=O)[O-])cc5)c5nc(c(-c6ccc(S(=O)(=O)[O-])cc6)c6ccc3[nH]6)C=C5)C=C4)cc2)cc1
REMARK SMILES IDX 15 1 14 2 12 3 13 4 11 6 8 7 9 8 83 9 10 10 82 11 7 12 6 13
REMARK SMILES IDX 5 14 3 17 4 18 2 19 1 20 16 21 17 22 18 23 19 24 20 25 21 27
REMARK SMILES IDX 22 28 23 29 81 30 24 31 80 32 25 33 26 34 27 35 74 36 28 37
REMARK SMILES IDX 79 38 73 39 75 40 29 41 78 42 72 43 71 44 30 46 60 47 41 48
REMARK SMILES IDX 59 49 42 50 45 51 58 52 76 53 43 54 44 55 57 57 77 58 46 59
REMARK SMILES IDX 31 60 32 61 40 62 33 63 39 64 34 65 35 66 36 67 37 68 38 69
REMARK SMILES IDX 61 70 62 71 70 72 63 73 69 74 64 75 65 76 66 77 67 78 68 79
REMARK SMILES IDX 47 80 48 81 56 82 49 83 55 84 50 85 51 86 52 87 53 88 54 89
REMARK H PARENT 14 5 5 15 5 16 19 26 75 45 45 56
REMARK Flexibility Score: inf
ROOT
ATOM      1  C   UNL A   1      46.515  40.445  25.979  1.00  0.00     0.116 C 
ENDROOT
BRANCH   1   2
ATOM      2  N   UNL A   1      45.970  41.327  26.997  1.00  0.00    -0.352 N 
ATOM      3  C   UNL A   1      44.915  42.209  26.981  1.00  0.00     0.251 C 
ATOM      4  O   UNL A   1      44.602  42.752  28.041  1.00  0.00    -0.269 OA
ATOM      5  H   UNL A   1      46.445  41.285  27.859  1.00  0.00     0.163 HD
BRANCH   3   6
ATOM      6  C   UNL A   1      44.118  42.509  25.757  1.00  0.00     0.039 A 
ATOM      7  C   UNL A   1      42.558  42.967  23.420  1.00  0.00    -0.042 A 
ATOM      8  C   UNL A   1      42.327  41.850  24.240  1.00  0.00     0.005 A 
ATOM      9  C   UNL A   1      43.567  43.841  23.804  1.00  0.00     0.005 A 
ATOM     10  C   UNL A   1      43.096  41.623  25.393  1.00  0.00     0.014 A 
ATOM     11  C   UNL A   1      44.304  43.638  24.970  1.00  0.00     0.014 A 
BRANCH   7  12
ATOM     12  C   UNL A   1      41.796  43.100  22.120  1.00  0.00     0.097 C 
BRANCH  12  13
ATOM     13  C   UNL A   1      42.448  42.754  20.756  1.00  0.00     0.265 C 
BRANCH  13  14
ATOM     14  N   UNL A   1      43.837  42.348  20.633  1.00  0.00    -0.344 N 
ATOM     15  H   UNL A   1      44.172  42.192  21.585  1.00  0.00     0.346 HD
ATOM     16  H   UNL A   1      43.766  41.564  19.985  1.00  0.00     0.346 HD
BRANCH  14  17
ATOM     17  C   UNL A   1      44.850  43.175  19.982  1.00  0.00     0.178 C 
ATOM     18  C   UNL A   1      44.568  44.633  20.388  1.00  0.00     0.075 C 
BRANCH  17  19
ATOM     19  C   UNL A   1      46.318  42.806  20.259  1.00  0.00     0.061 C 
ATOM     20  C   UNL A   1      46.504  41.853  21.433  1.00  0.00     0.010 C 
ENDBRANCH  17  19
ENDBRANCH  14  17
ENDBRANCH  13  14
ENDBRANCH  12  13
ENDBRANCH   7  12
ENDBRANCH   3   6
ENDBRANCH   1   2
BRANCH   1  21
ATOM     21  C   UNL A   1      45.959  39.023  26.108  1.00  0.00     0.023 C 
BRANCH  21  22
ATOM     22  C   UNL A   1      45.020  38.804  27.292  1.00  0.00     0.023 C 
BRANCH  22  23
ATOM     23  C   UNL A   1      45.495  37.766  28.298  1.00  0.00     0.116 C 
BRANCH  23  24
ATOM     24  N   UNL A   1      46.848  38.003  28.780  1.00  0.00    -0.352 N 
ATOM     25  C   UNL A   1      47.811  37.069  29.079  1.00  0.00     0.251 C 
ATOM     26  H   UNL A   1      47.104  38.945  28.908  1.00  0.00     0.163 HD
ATOM     27  O   UNL A   1      48.879  37.414  29.575  1.00  0.00    -0.269 OA
BRANCH  25  28
ATOM     28  C   UNL A   1      47.519  35.640  28.839  1.00  0.00     0.039 A 
ATOM     29  C   UNL A   1      47.469  34.768  29.928  1.00  0.00     0.014 A 
ATOM     30  C   UNL A   1      47.234  35.181  27.549  1.00  0.00     0.014 A 
ATOM     31  C   UNL A   1      47.063  33.448  29.733  1.00  0.00     0.010 A 
ATOM     32  C   UNL A   1      46.761  33.886  27.368  1.00  0.00     0.010 A 
ATOM     33  C   UNL A   1      46.669  33.007  28.459  1.00  0.00    -0.014 A 
BRANCH  33  34
ATOM     34  C   UNL A   1      46.150  31.634  28.244  1.00  0.00     0.031 A 
ATOM     35  C   UNL A   1      44.721  31.307  28.584  1.00  0.00     0.074 A 
ATOM     36  C   UNL A   1      46.982  30.666  27.812  1.00  0.00     0.049 A 
ATOM     37  N   UNL A   1      44.103  30.156  28.524  1.00  0.00    -0.248 NA
ATOM     38  C   UNL A   1      43.886  32.413  29.081  1.00  0.00     0.031 C 
ATOM     39  C   UNL A   1      48.401  30.846  27.494  1.00  0.00     0.029 A 
ATOM     40  N   UNL A   1      46.757  29.333  27.573  1.00  0.00    -0.354 N 
ATOM     41  C   UNL A   1      42.817  30.394  28.993  1.00  0.00     0.074 A 
ATOM     42  C   UNL A   1      42.755  31.787  29.376  1.00  0.00     0.031 C 
ATOM     43  C   UNL A   1      48.911  29.675  27.076  1.00  0.00     0.029 A 
ATOM     44  C   UNL A   1      47.869  28.655  27.133  1.00  0.00     0.049 A 
ATOM     45  H   UNL A   1      45.881  28.904  27.706  1.00  0.00     0.167 HD
ATOM     46  C   UNL A   1      41.773  29.534  29.078  1.00  0.00     0.031 A 
ATOM     47  C   UNL A   1      48.033  27.357  26.814  1.00  0.00     0.031 A 
ATOM     48  C   UNL A   1      41.831  28.155  28.679  1.00  0.00     0.049 A 
ATOM     49  C   UNL A   1      46.858  26.423  26.912  1.00  0.00     0.074 A 
ATOM     50  C   UNL A   1      40.811  27.219  28.668  1.00  0.00     0.029 A 
ATOM     51  N   UNL A   1      42.971  27.510  28.221  1.00  0.00    -0.354 N 
ATOM     52  N   UNL A   1      45.629  26.683  27.293  1.00  0.00    -0.248 NA
ATOM     53  C   UNL A   1      47.088  25.024  26.528  1.00  0.00     0.031 C 
ATOM     54  C   UNL A   1      41.345  25.997  28.245  1.00  0.00     0.029 A 
ATOM     55  C   UNL A   1      42.685  26.185  27.943  1.00  0.00     0.049 A 
ATOM     56  H   UNL A   1      43.852  27.934  28.109  1.00  0.00     0.167 HD
ATOM     57  C   UNL A   1      44.934  25.486  27.167  1.00  0.00     0.074 A 
ATOM     58  C   UNL A   1      45.875  24.506  26.664  1.00  0.00     0.031 C 
ATOM     59  C   UNL A   1      43.632  25.224  27.441  1.00  0.00     0.031 A 
BRANCH  46  60
ATOM     60  C   UNL A   1      40.477  30.069  29.629  1.00  0.00    -0.014 A 
ATOM     61  C   UNL A   1      40.363  30.439  30.980  1.00  0.00     0.010 A 
ATOM     62  C   UNL A   1      39.371  30.235  28.776  1.00  0.00     0.010 A 
ATOM     63  C   UNL A   1      39.152  30.926  31.481  1.00  0.00     0.020 A 
ATOM     64  C   UNL A   1      38.167  30.749  29.267  1.00  0.00     0.020 A 
ATOM     65  C   UNL A   1      38.060  31.074  30.620  1.00  0.00     0.054 A 
BRANCH  65  66
ATOM     66  S   UNL A   1      36.507  31.727  31.291  1.00  0.00     0.124 S 
ATOM     67  O   UNL A   1      35.894  30.526  31.853  1.00  0.00    -0.237 OA
ATOM     68  O   UNL A   1      36.968  32.712  32.268  1.00  0.00    -0.237 OA
ATOM     69  O   UNL A   1      35.832  32.284  30.122  1.00  0.00    -0.744 OA
ENDBRANCH  65  66
ENDBRANCH  46  60
BRANCH  47  70
ATOM     70  C   UNL A   1      49.358  26.867  26.347  1.00  0.00    -0.014 A 
ATOM     71  C   UNL A   1      50.233  26.222  27.238  1.00  0.00     0.010 A 
ATOM     72  C   UNL A   1      49.748  27.033  25.005  1.00  0.00     0.010 A 
ATOM     73  C   UNL A   1      51.482  25.769  26.803  1.00  0.00     0.020 A 
ATOM     74  C   UNL A   1      50.986  26.559  24.560  1.00  0.00     0.020 A 
ATOM     75  C   UNL A   1      51.850  25.941  25.465  1.00  0.00     0.054 A 
BRANCH  75  76
ATOM     76  S   UNL A   1      53.455  25.302  24.910  1.00  0.00     0.124 S 
ATOM     77  O   UNL A   1      53.444  25.645  23.491  1.00  0.00    -0.237 OA
ATOM     78  O   UNL A   1      54.398  26.054  25.735  1.00  0.00    -0.237 OA
ATOM     79  O   UNL A   1      53.377  23.875  25.212  1.00  0.00    -0.744 OA
ENDBRANCH  75  76
ENDBRANCH  47  70
BRANCH  59  80
ATOM     80  C   UNL A   1      43.137  23.829  27.171  1.00  0.00    -0.014 A 
ATOM     81  C   UNL A   1      42.842  23.399  25.866  1.00  0.00     0.010 A 
ATOM     82  C   UNL A   1      43.018  22.919  28.239  1.00  0.00     0.010 A 
ATOM     83  C   UNL A   1      42.410  22.090  25.635  1.00  0.00     0.020 A 
ATOM     84  C   UNL A   1      42.610  21.602  28.008  1.00  0.00     0.020 A 
ATOM     85  C   UNL A   1      42.296  21.200  26.708  1.00  0.00     0.054 A 
BRANCH  85  86
ATOM     86  S   UNL A   1      41.779  19.493  26.377  1.00  0.00     0.124 S 
ATOM     87  O   UNL A   1      40.331  19.634  26.252  1.00  0.00    -0.237 OA
ATOM     88  O   UNL A   1      42.489  19.176  25.141  1.00  0.00    -0.237 OA
ATOM     89  O   UNL A   1      42.235  18.760  27.556  1.00  0.00    -0.744 OA
ENDBRANCH  85  86
ENDBRANCH  59  80
ENDBRANCH  33  34
ENDBRANCH  25  28
ENDBRANCH  23  24
ENDBRANCH  22  23
ENDBRANCH  21  22
ENDBRANCH   1  21
TORSDOF 19
ENDMDL
