MODEL 1
REMARK VINA RESULT:      -8.5      0.000      0.000
REMARK SMILES CCCCOC(=O)c1ccc(N2C[C@H](C(=O)NCCCCNC(=O)c3ccc(-c4c5nc(c(-c6ccc(S(=O)(=O)[O-])cc6)c6ccc([nH]6)c(-c6ccc(S(=O)(=O)[O-])cc6)c6nc(c(-c7ccc(S(=O)(=O)[O-])cc7)c7ccc4[nH]7)C=C6)C=C5)cc3)CC2=O)cc1
REMARK SMILES IDX 18 1 17 2 15 3 16 4 14 6 12 7 13 8 86 9 85 10 87 11 11 12
REMARK SMILES IDX 8 13 9 14 89 15 10 16 88 17 6 18 7 19 5 20 4 21 3 22 2 23
REMARK SMILES IDX 1 24 19 25 20 26 21 27 22 28 23 29 24 31 25 32 26 33 84 34
REMARK SMILES IDX 27 35 83 36 28 37 29 38 30 39 77 40 31 41 82 42 76 43 78 44
REMARK SMILES IDX 32 45 81 46 75 47 74 48 33 50 63 51 44 52 62 53 45 54 48 55
REMARK SMILES IDX 61 56 79 57 46 58 47 59 60 61 80 62 49 63 34 64 35 65 43 66
REMARK SMILES IDX 36 67 42 68 37 69 38 70 39 71 40 72 41 73 64 74 65 75 73 76
REMARK SMILES IDX 66 77 72 78 67 79 68 80 69 81 70 82 71 83 50 84 51 85 59 86
REMARK SMILES IDX 52 87 58 88 53 89 54 90 55 91 56 92 57 93
REMARK H PARENT 17 5 22 30 78 49 48 60
REMARK Flexibility Score: inf
ROOT
ATOM      1  C   UNL A   1      37.034  33.550  31.363  1.00  0.00     0.116 C 
ENDROOT
BRANCH   1   2
ATOM      2  N   UNL A   1      37.763  34.382  32.303  1.00  0.00    -0.356 N 
ATOM      3  C   UNL A   1      38.117  34.210  33.601  1.00  0.00     0.225 C 
ATOM      4  O   UNL A   1      38.804  35.102  34.113  1.00  0.00    -0.275 OA
ATOM      5  H   UNL A   1      38.058  35.242  31.924  1.00  0.00     0.163 HD
BRANCH   3   6
ATOM      6  C   UNL A   1      37.662  33.050  34.472  1.00  0.00     0.107 C 
ATOM      7  N   UNL A   1      39.199  31.425  35.229  1.00  0.00    -0.312 N 
ATOM      8  C   UNL A   1      38.361  31.762  34.102  1.00  0.00     0.139 C 
ATOM      9  C   UNL A   1      38.877  32.199  36.352  1.00  0.00     0.227 C 
ATOM     10  C   UNL A   1      37.809  33.196  35.971  1.00  0.00     0.116 C 
ATOM     11  O   UNL A   1      39.356  32.166  37.475  1.00  0.00    -0.274 OA
BRANCH   7  12
ATOM     12  C   UNL A   1      40.216  30.429  35.161  1.00  0.00     0.044 A 
ATOM     13  C   UNL A   1      42.324  28.577  34.894  1.00  0.00     0.060 A 
ATOM     14  C   UNL A   1      41.250  28.528  34.009  1.00  0.00     0.018 A 
ATOM     15  C   UNL A   1      42.346  29.511  35.925  1.00  0.00     0.018 A 
ATOM     16  C   UNL A   1      40.198  29.441  34.157  1.00  0.00     0.027 A 
ATOM     17  C   UNL A   1      41.297  30.425  36.054  1.00  0.00     0.027 A 
BRANCH  13  18
ATOM     18  C   UNL A   1      43.487  27.700  34.719  1.00  0.00     0.338 C 
ATOM     19  O   UNL A   1      44.616  28.017  35.044  1.00  0.00    -0.246 OA
BRANCH  18  20
ATOM     20  O   UNL A   1      43.057  26.511  34.240  1.00  0.00    -0.462 OA
BRANCH  20  21
ATOM     21  C   UNL A   1      43.684  25.349  34.807  1.00  0.00     0.233 C 
BRANCH  21  22
ATOM     22  C   UNL A   1      42.641  24.465  35.486  1.00  0.00     0.041 C 
BRANCH  22  23
ATOM     23  C   UNL A   1      41.287  25.142  35.713  1.00  0.00     0.000 C 
ATOM     24  C   UNL A   1      41.077  25.605  37.146  1.00  0.00     0.004 C 
ENDBRANCH  22  23
ENDBRANCH  21  22
ENDBRANCH  20  21
ENDBRANCH  18  20
ENDBRANCH  13  18
ENDBRANCH   7  12
ENDBRANCH   3   6
ENDBRANCH   1   2
BRANCH   1  25
ATOM     25  C   UNL A   1      35.652  34.102  31.023  1.00  0.00     0.023 C 
BRANCH  25  26
ATOM     26  C   UNL A   1      34.724  33.140  30.280  1.00  0.00     0.023 C 
BRANCH  26  27
ATOM     27  C   UNL A   1      34.968  33.001  28.780  1.00  0.00     0.116 C 
BRANCH  27  28
ATOM     28  N   UNL A   1      34.083  32.056  28.119  1.00  0.00    -0.352 N 
ATOM     29  C   UNL A   1      34.327  30.739  27.800  1.00  0.00     0.251 C 
ATOM     30  H   UNL A   1      33.196  32.401  27.866  1.00  0.00     0.163 HD
ATOM     31  O   UNL A   1      33.495  30.086  27.180  1.00  0.00    -0.269 OA
BRANCH  29  32
ATOM     32  C   UNL A   1      35.625  30.134  28.171  1.00  0.00     0.039 A 
ATOM     33  C   UNL A   1      36.668  30.157  27.240  1.00  0.00     0.014 A 
ATOM     34  C   UNL A   1      35.827  29.599  29.445  1.00  0.00     0.014 A 
ATOM     35  C   UNL A   1      37.937  29.715  27.616  1.00  0.00     0.010 A 
ATOM     36  C   UNL A   1      37.107  29.221  29.838  1.00  0.00     0.010 A 
ATOM     37  C   UNL A   1      38.176  29.282  28.932  1.00  0.00    -0.014 A 
BRANCH  37  38
ATOM     38  C   UNL A   1      39.540  28.909  29.385  1.00  0.00     0.031 A 
ATOM     39  C   UNL A   1      40.353  29.870  30.207  1.00  0.00     0.074 A 
ATOM     40  C   UNL A   1      40.076  27.737  28.990  1.00  0.00     0.049 A 
ATOM     41  N   UNL A   1      41.585  29.755  30.630  1.00  0.00    -0.248 NA
ATOM     42  C   UNL A   1      39.705  31.138  30.576  1.00  0.00     0.031 C 
ATOM     43  C   UNL A   1      39.407  26.736  28.155  1.00  0.00     0.029 A 
ATOM     44  N   UNL A   1      41.312  27.192  29.234  1.00  0.00    -0.354 N 
ATOM     45  C   UNL A   1      41.868  30.942  31.296  1.00  0.00     0.074 A 
ATOM     46  C   UNL A   1      40.692  31.780  31.182  1.00  0.00     0.031 C 
ATOM     47  C   UNL A   1      40.230  25.689  27.980  1.00  0.00     0.029 A 
ATOM     48  C   UNL A   1      41.494  25.956  28.659  1.00  0.00     0.049 A 
ATOM     49  H   UNL A   1      42.003  27.644  29.770  1.00  0.00     0.167 HD
ATOM     50  C   UNL A   1      42.994  31.296  31.959  1.00  0.00     0.031 A 
ATOM     51  C   UNL A   1      42.558  25.131  28.675  1.00  0.00     0.031 A 
ATOM     52  C   UNL A   1      44.155  30.457  32.086  1.00  0.00     0.049 A 
ATOM     53  C   UNL A   1      43.794  25.540  29.427  1.00  0.00     0.074 A 
ATOM     54  C   UNL A   1      45.326  30.704  32.781  1.00  0.00     0.029 A 
ATOM     55  N   UNL A   1      44.291  29.205  31.506  1.00  0.00    -0.354 N 
ATOM     56  N   UNL A   1      44.023  26.644  30.095  1.00  0.00    -0.248 NA
ATOM     57  C   UNL A   1      44.911  24.585  29.434  1.00  0.00     0.031 C 
ATOM     58  C   UNL A   1      46.184  29.615  32.593  1.00  0.00     0.029 A 
ATOM     59  C   UNL A   1      45.530  28.672  31.815  1.00  0.00     0.049 A 
ATOM     60  H   UNL A   1      43.607  28.760  30.955  1.00  0.00     0.167 HD
ATOM     61  C   UNL A   1      45.301  26.509  30.623  1.00  0.00     0.074 A 
ATOM     62  C   UNL A   1      45.792  25.211  30.203  1.00  0.00     0.031 C 
ATOM     63  C   UNL A   1      46.004  27.379  31.388  1.00  0.00     0.031 A 
BRANCH  50  64
ATOM     64  C   UNL A   1      43.016  32.662  32.590  1.00  0.00    -0.014 A 
ATOM     65  C   UNL A   1      42.399  32.896  33.832  1.00  0.00     0.010 A 
ATOM     66  C   UNL A   1      43.658  33.727  31.933  1.00  0.00     0.010 A 
ATOM     67  C   UNL A   1      42.374  34.180  34.380  1.00  0.00     0.020 A 
ATOM     68  C   UNL A   1      43.658  35.010  32.490  1.00  0.00     0.020 A 
ATOM     69  C   UNL A   1      42.993  35.233  33.699  1.00  0.00     0.054 A 
BRANCH  69  70
ATOM     70  S   UNL A   1      42.937  36.894  34.422  1.00  0.00     0.124 S 
ATOM     71  O   UNL A   1      41.608  36.912  35.029  1.00  0.00    -0.237 OA
ATOM     72  O   UNL A   1      44.056  36.878  35.362  1.00  0.00    -0.237 OA
ATOM     73  O   UNL A   1      43.108  37.778  33.271  1.00  0.00    -0.744 OA
ENDBRANCH  69  70
ENDBRANCH  50  64
BRANCH  51  74
ATOM     74  C   UNL A   1      42.484  23.817  27.983  1.00  0.00    -0.014 A 
ATOM     75  C   UNL A   1      42.873  23.705  26.637  1.00  0.00     0.010 A 
ATOM     76  C   UNL A   1      42.058  22.668  28.673  1.00  0.00     0.010 A 
ATOM     77  C   UNL A   1      42.830  22.468  25.988  1.00  0.00     0.020 A 
ATOM     78  C   UNL A   1      42.034  21.425  28.033  1.00  0.00     0.020 A 
ATOM     79  C   UNL A   1      42.413  21.334  26.692  1.00  0.00     0.054 A 
BRANCH  79  80
ATOM     80  S   UNL A   1      42.432  19.725  25.852  1.00  0.00     0.124 S 
ATOM     81  O   UNL A   1      41.049  19.601  25.403  1.00  0.00    -0.237 OA
ATOM     82  O   UNL A   1      43.424  19.928  24.799  1.00  0.00    -0.237 OA
ATOM     83  O   UNL A   1      42.837  18.797  26.905  1.00  0.00    -0.744 OA
ENDBRANCH  79  80
ENDBRANCH  51  74
BRANCH  63  84
ATOM     84  C   UNL A   1      47.370  26.947  31.846  1.00  0.00    -0.014 A 
ATOM     85  C   UNL A   1      47.539  26.215  33.033  1.00  0.00     0.010 A 
ATOM     86  C   UNL A   1      48.492  27.233  31.046  1.00  0.00     0.010 A 
ATOM     87  C   UNL A   1      48.813  25.797  33.428  1.00  0.00     0.020 A 
ATOM     88  C   UNL A   1      49.763  26.798  31.427  1.00  0.00     0.020 A 
ATOM     89  C   UNL A   1      49.917  26.093  32.623  1.00  0.00     0.054 A 
BRANCH  89  90
ATOM     90  S   UNL A   1      51.555  25.498  33.129  1.00  0.00     0.124 S 
ATOM     91  O   UNL A   1      51.598  25.890  34.535  1.00  0.00    -0.237 OA
ATOM     92  O   UNL A   1      51.469  24.061  32.878  1.00  0.00    -0.237 OA
ATOM     93  O   UNL A   1      52.471  26.223  32.251  1.00  0.00    -0.744 OA
ENDBRANCH  89  90
ENDBRANCH  63  84
ENDBRANCH  37  38
ENDBRANCH  29  32
ENDBRANCH  27  28
ENDBRANCH  26  27
ENDBRANCH  25  26
ENDBRANCH   1  25
TORSDOF 20
ENDMDL
MODEL 2
REMARK VINA RESULT:      -8.2      3.509     11.000
REMARK SMILES CCCCOC(=O)c1ccc(N2C[C@H](C(=O)NCCCCNC(=O)c3ccc(-c4c5nc(c(-c6ccc(S(=O)(=O)[O-])cc6)c6ccc([nH]6)c(-c6ccc(S(=O)(=O)[O-])cc6)c6nc(c(-c7ccc(S(=O)(=O)[O-])cc7)c7ccc4[nH]7)C=C6)C=C5)cc3)CC2=O)cc1
REMARK SMILES IDX 18 1 17 2 15 3 16 4 14 6 12 7 13 8 86 9 85 10 87 11 11 12
REMARK SMILES IDX 8 13 9 14 89 15 10 16 88 17 6 18 7 19 5 20 4 21 3 22 2 23
REMARK SMILES IDX 1 24 19 25 20 26 21 27 22 28 23 29 24 31 25 32 26 33 84 34
REMARK SMILES IDX 27 35 83 36 28 37 29 38 30 39 77 40 31 41 82 42 76 43 78 44
REMARK SMILES IDX 32 45 81 46 75 47 74 48 33 50 63 51 44 52 62 53 45 54 48 55
REMARK SMILES IDX 61 56 79 57 46 58 47 59 60 61 80 62 49 63 34 64 35 65 43 66
REMARK SMILES IDX 36 67 42 68 37 69 38 70 39 71 40 72 41 73 64 74 65 75 73 76
REMARK SMILES IDX 66 77 72 78 67 79 68 80 69 81 70 82 71 83 50 84 51 85 59 86
REMARK SMILES IDX 52 87 58 88 53 89 54 90 55 91 56 92 57 93
REMARK H PARENT 17 5 22 30 78 49 48 60
REMARK Flexibility Score: inf
ROOT
ATOM      1  C   UNL A   1      42.981  21.686  26.142  1.00  0.00     0.116 C 
ENDROOT
BRANCH   1   2
ATOM      2  N   UNL A   1      43.362  22.041  24.787  1.00  0.00    -0.356 N 
ATOM      3  C   UNL A   1      44.524  22.482  24.244  1.00  0.00     0.225 C 
ATOM      4  O   UNL A   1      44.540  22.641  23.018  1.00  0.00    -0.275 OA
ATOM      5  H   UNL A   1      42.632  21.943  24.133  1.00  0.00     0.163 HD
BRANCH   3   6
ATOM      6  C   UNL A   1      45.759  22.866  25.045  1.00  0.00     0.107 C 
ATOM      7  N   UNL A   1      45.902  24.962  26.123  1.00  0.00    -0.312 N 
ATOM      8  C   UNL A   1      46.126  24.319  24.849  1.00  0.00     0.139 C 
ATOM      9  C   UNL A   1      45.716  24.020  27.143  1.00  0.00     0.227 C 
ATOM     10  C   UNL A   1      45.726  22.635  26.540  1.00  0.00     0.116 C 
ATOM     11  O   UNL A   1      45.533  24.201  28.337  1.00  0.00    -0.274 OA
BRANCH   7  12
ATOM     12  C   UNL A   1      45.876  26.379  26.275  1.00  0.00     0.044 A 
ATOM     13  C   UNL A   1      45.867  29.195  26.380  1.00  0.00     0.060 A 
ATOM     14  C   UNL A   1      47.062  28.505  26.561  1.00  0.00     0.018 A 
ATOM     15  C   UNL A   1      44.676  28.503  26.181  1.00  0.00     0.018 A 
ATOM     16  C   UNL A   1      47.057  27.104  26.523  1.00  0.00     0.027 A 
ATOM     17  C   UNL A   1      44.686  27.107  26.133  1.00  0.00     0.027 A 
BRANCH  13  18
ATOM     18  C   UNL A   1      45.843  30.661  26.321  1.00  0.00     0.338 C 
ATOM     19  O   UNL A   1      44.827  31.317  26.454  1.00  0.00    -0.246 OA
BRANCH  18  20
ATOM     20  O   UNL A   1      47.114  31.104  26.190  1.00  0.00    -0.462 OA
BRANCH  20  21
ATOM     21  C   UNL A   1      47.368  32.423  26.698  1.00  0.00     0.233 C 
BRANCH  21  22
ATOM     22  C   UNL A   1      48.024  32.342  28.073  1.00  0.00     0.041 C 
BRANCH  22  23
ATOM     23  C   UNL A   1      47.057  32.503  29.248  1.00  0.00     0.000 C 
ATOM     24  C   UNL A   1      45.990  33.561  29.010  1.00  0.00     0.004 C 
ENDBRANCH  22  23
ENDBRANCH  21  22
ENDBRANCH  20  21
ENDBRANCH  18  20
ENDBRANCH  13  18
ENDBRANCH   7  12
ENDBRANCH   3   6
ENDBRANCH   1   2
BRANCH   1  25
ATOM     25  C   UNL A   1      42.322  20.313  26.237  1.00  0.00     0.023 C 
BRANCH  25  26
ATOM     26  C   UNL A   1      40.796  20.322  26.343  1.00  0.00     0.023 C 
BRANCH  26  27
ATOM     27  C   UNL A   1      40.169  21.618  26.849  1.00  0.00     0.116 C 
BRANCH  27  28
ATOM     28  N   UNL A   1      39.051  22.090  26.047  1.00  0.00    -0.352 N 
ATOM     29  C   UNL A   1      38.553  23.370  25.950  1.00  0.00     0.251 C 
ATOM     30  H   UNL A   1      38.591  21.408  25.506  1.00  0.00     0.163 HD
ATOM     31  O   UNL A   1      37.556  23.598  25.274  1.00  0.00    -0.269 OA
BRANCH  29  32
ATOM     32  C   UNL A   1      39.205  24.459  26.708  1.00  0.00     0.039 A 
ATOM     33  C   UNL A   1      40.078  25.318  26.036  1.00  0.00     0.014 A 
ATOM     34  C   UNL A   1      38.915  24.663  28.060  1.00  0.00     0.014 A 
ATOM     35  C   UNL A   1      40.597  26.431  26.699  1.00  0.00     0.010 A 
ATOM     36  C   UNL A   1      39.381  25.807  28.699  1.00  0.00     0.010 A 
ATOM     37  C   UNL A   1      40.219  26.708  28.024  1.00  0.00    -0.014 A 
BRANCH  37  38
ATOM     38  C   UNL A   1      40.673  27.941  28.714  1.00  0.00     0.031 A 
ATOM     39  C   UNL A   1      42.062  28.021  29.284  1.00  0.00     0.074 A 
ATOM     40  C   UNL A   1      39.809  28.958  28.898  1.00  0.00     0.049 A 
ATOM     41  N   UNL A   1      42.612  28.979  29.984  1.00  0.00    -0.248 NA
ATOM     42  C   UNL A   1      42.937  26.858  29.062  1.00  0.00     0.031 C 
ATOM     43  C   UNL A   1      38.419  28.987  28.433  1.00  0.00     0.029 A 
ATOM     44  N   UNL A   1      39.969  30.165  29.533  1.00  0.00    -0.354 N 
ATOM     45  C   UNL A   1      43.888  28.528  30.303  1.00  0.00     0.074 A 
ATOM     46  C   UNL A   1      44.012  27.192  29.759  1.00  0.00     0.031 C 
ATOM     47  C   UNL A   1      37.866  30.162  28.774  1.00  0.00     0.029 A 
ATOM     48  C   UNL A   1      38.845  30.956  29.509  1.00  0.00     0.049 A 
ATOM     49  H   UNL A   1      40.811  30.438  29.964  1.00  0.00     0.167 HD
ATOM     50  C   UNL A   1      44.873  29.172  30.973  1.00  0.00     0.031 A 
ATOM     51  C   UNL A   1      38.626  32.182  30.023  1.00  0.00     0.031 A 
ATOM     52  C   UNL A   1      44.754  30.505  31.500  1.00  0.00     0.049 A 
ATOM     53  C   UNL A   1      39.737  32.883  30.752  1.00  0.00     0.074 A 
ATOM     54  C   UNL A   1      45.713  31.265  32.148  1.00  0.00     0.029 A 
ATOM     55  N   UNL A   1      43.606  31.279  31.437  1.00  0.00    -0.354 N 
ATOM     56  N   UNL A   1      40.954  32.461  30.999  1.00  0.00    -0.248 NA
ATOM     57  C   UNL A   1      39.448  34.230  31.264  1.00  0.00     0.031 C 
ATOM     58  C   UNL A   1      45.132  32.486  32.507  1.00  0.00     0.029 A 
ATOM     59  C   UNL A   1      43.826  32.503  32.046  1.00  0.00     0.049 A 
ATOM     60  H   UNL A   1      42.758  31.000  31.021  1.00  0.00     0.167 HD
ATOM     61  C   UNL A   1      41.584  33.500  31.674  1.00  0.00     0.074 A 
ATOM     62  C   UNL A   1      40.618  34.572  31.788  1.00  0.00     0.031 C 
ATOM     63  C   UNL A   1      42.851  33.560  32.153  1.00  0.00     0.031 A 
BRANCH  50  64
ATOM     64  C   UNL A   1      46.164  28.426  31.174  1.00  0.00    -0.014 A 
ATOM     65  C   UNL A   1      46.328  27.542  32.256  1.00  0.00     0.010 A 
ATOM     66  C   UNL A   1      47.227  28.610  30.272  1.00  0.00     0.010 A 
ATOM     67  C   UNL A   1      47.551  26.901  32.467  1.00  0.00     0.020 A 
ATOM     68  C   UNL A   1      48.445  27.949  30.466  1.00  0.00     0.020 A 
ATOM     69  C   UNL A   1      48.606  27.118  31.577  1.00  0.00     0.054 A 
BRANCH  69  70
ATOM     70  S   UNL A   1      50.188  26.284  31.877  1.00  0.00     0.124 S 
ATOM     71  O   UNL A   1      50.922  26.584  30.649  1.00  0.00    -0.237 OA
ATOM     72  O   UNL A   1      50.682  26.948  33.081  1.00  0.00    -0.237 OA
ATOM     73  O   UNL A   1      49.813  24.883  32.052  1.00  0.00    -0.744 OA
ENDBRANCH  69  70
ENDBRANCH  50  64
BRANCH  51  74
ATOM     74  C   UNL A   1      37.305  32.836  29.831  1.00  0.00    -0.014 A 
ATOM     75  C   UNL A   1      36.443  33.022  30.926  1.00  0.00     0.010 A 
ATOM     76  C   UNL A   1      36.917  33.309  28.565  1.00  0.00     0.010 A 
ATOM     77  C   UNL A   1      35.211  33.660  30.757  1.00  0.00     0.020 A 
ATOM     78  C   UNL A   1      35.695  33.966  28.396  1.00  0.00     0.020 A 
ATOM     79  C   UNL A   1      34.846  34.131  29.492  1.00  0.00     0.054 A 
BRANCH  79  80
ATOM     80  S   UNL A   1      33.274  35.020  29.308  1.00  0.00     0.124 S 
ATOM     81  O   UNL A   1      32.690  34.882  30.639  1.00  0.00    -0.237 OA
ATOM     82  O   UNL A   1      33.710  36.366  28.944  1.00  0.00    -0.237 OA
ATOM     83  O   UNL A   1      32.592  34.286  28.244  1.00  0.00    -0.744 OA
ENDBRANCH  79  80
ENDBRANCH  51  74
BRANCH  63  84
ATOM     84  C   UNL A   1      43.275  34.838  32.822  1.00  0.00    -0.014 A 
ATOM     85  C   UNL A   1      43.220  34.979  34.219  1.00  0.00     0.010 A 
ATOM     86  C   UNL A   1      43.787  35.891  32.042  1.00  0.00     0.010 A 
ATOM     87  C   UNL A   1      43.645  36.165  34.824  1.00  0.00     0.020 A 
ATOM     88  C   UNL A   1      44.234  37.068  32.647  1.00  0.00     0.020 A 
ATOM     89  C   UNL A   1      44.148  37.202  34.034  1.00  0.00     0.054 A 
BRANCH  89  90
ATOM     90  S   UNL A   1      44.741  38.713  34.845  1.00  0.00     0.124 S 
ATOM     91  O   UNL A   1      44.055  38.656  36.132  1.00  0.00    -0.237 OA
ATOM     92  O   UNL A   1      46.187  38.508  34.893  1.00  0.00    -0.237 OA
ATOM     93  O   UNL A   1      44.300  39.781  33.950  1.00  0.00    -0.744 OA
ENDBRANCH  89  90
ENDBRANCH  63  84
ENDBRANCH  37  38
ENDBRANCH  29  32
ENDBRANCH  27  28
ENDBRANCH  26  27
ENDBRANCH  25  26
ENDBRANCH   1  25
TORSDOF 20
ENDMDL
MODEL 3
REMARK VINA RESULT:      -8.1      4.882      8.122
REMARK SMILES CCCCOC(=O)c1ccc(N2C[C@H](C(=O)NCCCCNC(=O)c3ccc(-c4c5nc(c(-c6ccc(S(=O)(=O)[O-])cc6)c6ccc([nH]6)c(-c6ccc(S(=O)(=O)[O-])cc6)c6nc(c(-c7ccc(S(=O)(=O)[O-])cc7)c7ccc4[nH]7)C=C6)C=C5)cc3)CC2=O)cc1
REMARK SMILES IDX 18 1 17 2 15 3 16 4 14 6 12 7 13 8 86 9 85 10 87 11 11 12
REMARK SMILES IDX 8 13 9 14 89 15 10 16 88 17 6 18 7 19 5 20 4 21 3 22 2 23
REMARK SMILES IDX 1 24 19 25 20 26 21 27 22 28 23 29 24 31 25 32 26 33 84 34
REMARK SMILES IDX 27 35 83 36 28 37 29 38 30 39 77 40 31 41 82 42 76 43 78 44
REMARK SMILES IDX 32 45 81 46 75 47 74 48 33 50 63 51 44 52 62 53 45 54 48 55
REMARK SMILES IDX 61 56 79 57 46 58 47 59 60 61 80 62 49 63 34 64 35 65 43 66
REMARK SMILES IDX 36 67 42 68 37 69 38 70 39 71 40 72 41 73 64 74 65 75 73 76
REMARK SMILES IDX 66 77 72 78 67 79 68 80 69 81 70 82 71 83 50 84 51 85 59 86
REMARK SMILES IDX 52 87 58 88 53 89 54 90 55 91 56 92 57 93
REMARK H PARENT 17 5 22 30 78 49 48 60
REMARK Flexibility Score: inf
ROOT
ATOM      1  C   UNL A   1      34.369  32.617  27.840  1.00  0.00     0.116 C 
ENDROOT
BRANCH   1   2
ATOM      2  N   UNL A   1      34.878  31.258  27.857  1.00  0.00    -0.356 N 
ATOM      3  C   UNL A   1      34.434  30.102  27.304  1.00  0.00     0.225 C 
ATOM      4  O   UNL A   1      35.145  29.102  27.458  1.00  0.00    -0.275 OA
ATOM      5  H   UNL A   1      35.711  31.155  28.373  1.00  0.00     0.163 HD
BRANCH   3   6
ATOM      6  C   UNL A   1      33.100  29.945  26.590  1.00  0.00     0.107 C 
ATOM      7  N   UNL A   1      32.522  27.915  25.532  1.00  0.00    -0.312 N 
ATOM      8  C   UNL A   1      33.238  29.150  25.312  1.00  0.00     0.139 C 
ATOM      9  C   UNL A   1      31.728  27.985  26.684  1.00  0.00     0.227 C 
ATOM     10  C   UNL A   1      31.961  29.314  27.361  1.00  0.00     0.116 C 
ATOM     11  O   UNL A   1      30.975  27.145  27.155  1.00  0.00    -0.274 OA
BRANCH   7  12
ATOM     12  C   UNL A   1      32.644  26.790  24.665  1.00  0.00     0.044 A 
ATOM     13  C   UNL A   1      32.962  24.691  22.811  1.00  0.00     0.060 A 
ATOM     14  C   UNL A   1      31.795  25.449  22.797  1.00  0.00     0.018 A 
ATOM     15  C   UNL A   1      33.954  24.942  23.754  1.00  0.00     0.018 A 
ATOM     16  C   UNL A   1      31.636  26.482  23.731  1.00  0.00     0.027 A 
ATOM     17  C   UNL A   1      33.790  25.982  24.673  1.00  0.00     0.027 A 
BRANCH  13  18
ATOM     18  C   UNL A   1      33.208  23.662  21.794  1.00  0.00     0.338 C 
ATOM     19  O   UNL A   1      33.340  23.912  20.611  1.00  0.00    -0.246 OA
BRANCH  18  20
ATOM     20  O   UNL A   1      33.341  22.469  22.417  1.00  0.00    -0.462 OA
BRANCH  20  21
ATOM     21  C   UNL A   1      32.116  21.852  22.845  1.00  0.00     0.233 C 
BRANCH  21  22
ATOM     22  C   UNL A   1      32.367  20.973  24.067  1.00  0.00     0.041 C 
BRANCH  22  23
ATOM     23  C   UNL A   1      32.112  21.664  25.409  1.00  0.00     0.000 C 
ATOM     24  C   UNL A   1      31.094  22.790  25.322  1.00  0.00     0.004 C 
ENDBRANCH  22  23
ENDBRANCH  21  22
ENDBRANCH  20  21
ENDBRANCH  18  20
ENDBRANCH  13  18
ENDBRANCH   7  12
ENDBRANCH   3   6
ENDBRANCH   1   2
BRANCH   1  25
ATOM     25  C   UNL A   1      35.458  33.666  28.041  1.00  0.00     0.023 C 
BRANCH  25  26
ATOM     26  C   UNL A   1      35.995  33.792  29.467  1.00  0.00     0.023 C 
BRANCH  26  27
ATOM     27  C   UNL A   1      36.940  32.686  29.925  1.00  0.00     0.116 C 
BRANCH  27  28
ATOM     28  N   UNL A   1      36.424  31.878  31.019  1.00  0.00    -0.352 N 
ATOM     29  C   UNL A   1      36.907  30.681  31.496  1.00  0.00     0.251 C 
ATOM     30  H   UNL A   1      35.627  32.233  31.476  1.00  0.00     0.163 HD
ATOM     31  O   UNL A   1      36.318  30.087  32.392  1.00  0.00    -0.269 OA
BRANCH  29  32
ATOM     32  C   UNL A   1      38.118  30.095  30.884  1.00  0.00     0.039 A 
ATOM     33  C   UNL A   1      38.364  30.322  29.526  1.00  0.00     0.014 A 
ATOM     34  C   UNL A   1      39.032  29.371  31.655  1.00  0.00     0.014 A 
ATOM     35  C   UNL A   1      39.565  29.893  28.961  1.00  0.00     0.010 A 
ATOM     36  C   UNL A   1      40.257  29.003  31.106  1.00  0.00     0.010 A 
ATOM     37  C   UNL A   1      40.540  29.268  29.757  1.00  0.00    -0.014 A 
BRANCH  37  38
ATOM     38  C   UNL A   1      41.867  28.899  29.205  1.00  0.00     0.031 A 
ATOM     39  C   UNL A   1      42.959  29.928  29.111  1.00  0.00     0.074 A 
ATOM     40  C   UNL A   1      42.064  27.659  28.714  1.00  0.00     0.049 A 
ATOM     41  N   UNL A   1      44.155  29.816  28.591  1.00  0.00    -0.248 NA
ATOM     42  C   UNL A   1      42.658  31.265  29.647  1.00  0.00     0.031 C 
ATOM     43  C   UNL A   1      41.071  26.582  28.705  1.00  0.00     0.029 A 
ATOM     44  N   UNL A   1      43.167  27.097  28.120  1.00  0.00    -0.354 N 
ATOM     45  C   UNL A   1      44.739  31.071  28.717  1.00  0.00     0.074 A 
ATOM     46  C   UNL A   1      43.750  31.939  29.322  1.00  0.00     0.031 C 
ATOM     47  C   UNL A   1      41.619  25.484  28.160  1.00  0.00     0.029 A 
ATOM     48  C   UNL A   1      42.987  25.785  27.751  1.00  0.00     0.049 A 
ATOM     49  H   UNL A   1      44.008  27.587  27.974  1.00  0.00     0.167 HD
ATOM     50  C   UNL A   1      45.990  31.463  28.377  1.00  0.00     0.031 A 
ATOM     51  C   UNL A   1      43.827  24.922  27.148  1.00  0.00     0.031 A 
ATOM     52  C   UNL A   1      46.977  30.597  27.791  1.00  0.00     0.049 A 
ATOM     53  C   UNL A   1      45.215  25.375  26.791  1.00  0.00     0.074 A 
ATOM     54  C   UNL A   1      48.290  30.885  27.459  1.00  0.00     0.029 A 
ATOM     55  N   UNL A   1      46.761  29.271  27.451  1.00  0.00    -0.354 N 
ATOM     56  N   UNL A   1      45.767  26.551  26.966  1.00  0.00    -0.248 NA
ATOM     57  C   UNL A   1      46.096  24.379  26.164  1.00  0.00     0.031 C 
ATOM     58  C   UNL A   1      48.857  29.741  26.887  1.00  0.00     0.029 A 
ATOM     59  C   UNL A   1      47.910  28.729  26.901  1.00  0.00     0.049 A 
ATOM     60  H   UNL A   1      45.915  28.785  27.581  1.00  0.00     0.167 HD
ATOM     61  C   UNL A   1      47.068  26.432  26.492  1.00  0.00     0.074 A 
ATOM     62  C   UNL A   1      47.223  25.067  26.032  1.00  0.00     0.031 C 
ATOM     63  C   UNL A   1      48.047  27.368  26.445  1.00  0.00     0.031 A 
BRANCH  50  64
ATOM     64  C   UNL A   1      46.349  32.903  28.631  1.00  0.00    -0.014 A 
ATOM     65  C   UNL A   1      46.017  33.906  27.703  1.00  0.00     0.010 A 
ATOM     66  C   UNL A   1      47.026  33.258  29.811  1.00  0.00     0.010 A 
ATOM     67  C   UNL A   1      46.407  35.229  27.920  1.00  0.00     0.020 A 
ATOM     68  C   UNL A   1      47.396  34.586  30.045  1.00  0.00     0.020 A 
ATOM     69  C   UNL A   1      47.105  35.559  29.085  1.00  0.00     0.054 A 
BRANCH  69  70
ATOM     70  S   UNL A   1      47.613  37.281  29.341  1.00  0.00     0.124 S 
ATOM     71  O   UNL A   1      48.939  37.117  29.932  1.00  0.00    -0.237 OA
ATOM     72  O   UNL A   1      47.592  37.830  27.988  1.00  0.00    -0.237 OA
ATOM     73  O   UNL A   1      46.591  37.812  30.241  1.00  0.00    -0.744 OA
ENDBRANCH  69  70
ENDBRANCH  50  64
BRANCH  51  74
ATOM     74  C   UNL A   1      43.385  23.528  26.880  1.00  0.00    -0.014 A 
ATOM     75  C   UNL A   1      43.417  23.017  25.571  1.00  0.00     0.010 A 
ATOM     76  C   UNL A   1      42.964  22.695  27.931  1.00  0.00     0.010 A 
ATOM     77  C   UNL A   1      43.027  21.699  25.315  1.00  0.00     0.020 A 
ATOM     78  C   UNL A   1      42.593  21.370  27.682  1.00  0.00     0.020 A 
ATOM     79  C   UNL A   1      42.620  20.882  26.374  1.00  0.00     0.054 A 
BRANCH  79  80
ATOM     80  S   UNL A   1      42.186  19.154  26.031  1.00  0.00     0.124 S 
ATOM     81  O   UNL A   1      42.704  18.470  27.212  1.00  0.00    -0.237 OA
ATOM     82  O   UNL A   1      40.730  19.208  25.917  1.00  0.00    -0.237 OA
ATOM     83  O   UNL A   1      42.889  18.869  24.782  1.00  0.00    -0.744 OA
ENDBRANCH  79  80
ENDBRANCH  51  74
BRANCH  63  84
ATOM     84  C   UNL A   1      49.383  26.942  25.902  1.00  0.00    -0.014 A 
ATOM     85  C   UNL A   1      49.718  27.153  24.554  1.00  0.00     0.010 A 
ATOM     86  C   UNL A   1      50.334  26.373  26.769  1.00  0.00     0.010 A 
ATOM     87  C   UNL A   1      50.976  26.777  24.074  1.00  0.00     0.020 A 
ATOM     88  C   UNL A   1      51.599  26.017  26.297  1.00  0.00     0.020 A 
ATOM     89  C   UNL A   1      51.908  26.210  24.948  1.00  0.00     0.054 A 
BRANCH  89  90
ATOM     90  S   UNL A   1      53.551  25.774  24.315  1.00  0.00     0.124 S 
ATOM     91  O   UNL A   1      53.701  24.399  24.782  1.00  0.00    -0.237 OA
ATOM     92  O   UNL A   1      53.395  25.934  22.871  1.00  0.00    -0.237 OA
ATOM     93  O   UNL A   1      54.435  26.749  24.951  1.00  0.00    -0.744 OA
ENDBRANCH  89  90
ENDBRANCH  63  84
ENDBRANCH  37  38
ENDBRANCH  29  32
ENDBRANCH  27  28
ENDBRANCH  26  27
ENDBRANCH  25  26
ENDBRANCH   1  25
TORSDOF 20
ENDMDL
