MODEL 1
REMARK VINA RESULT:     -10.3      0.000      0.000
REMARK SMILES CCCCCCNC(=O)Oc1cccc(-c2ccc([C@@H](C)C(=O)NCCCCNC(=O)c3ccc(-c4c5nc(c(-c6ccc(S(=O)(=O)[O-])cc6)c6ccc([nH]6)c(-c6ccc(S(=O)(=O)[O-])cc6)c6nc(c(-c7ccc(S(=O)(=O)[O-])cc7)c7ccc4[nH]7)C=C6)C=C5)cc3)cc2N)c1
REMARK SMILES IDX 20 1 21 2 19 3 16 4 17 5 93 6 18 7 92 8 15 9 11 10 12 11
REMARK SMILES IDX 95 12 13 13 14 14 10 15 8 16 7 17 9 19 6 20 5 21 4 22 3 23
REMARK SMILES IDX 2 24 1 25 94 26 22 29 23 30 24 31 25 33 26 34 27 35 28 36
REMARK SMILES IDX 29 37 30 38 31 40 32 41 33 42 91 43 34 44 90 45 35 46 36 47
REMARK SMILES IDX 37 48 84 49 38 50 89 51 83 52 85 53 39 54 88 55 82 56 81 57
REMARK SMILES IDX 40 59 70 60 51 61 69 62 52 63 55 64 68 65 86 66 53 67 54 68
REMARK SMILES IDX 67 70 87 71 56 72 41 73 42 74 50 75 43 76 49 77 44 78 45 79
REMARK SMILES IDX 46 80 47 81 48 82 71 83 72 84 80 85 73 86 79 87 74 88 75 89
REMARK SMILES IDX 76 90 77 91 78 92 57 93 58 94 66 95 59 96 65 97 60 98 61 99
REMARK SMILES IDX 62 100 63 101 64 102
REMARK H PARENT 7 18 94 27 94 28 24 32 29 39 85 58 55 69
REMARK Flexibility Score: inf
ROOT
ATOM      1  C   UNL A   1      32.599  19.039  23.915  1.00  0.00     0.105 C 
ATOM      2  C   UNL A   1      32.836  18.641  22.459  1.00  0.00     0.023 C 
ENDROOT
BRANCH   1   3
ATOM      3  C   UNL A   1      32.185  20.485  24.139  1.00  0.00    -0.034 A 
ATOM      4  C   UNL A   1      31.621  23.229  24.704  1.00  0.00     0.005 A 
ATOM      5  C   UNL A   1      31.966  22.788  23.413  1.00  0.00     0.011 A 
ATOM      6  C   UNL A   1      31.443  22.240  25.699  1.00  0.00     0.040 A 
ATOM      7  C   UNL A   1      32.180  21.438  23.124  1.00  0.00     0.005 A 
ATOM      8  C   UNL A   1      31.807  20.908  25.423  1.00  0.00     0.030 A 
BRANCH   4   9
ATOM      9  C   UNL A   1      31.463  24.687  24.943  1.00  0.00    -0.013 A 
ATOM     10  C   UNL A   1      32.297  26.816  25.783  1.00  0.00     0.133 A 
ATOM     11  C   UNL A   1      31.129  27.465  25.399  1.00  0.00     0.047 A 
ATOM     12  C   UNL A   1      32.480  25.452  25.543  1.00  0.00     0.056 A 
ATOM     13  C   UNL A   1      30.128  26.739  24.764  1.00  0.00     0.004 A 
ATOM     14  C   UNL A   1      30.288  25.365  24.555  1.00  0.00     0.009 A 
BRANCH  10  15
ATOM     15  O   UNL A   1      33.197  27.554  26.571  1.00  0.00    -0.410 OA
BRANCH  15  16
ATOM     16  C   UNL A   1      33.131  28.939  26.581  1.00  0.00     0.412 C 
ATOM     17  N   UNL A   1      33.784  29.505  25.520  1.00  0.00    -0.321 N 
ATOM     18  H   UNL A   1      33.811  30.488  25.492  1.00  0.00     0.167 HD
ATOM     19  O   UNL A   1      32.572  29.626  27.423  1.00  0.00    -0.224 OA
BRANCH  17  20
ATOM     20  C   UNL A   1      34.439  28.804  24.434  1.00  0.00     0.119 C 
BRANCH  20  21
ATOM     21  C   UNL A   1      33.607  28.831  23.151  1.00  0.00     0.021 C 
BRANCH  21  22
ATOM     22  C   UNL A   1      33.596  27.514  22.365  1.00  0.00     0.002 C 
BRANCH  22  23
ATOM     23  C   UNL A   1      32.234  27.095  21.801  1.00  0.00    -0.000 C 
BRANCH  23  24
ATOM     24  C   UNL A   1      32.139  25.646  21.321  1.00  0.00    -0.003 C 
ATOM     25  C   UNL A   1      32.546  25.466  19.867  1.00  0.00     0.004 C 
ENDBRANCH  23  24
ENDBRANCH  22  23
ENDBRANCH  21  22
ENDBRANCH  20  21
ENDBRANCH  17  20
ENDBRANCH  15  16
ENDBRANCH  10  15
ENDBRANCH   4   9
BRANCH   6  26
ATOM     26  N   UNL A   1      31.013  22.542  26.993  1.00  0.00    -0.398 N 
ATOM     27  H   UNL A   1      30.633  23.429  27.192  1.00  0.00     0.156 HD
ATOM     28  H   UNL A   1      31.090  21.869  27.707  1.00  0.00     0.156 HD
ENDBRANCH   6  26
ENDBRANCH   1   3
BRANCH   1  29
ATOM     29  C   UNL A   1      33.676  18.532  24.888  1.00  0.00     0.227 C 
ATOM     30  O   UNL A   1      33.476  17.496  25.535  1.00  0.00    -0.274 OA
ATOM     31  N   UNL A   1      34.880  19.138  25.075  1.00  0.00    -0.356 N 
ATOM     32  H   UNL A   1      35.489  18.649  25.674  1.00  0.00     0.163 HD
BRANCH  31  33
ATOM     33  C   UNL A   1      35.428  20.373  24.554  1.00  0.00     0.116 C 
BRANCH  33  34
ATOM     34  C   UNL A   1      35.551  21.448  25.635  1.00  0.00     0.023 C 
BRANCH  34  35
ATOM     35  C   UNL A   1      35.601  22.882  25.117  1.00  0.00     0.023 C 
BRANCH  35  36
ATOM     36  C   UNL A   1      36.955  23.569  25.244  1.00  0.00     0.116 C 
BRANCH  36  37
ATOM     37  N   UNL A   1      38.057  22.662  25.535  1.00  0.00    -0.352 N 
ATOM     38  C   UNL A   1      39.209  22.928  26.241  1.00  0.00     0.251 C 
ATOM     39  H   UNL A   1      37.966  21.746  25.184  1.00  0.00     0.163 HD
ATOM     40  O   UNL A   1      40.091  22.081  26.338  1.00  0.00    -0.269 OA
BRANCH  38  41
ATOM     41  C   UNL A   1      39.382  24.269  26.836  1.00  0.00     0.039 A 
ATOM     42  C   UNL A   1      38.959  24.486  28.149  1.00  0.00     0.014 A 
ATOM     43  C   UNL A   1      40.042  25.275  26.127  1.00  0.00     0.014 A 
ATOM     44  C   UNL A   1      39.272  25.693  28.779  1.00  0.00     0.010 A 
ATOM     45  C   UNL A   1      40.429  26.437  26.784  1.00  0.00     0.010 A 
ATOM     46  C   UNL A   1      40.049  26.658  28.117  1.00  0.00    -0.014 A 
BRANCH  46  47
ATOM     47  C   UNL A   1      40.489  27.897  28.805  1.00  0.00     0.031 A 
ATOM     48  C   UNL A   1      41.860  27.975  29.418  1.00  0.00     0.074 A 
ATOM     49  C   UNL A   1      39.627  28.925  28.944  1.00  0.00     0.049 A 
ATOM     50  N   UNL A   1      42.408  28.953  30.092  1.00  0.00    -0.248 NA
ATOM     51  C   UNL A   1      42.717  26.784  29.285  1.00  0.00     0.031 C 
ATOM     52  C   UNL A   1      38.248  28.949  28.450  1.00  0.00     0.029 A 
ATOM     53  N   UNL A   1      39.783  30.148  29.549  1.00  0.00    -0.354 N 
ATOM     54  C   UNL A   1      43.660  28.490  30.480  1.00  0.00     0.074 A 
ATOM     55  C   UNL A   1      43.767  27.124  30.015  1.00  0.00     0.031 C 
ATOM     56  C   UNL A   1      37.696  30.137  28.743  1.00  0.00     0.029 A 
ATOM     57  C   UNL A   1      38.664  30.945  29.478  1.00  0.00     0.049 A 
ATOM     58  H   UNL A   1      40.616  30.428  29.992  1.00  0.00     0.167 HD
ATOM     59  C   UNL A   1      44.641  29.147  31.142  1.00  0.00     0.031 A 
ATOM     60  C   UNL A   1      38.440  32.187  29.950  1.00  0.00     0.031 A 
ATOM     61  C   UNL A   1      44.532  30.509  31.592  1.00  0.00     0.049 A 
ATOM     62  C   UNL A   1      39.547  32.905  30.670  1.00  0.00     0.074 A 
ATOM     63  C   UNL A   1      45.494  31.291  32.209  1.00  0.00     0.029 A 
ATOM     64  N   UNL A   1      43.391  31.289  31.482  1.00  0.00    -0.354 N 
ATOM     65  N   UNL A   1      40.758  32.481  30.951  1.00  0.00    -0.248 NA
ATOM     66  C   UNL A   1      39.263  34.272  31.128  1.00  0.00     0.031 C 
ATOM     67  C   UNL A   1      44.915  32.526  32.521  1.00  0.00     0.029 A 
ATOM     68  C   UNL A   1      43.613  32.535  32.045  1.00  0.00     0.049 A 
ATOM     69  H   UNL A   1      42.547  31.000  31.066  1.00  0.00     0.167 HD
ATOM     70  C   UNL A   1      41.387  33.538  31.598  1.00  0.00     0.074 A 
ATOM     71  C   UNL A   1      40.429  34.625  31.652  1.00  0.00     0.031 C 
ATOM     72  C   UNL A   1      42.645  33.603  32.101  1.00  0.00     0.031 A 
BRANCH  59  73
ATOM     73  C   UNL A   1      45.912  28.388  31.426  1.00  0.00    -0.014 A 
ATOM     74  C   UNL A   1      46.962  28.346  30.489  1.00  0.00     0.010 A 
ATOM     75  C   UNL A   1      46.062  27.712  32.650  1.00  0.00     0.010 A 
ATOM     76  C   UNL A   1      48.112  27.595  30.746  1.00  0.00     0.020 A 
ATOM     77  C   UNL A   1      47.226  26.985  32.924  1.00  0.00     0.020 A 
ATOM     78  C   UNL A   1      48.233  26.913  31.959  1.00  0.00     0.054 A 
BRANCH  78  79
ATOM     79  S   UNL A   1      49.733  25.941  32.265  1.00  0.00     0.124 S 
ATOM     80  O   UNL A   1      50.220  25.705  30.908  1.00  0.00    -0.237 OA
ATOM     81  O   UNL A   1      50.544  26.849  33.073  1.00  0.00    -0.237 OA
ATOM     82  O   UNL A   1      49.244  24.757  32.966  1.00  0.00    -0.744 OA
ENDBRANCH  78  79
ENDBRANCH  59  73
BRANCH  60  83
ATOM     83  C   UNL A   1      37.118  32.833  29.725  1.00  0.00    -0.014 A 
ATOM     84  C   UNL A   1      36.310  33.202  30.814  1.00  0.00     0.010 A 
ATOM     85  C   UNL A   1      36.681  33.126  28.420  1.00  0.00     0.010 A 
ATOM     86  C   UNL A   1      35.087  33.846  30.604  1.00  0.00     0.020 A 
ATOM     87  C   UNL A   1      35.471  33.794  28.207  1.00  0.00     0.020 A 
ATOM     88  C   UNL A   1      34.678  34.144  29.301  1.00  0.00     0.054 A 
BRANCH  88  89
ATOM     89  S   UNL A   1      33.125  35.051  29.058  1.00  0.00     0.124 S 
ATOM     90  O   UNL A   1      32.486  34.280  27.995  1.00  0.00    -0.237 OA
ATOM     91  O   UNL A   1      32.496  34.957  30.374  1.00  0.00    -0.237 OA
ATOM     92  O   UNL A   1      33.566  36.392  28.681  1.00  0.00    -0.744 OA
ENDBRANCH  88  89
ENDBRANCH  60  83
BRANCH  72  93
ATOM     93  C   UNL A   1      43.070  34.900  32.737  1.00  0.00    -0.014 A 
ATOM     94  C   UNL A   1      42.877  35.137  34.109  1.00  0.00     0.010 A 
ATOM     95  C   UNL A   1      43.723  35.873  31.958  1.00  0.00     0.010 A 
ATOM     96  C   UNL A   1      43.300  36.338  34.685  1.00  0.00     0.020 A 
ATOM     97  C   UNL A   1      44.173  37.063  32.536  1.00  0.00     0.020 A 
ATOM     98  C   UNL A   1      43.944  37.294  33.894  1.00  0.00     0.054 A 
BRANCH  98  99
ATOM     99  S   UNL A   1      44.521  38.827  34.673  1.00  0.00     0.124 S 
ATOM    100  O   UNL A   1      44.266  38.564  36.086  1.00  0.00    -0.237 OA
ATOM    101  O   UNL A   1      45.929  38.874  34.285  1.00  0.00    -0.237 OA
ATOM    102  O   UNL A   1      43.681  39.859  34.069  1.00  0.00    -0.744 OA
ENDBRANCH  98  99
ENDBRANCH  72  93
ENDBRANCH  46  47
ENDBRANCH  38  41
ENDBRANCH  36  37
ENDBRANCH  35  36
ENDBRANCH  34  35
ENDBRANCH  33  34
ENDBRANCH  31  33
ENDBRANCH   1  29
TORSDOF 24
ENDMDL
MODEL 2
REMARK VINA RESULT:      -9.5      5.401     12.567
REMARK SMILES CCCCCCNC(=O)Oc1cccc(-c2ccc([C@@H](C)C(=O)NCCCCNC(=O)c3ccc(-c4c5nc(c(-c6ccc(S(=O)(=O)[O-])cc6)c6ccc([nH]6)c(-c6ccc(S(=O)(=O)[O-])cc6)c6nc(c(-c7ccc(S(=O)(=O)[O-])cc7)c7ccc4[nH]7)C=C6)C=C5)cc3)cc2N)c1
REMARK SMILES IDX 20 1 21 2 19 3 16 4 17 5 93 6 18 7 92 8 15 9 11 10 12 11
REMARK SMILES IDX 95 12 13 13 14 14 10 15 8 16 7 17 9 19 6 20 5 21 4 22 3 23
REMARK SMILES IDX 2 24 1 25 94 26 22 29 23 30 24 31 25 33 26 34 27 35 28 36
REMARK SMILES IDX 29 37 30 38 31 40 32 41 33 42 91 43 34 44 90 45 35 46 36 47
REMARK SMILES IDX 37 48 84 49 38 50 89 51 83 52 85 53 39 54 88 55 82 56 81 57
REMARK SMILES IDX 40 59 70 60 51 61 69 62 52 63 55 64 68 65 86 66 53 67 54 68
REMARK SMILES IDX 67 70 87 71 56 72 41 73 42 74 50 75 43 76 49 77 44 78 45 79
REMARK SMILES IDX 46 80 47 81 48 82 71 83 72 84 80 85 73 86 79 87 74 88 75 89
REMARK SMILES IDX 76 90 77 91 78 92 57 93 58 94 66 95 59 96 65 97 60 98 61 99
REMARK SMILES IDX 62 100 63 101 64 102
REMARK H PARENT 7 18 94 27 94 28 24 32 29 39 85 58 55 69
REMARK Flexibility Score: inf
ROOT
ATOM      1  C   UNL A   1      39.507  33.234  33.515  1.00  0.00     0.105 C 
ATOM      2  C   UNL A   1      40.381  33.118  34.763  1.00  0.00     0.023 C 
ENDROOT
BRANCH   1   3
ATOM      3  C   UNL A   1      40.206  33.764  32.273  1.00  0.00    -0.034 A 
ATOM      4  C   UNL A   1      41.383  34.977  29.968  1.00  0.00     0.005 A 
ATOM      5  C   UNL A   1      42.123  34.721  31.138  1.00  0.00     0.011 A 
ATOM      6  C   UNL A   1      40.052  34.500  29.928  1.00  0.00     0.040 A 
ATOM      7  C   UNL A   1      41.564  34.071  32.240  1.00  0.00     0.005 A 
ATOM      8  C   UNL A   1      39.467  33.982  31.100  1.00  0.00     0.030 A 
BRANCH   4   9
ATOM      9  C   UNL A   1      42.034  35.721  28.858  1.00  0.00    -0.013 A 
ATOM     10  C   UNL A   1      42.949  37.769  27.909  1.00  0.00     0.133 A 
ATOM     11  C   UNL A   1      43.263  37.119  26.720  1.00  0.00     0.047 A 
ATOM     12  C   UNL A   1      42.363  37.084  28.976  1.00  0.00     0.056 A 
ATOM     13  C   UNL A   1      42.988  35.762  26.597  1.00  0.00     0.004 A 
ATOM     14  C   UNL A   1      42.366  35.078  27.648  1.00  0.00     0.009 A 
BRANCH  10  15
ATOM     15  O   UNL A   1      43.087  39.168  27.915  1.00  0.00    -0.410 OA
BRANCH  15  16
ATOM     16  C   UNL A   1      41.998  39.971  27.614  1.00  0.00     0.412 C 
ATOM     17  N   UNL A   1      41.703  40.856  28.615  1.00  0.00    -0.321 N 
ATOM     18  H   UNL A   1      40.913  41.428  28.481  1.00  0.00     0.167 HD
ATOM     19  O   UNL A   1      41.336  39.930  26.587  1.00  0.00    -0.224 OA
BRANCH  17  20
ATOM     20  C   UNL A   1      42.436  41.040  29.852  1.00  0.00     0.119 C 
BRANCH  20  21
ATOM     21  C   UNL A   1      41.559  41.633  30.955  1.00  0.00     0.021 C 
BRANCH  21  22
ATOM     22  C   UNL A   1      42.222  41.701  32.336  1.00  0.00     0.002 C 
BRANCH  22  23
ATOM     23  C   UNL A   1      43.455  42.607  32.431  1.00  0.00    -0.000 C 
BRANCH  23  24
ATOM     24  C   UNL A   1      43.479  43.560  33.627  1.00  0.00    -0.003 C 
ATOM     25  C   UNL A   1      42.169  44.305  33.829  1.00  0.00     0.004 C 
ENDBRANCH  23  24
ENDBRANCH  22  23
ENDBRANCH  21  22
ENDBRANCH  20  21
ENDBRANCH  17  20
ENDBRANCH  15  16
ENDBRANCH  10  15
ENDBRANCH   4   9
BRANCH   6  26
ATOM     26  N   UNL A   1      39.246  34.611  28.792  1.00  0.00    -0.398 N 
ATOM     27  H   UNL A   1      39.108  33.830  28.208  1.00  0.00     0.156 HD
ATOM     28  H   UNL A   1      38.818  35.470  28.576  1.00  0.00     0.156 HD
ENDBRANCH   6  26
ENDBRANCH   1   3
BRANCH   1  29
ATOM     29  C   UNL A   1      38.123  33.852  33.772  1.00  0.00     0.227 C 
ATOM     30  O   UNL A   1      38.039  35.024  34.160  1.00  0.00    -0.274 OA
ATOM     31  N   UNL A   1      36.947  33.197  33.570  1.00  0.00    -0.356 N 
ATOM     32  H   UNL A   1      36.146  33.753  33.706  1.00  0.00     0.163 HD
BRANCH  31  33
ATOM     33  C   UNL A   1      36.659  31.829  33.190  1.00  0.00     0.116 C 
BRANCH  33  34
ATOM     34  C   UNL A   1      35.783  31.754  31.938  1.00  0.00     0.023 C 
BRANCH  34  35
ATOM     35  C   UNL A   1      36.042  32.845  30.904  1.00  0.00     0.023 C 
BRANCH  35  36
ATOM     36  C   UNL A   1      36.235  32.351  29.476  1.00  0.00     0.116 C 
BRANCH  36  37
ATOM     37  N   UNL A   1      35.230  31.393  29.037  1.00  0.00    -0.352 N 
ATOM     38  C   UNL A   1      35.428  30.115  28.562  1.00  0.00     0.251 C 
ATOM     39  H   UNL A   1      34.294  31.695  29.086  1.00  0.00     0.163 HD
ATOM     40  O   UNL A   1      34.484  29.448  28.153  1.00  0.00    -0.269 OA
BRANCH  38  41
ATOM     41  C   UNL A   1      36.805  29.583  28.511  1.00  0.00     0.039 A 
ATOM     42  C   UNL A   1      37.535  29.708  27.327  1.00  0.00     0.014 A 
ATOM     43  C   UNL A   1      37.397  29.047  29.657  1.00  0.00     0.014 A 
ATOM     44  C   UNL A   1      38.889  29.366  27.318  1.00  0.00     0.010 A 
ATOM     45  C   UNL A   1      38.763  28.793  29.669  1.00  0.00     0.010 A 
ATOM     46  C   UNL A   1      39.524  28.950  28.500  1.00  0.00    -0.014 A 
BRANCH  46  47
ATOM     47  C   UNL A   1      40.985  28.692  28.541  1.00  0.00     0.031 A 
ATOM     48  C   UNL A   1      41.523  27.337  28.173  1.00  0.00     0.074 A 
ATOM     49  C   UNL A   1      41.821  29.654  28.982  1.00  0.00     0.049 A 
ATOM     50  N   UNL A   1      42.759  26.909  28.184  1.00  0.00    -0.248 NA
ATOM     51  C   UNL A   1      40.539  26.318  27.769  1.00  0.00     0.031 C 
ATOM     52  C   UNL A   1      41.417  30.989  29.429  1.00  0.00     0.029 A 
ATOM     53  N   UNL A   1      43.185  29.654  29.133  1.00  0.00    -0.354 N 
ATOM     54  C   UNL A   1      42.699  25.571  27.812  1.00  0.00     0.074 A 
ATOM     55  C   UNL A   1      41.302  25.243  27.637  1.00  0.00     0.031 C 
ATOM     56  C   UNL A   1      42.510  31.688  29.772  1.00  0.00     0.029 A 
ATOM     57  C   UNL A   1      43.688  30.842  29.608  1.00  0.00     0.049 A 
ATOM     58  H   UNL A   1      43.751  28.877  28.921  1.00  0.00     0.167 HD
ATOM     59  C   UNL A   1      43.716  24.699  27.612  1.00  0.00     0.031 A 
ATOM     60  C   UNL A   1      44.954  31.213  29.883  1.00  0.00     0.031 A 
ATOM     61  C   UNL A   1      45.105  25.034  27.778  1.00  0.00     0.049 A 
ATOM     62  C   UNL A   1      46.069  30.234  29.640  1.00  0.00     0.074 A 
ATOM     63  C   UNL A   1      46.215  24.246  27.531  1.00  0.00     0.029 A 
ATOM     64  N   UNL A   1      45.575  26.254  28.239  1.00  0.00    -0.354 N 
ATOM     65  N   UNL A   1      46.001  28.998  29.203  1.00  0.00    -0.248 NA
ATOM     66  C   UNL A   1      47.435  30.703  29.916  1.00  0.00     0.031 C 
ATOM     67  C   UNL A   1      47.354  24.972  27.896  1.00  0.00     0.029 A 
ATOM     68  C   UNL A   1      46.957  26.233  28.314  1.00  0.00     0.049 A 
ATOM     69  H   UNL A   1      45.008  27.023  28.481  1.00  0.00     0.167 HD
ATOM     70  C   UNL A   1      47.314  28.549  29.131  1.00  0.00     0.074 A 
ATOM     71  C   UNL A   1      48.156  29.651  29.552  1.00  0.00     0.031 C 
ATOM     72  C   UNL A   1      47.781  27.334  28.747  1.00  0.00     0.031 A 
BRANCH  59  73
ATOM     73  C   UNL A   1      43.352  23.295  27.202  1.00  0.00    -0.014 A 
ATOM     74  C   UNL A   1      42.807  22.383  28.125  1.00  0.00     0.010 A 
ATOM     75  C   UNL A   1      43.553  22.883  25.872  1.00  0.00     0.010 A 
ATOM     76  C   UNL A   1      42.525  21.069  27.741  1.00  0.00     0.020 A 
ATOM     77  C   UNL A   1      43.240  21.578  25.476  1.00  0.00     0.020 A 
ATOM     78  C   UNL A   1      42.750  20.673  26.420  1.00  0.00     0.054 A 
BRANCH  78  79
ATOM     79  S   UNL A   1      42.379  18.962  25.949  1.00  0.00     0.124 S 
ATOM     80  O   UNL A   1      43.207  18.791  24.757  1.00  0.00    -0.237 OA
ATOM     81  O   UNL A   1      42.808  18.206  27.124  1.00  0.00    -0.237 OA
ATOM     82  O   UNL A   1      40.939  18.971  25.710  1.00  0.00    -0.744 OA
ENDBRANCH  78  79
ENDBRANCH  59  73
BRANCH  60  83
ATOM     83  C   UNL A   1      45.227  32.585  30.390  1.00  0.00    -0.014 A 
ATOM     84  C   UNL A   1      45.342  33.665  29.498  1.00  0.00     0.010 A 
ATOM     85  C   UNL A   1      45.328  32.827  31.772  1.00  0.00     0.010 A 
ATOM     86  C   UNL A   1      45.559  34.961  29.977  1.00  0.00     0.020 A 
ATOM     87  C   UNL A   1      45.517  34.125  32.257  1.00  0.00     0.020 A 
ATOM     88  C   UNL A   1      45.638  35.183  31.355  1.00  0.00     0.054 A 
BRANCH  88  89
ATOM     89  S   UNL A   1      45.841  36.884  31.955  1.00  0.00     0.124 S 
ATOM     90  O   UNL A   1      45.423  37.667  30.796  1.00  0.00    -0.237 OA
ATOM     91  O   UNL A   1      44.939  36.923  33.104  1.00  0.00    -0.237 OA
ATOM     92  O   UNL A   1      47.262  36.964  32.285  1.00  0.00    -0.744 OA
ENDBRANCH  88  89
ENDBRANCH  60  83
BRANCH  72  93
ATOM     93  C   UNL A   1      49.273  27.136  28.746  1.00  0.00    -0.014 A 
ATOM     94  C   UNL A   1      50.054  27.486  27.630  1.00  0.00     0.010 A 
ATOM     95  C   UNL A   1      49.909  26.642  29.899  1.00  0.00     0.010 A 
ATOM     96  C   UNL A   1      51.441  27.316  27.657  1.00  0.00     0.020 A 
ATOM     97  C   UNL A   1      51.298  26.496  29.941  1.00  0.00     0.020 A 
ATOM     98  C   UNL A   1      52.053  26.821  28.812  1.00  0.00     0.054 A 
BRANCH  98  99
ATOM     99  S   UNL A   1      53.859  26.647  28.837  1.00  0.00     0.124 S 
ATOM    100  O   UNL A   1      54.093  25.750  27.710  1.00  0.00    -0.237 OA
ATOM    101  O   UNL A   1      54.316  28.023  28.653  1.00  0.00    -0.237 OA
ATOM    102  O   UNL A   1      54.134  26.078  30.155  1.00  0.00    -0.744 OA
ENDBRANCH  98  99
ENDBRANCH  72  93
ENDBRANCH  46  47
ENDBRANCH  38  41
ENDBRANCH  36  37
ENDBRANCH  35  36
ENDBRANCH  34  35
ENDBRANCH  33  34
ENDBRANCH  31  33
ENDBRANCH   1  29
TORSDOF 24
ENDMDL
MODEL 3
REMARK VINA RESULT:      -9.5      4.043      5.587
REMARK SMILES CCCCCCNC(=O)Oc1cccc(-c2ccc([C@@H](C)C(=O)NCCCCNC(=O)c3ccc(-c4c5nc(c(-c6ccc(S(=O)(=O)[O-])cc6)c6ccc([nH]6)c(-c6ccc(S(=O)(=O)[O-])cc6)c6nc(c(-c7ccc(S(=O)(=O)[O-])cc7)c7ccc4[nH]7)C=C6)C=C5)cc3)cc2N)c1
REMARK SMILES IDX 20 1 21 2 19 3 16 4 17 5 93 6 18 7 92 8 15 9 11 10 12 11
REMARK SMILES IDX 95 12 13 13 14 14 10 15 8 16 7 17 9 19 6 20 5 21 4 22 3 23
REMARK SMILES IDX 2 24 1 25 94 26 22 29 23 30 24 31 25 33 26 34 27 35 28 36
REMARK SMILES IDX 29 37 30 38 31 40 32 41 33 42 91 43 34 44 90 45 35 46 36 47
REMARK SMILES IDX 37 48 84 49 38 50 89 51 83 52 85 53 39 54 88 55 82 56 81 57
REMARK SMILES IDX 40 59 70 60 51 61 69 62 52 63 55 64 68 65 86 66 53 67 54 68
REMARK SMILES IDX 67 70 87 71 56 72 41 73 42 74 50 75 43 76 49 77 44 78 45 79
REMARK SMILES IDX 46 80 47 81 48 82 71 83 72 84 80 85 73 86 79 87 74 88 75 89
REMARK SMILES IDX 76 90 77 91 78 92 57 93 58 94 66 95 59 96 65 97 60 98 61 99
REMARK SMILES IDX 62 100 63 101 64 102
REMARK H PARENT 7 18 94 27 94 28 24 32 29 39 85 58 55 69
REMARK Flexibility Score: inf
ROOT
ATOM      1  C   UNL A   1      34.908  23.017  24.287  1.00  0.00     0.105 C 
ATOM      2  C   UNL A   1      33.891  21.950  23.885  1.00  0.00     0.023 C 
ENDROOT
BRANCH   1   3
ATOM      3  C   UNL A   1      34.364  24.433  24.393  1.00  0.00    -0.034 A 
ATOM      4  C   UNL A   1      33.107  26.995  24.541  1.00  0.00     0.005 A 
ATOM      5  C   UNL A   1      33.648  26.362  25.675  1.00  0.00     0.011 A 
ATOM      6  C   UNL A   1      33.315  26.368  23.290  1.00  0.00     0.040 A 
ATOM      7  C   UNL A   1      34.318  25.139  25.592  1.00  0.00     0.005 A 
ATOM      8  C   UNL A   1      33.859  25.070  23.249  1.00  0.00     0.030 A 
BRANCH   4   9
ATOM      9  C   UNL A   1      32.362  28.269  24.719  1.00  0.00    -0.013 A 
ATOM     10  C   UNL A   1      30.636  29.846  24.036  1.00  0.00     0.133 A 
ATOM     11  C   UNL A   1      30.966  30.710  25.075  1.00  0.00     0.047 A 
ATOM     12  C   UNL A   1      31.304  28.630  23.866  1.00  0.00     0.056 A 
ATOM     13  C   UNL A   1      31.978  30.353  25.958  1.00  0.00     0.004 A 
ATOM     14  C   UNL A   1      32.677  29.155  25.771  1.00  0.00     0.009 A 
BRANCH  10  15
ATOM     15  O   UNL A   1      29.731  30.332  23.077  1.00  0.00    -0.410 OA
BRANCH  15  16
ATOM     16  C   UNL A   1      28.422  30.607  23.439  1.00  0.00     0.412 C 
ATOM     17  N   UNL A   1      27.583  29.546  23.228  1.00  0.00    -0.321 N 
ATOM     18  H   UNL A   1      26.630  29.690  23.425  1.00  0.00     0.167 HD
ATOM     19  O   UNL A   1      28.007  31.663  23.894  1.00  0.00    -0.224 OA
BRANCH  17  20
ATOM     20  C   UNL A   1      27.956  28.231  22.745  1.00  0.00     0.119 C 
BRANCH  20  21
ATOM     21  C   UNL A   1      28.040  27.207  23.877  1.00  0.00     0.021 C 
BRANCH  21  22
ATOM     22  C   UNL A   1      29.201  26.213  23.761  1.00  0.00     0.002 C 
BRANCH  22  23
ATOM     23  C   UNL A   1      29.655  25.573  25.077  1.00  0.00    -0.000 C 
BRANCH  23  24
ATOM     24  C   UNL A   1      30.603  24.380  24.936  1.00  0.00    -0.003 C 
ATOM     25  C   UNL A   1      30.967  23.740  26.266  1.00  0.00     0.004 C 
ENDBRANCH  23  24
ENDBRANCH  22  23
ENDBRANCH  21  22
ENDBRANCH  20  21
ENDBRANCH  17  20
ENDBRANCH  15  16
ENDBRANCH  10  15
ENDBRANCH   4   9
BRANCH   6  26
ATOM     26  N   UNL A   1      32.906  26.941  22.083  1.00  0.00    -0.398 N 
ATOM     27  H   UNL A   1      32.856  27.921  21.995  1.00  0.00     0.156 HD
ATOM     28  H   UNL A   1      32.668  26.366  21.321  1.00  0.00     0.156 HD
ENDBRANCH   6  26
ENDBRANCH   1   3
BRANCH   1  29
ATOM     29  C   UNL A   1      36.253  22.911  23.550  1.00  0.00     0.227 C 
ATOM     30  O   UNL A   1      36.352  23.338  22.393  1.00  0.00    -0.274 OA
ATOM     31  N   UNL A   1      37.385  22.395  24.103  1.00  0.00    -0.356 N 
ATOM     32  H   UNL A   1      38.183  22.468  23.530  1.00  0.00     0.163 HD
BRANCH  31  33
ATOM     33  C   UNL A   1      37.630  21.758  25.380  1.00  0.00     0.116 C 
BRANCH  33  34
ATOM     34  C   UNL A   1      37.404  20.246  25.319  1.00  0.00     0.023 C 
BRANCH  34  35
ATOM     35  C   UNL A   1      38.676  19.403  25.321  1.00  0.00     0.023 C 
BRANCH  35  36
ATOM     36  C   UNL A   1      39.810  19.944  26.183  1.00  0.00     0.116 C 
BRANCH  36  37
ATOM     37  N   UNL A   1      41.059  19.208  26.052  1.00  0.00    -0.352 N 
ATOM     38  C   UNL A   1      42.344  19.697  26.138  1.00  0.00     0.251 C 
ATOM     39  H   UNL A   1      40.976  18.242  25.883  1.00  0.00     0.163 HD
ATOM     40  O   UNL A   1      43.306  18.967  25.926  1.00  0.00    -0.269 OA
BRANCH  38  41
ATOM     41  C   UNL A   1      42.538  21.130  26.441  1.00  0.00     0.039 A 
ATOM     42  C   UNL A   1      42.767  21.517  27.762  1.00  0.00     0.014 A 
ATOM     43  C   UNL A   1      42.581  22.069  25.408  1.00  0.00     0.014 A 
ATOM     44  C   UNL A   1      43.122  22.840  28.037  1.00  0.00     0.010 A 
ATOM     45  C   UNL A   1      43.021  23.361  25.673  1.00  0.00     0.010 A 
ATOM     46  C   UNL A   1      43.297  23.760  26.989  1.00  0.00    -0.014 A 
BRANCH  46  47
ATOM     47  C   UNL A   1      43.783  25.139  27.247  1.00  0.00     0.031 A 
ATOM     48  C   UNL A   1      45.215  25.500  26.965  1.00  0.00     0.074 A 
ATOM     49  C   UNL A   1      42.955  26.044  27.807  1.00  0.00     0.049 A 
ATOM     50  N   UNL A   1      45.833  26.636  27.161  1.00  0.00    -0.248 NA
ATOM     51  C   UNL A   1      46.075  24.435  26.420  1.00  0.00     0.031 C 
ATOM     52  C   UNL A   1      41.562  25.799  28.188  1.00  0.00     0.029 A 
ATOM     53  N   UNL A   1      43.168  27.354  28.160  1.00  0.00    -0.354 N 
ATOM     54  C   UNL A   1      47.153  26.418  26.786  1.00  0.00     0.074 A 
ATOM     55  C   UNL A   1      47.259  25.026  26.405  1.00  0.00     0.031 C 
ATOM     56  C   UNL A   1      41.037  26.928  28.689  1.00  0.00     0.029 A 
ATOM     57  C   UNL A   1      42.063  27.966  28.704  1.00  0.00     0.049 A 
ATOM     58  H   UNL A   1      44.030  27.812  28.035  1.00  0.00     0.167 HD
ATOM     59  C   UNL A   1      48.180  27.299  26.740  1.00  0.00     0.031 A 
ATOM     60  C   UNL A   1      41.891  29.220  29.163  1.00  0.00     0.031 A 
ATOM     61  C   UNL A   1      48.066  28.684  27.110  1.00  0.00     0.049 A 
ATOM     62  C   UNL A   1      43.040  30.187  29.091  1.00  0.00     0.074 A 
ATOM     63  C   UNL A   1      49.026  29.678  27.033  1.00  0.00     0.029 A 
ATOM     64  N   UNL A   1      46.925  29.271  27.636  1.00  0.00    -0.354 N 
ATOM     65  N   UNL A   1      44.260  29.986  28.649  1.00  0.00    -0.248 NA
ATOM     66  C   UNL A   1      42.787  31.555  29.566  1.00  0.00     0.031 C 
ATOM     67  C   UNL A   1      48.481  30.852  27.563  1.00  0.00     0.029 A 
ATOM     68  C   UNL A   1      47.163  30.606  27.915  1.00  0.00     0.049 A 
ATOM     69  H   UNL A   1      46.070  28.806  27.789  1.00  0.00     0.167 HD
ATOM     70  C   UNL A   1      44.913  31.207  28.774  1.00  0.00     0.074 A 
ATOM     71  C   UNL A   1      43.949  32.144  29.316  1.00  0.00     0.031 C 
ATOM     72  C   UNL A   1      46.196  31.523  28.466  1.00  0.00     0.031 A 
BRANCH  59  73
ATOM     73  C   UNL A   1      49.518  26.779  26.281  1.00  0.00    -0.014 A 
ATOM     74  C   UNL A   1      49.997  27.037  24.983  1.00  0.00     0.010 A 
ATOM     75  C   UNL A   1      50.313  26.024  27.164  1.00  0.00     0.010 A 
ATOM     76  C   UNL A   1      51.215  26.502  24.557  1.00  0.00     0.020 A 
ATOM     77  C   UNL A   1      51.549  25.515  26.751  1.00  0.00     0.020 A 
ATOM     78  C   UNL A   1      51.980  25.738  25.442  1.00  0.00     0.054 A 
BRANCH  78  79
ATOM     79  S   UNL A   1      53.556  25.053  24.862  1.00  0.00     0.124 S 
ATOM     80  O   UNL A   1      54.525  25.851  25.611  1.00  0.00    -0.237 OA
ATOM     81  O   UNL A   1      53.460  23.649  25.257  1.00  0.00    -0.237 OA
ATOM     82  O   UNL A   1      53.531  25.295  23.422  1.00  0.00    -0.744 OA
ENDBRANCH  78  79
ENDBRANCH  59  73
BRANCH  60  83
ATOM     83  C   UNL A   1      40.567  29.633  29.704  1.00  0.00    -0.014 A 
ATOM     84  C   UNL A   1      39.506  29.940  28.835  1.00  0.00     0.010 A 
ATOM     85  C   UNL A   1      40.347  29.676  31.093  1.00  0.00     0.010 A 
ATOM     86  C   UNL A   1      38.251  30.289  29.344  1.00  0.00     0.020 A 
ATOM     87  C   UNL A   1      39.087  29.998  31.606  1.00  0.00     0.020 A 
ATOM     88  C   UNL A   1      38.048  30.309  30.727  1.00  0.00     0.054 A 
BRANCH  88  89
ATOM     89  S   UNL A   1      36.389  30.687  31.360  1.00  0.00     0.124 S 
ATOM     90  O   UNL A   1      35.612  29.552  30.873  1.00  0.00    -0.237 OA
ATOM     91  O   UNL A   1      36.606  30.733  32.804  1.00  0.00    -0.237 OA
ATOM     92  O   UNL A   1      36.073  31.974  30.744  1.00  0.00    -0.744 OA
ENDBRANCH  88  89
ENDBRANCH  60  83
BRANCH  72  93
ATOM     93  C   UNL A   1      46.629  32.948  28.687  1.00  0.00    -0.014 A 
ATOM     94  C   UNL A   1      46.666  33.871  27.627  1.00  0.00     0.010 A 
ATOM     95  C   UNL A   1      46.950  33.382  29.986  1.00  0.00     0.010 A 
ATOM     96  C   UNL A   1      47.049  35.195  27.857  1.00  0.00     0.020 A 
ATOM     97  C   UNL A   1      47.306  34.712  30.225  1.00  0.00     0.020 A 
ATOM     98  C   UNL A   1      47.367  35.607  29.155  1.00  0.00     0.054 A 
BRANCH  98  99
ATOM     99  S   UNL A   1      47.820  37.341  29.435  1.00  0.00     0.124 S 
ATOM    100  O   UNL A   1      49.171  37.394  28.882  1.00  0.00    -0.237 OA
ATOM    101  O   UNL A   1      46.801  38.065  28.678  1.00  0.00    -0.237 OA
ATOM    102  O   UNL A   1      47.734  37.492  30.886  1.00  0.00    -0.744 OA
ENDBRANCH  98  99
ENDBRANCH  72  93
ENDBRANCH  46  47
ENDBRANCH  38  41
ENDBRANCH  36  37
ENDBRANCH  35  36
ENDBRANCH  34  35
ENDBRANCH  33  34
ENDBRANCH  31  33
ENDBRANCH   1  29
TORSDOF 24
ENDMDL
