MODEL 1
REMARK VINA RESULT:      -9.9      0.000      0.000
REMARK SMILES NC(=O)C1CC[NH+](CC[C@H]2CN(C(=O)c3ccccc3)CC[C@H]2CC(=O)NCCCCNC(=O)c2ccc(-c3c4nc(c(-c5ccc(S(=O)(=O)[O-])cc5)c5ccc([nH]5)c(-c5ccc(S(=O)(=O)[O-])cc5)c5nc(c(-c6ccc(S(=O)(=O)[O-])cc6)c6ccc3[nH]6)C=C5)C=C4)cc2)CC1
REMARK SMILES IDX 28 1 27 2 25 3 26 4 24 6 23 7 10 8 11 9 12 10 22 11 21 12
REMARK SMILES IDX 9 13 8 14 7 15 4 16 5 17 96 18 6 19 95 20 2 22 1 23 3 26
REMARK SMILES IDX 13 27 14 28 15 29 16 30 20 31 17 32 19 33 18 34 29 35 30 36
REMARK SMILES IDX 31 37 32 38 33 39 34 41 35 42 36 43 94 44 37 45 93 46 38 47
REMARK SMILES IDX 39 48 40 49 87 50 41 51 92 52 86 53 88 54 42 55 91 56 85 57
REMARK SMILES IDX 84 58 43 60 73 61 54 62 72 63 55 64 58 65 71 66 89 67 56 68
REMARK SMILES IDX 57 69 70 71 90 72 59 73 44 74 45 75 53 76 46 77 52 78 47 79
REMARK SMILES IDX 48 80 49 81 50 82 51 83 74 84 75 85 83 86 76 87 82 88 77 89
REMARK SMILES IDX 78 90 79 91 80 92 81 93 60 94 61 95 69 96 62 97 68 98 63 99
REMARK SMILES IDX 64 100 65 101 66 102 67 103
REMARK H PARENT 27 5 7 21 1 24 1 25 32 40 88 59 58 70
REMARK Flexibility Score: inf
ROOT
ATOM      1  C   UNL A   1      41.870  24.069  25.662  1.00  0.00     0.116 C 
ENDROOT
BRANCH   1   2
ATOM      2  N   UNL A   1      41.345  23.065  26.583  1.00  0.00    -0.356 N 
ATOM      3  C   UNL A   1      40.091  22.589  26.828  1.00  0.00     0.220 C 
ATOM      4  O   UNL A   1      39.996  21.610  27.578  1.00  0.00    -0.275 OA
ATOM      5  H   UNL A   1      42.039  22.647  27.141  1.00  0.00     0.163 HD
BRANCH   3   6
ATOM      6  C   UNL A   1      38.831  23.269  26.304  1.00  0.00     0.104 C 
BRANCH   6   7
ATOM      7  C   UNL A   1      37.710  22.252  26.072  1.00  0.00     0.005 C 
ATOM      8  C   UNL A   1      36.309  22.886  26.164  1.00  0.00     0.018 C 
ATOM      9  C   UNL A   1      35.323  21.721  26.284  1.00  0.00     0.124 C 
ATOM     10  N   UNL A   1      35.382  20.813  25.146  1.00  0.00    -0.338 N 
ATOM     11  C   UNL A   1      37.804  21.433  24.771  1.00  0.00     0.026 C 
ATOM     12  C   UNL A   1      36.712  20.346  24.728  1.00  0.00     0.120 C 
BRANCH   8  13
ATOM     13  C   UNL A   1      35.913  23.900  25.048  1.00  0.00     0.067 C 
BRANCH  13  14
ATOM     14  C   UNL A   1      34.736  24.843  25.427  1.00  0.00     0.262 C 
BRANCH  14  15
ATOM     15  N   UNL A   1      33.836  25.165  24.310  1.00  0.00    -0.335 N 
ATOM     16  C   UNL A   1      32.449  25.895  21.895  1.00  0.00     0.089 C 
ATOM     17  C   UNL A   1      32.747  24.435  22.260  1.00  0.00     0.075 C 
ATOM     18  C   UNL A   1      33.532  26.837  22.433  1.00  0.00     0.075 C 
ATOM     19  C   UNL A   1      33.987  24.295  23.149  1.00  0.00     0.263 C 
ATOM     20  C   UNL A   1      33.869  26.583  23.918  1.00  0.00     0.263 C 
ATOM     21  H   UNL A   1      32.909  24.977  24.690  1.00  0.00     0.348 HD
BRANCH  16  22
ATOM     22  C   UNL A   1      31.084  26.360  22.385  1.00  0.00     0.220 C 
ATOM     23  N   UNL A   1      30.732  27.617  21.988  1.00  0.00    -0.369 N 
ATOM     24  H   UNL A   1      29.865  27.994  22.261  1.00  0.00     0.159 HD
ATOM     25  H   UNL A   1      31.345  28.146  21.428  1.00  0.00     0.159 HD
ATOM     26  O   UNL A   1      30.341  25.721  23.118  1.00  0.00    -0.275 OA
ENDBRANCH  16  22
ENDBRANCH  14  15
ENDBRANCH  13  14
ENDBRANCH   8  13
BRANCH  10  27
ATOM     27  C   UNL A   1      34.162  20.294  24.720  1.00  0.00     0.253 C 
ATOM     28  O   UNL A   1      33.287  20.965  24.175  1.00  0.00    -0.269 OA
BRANCH  27  29
ATOM     29  C   UNL A   1      33.873  18.861  24.873  1.00  0.00     0.040 A 
ATOM     30  C   UNL A   1      34.676  17.964  24.162  1.00  0.00     0.014 A 
ATOM     31  C   UNL A   1      32.746  18.415  25.569  1.00  0.00     0.014 A 
ATOM     32  C   UNL A   1      34.369  16.606  24.172  1.00  0.00     0.001 A 
ATOM     33  C   UNL A   1      32.444  17.053  25.575  1.00  0.00     0.001 A 
ATOM     34  C   UNL A   1      33.256  16.151  24.878  1.00  0.00     0.000 A 
ENDBRANCH  27  29
ENDBRANCH  10  27
ENDBRANCH   6   7
ENDBRANCH   3   6
ENDBRANCH   1   2
BRANCH   1  35
ATOM     35  C   UNL A   1      41.717  25.508  26.196  1.00  0.00     0.023 C 
BRANCH  35  36
ATOM     36  C   UNL A   1      41.762  26.620  25.134  1.00  0.00     0.023 C 
BRANCH  36  37
ATOM     37  C   UNL A   1      42.924  27.606  25.215  1.00  0.00     0.116 C 
BRANCH  37  38
ATOM     38  N   UNL A   1      44.250  27.018  25.118  1.00  0.00    -0.352 N 
ATOM     39  C   UNL A   1      45.211  26.906  26.107  1.00  0.00     0.251 C 
ATOM     40  H   UNL A   1      44.496  26.654  24.236  1.00  0.00     0.163 HD
ATOM     41  O   UNL A   1      46.280  26.354  25.886  1.00  0.00    -0.269 OA
BRANCH  39  42
ATOM     42  C   UNL A   1      44.957  27.519  27.432  1.00  0.00     0.039 A 
ATOM     43  C   UNL A   1      45.327  28.853  27.625  1.00  0.00     0.014 A 
ATOM     44  C   UNL A   1      44.290  26.819  28.441  1.00  0.00     0.014 A 
ATOM     45  C   UNL A   1      44.935  29.517  28.790  1.00  0.00     0.010 A 
ATOM     46  C   UNL A   1      43.856  27.499  29.582  1.00  0.00     0.010 A 
ATOM     47  C   UNL A   1      44.150  28.862  29.754  1.00  0.00    -0.014 A 
BRANCH  47  48
ATOM     48  C   UNL A   1      43.582  29.616  30.904  1.00  0.00     0.031 A 
ATOM     49  C   UNL A   1      44.334  29.727  32.201  1.00  0.00     0.074 A 
ATOM     50  C   UNL A   1      42.358  30.174  30.794  1.00  0.00     0.049 A 
ATOM     51  N   UNL A   1      43.987  30.344  33.303  1.00  0.00    -0.248 NA
ATOM     52  C   UNL A   1      45.635  29.046  32.274  1.00  0.00     0.031 C 
ATOM     53  C   UNL A   1      41.504  30.113  29.605  1.00  0.00     0.029 A 
ATOM     54  N   UNL A   1      41.619  30.904  31.693  1.00  0.00    -0.354 N 
ATOM     55  C   UNL A   1      45.022  30.123  34.203  1.00  0.00     0.074 A 
ATOM     56  C   UNL A   1      45.988  29.279  33.532  1.00  0.00     0.031 C 
ATOM     57  C   UNL A   1      40.374  30.800  29.838  1.00  0.00     0.029 A 
ATOM     58  C   UNL A   1      40.404  31.323  31.201  1.00  0.00     0.049 A 
ATOM     59  H   UNL A   1      41.928  31.108  32.605  1.00  0.00     0.167 HD
ATOM     60  C   UNL A   1      45.167  30.594  35.465  1.00  0.00     0.031 A 
ATOM     61  C   UNL A   1      39.424  32.048  31.776  1.00  0.00     0.031 A 
ATOM     62  C   UNL A   1      44.209  31.433  36.136  1.00  0.00     0.049 A 
ATOM     63  C   UNL A   1      39.597  32.542  33.185  1.00  0.00     0.074 A 
ATOM     64  C   UNL A   1      44.292  31.992  37.400  1.00  0.00     0.029 A 
ATOM     65  N   UNL A   1      42.992  31.830  35.604  1.00  0.00    -0.354 N 
ATOM     66  N   UNL A   1      40.615  32.376  33.996  1.00  0.00    -0.248 NA
ATOM     67  C   UNL A   1      38.494  33.332  33.755  1.00  0.00     0.031 C 
ATOM     68  C   UNL A   1      43.106  32.692  37.649  1.00  0.00     0.029 A 
ATOM     69  C   UNL A   1      42.306  32.609  36.521  1.00  0.00     0.049 A 
ATOM     70  H   UNL A   1      42.663  31.594  34.706  1.00  0.00     0.167 HD
ATOM     71  C   UNL A   1      40.287  33.063  35.159  1.00  0.00     0.074 A 
ATOM     72  C   UNL A   1      38.980  33.652  34.947  1.00  0.00     0.031 C 
ATOM     73  C   UNL A   1      41.008  33.193  36.300  1.00  0.00     0.031 A 
BRANCH  60  74
ATOM     74  C   UNL A   1      46.413  30.198  36.209  1.00  0.00    -0.014 A 
ATOM     75  C   UNL A   1      47.576  30.986  36.143  1.00  0.00     0.010 A 
ATOM     76  C   UNL A   1      46.416  29.039  37.007  1.00  0.00     0.010 A 
ATOM     77  C   UNL A   1      48.734  30.596  36.819  1.00  0.00     0.020 A 
ATOM     78  C   UNL A   1      47.565  28.660  37.705  1.00  0.00     0.020 A 
ATOM     79  C   UNL A   1      48.724  29.429  37.588  1.00  0.00     0.054 A 
BRANCH  79  80
ATOM     80  S   UNL A   1      50.241  28.943  38.455  1.00  0.00     0.124 S 
ATOM     81  O   UNL A   1      51.275  29.451  37.556  1.00  0.00    -0.237 OA
ATOM     82  O   UNL A   1      50.122  29.642  39.733  1.00  0.00    -0.237 OA
ATOM     83  O   UNL A   1      50.145  27.488  38.533  1.00  0.00    -0.744 OA
ENDBRANCH  79  80
ENDBRANCH  60  74
BRANCH  61  84
ATOM     84  C   UNL A   1      38.190  32.367  31.007  1.00  0.00    -0.014 A 
ATOM     85  C   UNL A   1      38.150  33.488  30.159  1.00  0.00     0.010 A 
ATOM     86  C   UNL A   1      37.054  31.544  31.107  1.00  0.00     0.010 A 
ATOM     87  C   UNL A   1      36.992  33.787  29.434  1.00  0.00     0.020 A 
ATOM     88  C   UNL A   1      35.903  31.827  30.366  1.00  0.00     0.020 A 
ATOM     89  C   UNL A   1      35.876  32.953  29.542  1.00  0.00     0.054 A 
BRANCH  89  90
ATOM     90  S   UNL A   1      34.403  33.326  28.549  1.00  0.00     0.124 S 
ATOM     91  O   UNL A   1      33.564  34.039  29.507  1.00  0.00    -0.237 OA
ATOM     92  O   UNL A   1      34.951  34.133  27.461  1.00  0.00    -0.237 OA
ATOM     93  O   UNL A   1      33.920  32.005  28.151  1.00  0.00    -0.744 OA
ENDBRANCH  89  90
ENDBRANCH  61  84
BRANCH  73  94
ATOM     94  C   UNL A   1      40.421  34.031  37.404  1.00  0.00    -0.014 A 
ATOM     95  C   UNL A   1      39.715  33.441  38.468  1.00  0.00     0.010 A 
ATOM     96  C   UNL A   1      40.643  35.420  37.414  1.00  0.00     0.010 A 
ATOM     97  C   UNL A   1      39.229  34.230  39.515  1.00  0.00     0.020 A 
ATOM     98  C   UNL A   1      40.178  36.209  38.470  1.00  0.00     0.020 A 
ATOM     99  C   UNL A   1      39.465  35.609  39.511  1.00  0.00     0.054 A 
BRANCH  99 100
ATOM    100  S   UNL A   1      38.884  36.601  40.913  1.00  0.00     0.124 S 
ATOM    101  O   UNL A   1      37.880  35.725  41.510  1.00  0.00    -0.237 OA
ATOM    102  O   UNL A   1      40.100  36.791  41.701  1.00  0.00    -0.237 OA
ATOM    103  O   UNL A   1      38.360  37.814  40.288  1.00  0.00    -0.744 OA
ENDBRANCH  99 100
ENDBRANCH  73  94
ENDBRANCH  47  48
ENDBRANCH  39  42
ENDBRANCH  37  38
ENDBRANCH  36  37
ENDBRANCH  35  36
ENDBRANCH   1  35
TORSDOF 21
ENDMDL
MODEL 2
REMARK VINA RESULT:      -9.5      5.510      6.944
REMARK SMILES NC(=O)C1CC[NH+](CC[C@H]2CN(C(=O)c3ccccc3)CC[C@H]2CC(=O)NCCCCNC(=O)c2ccc(-c3c4nc(c(-c5ccc(S(=O)(=O)[O-])cc5)c5ccc([nH]5)c(-c5ccc(S(=O)(=O)[O-])cc5)c5nc(c(-c6ccc(S(=O)(=O)[O-])cc6)c6ccc3[nH]6)C=C5)C=C4)cc2)CC1
REMARK SMILES IDX 28 1 27 2 25 3 26 4 24 6 23 7 10 8 11 9 12 10 22 11 21 12
REMARK SMILES IDX 9 13 8 14 7 15 4 16 5 17 96 18 6 19 95 20 2 22 1 23 3 26
REMARK SMILES IDX 13 27 14 28 15 29 16 30 20 31 17 32 19 33 18 34 29 35 30 36
REMARK SMILES IDX 31 37 32 38 33 39 34 41 35 42 36 43 94 44 37 45 93 46 38 47
REMARK SMILES IDX 39 48 40 49 87 50 41 51 92 52 86 53 88 54 42 55 91 56 85 57
REMARK SMILES IDX 84 58 43 60 73 61 54 62 72 63 55 64 58 65 71 66 89 67 56 68
REMARK SMILES IDX 57 69 70 71 90 72 59 73 44 74 45 75 53 76 46 77 52 78 47 79
REMARK SMILES IDX 48 80 49 81 50 82 51 83 74 84 75 85 83 86 76 87 82 88 77 89
REMARK SMILES IDX 78 90 79 91 80 92 81 93 60 94 61 95 69 96 62 97 68 98 63 99
REMARK SMILES IDX 64 100 65 101 66 102 67 103
REMARK H PARENT 27 5 7 21 1 24 1 25 32 40 88 59 58 70
REMARK Flexibility Score: inf
ROOT
ATOM      1  C   UNL A   1      39.413  25.495  27.786  1.00  0.00     0.116 C 
ENDROOT
BRANCH   1   2
ATOM      2  N   UNL A   1      39.542  24.081  27.448  1.00  0.00    -0.356 N 
ATOM      3  C   UNL A   1      38.948  23.287  26.511  1.00  0.00     0.220 C 
ATOM      4  O   UNL A   1      39.394  22.142  26.378  1.00  0.00    -0.275 OA
ATOM      5  H   UNL A   1      40.191  23.602  28.012  1.00  0.00     0.163 HD
BRANCH   3   6
ATOM      6  C   UNL A   1      37.720  23.721  25.719  1.00  0.00     0.104 C 
BRANCH   6   7
ATOM      7  C   UNL A   1      36.666  22.610  25.683  1.00  0.00     0.005 C 
ATOM      8  C   UNL A   1      35.262  23.140  25.334  1.00  0.00     0.018 C 
ATOM      9  C   UNL A   1      34.284  22.019  25.695  1.00  0.00     0.124 C 
ATOM     10  N   UNL A   1      34.545  20.786  24.962  1.00  0.00    -0.338 N 
ATOM     11  C   UNL A   1      36.987  21.408  24.774  1.00  0.00     0.026 C 
ATOM     12  C   UNL A   1      35.931  20.298  24.941  1.00  0.00     0.120 C 
BRANCH   8  13
ATOM     13  C   UNL A   1      35.047  23.687  23.890  1.00  0.00     0.067 C 
BRANCH  13  14
ATOM     14  C   UNL A   1      33.564  23.697  23.422  1.00  0.00     0.262 C 
BRANCH  14  15
ATOM     15  N   UNL A   1      32.968  25.038  23.332  1.00  0.00    -0.335 N 
ATOM     16  C   UNL A   1      32.177  27.777  22.934  1.00  0.00     0.089 C 
ATOM     17  C   UNL A   1      31.682  26.642  22.031  1.00  0.00     0.075 C 
ATOM     18  C   UNL A   1      33.584  27.490  23.471  1.00  0.00     0.075 C 
ATOM     19  C   UNL A   1      32.665  25.468  21.971  1.00  0.00     0.263 C 
ATOM     20  C   UNL A   1      33.727  26.069  24.057  1.00  0.00     0.263 C 
ATOM     21  H   UNL A   1      32.072  24.932  23.805  1.00  0.00     0.348 HD
BRANCH  16  22
ATOM     22  C   UNL A   1      31.238  28.058  24.099  1.00  0.00     0.220 C 
ATOM     23  N   UNL A   1      30.246  27.138  24.269  1.00  0.00    -0.369 N 
ATOM     24  H   UNL A   1      29.595  27.244  24.999  1.00  0.00     0.159 HD
ATOM     25  H   UNL A   1      30.181  26.366  23.660  1.00  0.00     0.159 HD
ATOM     26  O   UNL A   1      31.289  29.040  24.827  1.00  0.00    -0.275 OA
ENDBRANCH  16  22
ENDBRANCH  14  15
ENDBRANCH  13  14
ENDBRANCH   8  13
BRANCH  10  27
ATOM     27  C   UNL A   1      33.420  20.070  24.559  1.00  0.00     0.253 C 
ATOM     28  O   UNL A   1      32.423  20.589  24.057  1.00  0.00    -0.269 OA
BRANCH  27  29
ATOM     29  C   UNL A   1      33.389  18.606  24.684  1.00  0.00     0.040 A 
ATOM     30  C   UNL A   1      33.840  17.858  23.592  1.00  0.00     0.014 A 
ATOM     31  C   UNL A   1      32.787  17.981  25.780  1.00  0.00     0.014 A 
ATOM     32  C   UNL A   1      33.717  16.472  23.607  1.00  0.00     0.001 A 
ATOM     33  C   UNL A   1      32.667  16.591  25.789  1.00  0.00     0.001 A 
ATOM     34  C   UNL A   1      33.133  15.839  24.704  1.00  0.00     0.000 A 
ENDBRANCH  27  29
ENDBRANCH  10  27
ENDBRANCH   6   7
ENDBRANCH   3   6
ENDBRANCH   1   2
BRANCH   1  35
ATOM     35  C   UNL A   1      40.596  26.342  27.273  1.00  0.00     0.023 C 
BRANCH  35  36
ATOM     36  C   UNL A   1      41.814  26.420  28.211  1.00  0.00     0.023 C 
BRANCH  36  37
ATOM     37  C   UNL A   1      42.990  25.501  27.893  1.00  0.00     0.116 C 
BRANCH  37  38
ATOM     38  N   UNL A   1      43.689  25.788  26.650  1.00  0.00    -0.352 N 
ATOM     39  C   UNL A   1      44.278  26.975  26.254  1.00  0.00     0.251 C 
ATOM     40  H   UNL A   1      43.749  25.042  26.008  1.00  0.00     0.163 HD
ATOM     41  O   UNL A   1      44.863  27.061  25.184  1.00  0.00    -0.269 OA
BRANCH  39  42
ATOM     42  C   UNL A   1      44.143  28.171  27.119  1.00  0.00     0.039 A 
ATOM     43  C   UNL A   1      44.967  28.272  28.242  1.00  0.00     0.014 A 
ATOM     44  C   UNL A   1      43.277  29.216  26.782  1.00  0.00     0.014 A 
ATOM     45  C   UNL A   1      45.000  29.465  28.970  1.00  0.00     0.010 A 
ATOM     46  C   UNL A   1      43.350  30.424  27.481  1.00  0.00     0.010 A 
ATOM     47  C   UNL A   1      44.232  30.569  28.564  1.00  0.00    -0.014 A 
BRANCH  47  48
ATOM     48  C   UNL A   1      44.401  31.890  29.228  1.00  0.00     0.031 A 
ATOM     49  C   UNL A   1      45.491  32.833  28.803  1.00  0.00     0.074 A 
ATOM     50  C   UNL A   1      43.589  32.228  30.251  1.00  0.00     0.049 A 
ATOM     51  N   UNL A   1      45.781  34.021  29.274  1.00  0.00    -0.248 NA
ATOM     52  C   UNL A   1      46.379  32.379  27.722  1.00  0.00     0.031 C 
ATOM     53  C   UNL A   1      42.512  31.392  30.789  1.00  0.00     0.029 A 
ATOM     54  N   UNL A   1      43.540  33.364  31.023  1.00  0.00    -0.354 N 
ATOM     55  C   UNL A   1      46.886  34.455  28.552  1.00  0.00     0.074 A 
ATOM     56  C   UNL A   1      47.240  33.385  27.643  1.00  0.00     0.031 C 
ATOM     57  C   UNL A   1      41.893  32.054  31.780  1.00  0.00     0.029 A 
ATOM     58  C   UNL A   1      42.546  33.346  31.973  1.00  0.00     0.049 A 
ATOM     59  H   UNL A   1      44.159  34.120  30.907  1.00  0.00     0.167 HD
ATOM     60  C   UNL A   1      47.536  35.642  28.623  1.00  0.00     0.031 A 
ATOM     61  C   UNL A   1      42.193  34.263  32.897  1.00  0.00     0.031 A 
ATOM     62  C   UNL A   1      47.187  36.708  29.525  1.00  0.00     0.049 A 
ATOM     63  C   UNL A   1      42.942  35.564  32.972  1.00  0.00     0.074 A 
ATOM     64  C   UNL A   1      47.763  37.963  29.637  1.00  0.00     0.029 A 
ATOM     65  N   UNL A   1      46.177  36.647  30.473  1.00  0.00    -0.354 N 
ATOM     66  N   UNL A   1      43.943  35.981  32.233  1.00  0.00    -0.248 NA
ATOM     67  C   UNL A   1      42.506  36.526  33.996  1.00  0.00     0.031 C 
ATOM     68  C   UNL A   1      47.130  38.644  30.683  1.00  0.00     0.029 A 
ATOM     69  C   UNL A   1      46.127  37.833  31.188  1.00  0.00     0.049 A 
ATOM     70  H   UNL A   1      45.582  35.876  30.616  1.00  0.00     0.167 HD
ATOM     71  C   UNL A   1      44.239  37.261  32.687  1.00  0.00     0.074 A 
ATOM     72  C   UNL A   1      43.308  37.555  33.757  1.00  0.00     0.031 C 
ATOM     73  C   UNL A   1      45.196  38.117  32.250  1.00  0.00     0.031 A 
BRANCH  60  74
ATOM     74  C   UNL A   1      48.705  35.844  27.698  1.00  0.00    -0.014 A 
ATOM     75  C   UNL A   1      48.519  36.339  26.395  1.00  0.00     0.010 A 
ATOM     76  C   UNL A   1      50.009  35.561  28.145  1.00  0.00     0.010 A 
ATOM     77  C   UNL A   1      49.610  36.500  25.537  1.00  0.00     0.020 A 
ATOM     78  C   UNL A   1      51.105  35.745  27.298  1.00  0.00     0.020 A 
ATOM     79  C   UNL A   1      50.896  36.192  25.992  1.00  0.00     0.054 A 
BRANCH  79  80
ATOM     80  S   UNL A   1      52.295  36.408  24.858  1.00  0.00     0.124 S 
ATOM     81  O   UNL A   1      51.728  35.950  23.592  1.00  0.00    -0.237 OA
ATOM     82  O   UNL A   1      52.563  37.842  24.944  1.00  0.00    -0.237 OA
ATOM     83  O   UNL A   1      53.333  35.549  25.422  1.00  0.00    -0.744 OA
ENDBRANCH  79  80
ENDBRANCH  60  74
BRANCH  61  84
ATOM     84  C   UNL A   1      41.058  33.987  33.818  1.00  0.00    -0.014 A 
ATOM     85  C   UNL A   1      41.259  33.240  34.992  1.00  0.00     0.010 A 
ATOM     86  C   UNL A   1      39.772  34.482  33.534  1.00  0.00     0.010 A 
ATOM     87  C   UNL A   1      40.192  32.982  35.860  1.00  0.00     0.020 A 
ATOM     88  C   UNL A   1      38.709  34.247  34.411  1.00  0.00     0.020 A 
ATOM     89  C   UNL A   1      38.924  33.489  35.563  1.00  0.00     0.054 A 
BRANCH  89  90
ATOM     90  S   UNL A   1      37.567  33.192  36.731  1.00  0.00     0.124 S 
ATOM     91  O   UNL A   1      37.670  31.755  36.958  1.00  0.00    -0.237 OA
ATOM     92  O   UNL A   1      37.932  34.042  37.863  1.00  0.00    -0.237 OA
ATOM     93  O   UNL A   1      36.383  33.629  35.992  1.00  0.00    -0.744 OA
ENDBRANCH  89  90
ENDBRANCH  61  84
BRANCH  73  94
ATOM     94  C   UNL A   1      45.273  39.470  32.904  1.00  0.00    -0.014 A 
ATOM     95  C   UNL A   1      44.512  40.553  32.428  1.00  0.00     0.010 A 
ATOM     96  C   UNL A   1      46.062  39.640  34.056  1.00  0.00     0.010 A 
ATOM     97  C   UNL A   1      44.552  41.786  33.085  1.00  0.00     0.020 A 
ATOM     98  C   UNL A   1      46.087  40.864  34.729  1.00  0.00     0.020 A 
ATOM     99  C   UNL A   1      45.337  41.934  34.233  1.00  0.00     0.054 A 
BRANCH  99 100
ATOM    100  S   UNL A   1      45.320  43.523  35.107  1.00  0.00     0.124 S 
ATOM    101  O   UNL A   1      46.607  44.095  34.724  1.00  0.00    -0.237 OA
ATOM    102  O   UNL A   1      44.145  44.187  34.547  1.00  0.00    -0.237 OA
ATOM    103  O   UNL A   1      45.200  43.144  36.514  1.00  0.00    -0.744 OA
ENDBRANCH  99 100
ENDBRANCH  73  94
ENDBRANCH  47  48
ENDBRANCH  39  42
ENDBRANCH  37  38
ENDBRANCH  36  37
ENDBRANCH  35  36
ENDBRANCH   1  35
TORSDOF 21
ENDMDL
MODEL 3
REMARK VINA RESULT:      -9.5      5.939      8.420
REMARK SMILES NC(=O)C1CC[NH+](CC[C@H]2CN(C(=O)c3ccccc3)CC[C@H]2CC(=O)NCCCCNC(=O)c2ccc(-c3c4nc(c(-c5ccc(S(=O)(=O)[O-])cc5)c5ccc([nH]5)c(-c5ccc(S(=O)(=O)[O-])cc5)c5nc(c(-c6ccc(S(=O)(=O)[O-])cc6)c6ccc3[nH]6)C=C5)C=C4)cc2)CC1
REMARK SMILES IDX 28 1 27 2 25 3 26 4 24 6 23 7 10 8 11 9 12 10 22 11 21 12
REMARK SMILES IDX 9 13 8 14 7 15 4 16 5 17 96 18 6 19 95 20 2 22 1 23 3 26
REMARK SMILES IDX 13 27 14 28 15 29 16 30 20 31 17 32 19 33 18 34 29 35 30 36
REMARK SMILES IDX 31 37 32 38 33 39 34 41 35 42 36 43 94 44 37 45 93 46 38 47
REMARK SMILES IDX 39 48 40 49 87 50 41 51 92 52 86 53 88 54 42 55 91 56 85 57
REMARK SMILES IDX 84 58 43 60 73 61 54 62 72 63 55 64 58 65 71 66 89 67 56 68
REMARK SMILES IDX 57 69 70 71 90 72 59 73 44 74 45 75 53 76 46 77 52 78 47 79
REMARK SMILES IDX 48 80 49 81 50 82 51 83 74 84 75 85 83 86 76 87 82 88 77 89
REMARK SMILES IDX 78 90 79 91 80 92 81 93 60 94 61 95 69 96 62 97 68 98 63 99
REMARK SMILES IDX 64 100 65 101 66 102 67 103
REMARK H PARENT 27 5 7 21 1 24 1 25 32 40 88 59 58 70
REMARK Flexibility Score: inf
ROOT
ATOM      1  C   UNL A   1      39.336  25.397  27.784  1.00  0.00     0.116 C 
ENDROOT
BRANCH   1   2
ATOM      2  N   UNL A   1      39.443  23.975  27.477  1.00  0.00    -0.356 N 
ATOM      3  C   UNL A   1      38.828  23.168  26.565  1.00  0.00     0.220 C 
ATOM      4  O   UNL A   1      39.258  22.014  26.452  1.00  0.00    -0.275 OA
ATOM      5  H   UNL A   1      40.092  23.500  28.044  1.00  0.00     0.163 HD
BRANCH   3   6
ATOM      6  C   UNL A   1      37.597  23.600  25.777  1.00  0.00     0.104 C 
BRANCH   6   7
ATOM      7  C   UNL A   1      36.497  22.535  25.843  1.00  0.00     0.005 C 
ATOM      8  C   UNL A   1      35.083  23.147  25.860  1.00  0.00     0.018 C 
ATOM      9  C   UNL A   1      34.140  22.022  26.294  1.00  0.00     0.124 C 
ATOM     10  N   UNL A   1      34.174  20.878  25.393  1.00  0.00    -0.338 N 
ATOM     11  C   UNL A   1      36.556  21.441  24.761  1.00  0.00     0.026 C 
ATOM     12  C   UNL A   1      35.496  20.352  25.024  1.00  0.00     0.120 C 
BRANCH   8  13
ATOM     13  C   UNL A   1      34.605  23.869  24.564  1.00  0.00     0.067 C 
BRANCH  13  14
ATOM     14  C   UNL A   1      34.278  25.378  24.754  1.00  0.00     0.262 C 
BRANCH  14  15
ATOM     15  N   UNL A   1      32.846  25.669  24.910  1.00  0.00    -0.335 N 
ATOM     16  C   UNL A   1      30.039  25.899  25.508  1.00  0.00     0.089 C 
ATOM     17  C   UNL A   1      31.094  26.794  26.169  1.00  0.00     0.075 C 
ATOM     18  C   UNL A   1      30.609  24.515  25.180  1.00  0.00     0.075 C 
ATOM     19  C   UNL A   1      32.469  26.123  26.244  1.00  0.00     0.263 C 
ATOM     20  C   UNL A   1      31.969  24.579  24.454  1.00  0.00     0.263 C 
ATOM     21  H   UNL A   1      32.695  26.461  24.286  1.00  0.00     0.348 HD
BRANCH  16  22
ATOM     22  C   UNL A   1      29.447  26.515  24.248  1.00  0.00     0.220 C 
ATOM     23  N   UNL A   1      28.176  26.113  23.956  1.00  0.00    -0.369 N 
ATOM     24  H   UNL A   1      27.719  26.463  23.159  1.00  0.00     0.159 HD
ATOM     25  H   UNL A   1      27.716  25.470  24.545  1.00  0.00     0.159 HD
ATOM     26  O   UNL A   1      30.033  27.277  23.491  1.00  0.00    -0.275 OA
ENDBRANCH  16  22
ENDBRANCH  14  15
ENDBRANCH  13  14
ENDBRANCH   8  13
BRANCH  10  27
ATOM     27  C   UNL A   1      32.952  20.251  25.161  1.00  0.00     0.253 C 
ATOM     28  O   UNL A   1      31.871  20.840  25.165  1.00  0.00    -0.269 OA
BRANCH  27  29
ATOM     29  C   UNL A   1      32.902  18.815  24.852  1.00  0.00     0.040 A 
ATOM     30  C   UNL A   1      32.758  17.932  25.926  1.00  0.00     0.014 A 
ATOM     31  C   UNL A   1      33.148  18.339  23.562  1.00  0.00     0.014 A 
ATOM     32  C   UNL A   1      32.829  16.559  25.705  1.00  0.00     0.001 A 
ATOM     33  C   UNL A   1      33.219  16.962  23.347  1.00  0.00     0.001 A 
ATOM     34  C   UNL A   1      33.057  16.075  24.417  1.00  0.00     0.000 A 
ENDBRANCH  27  29
ENDBRANCH  10  27
ENDBRANCH   6   7
ENDBRANCH   3   6
ENDBRANCH   1   2
BRANCH   1  35
ATOM     35  C   UNL A   1      40.409  26.245  27.071  1.00  0.00     0.023 C 
BRANCH  35  36
ATOM     36  C   UNL A   1      41.626  26.635  27.927  1.00  0.00     0.023 C 
BRANCH  36  37
ATOM     37  C   UNL A   1      42.852  25.731  27.836  1.00  0.00     0.116 C 
BRANCH  37  38
ATOM     38  N   UNL A   1      43.676  25.911  26.651  1.00  0.00    -0.352 N 
ATOM     39  C   UNL A   1      44.405  27.027  26.278  1.00  0.00     0.251 C 
ATOM     40  H   UNL A   1      43.720  25.143  26.036  1.00  0.00     0.163 HD
ATOM     41  O   UNL A   1      45.082  27.023  25.260  1.00  0.00    -0.269 OA
BRANCH  39  42
ATOM     42  C   UNL A   1      44.309  28.258  27.097  1.00  0.00     0.039 A 
ATOM     43  C   UNL A   1      45.121  28.364  28.229  1.00  0.00     0.014 A 
ATOM     44  C   UNL A   1      43.495  29.326  26.710  1.00  0.00     0.014 A 
ATOM     45  C   UNL A   1      45.196  29.580  28.914  1.00  0.00     0.010 A 
ATOM     46  C   UNL A   1      43.610  30.554  27.367  1.00  0.00     0.010 A 
ATOM     47  C   UNL A   1      44.483  30.701  28.457  1.00  0.00    -0.014 A 
BRANCH  47  48
ATOM     48  C   UNL A   1      44.700  32.037  29.076  1.00  0.00     0.031 A 
ATOM     49  C   UNL A   1      43.785  32.545  30.154  1.00  0.00     0.074 A 
ATOM     50  C   UNL A   1      45.707  32.818  28.633  1.00  0.00     0.049 A 
ATOM     51  N   UNL A   1      43.828  33.684  30.800  1.00  0.00    -0.248 NA
ATOM     52  C   UNL A   1      42.671  31.670  30.548  1.00  0.00     0.031 C 
ATOM     53  C   UNL A   1      46.649  32.463  27.568  1.00  0.00     0.029 A 
ATOM     54  N   UNL A   1      46.111  34.072  29.024  1.00  0.00    -0.354 N 
ATOM     55  C   UNL A   1      42.747  33.666  31.672  1.00  0.00     0.074 A 
ATOM     56  C   UNL A   1      42.043  32.423  31.442  1.00  0.00     0.031 C 
ATOM     57  C   UNL A   1      47.535  33.460  27.411  1.00  0.00     0.029 A 
ATOM     58  C   UNL A   1      47.208  34.540  28.339  1.00  0.00     0.049 A 
ATOM     59  H   UNL A   1      45.658  34.587  29.729  1.00  0.00     0.167 HD
ATOM     60  C   UNL A   1      42.384  34.589  32.595  1.00  0.00     0.031 A 
ATOM     61  C   UNL A   1      47.881  35.704  28.442  1.00  0.00     0.031 A 
ATOM     62  C   UNL A   1      43.081  35.827  32.828  1.00  0.00     0.049 A 
ATOM     63  C   UNL A   1      47.447  36.722  29.458  1.00  0.00     0.074 A 
ATOM     64  C   UNL A   1      42.809  36.803  33.771  1.00  0.00     0.029 A 
ATOM     65  N   UNL A   1      44.183  36.263  32.109  1.00  0.00    -0.354 N 
ATOM     66  N   UNL A   1      46.460  36.656  30.320  1.00  0.00    -0.248 NA
ATOM     67  C   UNL A   1      48.224  37.970  29.526  1.00  0.00     0.031 C 
ATOM     68  C   UNL A   1      43.721  37.850  33.595  1.00  0.00     0.029 A 
ATOM     69  C   UNL A   1      44.591  37.503  32.574  1.00  0.00     0.049 A 
ATOM     70  H   UNL A   1      44.615  35.765  31.377  1.00  0.00     0.167 HD
ATOM     71  C   UNL A   1      46.514  37.838  31.049  1.00  0.00     0.074 A 
ATOM     72  C   UNL A   1      47.634  38.599  30.534  1.00  0.00     0.031 C 
ATOM     73  C   UNL A   1      45.707  38.252  32.057  1.00  0.00     0.031 A 
BRANCH  60  74
ATOM     74  C   UNL A   1      41.161  34.294  33.420  1.00  0.00    -0.014 A 
ATOM     75  C   UNL A   1      39.870  34.481  32.892  1.00  0.00     0.010 A 
ATOM     76  C   UNL A   1      41.301  33.798  34.729  1.00  0.00     0.010 A 
ATOM     77  C   UNL A   1      38.742  34.225  33.676  1.00  0.00     0.020 A 
ATOM     78  C   UNL A   1      40.174  33.517  35.506  1.00  0.00     0.020 A 
ATOM     79  C   UNL A   1      38.902  33.754  34.982  1.00  0.00     0.054 A 
BRANCH  79  80
ATOM     80  S   UNL A   1      37.422  33.432  35.979  1.00  0.00     0.124 S 
ATOM     81  O   UNL A   1      37.806  33.989  37.274  1.00  0.00    -0.237 OA
ATOM     82  O   UNL A   1      36.382  34.168  35.263  1.00  0.00    -0.237 OA
ATOM     83  O   UNL A   1      37.289  31.978  35.943  1.00  0.00    -0.744 OA
ENDBRANCH  79  80
ENDBRANCH  60  74
BRANCH  61  84
ATOM     84  C   UNL A   1      49.055  35.961  27.564  1.00  0.00    -0.014 A 
ATOM     85  C   UNL A   1      48.881  36.539  26.294  1.00  0.00     0.010 A 
ATOM     86  C   UNL A   1      50.354  35.643  27.999  1.00  0.00     0.010 A 
ATOM     87  C   UNL A   1      49.985  36.783  25.470  1.00  0.00     0.020 A 
ATOM     88  C   UNL A   1      51.461  35.907  27.188  1.00  0.00     0.020 A 
ATOM     89  C   UNL A   1      51.268  36.466  25.924  1.00  0.00     0.054 A 
BRANCH  89  90
ATOM     90  S   UNL A   1      52.691  36.844  24.862  1.00  0.00     0.124 S 
ATOM     91  O   UNL A   1      52.892  38.266  25.119  1.00  0.00    -0.237 OA
ATOM     92  O   UNL A   1      53.722  35.952  25.386  1.00  0.00    -0.237 OA
ATOM     93  O   UNL A   1      52.212  36.509  23.522  1.00  0.00    -0.744 OA
ENDBRANCH  89  90
ENDBRANCH  61  84
BRANCH  73  94
ATOM     94  C   UNL A   1      46.018  39.577  32.700  1.00  0.00    -0.014 A 
ATOM     95  C   UNL A   1      46.991  39.685  33.710  1.00  0.00     0.010 A 
ATOM     96  C   UNL A   1      45.381  40.741  32.233  1.00  0.00     0.010 A 
ATOM     97  C   UNL A   1      47.307  40.934  34.252  1.00  0.00     0.020 A 
ATOM     98  C   UNL A   1      45.711  41.993  32.757  1.00  0.00     0.020 A 
ATOM     99  C   UNL A   1      46.668  42.081  33.772  1.00  0.00     0.054 A 
BRANCH  99 100
ATOM    100  S   UNL A   1      47.145  43.697  34.443  1.00  0.00     0.124 S 
ATOM    101  O   UNL A   1      46.193  44.591  33.790  1.00  0.00    -0.237 OA
ATOM    102  O   UNL A   1      46.953  43.519  35.881  1.00  0.00    -0.237 OA
ATOM    103  O   UNL A   1      48.536  43.851  34.022  1.00  0.00    -0.744 OA
ENDBRANCH  99 100
ENDBRANCH  73  94
ENDBRANCH  47  48
ENDBRANCH  39  42
ENDBRANCH  37  38
ENDBRANCH  36  37
ENDBRANCH  35  36
ENDBRANCH   1  35
TORSDOF 21
ENDMDL
