MODEL 1
REMARK VINA RESULT:     -10.0      0.000      0.000
REMARK SMILES C[C@H](NC(=O)C(=O)c1ccccc1)C(=O)NCCCCNC(=O)c1ccc(-c2c3nc(c(-c4ccc(S(=O)(=O)[O-])cc4)c4ccc([nH]4)c(-c4ccc(S(=O)(=O)[O-])cc4)c4nc(c(-c5ccc(S(=O)(=O)[O-])cc5)c5ccc2[nH]5)C=C4)C=C3)cc1
REMARK SMILES IDX 18 1 17 2 16 3 14 4 15 5 2 7 1 8 3 9 4 10 5 12 6 13 7 14
REMARK SMILES IDX 8 15 9 16 13 17 10 18 12 19 11 20 19 21 20 22 21 23 22 24
REMARK SMILES IDX 23 26 24 27 25 28 83 29 26 30 82 31 27 32 28 33 29 34 76 35
REMARK SMILES IDX 30 36 81 37 75 38 77 39 31 40 80 41 74 42 73 43 32 45 62 46
REMARK SMILES IDX 43 47 61 48 44 49 47 50 60 51 78 52 45 53 46 54 59 56 79 57
REMARK SMILES IDX 48 58 33 59 34 60 42 61 35 62 41 63 36 64 37 65 38 66 39 67
REMARK SMILES IDX 40 68 63 69 64 70 72 71 65 72 71 73 66 74 67 75 68 76 69 77
REMARK SMILES IDX 70 78 49 79 50 80 58 81 51 82 57 83 52 84 53 85 54 86 55 87
REMARK SMILES IDX 56 88
REMARK H PARENT 16 6 3 11 21 25 77 44 47 55
REMARK Flexibility Score: inf
ROOT
ATOM      1  C   UNL A   1      34.353  35.248  28.259  1.00  0.00     0.023 C 
ENDROOT
BRANCH   1   2
ATOM      2  C   UNL A   1      33.295  35.310  29.358  1.00  0.00     0.116 C 
BRANCH   2   3
ATOM      3  N   UNL A   1      33.423  36.534  30.120  1.00  0.00    -0.354 N 
ATOM      4  C   UNL A   1      33.166  36.817  31.418  1.00  0.00     0.242 C 
ATOM      5  O   UNL A   1      33.351  37.982  31.780  1.00  0.00    -0.273 OA
ATOM      6  H   UNL A   1      33.758  37.299  29.599  1.00  0.00     0.163 HD
BRANCH   4   7
ATOM      7  C   UNL A   1      32.756  35.738  32.429  1.00  0.00     0.168 C 
ATOM      8  C   UNL A   1      31.310  35.938  32.887  1.00  0.00     0.041 C 
BRANCH   7   9
ATOM      9  N   UNL A   1      33.652  35.572  33.578  1.00  0.00    -0.338 N 
ATOM     10  C   UNL A   1      34.633  34.604  33.710  1.00  0.00     0.293 C 
ATOM     11  H   UNL A   1      33.545  36.207  34.323  1.00  0.00     0.164 HD
ATOM     12  O   UNL A   1      35.274  34.501  34.750  1.00  0.00    -0.265 OA
BRANCH  10  13
ATOM     13  C   UNL A   1      34.930  33.661  32.528  1.00  0.00     0.250 C 
ATOM     14  O   UNL A   1      34.116  32.837  32.124  1.00  0.00    -0.283 OA
BRANCH  13  15
ATOM     15  C   UNL A   1      36.206  33.707  31.800  1.00  0.00     0.028 A 
ATOM     16  C   UNL A   1      37.224  34.488  32.364  1.00  0.00     0.012 A 
ATOM     17  C   UNL A   1      36.336  33.196  30.509  1.00  0.00     0.012 A 
ATOM     18  C   UNL A   1      38.369  34.781  31.630  1.00  0.00     0.001 A 
ATOM     19  C   UNL A   1      37.483  33.502  29.773  1.00  0.00     0.001 A 
ATOM     20  C   UNL A   1      38.490  34.299  30.329  1.00  0.00     0.000 A 
ENDBRANCH  13  15
ENDBRANCH  10  13
ENDBRANCH   7   9
ENDBRANCH   4   7
ENDBRANCH   2   3
ENDBRANCH   1   2
BRANCH   1  21
ATOM     21  C   UNL A   1      34.535  33.864  27.626  1.00  0.00     0.023 C 
BRANCH  21  22
ATOM     22  C   UNL A   1      33.930  32.707  28.413  1.00  0.00     0.116 C 
BRANCH  22  23
ATOM     23  N   UNL A   1      33.611  31.569  27.567  1.00  0.00    -0.352 N 
ATOM     24  C   UNL A   1      34.367  30.449  27.309  1.00  0.00     0.251 C 
ATOM     25  H   UNL A   1      32.736  31.606  27.117  1.00  0.00     0.163 HD
ATOM     26  O   UNL A   1      34.028  29.666  26.436  1.00  0.00    -0.269 OA
BRANCH  24  27
ATOM     27  C   UNL A   1      35.610  30.227  28.080  1.00  0.00     0.039 A 
ATOM     28  C   UNL A   1      35.527  29.631  29.338  1.00  0.00     0.014 A 
ATOM     29  C   UNL A   1      36.852  30.577  27.542  1.00  0.00     0.014 A 
ATOM     30  C   UNL A   1      36.699  29.327  30.034  1.00  0.00     0.010 A 
ATOM     31  C   UNL A   1      38.019  30.202  28.202  1.00  0.00     0.010 A 
ATOM     32  C   UNL A   1      37.954  29.576  29.456  1.00  0.00    -0.014 A 
BRANCH  32  33
ATOM     33  C   UNL A   1      39.211  29.187  30.147  1.00  0.00     0.031 A 
ATOM     34  C   UNL A   1      39.652  29.920  31.384  1.00  0.00     0.074 A 
ATOM     35  C   UNL A   1      39.982  28.209  29.629  1.00  0.00     0.049 A 
ATOM     36  N   UNL A   1      40.738  29.757  32.095  1.00  0.00    -0.248 NA
ATOM     37  C   UNL A   1      38.770  30.994  31.873  1.00  0.00     0.031 C 
ATOM     38  C   UNL A   1      39.687  27.451  28.410  1.00  0.00     0.029 A 
ATOM     39  N   UNL A   1      41.178  27.690  30.057  1.00  0.00    -0.354 N 
ATOM     40  C   UNL A   1      40.676  30.712  33.104  1.00  0.00     0.074 A 
ATOM     41  C   UNL A   1      39.476  31.486  32.881  1.00  0.00     0.031 C 
ATOM     42  C   UNL A   1      40.659  26.549  28.206  1.00  0.00     0.029 A 
ATOM     43  C   UNL A   1      41.669  26.690  29.250  1.00  0.00     0.049 A 
ATOM     44  H   UNL A   1      41.642  28.003  30.867  1.00  0.00     0.167 HD
ATOM     45  C   UNL A   1      41.527  30.910  34.139  1.00  0.00     0.031 A 
ATOM     46  C   UNL A   1      42.808  25.974  29.333  1.00  0.00     0.031 A 
ATOM     47  C   UNL A   1      42.720  30.136  34.360  1.00  0.00     0.049 A 
ATOM     48  C   UNL A   1      43.749  26.226  30.480  1.00  0.00     0.074 A 
ATOM     49  C   UNL A   1      43.624  30.229  35.404  1.00  0.00     0.029 A 
ATOM     50  N   UNL A   1      43.176  29.128  33.524  1.00  0.00    -0.354 N 
ATOM     51  N   UNL A   1      43.637  27.089  31.462  1.00  0.00    -0.248 NA
ATOM     52  C   UNL A   1      44.962  25.399  30.538  1.00  0.00     0.031 C 
ATOM     53  C   UNL A   1      44.658  29.316  35.168  1.00  0.00     0.029 A 
ATOM     54  C   UNL A   1      44.362  28.608  34.014  1.00  0.00     0.049 A 
ATOM     55  H   UNL A   1      42.724  28.827  32.702  1.00  0.00     0.167 HD
ATOM     56  C   UNL A   1      44.752  26.889  32.269  1.00  0.00     0.074 A 
ATOM     57  C   UNL A   1      45.515  25.812  31.669  1.00  0.00     0.031 C 
ATOM     58  C   UNL A   1      45.111  27.537  33.405  1.00  0.00     0.031 A 
BRANCH  45  59
ATOM     59  C   UNL A   1      41.198  32.015  35.110  1.00  0.00    -0.014 A 
ATOM     60  C   UNL A   1      40.486  31.752  36.295  1.00  0.00     0.010 A 
ATOM     61  C   UNL A   1      41.638  33.327  34.855  1.00  0.00     0.010 A 
ATOM     62  C   UNL A   1      40.182  32.786  37.184  1.00  0.00     0.020 A 
ATOM     63  C   UNL A   1      41.365  34.358  35.758  1.00  0.00     0.020 A 
ATOM     64  C   UNL A   1      40.623  34.084  36.909  1.00  0.00     0.054 A 
BRANCH  64  65
ATOM     65  S   UNL A   1      40.233  35.400  38.093  1.00  0.00     0.124 S 
ATOM     66  O   UNL A   1      40.182  36.577  37.230  1.00  0.00    -0.237 OA
ATOM     67  O   UNL A   1      38.949  34.968  38.641  1.00  0.00    -0.237 OA
ATOM     68  O   UNL A   1      41.351  35.366  39.032  1.00  0.00    -0.744 OA
ENDBRANCH  64  65
ENDBRANCH  45  59
BRANCH  46  69
ATOM     69  C   UNL A   1      43.116  24.945  28.301  1.00  0.00    -0.014 A 
ATOM     70  C   UNL A   1      43.813  25.288  27.130  1.00  0.00     0.010 A 
ATOM     71  C   UNL A   1      42.721  23.607  28.492  1.00  0.00     0.010 A 
ATOM     72  C   UNL A   1      44.092  24.321  26.160  1.00  0.00     0.020 A 
ATOM     73  C   UNL A   1      43.026  22.631  27.540  1.00  0.00     0.020 A 
ATOM     74  C   UNL A   1      43.699  22.996  26.373  1.00  0.00     0.054 A 
BRANCH  74  75
ATOM     75  S   UNL A   1      44.116  21.749  25.124  1.00  0.00     0.124 S 
ATOM     76  O   UNL A   1      43.921  22.487  23.880  1.00  0.00    -0.237 OA
ATOM     77  O   UNL A   1      45.499  21.420  25.458  1.00  0.00    -0.237 OA
ATOM     78  O   UNL A   1      43.152  20.679  25.375  1.00  0.00    -0.744 OA
ENDBRANCH  74  75
ENDBRANCH  46  69
BRANCH  58  79
ATOM     79  C   UNL A   1      46.367  27.078  34.100  1.00  0.00    -0.014 A 
ATOM     80  C   UNL A   1      47.614  27.662  33.821  1.00  0.00     0.010 A 
ATOM     81  C   UNL A   1      46.283  26.082  35.091  1.00  0.00     0.010 A 
ATOM     82  C   UNL A   1      48.761  27.236  34.498  1.00  0.00     0.020 A 
ATOM     83  C   UNL A   1      47.421  25.677  35.792  1.00  0.00     0.020 A 
ATOM     84  C   UNL A   1      48.657  26.247  35.480  1.00  0.00     0.054 A 
BRANCH  84  85
ATOM     85  S   UNL A   1      50.152  25.746  36.376  1.00  0.00     0.124 S 
ATOM     86  O   UNL A   1      51.210  26.259  35.510  1.00  0.00    -0.237 OA
ATOM     87  O   UNL A   1      50.001  26.430  37.658  1.00  0.00    -0.237 OA
ATOM     88  O   UNL A   1      50.049  24.289  36.437  1.00  0.00    -0.744 OA
ENDBRANCH  84  85
ENDBRANCH  58  79
ENDBRANCH  32  33
ENDBRANCH  24  27
ENDBRANCH  22  23
ENDBRANCH  21  22
ENDBRANCH   1  21
TORSDOF 17
ENDMDL
MODEL 2
REMARK VINA RESULT:      -9.9      4.033      6.834
REMARK SMILES C[C@H](NC(=O)C(=O)c1ccccc1)C(=O)NCCCCNC(=O)c1ccc(-c2c3nc(c(-c4ccc(S(=O)(=O)[O-])cc4)c4ccc([nH]4)c(-c4ccc(S(=O)(=O)[O-])cc4)c4nc(c(-c5ccc(S(=O)(=O)[O-])cc5)c5ccc2[nH]5)C=C4)C=C3)cc1
REMARK SMILES IDX 18 1 17 2 16 3 14 4 15 5 2 7 1 8 3 9 4 10 5 12 6 13 7 14
REMARK SMILES IDX 8 15 9 16 13 17 10 18 12 19 11 20 19 21 20 22 21 23 22 24
REMARK SMILES IDX 23 26 24 27 25 28 83 29 26 30 82 31 27 32 28 33 29 34 76 35
REMARK SMILES IDX 30 36 81 37 75 38 77 39 31 40 80 41 74 42 73 43 32 45 62 46
REMARK SMILES IDX 43 47 61 48 44 49 47 50 60 51 78 52 45 53 46 54 59 56 79 57
REMARK SMILES IDX 48 58 33 59 34 60 42 61 35 62 41 63 36 64 37 65 38 66 39 67
REMARK SMILES IDX 40 68 63 69 64 70 72 71 65 72 71 73 66 74 67 75 68 76 69 77
REMARK SMILES IDX 70 78 49 79 50 80 58 81 51 82 57 83 52 84 53 85 54 86 55 87
REMARK SMILES IDX 56 88
REMARK H PARENT 16 6 3 11 21 25 77 44 47 55
REMARK Flexibility Score: inf
ROOT
ATOM      1  C   UNL A   1      31.374  27.805  26.605  1.00  0.00     0.023 C 
ENDROOT
BRANCH   1   2
ATOM      2  C   UNL A   1      31.030  27.037  25.332  1.00  0.00     0.116 C 
BRANCH   2   3
ATOM      3  N   UNL A   1      30.717  27.951  24.254  1.00  0.00    -0.354 N 
ATOM      4  C   UNL A   1      31.438  28.363  23.186  1.00  0.00     0.242 C 
ATOM      5  O   UNL A   1      30.903  29.187  22.438  1.00  0.00    -0.273 OA
ATOM      6  H   UNL A   1      29.816  28.345  24.309  1.00  0.00     0.163 HD
BRANCH   4   7
ATOM      7  C   UNL A   1      32.816  27.777  22.848  1.00  0.00     0.168 C 
ATOM      8  C   UNL A   1      33.905  28.847  22.951  1.00  0.00     0.041 C 
BRANCH   7   9
ATOM      9  N   UNL A   1      32.904  27.059  21.574  1.00  0.00    -0.338 N 
ATOM     10  C   UNL A   1      32.884  25.684  21.412  1.00  0.00     0.293 C 
ATOM     11  H   UNL A   1      32.985  27.604  20.758  1.00  0.00     0.164 HD
ATOM     12  O   UNL A   1      33.047  25.181  20.306  1.00  0.00    -0.265 OA
BRANCH  10  13
ATOM     13  C   UNL A   1      32.634  24.782  22.637  1.00  0.00     0.250 C 
ATOM     14  O   UNL A   1      31.507  24.449  22.989  1.00  0.00    -0.283 OA
BRANCH  13  15
ATOM     15  C   UNL A   1      33.738  24.250  23.447  1.00  0.00     0.028 A 
ATOM     16  C   UNL A   1      33.968  24.873  24.682  1.00  0.00     0.012 A 
ATOM     17  C   UNL A   1      34.654  23.333  22.933  1.00  0.00     0.012 A 
ATOM     18  C   UNL A   1      35.129  24.598  25.398  1.00  0.00     0.001 A 
ATOM     19  C   UNL A   1      35.823  23.069  23.651  1.00  0.00     0.001 A 
ATOM     20  C   UNL A   1      36.063  23.707  24.874  1.00  0.00     0.000 A 
ENDBRANCH  13  15
ENDBRANCH  10  13
ENDBRANCH   7   9
ENDBRANCH   4   7
ENDBRANCH   2   3
ENDBRANCH   1   2
BRANCH   1  21
ATOM     21  C   UNL A   1      32.800  27.579  27.121  1.00  0.00     0.023 C 
BRANCH  21  22
ATOM     22  C   UNL A   1      33.839  28.570  26.609  1.00  0.00     0.116 C 
BRANCH  22  23
ATOM     23  N   UNL A   1      33.668  29.895  27.179  1.00  0.00    -0.352 N 
ATOM     24  C   UNL A   1      34.522  30.597  27.999  1.00  0.00     0.251 C 
ATOM     25  H   UNL A   1      32.827  30.353  26.948  1.00  0.00     0.163 HD
ATOM     26  O   UNL A   1      34.151  31.631  28.533  1.00  0.00    -0.269 OA
BRANCH  24  27
ATOM     27  C   UNL A   1      35.879  30.064  28.248  1.00  0.00     0.039 A 
ATOM     28  C   UNL A   1      36.821  30.109  27.219  1.00  0.00     0.014 A 
ATOM     29  C   UNL A   1      36.224  29.556  29.503  1.00  0.00     0.014 A 
ATOM     30  C   UNL A   1      38.132  29.699  27.470  1.00  0.00     0.010 A 
ATOM     31  C   UNL A   1      37.549  29.223  29.772  1.00  0.00     0.010 A 
ATOM     32  C   UNL A   1      38.516  29.289  28.757  1.00  0.00    -0.014 A 
BRANCH  32  33
ATOM     33  C   UNL A   1      39.924  28.926  29.061  1.00  0.00     0.031 A 
ATOM     34  C   UNL A   1      40.851  29.940  29.673  1.00  0.00     0.074 A 
ATOM     35  C   UNL A   1      40.383  27.700  28.736  1.00  0.00     0.049 A 
ATOM     36  N   UNL A   1      42.122  29.826  29.963  1.00  0.00    -0.248 NA
ATOM     37  C   UNL A   1      40.284  31.266  29.974  1.00  0.00     0.031 C 
ATOM     38  C   UNL A   1      39.595  26.640  28.100  1.00  0.00     0.029 A 
ATOM     39  N   UNL A   1      41.626  27.138  28.889  1.00  0.00    -0.354 N 
ATOM     40  C   UNL A   1      42.507  31.062  30.469  1.00  0.00     0.074 A 
ATOM     41  C   UNL A   1      41.353  31.929  30.392  1.00  0.00     0.031 C 
ATOM     42  C   UNL A   1      40.365  25.553  27.943  1.00  0.00     0.029 A 
ATOM     43  C   UNL A   1      41.711  25.847  28.424  1.00  0.00     0.049 A 
ATOM     44  H   UNL A   1      42.386  27.616  29.293  1.00  0.00     0.167 HD
ATOM     45  C   UNL A   1      43.707  31.436  30.975  1.00  0.00     0.031 A 
ATOM     46  C   UNL A   1      42.757  24.997  28.379  1.00  0.00     0.031 A 
ATOM     47  C   UNL A   1      44.854  30.570  31.052  1.00  0.00     0.049 A 
ATOM     48  C   UNL A   1      44.085  25.442  28.929  1.00  0.00     0.074 A 
ATOM     49  C   UNL A   1      46.100  30.840  31.589  1.00  0.00     0.029 A 
ATOM     50  N   UNL A   1      44.896  29.268  30.578  1.00  0.00    -0.354 N 
ATOM     51  N   UNL A   1      44.410  26.594  29.464  1.00  0.00    -0.248 NA
ATOM     52  C   UNL A   1      45.183  24.467  28.881  1.00  0.00     0.031 C 
ATOM     53  C   UNL A   1      46.914  29.720  31.387  1.00  0.00     0.029 A 
ATOM     54  C   UNL A   1      46.154  28.729  30.786  1.00  0.00     0.049 A 
ATOM     55  H   UNL A   1      44.142  28.796  30.154  1.00  0.00     0.167 HD
ATOM     56  C   UNL A   1      45.744  26.473  29.841  1.00  0.00     0.074 A 
ATOM     57  C   UNL A   1      46.157  25.129  29.489  1.00  0.00     0.031 C 
ATOM     58  C   UNL A   1      46.552  27.390  30.428  1.00  0.00     0.031 A 
BRANCH  45  59
ATOM     59  C   UNL A   1      43.839  32.850  31.481  1.00  0.00    -0.014 A 
ATOM     60  C   UNL A   1      43.440  33.193  32.787  1.00  0.00     0.010 A 
ATOM     61  C   UNL A   1      44.404  33.841  30.657  1.00  0.00     0.010 A 
ATOM     62  C   UNL A   1      43.563  34.509  33.242  1.00  0.00     0.020 A 
ATOM     63  C   UNL A   1      44.558  35.150  31.121  1.00  0.00     0.020 A 
ATOM     64  C   UNL A   1      44.120  35.480  32.405  1.00  0.00     0.054 A 
BRANCH  64  65
ATOM     65  S   UNL A   1      44.287  37.172  33.033  1.00  0.00     0.124 S 
ATOM     66  O   UNL A   1      43.196  37.244  34.001  1.00  0.00    -0.237 OA
ATOM     67  O   UNL A   1      45.633  37.171  33.603  1.00  0.00    -0.237 OA
ATOM     68  O   UNL A   1      44.120  38.003  31.843  1.00  0.00    -0.744 OA
ENDBRANCH  64  65
ENDBRANCH  45  59
BRANCH  46  69
ATOM     69  C   UNL A   1      42.584  23.636  27.799  1.00  0.00    -0.014 A 
ATOM     70  C   UNL A   1      42.805  23.407  26.429  1.00  0.00     0.010 A 
ATOM     71  C   UNL A   1      42.209  22.556  28.619  1.00  0.00     0.010 A 
ATOM     72  C   UNL A   1      42.633  22.129  25.887  1.00  0.00     0.020 A 
ATOM     73  C   UNL A   1      42.067  21.272  28.087  1.00  0.00     0.020 A 
ATOM     74  C   UNL A   1      42.268  21.068  26.721  1.00  0.00     0.054 A 
BRANCH  74  75
ATOM     75  S   UNL A   1      42.100  19.411  26.004  1.00  0.00     0.124 S 
ATOM     76  O   UNL A   1      40.668  19.341  25.731  1.00  0.00    -0.237 OA
ATOM     77  O   UNL A   1      42.967  19.486  24.831  1.00  0.00    -0.237 OA
ATOM     78  O   UNL A   1      42.579  18.529  27.066  1.00  0.00    -0.744 OA
ENDBRANCH  74  75
ENDBRANCH  46  69
BRANCH  58  79
ATOM     79  C   UNL A   1      47.958  26.965  30.763  1.00  0.00    -0.014 A 
ATOM     80  C   UNL A   1      49.039  27.283  29.923  1.00  0.00     0.010 A 
ATOM     81  C   UNL A   1      48.205  26.284  31.970  1.00  0.00     0.010 A 
ATOM     82  C   UNL A   1      50.339  26.899  30.269  1.00  0.00     0.020 A 
ATOM     83  C   UNL A   1      49.506  25.927  32.334  1.00  0.00     0.020 A 
ATOM     84  C   UNL A   1      50.563  26.225  31.473  1.00  0.00     0.054 A 
BRANCH  84  85
ATOM     85  S   UNL A   1      52.264  25.780  31.919  1.00  0.00     0.124 S 
ATOM     86  O   UNL A   1      52.088  24.449  32.494  1.00  0.00    -0.237 OA
ATOM     87  O   UNL A   1      52.955  25.824  30.633  1.00  0.00    -0.237 OA
ATOM     88  O   UNL A   1      52.658  26.820  32.868  1.00  0.00    -0.744 OA
ENDBRANCH  84  85
ENDBRANCH  58  79
ENDBRANCH  32  33
ENDBRANCH  24  27
ENDBRANCH  22  23
ENDBRANCH  21  22
ENDBRANCH   1  21
TORSDOF 17
ENDMDL
MODEL 3
REMARK VINA RESULT:      -9.7      5.104      6.640
REMARK SMILES C[C@H](NC(=O)C(=O)c1ccccc1)C(=O)NCCCCNC(=O)c1ccc(-c2c3nc(c(-c4ccc(S(=O)(=O)[O-])cc4)c4ccc([nH]4)c(-c4ccc(S(=O)(=O)[O-])cc4)c4nc(c(-c5ccc(S(=O)(=O)[O-])cc5)c5ccc2[nH]5)C=C4)C=C3)cc1
REMARK SMILES IDX 18 1 17 2 16 3 14 4 15 5 2 7 1 8 3 9 4 10 5 12 6 13 7 14
REMARK SMILES IDX 8 15 9 16 13 17 10 18 12 19 11 20 19 21 20 22 21 23 22 24
REMARK SMILES IDX 23 26 24 27 25 28 83 29 26 30 82 31 27 32 28 33 29 34 76 35
REMARK SMILES IDX 30 36 81 37 75 38 77 39 31 40 80 41 74 42 73 43 32 45 62 46
REMARK SMILES IDX 43 47 61 48 44 49 47 50 60 51 78 52 45 53 46 54 59 56 79 57
REMARK SMILES IDX 48 58 33 59 34 60 42 61 35 62 41 63 36 64 37 65 38 66 39 67
REMARK SMILES IDX 40 68 63 69 64 70 72 71 65 72 71 73 66 74 67 75 68 76 69 77
REMARK SMILES IDX 70 78 49 79 50 80 58 81 51 82 57 83 52 84 53 85 54 86 55 87
REMARK SMILES IDX 56 88
REMARK H PARENT 16 6 3 11 21 25 77 44 47 55
REMARK Flexibility Score: inf
ROOT
ATOM      1  C   UNL A   1      34.769  32.727  32.347  1.00  0.00     0.023 C 
ENDROOT
BRANCH   1   2
ATOM      2  C   UNL A   1      34.396  33.887  33.267  1.00  0.00     0.116 C 
BRANCH   2   3
ATOM      3  N   UNL A   1      33.084  34.399  32.935  1.00  0.00    -0.354 N 
ATOM      4  C   UNL A   1      32.687  35.570  32.387  1.00  0.00     0.242 C 
ATOM      5  O   UNL A   1      31.472  35.736  32.248  1.00  0.00    -0.273 OA
ATOM      6  H   UNL A   1      32.346  33.782  33.149  1.00  0.00     0.163 HD
BRANCH   4   7
ATOM      7  C   UNL A   1      33.684  36.615  31.868  1.00  0.00     0.168 C 
ATOM      8  C   UNL A   1      34.025  37.634  32.957  1.00  0.00     0.041 C 
BRANCH   7   9
ATOM      9  N   UNL A   1      33.308  37.286  30.620  1.00  0.00    -0.338 N 
ATOM     10  C   UNL A   1      33.235  36.696  29.370  1.00  0.00     0.293 C 
ATOM     11  H   UNL A   1      33.087  38.244  30.677  1.00  0.00     0.164 HD
ATOM     12  O   UNL A   1      32.989  37.368  28.374  1.00  0.00    -0.265 OA
BRANCH  10  13
ATOM     13  C   UNL A   1      33.448  35.175  29.237  1.00  0.00     0.250 C 
ATOM     14  O   UNL A   1      32.529  34.371  29.353  1.00  0.00    -0.283 OA
BRANCH  13  15
ATOM     15  C   UNL A   1      34.767  34.598  28.945  1.00  0.00     0.028 A 
ATOM     16  C   UNL A   1      34.800  33.531  28.036  1.00  0.00     0.012 A 
ATOM     17  C   UNL A   1      35.898  34.929  29.692  1.00  0.00     0.012 A 
ATOM     18  C   UNL A   1      35.959  32.776  27.886  1.00  0.00     0.001 A 
ATOM     19  C   UNL A   1      37.054  34.161  29.545  1.00  0.00     0.001 A 
ATOM     20  C   UNL A   1      37.081  33.083  28.652  1.00  0.00     0.000 A 
ENDBRANCH  13  15
ENDBRANCH  10  13
ENDBRANCH   7   9
ENDBRANCH   4   7
ENDBRANCH   2   3
ENDBRANCH   1   2
BRANCH   1  21
ATOM     21  C   UNL A   1      35.975  31.904  32.812  1.00  0.00     0.023 C 
BRANCH  21  22
ATOM     22  C   UNL A   1      36.758  31.215  31.701  1.00  0.00     0.116 C 
BRANCH  22  23
ATOM     23  N   UNL A   1      35.897  30.463  30.803  1.00  0.00    -0.352 N 
ATOM     24  C   UNL A   1      36.238  29.761  29.670  1.00  0.00     0.251 C 
ATOM     25  H   UNL A   1      34.940  30.454  31.038  1.00  0.00     0.163 HD
ATOM     26  O   UNL A   1      35.369  29.327  28.930  1.00  0.00    -0.269 OA
BRANCH  24  27
ATOM     27  C   UNL A   1      37.669  29.570  29.346  1.00  0.00     0.039 A 
ATOM     28  C   UNL A   1      38.552  29.222  30.368  1.00  0.00     0.014 A 
ATOM     29  C   UNL A   1      38.123  29.701  28.030  1.00  0.00     0.014 A 
ATOM     30  C   UNL A   1      39.885  28.944  30.060  1.00  0.00     0.010 A 
ATOM     31  C   UNL A   1      39.432  29.347  27.715  1.00  0.00     0.010 A 
ATOM     32  C   UNL A   1      40.327  28.968  28.726  1.00  0.00    -0.014 A 
BRANCH  32  33
ATOM     33  C   UNL A   1      41.721  28.597  28.371  1.00  0.00     0.031 A 
ATOM     34  C   UNL A   1      42.791  29.652  28.307  1.00  0.00     0.074 A 
ATOM     35  C   UNL A   1      42.011  27.319  28.053  1.00  0.00     0.049 A 
ATOM     36  N   UNL A   1      44.050  29.530  27.969  1.00  0.00    -0.248 NA
ATOM     37  C   UNL A   1      42.391  31.029  28.641  1.00  0.00     0.031 C 
ATOM     38  C   UNL A   1      41.053  26.210  28.035  1.00  0.00     0.029 A 
ATOM     39  N   UNL A   1      43.195  26.736  27.675  1.00  0.00    -0.354 N 
ATOM     40  C   UNL A   1      44.585  30.811  28.039  1.00  0.00     0.074 A 
ATOM     41  C   UNL A   1      43.505  31.703  28.394  1.00  0.00     0.031 C 
ATOM     42  C   UNL A   1      41.692  25.081  27.693  1.00  0.00     0.029 A 
ATOM     43  C   UNL A   1      43.093  25.388  27.423  1.00  0.00     0.049 A 
ATOM     44  H   UNL A   1      44.039  27.237  27.591  1.00  0.00     0.167 HD
ATOM     45  C   UNL A   1      45.867  31.206  27.848  1.00  0.00     0.031 A 
ATOM     46  C   UNL A   1      44.020  24.499  27.012  1.00  0.00     0.031 A 
ATOM     47  C   UNL A   1      46.941  30.315  27.496  1.00  0.00     0.049 A 
ATOM     48  C   UNL A   1      45.432  24.965  26.788  1.00  0.00     0.074 A 
ATOM     49  C   UNL A   1      48.282  30.611  27.326  1.00  0.00     0.029 A 
ATOM     50  N   UNL A   1      46.797  28.956  27.259  1.00  0.00    -0.354 N 
ATOM     51  N   UNL A   1      45.933  26.170  26.924  1.00  0.00    -0.248 NA
ATOM     52  C   UNL A   1      46.408  23.951  26.366  1.00  0.00     0.031 C 
ATOM     53  C   UNL A   1      48.939  29.441  26.929  1.00  0.00     0.029 A 
ATOM     54  C   UNL A   1      48.020  28.404  26.919  1.00  0.00     0.049 A 
ATOM     55  H   UNL A   1      45.950  28.458  27.322  1.00  0.00     0.167 HD
ATOM     56  C   UNL A   1      47.288  26.052  26.632  1.00  0.00     0.074 A 
ATOM     57  C   UNL A   1      47.530  24.655  26.329  1.00  0.00     0.031 C 
ATOM     58  C   UNL A   1      48.245  27.012  26.618  1.00  0.00     0.031 A 
BRANCH  45  59
ATOM     59  C   UNL A   1      46.175  32.672  28.014  1.00  0.00    -0.014 A 
ATOM     60  C   UNL A   1      46.088  33.560  26.925  1.00  0.00     0.010 A 
ATOM     61  C   UNL A   1      46.520  33.178  29.281  1.00  0.00     0.010 A 
ATOM     62  C   UNL A   1      46.382  34.916  27.090  1.00  0.00     0.020 A 
ATOM     63  C   UNL A   1      46.783  34.540  29.457  1.00  0.00     0.020 A 
ATOM     64  C   UNL A   1      46.729  35.398  28.356  1.00  0.00     0.054 A 
BRANCH  64  65
ATOM     65  S   UNL A   1      47.083  37.166  28.544  1.00  0.00     0.124 S 
ATOM     66  O   UNL A   1      46.131  37.555  29.582  1.00  0.00    -0.237 OA
ATOM     67  O   UNL A   1      48.487  37.170  28.946  1.00  0.00    -0.237 OA
ATOM     68  O   UNL A   1      46.816  37.716  27.217  1.00  0.00    -0.744 OA
ENDBRANCH  64  65
ENDBRANCH  45  59
BRANCH  46  69
ATOM     69  C   UNL A   1      43.639  23.075  26.794  1.00  0.00    -0.014 A 
ATOM     70  C   UNL A   1      42.832  22.397  27.725  1.00  0.00     0.010 A 
ATOM     71  C   UNL A   1      44.073  22.393  25.642  1.00  0.00     0.010 A 
ATOM     72  C   UNL A   1      42.484  21.058  27.520  1.00  0.00     0.020 A 
ATOM     73  C   UNL A   1      43.701  21.064  25.418  1.00  0.00     0.020 A 
ATOM     74  C   UNL A   1      42.919  20.401  26.365  1.00  0.00     0.054 A 
BRANCH  74  75
ATOM     75  S   UNL A   1      42.414  18.680  26.097  1.00  0.00     0.124 S 
ATOM     76  O   UNL A   1      41.003  18.826  25.754  1.00  0.00    -0.237 OA
ATOM     77  O   UNL A   1      43.292  18.262  25.006  1.00  0.00    -0.237 OA
ATOM     78  O   UNL A   1      42.684  18.040  27.382  1.00  0.00    -0.744 OA
ENDBRANCH  74  75
ENDBRANCH  46  69
BRANCH  58  79
ATOM     79  C   UNL A   1      49.655  26.584  26.300  1.00  0.00    -0.014 A 
ATOM     80  C   UNL A   1      50.464  25.956  27.262  1.00  0.00     0.010 A 
ATOM     81  C   UNL A   1      50.154  26.764  24.997  1.00  0.00     0.010 A 
ATOM     82  C   UNL A   1      51.760  25.545  26.935  1.00  0.00     0.020 A 
ATOM     83  C   UNL A   1      51.436  26.326  24.657  1.00  0.00     0.020 A 
ATOM     84  C   UNL A   1      52.237  25.731  25.634  1.00  0.00     0.054 A 
BRANCH  84  85
ATOM     85  S   UNL A   1      53.904  25.147  25.224  1.00  0.00     0.124 S 
ATOM     86  O   UNL A   1      53.746  23.697  25.307  1.00  0.00    -0.237 OA
ATOM     87  O   UNL A   1      54.109  25.682  23.880  1.00  0.00    -0.237 OA
ATOM     88  O   UNL A   1      54.746  25.741  26.260  1.00  0.00    -0.744 OA
ENDBRANCH  84  85
ENDBRANCH  58  79
ENDBRANCH  32  33
ENDBRANCH  24  27
ENDBRANCH  22  23
ENDBRANCH  21  22
ENDBRANCH   1  21
TORSDOF 17
ENDMDL
