MODEL 1
REMARK VINA RESULT:     -10.7      0.000      0.000
REMARK SMILES CCC1CN(c2cc(F)ccc2C(=O)NCCCCNC(=O)c2ccc(-c3c4nc(c(-c5ccc(S(=O)(=O)[O-])cc5)c5ccc([nH]5)c(-c5ccc(S(=O)(=O)[O-])cc5)c5nc(c(-c6ccc(S(=O)(=O)[O-])cc6)c6ccc3[nH]6)C=C5)C=C4)cc2)C1
REMARK SMILES IDX 18 1 17 2 16 3 15 4 13 5 14 6 12 8 6 9 7 10 8 11 11 12 9 13
REMARK SMILES IDX 10 14 5 15 3 16 4 17 83 18 2 19 1 20 19 21 20 22 21 23 22 25
REMARK SMILES IDX 23 26 24 27 82 28 25 29 81 30 26 31 27 32 28 33 75 34 29 35
REMARK SMILES IDX 80 36 74 37 76 38 30 39 79 40 73 41 72 42 31 44 61 45 42 46
REMARK SMILES IDX 60 47 43 48 46 49 59 50 77 51 44 52 45 53 58 55 78 56 47 57
REMARK SMILES IDX 32 58 33 59 41 60 34 61 40 62 35 63 36 64 37 65 38 66 39 67
REMARK SMILES IDX 62 68 63 69 71 70 64 71 70 72 65 73 66 74 67 75 68 76 69 77
REMARK SMILES IDX 48 78 49 79 57 80 50 81 56 82 51 83 52 84 53 85 54 86 55 87
REMARK H PARENT 15 7 20 24 76 43 46 54
REMARK Flexibility Score: inf
ROOT
ATOM      1  C   UNL A   1      36.020  21.998  25.842  1.00  0.00     0.023 C 
ENDROOT
BRANCH   1   2
ATOM      2  C   UNL A   1      35.204  22.608  26.984  1.00  0.00     0.023 C 
BRANCH   2   3
ATOM      3  C   UNL A   1      34.072  21.766  27.561  1.00  0.00     0.116 C 
BRANCH   3   4
ATOM      4  N   UNL A   1      32.817  22.462  27.740  1.00  0.00    -0.352 N 
ATOM      5  C   UNL A   1      31.923  22.904  26.792  1.00  0.00     0.253 C 
ATOM      6  O   UNL A   1      30.851  23.378  27.173  1.00  0.00    -0.269 OA
ATOM      7  H   UNL A   1      32.566  22.647  28.674  1.00  0.00     0.163 HD
BRANCH   5   8
ATOM      8  C   UNL A   1      32.232  22.945  25.335  1.00  0.00     0.063 A 
ATOM      9  C   UNL A   1      32.647  24.079  24.599  1.00  0.00     0.052 A 
ATOM     10  C   UNL A   1      32.844  23.929  23.213  1.00  0.00     0.066 A 
ATOM     11  C   UNL A   1      32.706  22.691  22.593  1.00  0.00     0.125 A 
ATOM     12  C   UNL A   1      32.105  21.697  24.684  1.00  0.00     0.019 A 
ATOM     13  F   UNL A   1      32.949  22.582  21.280  1.00  0.00    -0.207 F 
ATOM     14  C   UNL A   1      32.349  21.569  23.318  1.00  0.00     0.040 A 
BRANCH   9  15
ATOM     15  N   UNL A   1      32.917  25.327  25.191  1.00  0.00    -0.370 N 
ATOM     16  C   UNL A   1      33.530  27.276  25.546  1.00  0.00     0.028 C 
ATOM     17  C   UNL A   1      34.204  25.895  25.446  1.00  0.00     0.122 C 
ATOM     18  C   UNL A   1      32.245  26.581  25.070  1.00  0.00     0.122 C 
BRANCH  16  19
ATOM     19  C   UNL A   1      33.436  27.934  26.918  1.00  0.00     0.004 C 
ATOM     20  C   UNL A   1      34.387  29.114  27.022  1.00  0.00     0.004 C 
ENDBRANCH  16  19
ENDBRANCH   9  15
ENDBRANCH   5   8
ENDBRANCH   3   4
ENDBRANCH   2   3
ENDBRANCH   1   2
BRANCH   1  21
ATOM     21  C   UNL A   1      37.258  22.753  25.362  1.00  0.00     0.116 C 
BRANCH  21  22
ATOM     22  N   UNL A   1      38.528  22.177  25.772  1.00  0.00    -0.352 N 
ATOM     23  C   UNL A   1      39.543  22.715  26.539  1.00  0.00     0.251 C 
ATOM     24  H   UNL A   1      38.691  21.260  25.453  1.00  0.00     0.163 HD
ATOM     25  O   UNL A   1      40.499  22.015  26.853  1.00  0.00    -0.269 OA
BRANCH  23  26
ATOM     26  C   UNL A   1      39.532  24.154  26.896  1.00  0.00     0.039 A 
ATOM     27  C   UNL A   1      38.957  24.512  28.121  1.00  0.00     0.014 A 
ATOM     28  C   UNL A   1      40.160  25.123  26.111  1.00  0.00     0.014 A 
ATOM     29  C   UNL A   1      39.156  25.796  28.631  1.00  0.00     0.010 A 
ATOM     30  C   UNL A   1      40.417  26.384  26.652  1.00  0.00     0.010 A 
ATOM     31  C   UNL A   1      39.967  26.709  27.940  1.00  0.00    -0.014 A 
BRANCH  31  32
ATOM     32  C   UNL A   1      40.478  27.929  28.618  1.00  0.00     0.031 A 
ATOM     33  C   UNL A   1      41.856  27.978  29.208  1.00  0.00     0.074 A 
ATOM     34  C   UNL A   1      39.637  28.974  28.778  1.00  0.00     0.049 A 
ATOM     35  N   UNL A   1      42.430  28.950  29.869  1.00  0.00    -0.248 NA
ATOM     36  C   UNL A   1      42.689  26.776  29.054  1.00  0.00     0.031 C 
ATOM     37  C   UNL A   1      38.248  29.024  28.309  1.00  0.00     0.029 A 
ATOM     38  N   UNL A   1      39.821  30.192  29.385  1.00  0.00    -0.354 N 
ATOM     39  C   UNL A   1      43.687  28.478  30.222  1.00  0.00     0.074 A 
ATOM     40  C   UNL A   1      43.779  27.119  29.730  1.00  0.00     0.031 C 
ATOM     41  C   UNL A   1      37.717  30.215  28.624  1.00  0.00     0.029 A 
ATOM     42  C   UNL A   1      38.709  31.002  29.346  1.00  0.00     0.049 A 
ATOM     43  H   UNL A   1      40.668  30.461  29.809  1.00  0.00     0.167 HD
ATOM     44  C   UNL A   1      44.677  29.120  30.887  1.00  0.00     0.031 A 
ATOM     45  C   UNL A   1      38.505  32.239  29.839  1.00  0.00     0.031 A 
ATOM     46  C   UNL A   1      44.584  30.472  31.374  1.00  0.00     0.049 A 
ATOM     47  C   UNL A   1      39.623  32.934  30.559  1.00  0.00     0.074 A 
ATOM     48  C   UNL A   1      45.558  31.227  32.005  1.00  0.00     0.029 A 
ATOM     49  N   UNL A   1      43.452  31.268  31.290  1.00  0.00    -0.354 N 
ATOM     50  N   UNL A   1      40.834  32.497  30.810  1.00  0.00    -0.248 NA
ATOM     51  C   UNL A   1      39.353  34.291  31.055  1.00  0.00     0.031 C 
ATOM     52  C   UNL A   1      45.001  32.469  32.335  1.00  0.00     0.029 A 
ATOM     53  C   UNL A   1      43.696  32.499  31.875  1.00  0.00     0.049 A 
ATOM     54  H   UNL A   1      42.602  30.998  30.875  1.00  0.00     0.167 HD
ATOM     55  C   UNL A   1      41.475  33.530  31.481  1.00  0.00     0.074 A 
ATOM     56  C   UNL A   1      40.524  34.620  31.583  1.00  0.00     0.031 C 
ATOM     57  C   UNL A   1      42.738  33.572  31.969  1.00  0.00     0.031 A 
BRANCH  44  58
ATOM     58  C   UNL A   1      45.952  28.360  31.128  1.00  0.00    -0.014 A 
ATOM     59  C   UNL A   1      46.081  27.502  32.234  1.00  0.00     0.010 A 
ATOM     60  C   UNL A   1      47.022  28.479  30.223  1.00  0.00     0.010 A 
ATOM     61  C   UNL A   1      47.274  26.809  32.457  1.00  0.00     0.020 A 
ATOM     62  C   UNL A   1      48.210  27.771  30.432  1.00  0.00     0.020 A 
ATOM     63  C   UNL A   1      48.335  26.956  31.559  1.00  0.00     0.054 A 
BRANCH  63  64
ATOM     64  S   UNL A   1      49.871  26.042  31.867  1.00  0.00     0.124 S 
ATOM     65  O   UNL A   1      49.825  25.020  30.823  1.00  0.00    -0.237 OA
ATOM     66  O   UNL A   1      50.898  27.067  31.697  1.00  0.00    -0.237 OA
ATOM     67  O   UNL A   1      49.711  25.546  33.232  1.00  0.00    -0.744 OA
ENDBRANCH  63  64
ENDBRANCH  44  58
BRANCH  45  68
ATOM     68  C   UNL A   1      37.185  32.901  29.656  1.00  0.00    -0.014 A 
ATOM     69  C   UNL A   1      36.360  33.156  30.765  1.00  0.00     0.010 A 
ATOM     70  C   UNL A   1      36.759  33.298  28.377  1.00  0.00     0.010 A 
ATOM     71  C   UNL A   1      35.122  33.784  30.596  1.00  0.00     0.020 A 
ATOM     72  C   UNL A   1      35.531  33.946  28.207  1.00  0.00     0.020 A 
ATOM     73  C   UNL A   1      34.715  34.174  29.316  1.00  0.00     0.054 A 
BRANCH  73  74
ATOM     74  S   UNL A   1      33.131  35.038  29.122  1.00  0.00     0.124 S 
ATOM     75  O   UNL A   1      33.561  36.369  28.708  1.00  0.00    -0.237 OA
ATOM     76  O   UNL A   1      32.456  34.242  28.100  1.00  0.00    -0.237 OA
ATOM     77  O   UNL A   1      32.536  34.956  30.455  1.00  0.00    -0.744 OA
ENDBRANCH  73  74
ENDBRANCH  45  68
BRANCH  57  78
ATOM     78  C   UNL A   1      43.172  34.841  32.647  1.00  0.00    -0.014 A 
ATOM     79  C   UNL A   1      43.727  35.900  31.908  1.00  0.00     0.010 A 
ATOM     80  C   UNL A   1      42.966  34.998  34.029  1.00  0.00     0.010 A 
ATOM     81  C   UNL A   1      44.086  37.090  32.543  1.00  0.00     0.020 A 
ATOM     82  C   UNL A   1      43.308  36.193  34.665  1.00  0.00     0.020 A 
ATOM     83  C   UNL A   1      43.875  37.229  33.919  1.00  0.00     0.054 A 
BRANCH  83  84
ATOM     84  S   UNL A   1      44.292  38.806  34.715  1.00  0.00     0.124 S 
ATOM     85  O   UNL A   1      44.040  38.510  36.123  1.00  0.00    -0.237 OA
ATOM     86  O   UNL A   1      45.695  38.991  34.352  1.00  0.00    -0.237 OA
ATOM     87  O   UNL A   1      43.366  39.756  34.102  1.00  0.00    -0.744 OA
ENDBRANCH  83  84
ENDBRANCH  57  78
ENDBRANCH  31  32
ENDBRANCH  23  26
ENDBRANCH  21  22
ENDBRANCH   1  21
TORSDOF 16
ENDMDL
MODEL 2
REMARK VINA RESULT:     -10.5      2.616      9.165
REMARK SMILES CCC1CN(c2cc(F)ccc2C(=O)NCCCCNC(=O)c2ccc(-c3c4nc(c(-c5ccc(S(=O)(=O)[O-])cc5)c5ccc([nH]5)c(-c5ccc(S(=O)(=O)[O-])cc5)c5nc(c(-c6ccc(S(=O)(=O)[O-])cc6)c6ccc3[nH]6)C=C5)C=C4)cc2)C1
REMARK SMILES IDX 18 1 17 2 16 3 15 4 13 5 14 6 12 8 6 9 7 10 8 11 11 12 9 13
REMARK SMILES IDX 10 14 5 15 3 16 4 17 83 18 2 19 1 20 19 21 20 22 21 23 22 25
REMARK SMILES IDX 23 26 24 27 82 28 25 29 81 30 26 31 27 32 28 33 75 34 29 35
REMARK SMILES IDX 80 36 74 37 76 38 30 39 79 40 73 41 72 42 31 44 61 45 42 46
REMARK SMILES IDX 60 47 43 48 46 49 59 50 77 51 44 52 45 53 58 55 78 56 47 57
REMARK SMILES IDX 32 58 33 59 41 60 34 61 40 62 35 63 36 64 37 65 38 66 39 67
REMARK SMILES IDX 62 68 63 69 71 70 64 71 70 72 65 73 66 74 67 75 68 76 69 77
REMARK SMILES IDX 48 78 49 79 57 80 50 81 56 82 51 83 52 84 53 85 54 86 55 87
REMARK H PARENT 15 7 20 24 76 43 46 54
REMARK Flexibility Score: inf
ROOT
ATOM      1  C   UNL A   1      31.936  29.215  26.706  1.00  0.00     0.023 C 
ENDROOT
BRANCH   1   2
ATOM      2  C   UNL A   1      31.466  27.872  27.270  1.00  0.00     0.023 C 
BRANCH   2   3
ATOM      3  C   UNL A   1      32.201  26.622  26.799  1.00  0.00     0.116 C 
BRANCH   3   4
ATOM      4  N   UNL A   1      31.394  25.424  26.729  1.00  0.00    -0.352 N 
ATOM      5  C   UNL A   1      31.674  24.219  26.125  1.00  0.00     0.253 C 
ATOM      6  O   UNL A   1      30.884  23.286  26.285  1.00  0.00    -0.269 OA
ATOM      7  H   UNL A   1      30.519  25.477  27.176  1.00  0.00     0.163 HD
BRANCH   5   8
ATOM      8  C   UNL A   1      32.821  24.019  25.195  1.00  0.00     0.063 A 
ATOM      9  C   UNL A   1      33.039  24.703  23.977  1.00  0.00     0.052 A 
ATOM     10  C   UNL A   1      34.160  24.337  23.207  1.00  0.00     0.066 A 
ATOM     11  C   UNL A   1      35.068  23.384  23.661  1.00  0.00     0.125 A 
ATOM     12  C   UNL A   1      33.760  23.060  25.637  1.00  0.00     0.019 A 
ATOM     13  F   UNL A   1      36.148  23.100  22.920  1.00  0.00    -0.207 F 
ATOM     14  C   UNL A   1      34.885  22.748  24.875  1.00  0.00     0.040 A 
BRANCH   9  15
ATOM     15  N   UNL A   1      32.222  25.756  23.526  1.00  0.00    -0.370 N 
ATOM     16  C   UNL A   1      31.371  27.285  22.413  1.00  0.00     0.028 C 
ATOM     17  C   UNL A   1      32.616  27.112  23.302  1.00  0.00     0.122 C 
ATOM     18  C   UNL A   1      31.164  25.770  22.566  1.00  0.00     0.122 C 
BRANCH  16  19
ATOM     19  C   UNL A   1      30.228  28.148  22.934  1.00  0.00     0.004 C 
ATOM     20  C   UNL A   1      30.071  29.407  22.098  1.00  0.00     0.004 C 
ENDBRANCH  16  19
ENDBRANCH   9  15
ENDBRANCH   5   8
ENDBRANCH   3   4
ENDBRANCH   2   3
ENDBRANCH   1   2
BRANCH   1  21
ATOM     21  C   UNL A   1      33.390  29.621  26.939  1.00  0.00     0.116 C 
BRANCH  21  22
ATOM     22  N   UNL A   1      33.577  30.772  27.808  1.00  0.00    -0.352 N 
ATOM     23  C   UNL A   1      34.692  31.186  28.509  1.00  0.00     0.251 C 
ATOM     24  H   UNL A   1      32.785  31.347  27.913  1.00  0.00     0.163 HD
ATOM     25  O   UNL A   1      34.666  32.253  29.111  1.00  0.00    -0.269 OA
BRANCH  23  26
ATOM     26  C   UNL A   1      35.878  30.303  28.622  1.00  0.00     0.039 A 
ATOM     27  C   UNL A   1      36.761  30.264  27.536  1.00  0.00     0.014 A 
ATOM     28  C   UNL A   1      36.184  29.609  29.794  1.00  0.00     0.014 A 
ATOM     29  C   UNL A   1      38.018  29.674  27.685  1.00  0.00     0.010 A 
ATOM     30  C   UNL A   1      37.464  29.079  29.964  1.00  0.00     0.010 A 
ATOM     31  C   UNL A   1      38.410  29.161  28.931  1.00  0.00    -0.014 A 
BRANCH  31  32
ATOM     32  C   UNL A   1      39.839  28.858  29.207  1.00  0.00     0.031 A 
ATOM     33  C   UNL A   1      40.763  29.895  29.773  1.00  0.00     0.074 A 
ATOM     34  C   UNL A   1      40.319  27.648  28.849  1.00  0.00     0.049 A 
ATOM     35  N   UNL A   1      42.043  29.801  30.028  1.00  0.00    -0.248 NA
ATOM     36  C   UNL A   1      40.182  31.212  30.073  1.00  0.00     0.031 C 
ATOM     37  C   UNL A   1      39.536  26.575  28.226  1.00  0.00     0.029 A 
ATOM     38  N   UNL A   1      41.582  27.116  28.948  1.00  0.00    -0.354 N 
ATOM     39  C   UNL A   1      42.427  31.046  30.507  1.00  0.00     0.074 A 
ATOM     40  C   UNL A   1      41.250  31.889  30.476  1.00  0.00     0.031 C 
ATOM     41  C   UNL A   1      40.328  25.511  28.022  1.00  0.00     0.029 A 
ATOM     42  C   UNL A   1      41.679  25.832  28.464  1.00  0.00     0.049 A 
ATOM     43  H   UNL A   1      42.345  27.607  29.329  1.00  0.00     0.167 HD
ATOM     44  C   UNL A   1      43.645  31.447  30.941  1.00  0.00     0.031 A 
ATOM     45  C   UNL A   1      42.737  25.002  28.380  1.00  0.00     0.031 A 
ATOM     46  C   UNL A   1      44.813  30.606  30.972  1.00  0.00     0.049 A 
ATOM     47  C   UNL A   1      44.073  25.466  28.881  1.00  0.00     0.074 A 
ATOM     48  C   UNL A   1      46.077  30.907  31.452  1.00  0.00     0.029 A 
ATOM     49  N   UNL A   1      44.865  29.303  30.500  1.00  0.00    -0.354 N 
ATOM     50  N   UNL A   1      44.395  26.623  29.408  1.00  0.00    -0.248 NA
ATOM     51  C   UNL A   1      45.187  24.512  28.787  1.00  0.00     0.031 C 
ATOM     52  C   UNL A   1      46.901  29.796  31.236  1.00  0.00     0.029 A 
ATOM     53  C   UNL A   1      46.142  28.793  30.658  1.00  0.00     0.049 A 
ATOM     54  H   UNL A   1      44.105  28.814  30.110  1.00  0.00     0.167 HD
ATOM     55  C   UNL A   1      45.745  26.532  29.719  1.00  0.00     0.074 A 
ATOM     56  C   UNL A   1      46.176  25.202  29.339  1.00  0.00     0.031 C 
ATOM     57  C   UNL A   1      46.555  27.467  30.272  1.00  0.00     0.031 A 
BRANCH  44  58
ATOM     58  C   UNL A   1      43.775  32.867  31.418  1.00  0.00    -0.014 A 
ATOM     59  C   UNL A   1      43.630  33.186  32.780  1.00  0.00     0.010 A 
ATOM     60  C   UNL A   1      44.076  33.891  30.502  1.00  0.00     0.010 A 
ATOM     61  C   UNL A   1      43.739  34.510  33.212  1.00  0.00     0.020 A 
ATOM     62  C   UNL A   1      44.207  35.214  30.934  1.00  0.00     0.020 A 
ATOM     63  C   UNL A   1      44.017  35.518  32.284  1.00  0.00     0.054 A 
BRANCH  63  64
ATOM     64  S   UNL A   1      44.160  37.228  32.870  1.00  0.00     0.124 S 
ATOM     65  O   UNL A   1      44.124  37.978  31.616  1.00  0.00    -0.237 OA
ATOM     66  O   UNL A   1      42.985  37.377  33.725  1.00  0.00    -0.237 OA
ATOM     67  O   UNL A   1      45.442  37.248  33.571  1.00  0.00    -0.744 OA
ENDBRANCH  63  64
ENDBRANCH  44  58
BRANCH  45  68
ATOM     68  C   UNL A   1      42.567  23.641  27.803  1.00  0.00    -0.014 A 
ATOM     69  C   UNL A   1      42.681  23.438  26.417  1.00  0.00     0.010 A 
ATOM     70  C   UNL A   1      42.313  22.540  28.640  1.00  0.00     0.010 A 
ATOM     71  C   UNL A   1      42.528  22.159  25.875  1.00  0.00     0.020 A 
ATOM     72  C   UNL A   1      42.181  21.255  28.103  1.00  0.00     0.020 A 
ATOM     73  C   UNL A   1      42.278  21.075  26.722  1.00  0.00     0.054 A 
BRANCH  73  74
ATOM     74  S   UNL A   1      42.138  19.413  26.007  1.00  0.00     0.124 S 
ATOM     75  O   UNL A   1      40.707  19.320  25.736  1.00  0.00    -0.237 OA
ATOM     76  O   UNL A   1      43.001  19.496  24.831  1.00  0.00    -0.237 OA
ATOM     77  O   UNL A   1      42.634  18.544  27.072  1.00  0.00    -0.744 OA
ENDBRANCH  73  74
ENDBRANCH  45  68
BRANCH  57  78
ATOM     78  C   UNL A   1      47.987  27.082  30.511  1.00  0.00    -0.014 A 
ATOM     79  C   UNL A   1      48.950  27.219  29.497  1.00  0.00     0.010 A 
ATOM     80  C   UNL A   1      48.385  26.635  31.784  1.00  0.00     0.010 A 
ATOM     81  C   UNL A   1      50.286  26.898  29.745  1.00  0.00     0.020 A 
ATOM     82  C   UNL A   1      49.723  26.330  32.041  1.00  0.00     0.020 A 
ATOM     83  C   UNL A   1      50.665  26.455  31.017  1.00  0.00     0.054 A 
BRANCH  83  84
ATOM     84  S   UNL A   1      52.415  26.102  31.337  1.00  0.00     0.124 S 
ATOM     85  O   UNL A   1      52.358  24.740  31.863  1.00  0.00    -0.237 OA
ATOM     86  O   UNL A   1      53.021  26.240  30.015  1.00  0.00    -0.237 OA
ATOM     87  O   UNL A   1      52.802  27.127  32.303  1.00  0.00    -0.744 OA
ENDBRANCH  83  84
ENDBRANCH  57  78
ENDBRANCH  31  32
ENDBRANCH  23  26
ENDBRANCH  21  22
ENDBRANCH   1  21
TORSDOF 16
ENDMDL
MODEL 3
REMARK VINA RESULT:     -10.4      2.696      8.144
REMARK SMILES CCC1CN(c2cc(F)ccc2C(=O)NCCCCNC(=O)c2ccc(-c3c4nc(c(-c5ccc(S(=O)(=O)[O-])cc5)c5ccc([nH]5)c(-c5ccc(S(=O)(=O)[O-])cc5)c5nc(c(-c6ccc(S(=O)(=O)[O-])cc6)c6ccc3[nH]6)C=C5)C=C4)cc2)C1
REMARK SMILES IDX 18 1 17 2 16 3 15 4 13 5 14 6 12 8 6 9 7 10 8 11 11 12 9 13
REMARK SMILES IDX 10 14 5 15 3 16 4 17 83 18 2 19 1 20 19 21 20 22 21 23 22 25
REMARK SMILES IDX 23 26 24 27 82 28 25 29 81 30 26 31 27 32 28 33 75 34 29 35
REMARK SMILES IDX 80 36 74 37 76 38 30 39 79 40 73 41 72 42 31 44 61 45 42 46
REMARK SMILES IDX 60 47 43 48 46 49 59 50 77 51 44 52 45 53 58 55 78 56 47 57
REMARK SMILES IDX 32 58 33 59 41 60 34 61 40 62 35 63 36 64 37 65 38 66 39 67
REMARK SMILES IDX 62 68 63 69 71 70 64 71 70 72 65 73 66 74 67 75 68 76 69 77
REMARK SMILES IDX 48 78 49 79 57 80 50 81 56 82 51 83 52 84 53 85 54 86 55 87
REMARK H PARENT 15 7 20 24 76 43 46 54
REMARK Flexibility Score: inf
ROOT
ATOM      1  C   UNL A   1      32.705  28.219  27.309  1.00  0.00     0.023 C 
ENDROOT
BRANCH   1   2
ATOM      2  C   UNL A   1      31.635  27.610  26.400  1.00  0.00     0.023 C 
BRANCH   2   3
ATOM      3  C   UNL A   1      31.691  26.103  26.169  1.00  0.00     0.116 C 
BRANCH   3   4
ATOM      4  N   UNL A   1      33.011  25.517  26.251  1.00  0.00    -0.352 N 
ATOM      5  C   UNL A   1      33.886  25.197  25.238  1.00  0.00     0.253 C 
ATOM      6  O   UNL A   1      35.015  24.806  25.541  1.00  0.00    -0.269 OA
ATOM      7  H   UNL A   1      33.329  25.318  27.160  1.00  0.00     0.163 HD
BRANCH   5   8
ATOM      8  C   UNL A   1      33.501  25.188  23.798  1.00  0.00     0.063 A 
ATOM      9  C   UNL A   1      33.112  24.058  23.043  1.00  0.00     0.052 A 
ATOM     10  C   UNL A   1      32.832  24.243  21.675  1.00  0.00     0.066 A 
ATOM     11  C   UNL A   1      32.864  25.508  21.097  1.00  0.00     0.125 A 
ATOM     12  C   UNL A   1      33.520  26.463  23.189  1.00  0.00     0.019 A 
ATOM     13  F   UNL A   1      32.544  25.648  19.803  1.00  0.00    -0.207 F 
ATOM     14  C   UNL A   1      33.195  26.624  21.843  1.00  0.00     0.040 A 
BRANCH   9  15
ATOM     15  N   UNL A   1      32.948  22.776  23.601  1.00  0.00    -0.370 N 
ATOM     16  C   UNL A   1      32.989  21.127  24.857  1.00  0.00     0.028 C 
ATOM     17  C   UNL A   1      33.982  21.842  23.923  1.00  0.00     0.122 C 
ATOM     18  C   UNL A   1      32.032  22.297  24.587  1.00  0.00     0.122 C 
BRANCH  16  19
ATOM     19  C   UNL A   1      32.466  19.757  24.440  1.00  0.00     0.004 C 
ATOM     20  C   UNL A   1      32.770  18.712  25.499  1.00  0.00     0.004 C 
ENDBRANCH  16  19
ENDBRANCH   9  15
ENDBRANCH   5   8
ENDBRANCH   3   4
ENDBRANCH   2   3
ENDBRANCH   1   2
BRANCH   1  21
ATOM     21  C   UNL A   1      33.481  29.428  26.791  1.00  0.00     0.116 C 
BRANCH  21  22
ATOM     22  N   UNL A   1      33.612  30.527  27.734  1.00  0.00    -0.352 N 
ATOM     23  C   UNL A   1      34.707  30.953  28.459  1.00  0.00     0.251 C 
ATOM     24  H   UNL A   1      32.791  31.052  27.878  1.00  0.00     0.163 HD
ATOM     25  O   UNL A   1      34.628  31.975  29.130  1.00  0.00    -0.269 OA
BRANCH  23  26
ATOM     26  C   UNL A   1      35.939  30.128  28.511  1.00  0.00     0.039 A 
ATOM     27  C   UNL A   1      36.776  30.145  27.388  1.00  0.00     0.014 A 
ATOM     28  C   UNL A   1      36.328  29.438  29.660  1.00  0.00     0.014 A 
ATOM     29  C   UNL A   1      38.064  29.616  27.477  1.00  0.00     0.010 A 
ATOM     30  C   UNL A   1      37.639  28.971  29.770  1.00  0.00     0.010 A 
ATOM     31  C   UNL A   1      38.534  29.110  28.699  1.00  0.00    -0.014 A 
BRANCH  31  32
ATOM     32  C   UNL A   1      39.987  28.875  28.910  1.00  0.00     0.031 A 
ATOM     33  C   UNL A   1      40.625  27.561  28.572  1.00  0.00     0.074 A 
ATOM     34  C   UNL A   1      40.713  29.846  29.505  1.00  0.00     0.049 A 
ATOM     35  N   UNL A   1      41.867  27.186  28.740  1.00  0.00    -0.248 NA
ATOM     36  C   UNL A   1      39.754  26.528  27.991  1.00  0.00     0.031 C 
ATOM     37  C   UNL A   1      40.193  31.146  29.944  1.00  0.00     0.029 A 
ATOM     38  N   UNL A   1      42.041  29.891  29.853  1.00  0.00    -0.354 N 
ATOM     39  C   UNL A   1      41.929  25.871  28.297  1.00  0.00     0.074 A 
ATOM     40  C   UNL A   1      40.590  25.503  27.884  1.00  0.00     0.031 C 
ATOM     41  C   UNL A   1      41.193  31.864  30.478  1.00  0.00     0.029 A 
ATOM     42  C   UNL A   1      42.414  31.071  30.454  1.00  0.00     0.049 A 
ATOM     43  H   UNL A   1      42.666  29.149  29.688  1.00  0.00     0.167 HD
ATOM     44  C   UNL A   1      43.004  25.050  28.232  1.00  0.00     0.031 A 
ATOM     45  C   UNL A   1      43.606  31.472  30.937  1.00  0.00     0.031 A 
ATOM     46  C   UNL A   1      44.334  25.419  28.642  1.00  0.00     0.049 A 
ATOM     47  C   UNL A   1      44.785  30.548  30.840  1.00  0.00     0.074 A 
ATOM     48  C   UNL A   1      45.498  24.674  28.556  1.00  0.00     0.029 A 
ATOM     49  N   UNL A   1      44.677  26.632  29.219  1.00  0.00    -0.354 N 
ATOM     50  N   UNL A   1      44.838  29.336  30.341  1.00  0.00    -0.248 NA
ATOM     51  C   UNL A   1      46.065  31.046  31.361  1.00  0.00     0.031 C 
ATOM     52  C   UNL A   1      46.539  25.425  29.115  1.00  0.00     0.029 A 
ATOM     53  C   UNL A   1      46.030  26.650  29.513  1.00  0.00     0.049 A 
ATOM     54  H   UNL A   1      44.051  27.372  29.393  1.00  0.00     0.167 HD
ATOM     55  C   UNL A   1      46.159  28.932  30.476  1.00  0.00     0.074 A 
ATOM     56  C   UNL A   1      46.876  30.033  31.087  1.00  0.00     0.031 C 
ATOM     57  C   UNL A   1      46.728  27.753  30.124  1.00  0.00     0.031 A 
BRANCH  44  58
ATOM     58  C   UNL A   1      42.781  23.663  27.696  1.00  0.00    -0.014 A 
ATOM     59  C   UNL A   1      42.351  22.625  28.542  1.00  0.00     0.010 A 
ATOM     60  C   UNL A   1      42.971  23.399  26.328  1.00  0.00     0.010 A 
ATOM     61  C   UNL A   1      42.157  21.336  28.038  1.00  0.00     0.020 A 
ATOM     62  C   UNL A   1      42.759  22.115  25.816  1.00  0.00     0.020 A 
ATOM     63  C   UNL A   1      42.372  21.088  26.679  1.00  0.00     0.054 A 
BRANCH  63  64
ATOM     64  S   UNL A   1      42.109  19.408  26.048  1.00  0.00     0.124 S 
ATOM     65  O   UNL A   1      42.507  18.592  27.193  1.00  0.00    -0.237 OA
ATOM     66  O   UNL A   1      40.682  19.398  25.737  1.00  0.00    -0.237 OA
ATOM     67  O   UNL A   1      42.996  19.330  24.890  1.00  0.00    -0.744 OA
ENDBRANCH  63  64
ENDBRANCH  44  58
BRANCH  45  68
ATOM     68  C   UNL A   1      43.742  32.821  31.549  1.00  0.00    -0.014 A 
ATOM     69  C   UNL A   1      43.455  33.015  32.911  1.00  0.00     0.010 A 
ATOM     70  C   UNL A   1      44.179  33.913  30.778  1.00  0.00     0.010 A 
ATOM     71  C   UNL A   1      43.588  34.281  33.489  1.00  0.00     0.020 A 
ATOM     72  C   UNL A   1      44.333  35.176  31.357  1.00  0.00     0.020 A 
ATOM     73  C   UNL A   1      44.025  35.354  32.708  1.00  0.00     0.054 A 
BRANCH  73  74
ATOM     74  S   UNL A   1      44.246  36.978  33.487  1.00  0.00     0.124 S 
ATOM     75  O   UNL A   1      44.565  37.823  32.340  1.00  0.00    -0.237 OA
ATOM     76  O   UNL A   1      42.944  37.215  34.106  1.00  0.00    -0.237 OA
ATOM     77  O   UNL A   1      45.342  36.755  34.428  1.00  0.00    -0.744 OA
ENDBRANCH  73  74
ENDBRANCH  45  68
BRANCH  57  78
ATOM     78  C   UNL A   1      48.200  27.596  30.379  1.00  0.00    -0.014 A 
ATOM     79  C   UNL A   1      48.667  26.989  31.557  1.00  0.00     0.010 A 
ATOM     80  C   UNL A   1      49.124  28.006  29.401  1.00  0.00     0.010 A 
ATOM     81  C   UNL A   1      50.036  26.810  31.762  1.00  0.00     0.020 A 
ATOM     82  C   UNL A   1      50.493  27.812  29.595  1.00  0.00     0.020 A 
ATOM     83  C   UNL A   1      50.942  27.224  30.779  1.00  0.00     0.054 A 
BRANCH  83  84
ATOM     84  S   UNL A   1      52.713  26.927  31.038  1.00  0.00     0.124 S 
ATOM     85  O   UNL A   1      53.182  28.244  31.462  1.00  0.00    -0.237 OA
ATOM     86  O   UNL A   1      52.722  25.895  32.072  1.00  0.00    -0.237 OA
ATOM     87  O   UNL A   1      53.184  26.490  29.726  1.00  0.00    -0.744 OA
ENDBRANCH  83  84
ENDBRANCH  57  78
ENDBRANCH  31  32
ENDBRANCH  23  26
ENDBRANCH  21  22
ENDBRANCH   1  21
TORSDOF 16
ENDMDL
