MODEL 1
REMARK VINA RESULT:     -10.9      0.000      0.000
REMARK SMILES Cc1oc2c(C)c3oc(=O)c(CCC(=O)N[C@H](Cc4ccc(Cl)cc4)C(=O)NCCCCNC(=O)c4ccc(-c5c6nc(c(-c7ccc(S(=O)(=O)[O-])cc7)c7ccc([nH]7)c(-c7ccc(S(=O)(=O)[O-])cc7)c7nc(c(-c8ccc(S(=O)(=O)[O-])cc8)c8ccc5[nH]8)C=C7)C=C6)cc4)c(C)c3cc2c1C
REMARK SMILES IDX 30 1 29 2 28 3 26 4 27 5 17 7 16 8 14 9 15 10 13 12 12 13
REMARK SMILES IDX 11 14 1 15 2 16 3 17 101 18 4 19 100 20 102 21 5 22 99 23
REMARK SMILES IDX 6 24 7 25 98 26 8 27 96 28 9 29 97 30 10 31 18 32 19 33
REMARK SMILES IDX 20 34 25 35 21 36 24 37 22 38 23 39 31 40 32 41 33 42 34 43
REMARK SMILES IDX 35 45 36 46 37 47 95 48 38 49 94 50 39 51 40 52 41 53 88 54
REMARK SMILES IDX 42 55 93 56 87 57 89 58 43 59 92 60 86 61 85 62 44 64 74 65
REMARK SMILES IDX 55 66 73 67 56 68 59 69 72 70 90 71 57 72 58 73 71 75 91 76
REMARK SMILES IDX 60 77 45 78 46 79 54 80 47 81 53 82 48 83 49 84 50 85 51 86
REMARK SMILES IDX 52 87 75 88 76 89 84 90 77 91 83 92 78 93 79 94 80 95 81 96
REMARK SMILES IDX 82 97 61 98 62 99 70 100 63 101 69 102 64 103 65 104 66 105
REMARK SMILES IDX 67 106 68 107
REMARK H PARENT 28 6 16 11 33 44 89 63 59 74
REMARK Flexibility Score: inf
ROOT
ATOM      1  C   UNL A   1      35.808  32.795  33.377  1.00  0.00     0.023 C 
ENDROOT
BRANCH   1   2
ATOM      2  C   UNL A   1      34.793  33.668  32.436  1.00  0.00     0.116 C 
BRANCH   2   3
ATOM      3  N   UNL A   1      34.421  33.364  30.812  1.00  0.00    -0.354 N 
ATOM      4  C   UNL A   1      34.528  32.787  29.537  1.00  0.00     0.242 C 
ATOM      5  O   UNL A   1      33.693  33.328  28.769  1.00  0.00    -0.273 OA
ATOM      6  H   UNL A   1      33.652  33.964  30.681  1.00  0.00     0.163 HD
BRANCH   4   7
ATOM      7  C   UNL A   1      35.369  31.478  28.730  1.00  0.00     0.175 C 
BRANCH   7   8
ATOM      8  N   UNL A   1      36.644  32.030  28.384  1.00  0.00    -0.344 N 
ATOM      9  C   UNL A   1      37.748  31.378  28.821  1.00  0.00     0.220 C 
ATOM     10  O   UNL A   1      38.800  32.015  28.989  1.00  0.00    -0.275 OA
ATOM     11  H   UNL A   1      36.715  32.853  27.849  1.00  0.00     0.164 HD
BRANCH   9  12
ATOM     12  C   UNL A   1      37.655  29.860  29.000  1.00  0.00     0.105 C 
BRANCH  12  13
ATOM     13  C   UNL A   1      38.488  28.755  28.144  1.00  0.00     0.053 C 
BRANCH  13  14
ATOM     14  C   UNL A   1      40.083  28.165  27.980  1.00  0.00     0.042 A 
ATOM     15  C   UNL A   1      43.035  20.758  25.818  1.00  0.00     0.088 C 
ATOM     16  C   UNL A   1      42.694  22.079  26.360  1.00  0.00     0.105 A 
ATOM     17  O   UNL A   1      43.502  23.152  26.052  1.00  0.00    -0.461 OA
ATOM     18  C   UNL A   1      41.617  22.470  27.113  1.00  0.00    -0.002 A 
ATOM     19  C   UNL A   1      42.898  24.267  26.583  1.00  0.00     0.141 A 
ATOM     20  C   UNL A   1      41.732  23.854  27.201  1.00  0.00     0.025 A 
ATOM     21  C   UNL A   1      40.480  21.744  27.724  1.00  0.00     0.049 C 
ATOM     22  C   UNL A   1      43.255  25.615  26.475  1.00  0.00     0.036 A 
ATOM     23  C   UNL A   1      40.855  24.759  27.748  1.00  0.00     0.024 A 
ATOM     24  C   UNL A   1      44.410  26.132  25.667  1.00  0.00     0.052 C 
ATOM     25  C   UNL A   1      42.331  26.467  27.148  1.00  0.00     0.145 A 
ATOM     26  C   UNL A   1      41.233  26.062  27.889  1.00  0.00     0.022 A 
ATOM     27  O   UNL A   1      42.426  27.826  26.917  1.00  0.00    -0.422 OA
ATOM     28  C   UNL A   1      40.249  26.941  28.516  1.00  0.00    -0.030 A 
ATOM     29  C   UNL A   1      41.486  28.715  27.422  1.00  0.00     0.339 A 
ATOM     30  C   UNL A   1      39.262  26.295  29.461  1.00  0.00     0.046 C 
ATOM     31  O   UNL A   1      41.914  29.865  27.430  1.00  0.00    -0.246 OA
ENDBRANCH  13  14
ENDBRANCH  12  13
ENDBRANCH   9  12
ENDBRANCH   7   8
BRANCH   7  32
ATOM     32  C   UNL A   1      35.020  30.487  27.530  1.00  0.00     0.070 C 
BRANCH  32  33
ATOM     33  C   UNL A   1      33.775  29.649  27.139  1.00  0.00    -0.045 A 
ATOM     34  C   UNL A   1      33.937  28.270  26.815  1.00  0.00     0.005 A 
ATOM     35  C   UNL A   1      32.594  30.261  26.700  1.00  0.00     0.005 A 
ATOM     36  C   UNL A   1      32.991  27.557  26.055  1.00  0.00     0.021 A 
ATOM     37  C   UNL A   1      31.644  29.545  25.939  1.00  0.00     0.021 A 
ATOM     38  C   UNL A   1      31.850  28.206  25.609  1.00  0.00     0.041 A 
ATOM     39  Cl  UNL A   1      30.732  27.378  24.589  1.00  0.00    -0.084 Cl
ENDBRANCH  32  33
ENDBRANCH   7  32
ENDBRANCH   4   7
ENDBRANCH   2   3
ENDBRANCH   1   2
BRANCH   1  40
ATOM     40  C   UNL A   1      37.326  33.090  33.412  1.00  0.00     0.023 C 
BRANCH  40  41
ATOM     41  C   UNL A   1      38.288  31.917  33.223  1.00  0.00     0.116 C 
BRANCH  41  42
ATOM     42  N   UNL A   1      37.663  30.616  33.462  1.00  0.00    -0.352 N 
ATOM     43  C   UNL A   1      38.081  29.371  33.051  1.00  0.00     0.251 C 
ATOM     44  H   UNL A   1      36.831  30.634  33.987  1.00  0.00     0.163 HD
ATOM     45  O   UNL A   1      37.319  28.402  33.191  1.00  0.00    -0.269 OA
BRANCH  43  46
ATOM     46  C   UNL A   1      39.408  29.157  32.432  1.00  0.00     0.039 A 
ATOM     47  C   UNL A   1      39.867  30.059  31.464  1.00  0.00     0.014 A 
ATOM     48  C   UNL A   1      40.172  28.028  32.738  1.00  0.00     0.014 A 
ATOM     49  C   UNL A   1      41.117  29.876  30.864  1.00  0.00     0.010 A 
ATOM     50  C   UNL A   1      41.419  27.842  32.133  1.00  0.00     0.010 A 
ATOM     51  C   UNL A   1      41.920  28.783  31.219  1.00  0.00    -0.014 A 
BRANCH  51  52
ATOM     52  C   UNL A   1      43.339  28.791  30.770  1.00  0.00     0.031 A 
ATOM     53  C   UNL A   1      44.208  29.701  31.603  1.00  0.00     0.074 A 
ATOM     54  C   UNL A   1      43.917  27.706  30.202  1.00  0.00     0.049 A 
ATOM     55  N   UNL A   1      44.696  29.384  32.769  1.00  0.00    -0.248 NA
ATOM     56  C   UNL A   1      44.310  31.133  31.304  1.00  0.00     0.031 C 
ATOM     57  C   UNL A   1      43.777  26.342  30.722  1.00  0.00     0.029 A 
ATOM     58  N   UNL A   1      44.922  27.608  29.257  1.00  0.00    -0.354 N 
ATOM     59  C   UNL A   1      45.154  30.552  33.366  1.00  0.00     0.074 A 
ATOM     60  C   UNL A   1      44.877  31.612  32.423  1.00  0.00     0.031 C 
ATOM     61  C   UNL A   1      44.768  25.579  30.212  1.00  0.00     0.029 A 
ATOM     62  C   UNL A   1      45.548  26.360  29.249  1.00  0.00     0.049 A 
ATOM     63  H   UNL A   1      45.171  28.343  28.653  1.00  0.00     0.167 HD
ATOM     64  C   UNL A   1      45.755  30.578  34.590  1.00  0.00     0.031 A 
ATOM     65  C   UNL A   1      46.868  26.151  28.958  1.00  0.00     0.031 A 
ATOM     66  C   UNL A   1      45.974  29.286  35.174  1.00  0.00     0.049 A 
ATOM     67  C   UNL A   1      47.502  26.507  30.279  1.00  0.00     0.074 A 
ATOM     68  C   UNL A   1      45.475  28.496  36.185  1.00  0.00     0.029 A 
ATOM     69  N   UNL A   1      47.000  28.546  34.643  1.00  0.00    -0.354 N 
ATOM     70  N   UNL A   1      47.534  25.760  31.348  1.00  0.00    -0.248 NA
ATOM     71  C   UNL A   1      47.741  27.932  30.521  1.00  0.00     0.031 C 
ATOM     72  C   UNL A   1      45.924  27.168  35.888  1.00  0.00     0.029 A 
ATOM     73  C   UNL A   1      46.655  27.225  34.701  1.00  0.00     0.049 A 
ATOM     74  H   UNL A   1      47.842  28.905  34.280  1.00  0.00     0.167 HD
ATOM     75  C   UNL A   1      47.445  26.650  32.421  1.00  0.00     0.074 A 
ATOM     76  C   UNL A   1      47.586  27.972  31.838  1.00  0.00     0.031 C 
ATOM     77  C   UNL A   1      47.069  26.281  33.685  1.00  0.00     0.031 A 
BRANCH  64  78
ATOM     78  C   UNL A   1      46.419  31.754  35.212  1.00  0.00    -0.014 A 
ATOM     79  C   UNL A   1      47.730  31.562  35.689  1.00  0.00     0.010 A 
ATOM     80  C   UNL A   1      45.739  32.932  35.560  1.00  0.00     0.010 A 
ATOM     81  C   UNL A   1      48.331  32.483  36.544  1.00  0.00     0.020 A 
ATOM     82  C   UNL A   1      46.349  33.874  36.409  1.00  0.00     0.020 A 
ATOM     83  C   UNL A   1      47.632  33.628  36.914  1.00  0.00     0.054 A 
BRANCH  83  84
ATOM     84  S   UNL A   1      48.417  34.749  38.107  1.00  0.00     0.124 S 
ATOM     85  O   UNL A   1      47.803  36.034  37.776  1.00  0.00    -0.237 OA
ATOM     86  O   UNL A   1      48.009  34.169  39.385  1.00  0.00    -0.237 OA
ATOM     87  O   UNL A   1      49.838  34.640  37.802  1.00  0.00    -0.744 OA
ENDBRANCH  83  84
ENDBRANCH  64  78
BRANCH  65  88
ATOM     88  C   UNL A   1      47.370  26.667  27.643  1.00  0.00    -0.014 A 
ATOM     89  C   UNL A   1      48.220  25.819  26.902  1.00  0.00     0.010 A 
ATOM     90  C   UNL A   1      47.052  27.916  27.079  1.00  0.00     0.010 A 
ATOM     91  C   UNL A   1      48.590  26.122  25.589  1.00  0.00     0.020 A 
ATOM     92  C   UNL A   1      47.396  28.218  25.751  1.00  0.00     0.020 A 
ATOM     93  C   UNL A   1      48.126  27.296  25.003  1.00  0.00     0.054 A 
BRANCH  93  94
ATOM     94  S   UNL A   1      48.409  27.541  23.227  1.00  0.00     0.124 S 
ATOM     95  O   UNL A   1      48.314  26.182  22.704  1.00  0.00    -0.237 OA
ATOM     96  O   UNL A   1      47.310  28.435  22.868  1.00  0.00    -0.237 OA
ATOM     97  O   UNL A   1      49.738  28.142  23.169  1.00  0.00    -0.744 OA
ENDBRANCH  93  94
ENDBRANCH  65  88
BRANCH  77  98
ATOM     98  C   UNL A   1      46.917  24.812  33.939  1.00  0.00    -0.014 A 
ATOM     99  C   UNL A   1      47.997  24.073  34.444  1.00  0.00     0.010 A 
ATOM    100  C   UNL A   1      45.678  24.167  33.755  1.00  0.00     0.010 A 
ATOM    101  C   UNL A   1      47.837  22.733  34.800  1.00  0.00     0.020 A 
ATOM    102  C   UNL A   1      45.505  22.830  34.128  1.00  0.00     0.020 A 
ATOM    103  C   UNL A   1      46.586  22.125  34.660  1.00  0.00     0.054 A 
BRANCH 103 104
ATOM    104  S   UNL A   1      46.389  20.419  35.237  1.00  0.00     0.124 S 
ATOM    105  O   UNL A   1      46.781  20.512  36.640  1.00  0.00    -0.237 OA
ATOM    106  O   UNL A   1      44.969  20.168  34.997  1.00  0.00    -0.237 OA
ATOM    107  O   UNL A   1      47.300  19.654  34.387  1.00  0.00    -0.744 OA
ENDBRANCH 103 104
ENDBRANCH  77  98
ENDBRANCH  51  52
ENDBRANCH  43  46
ENDBRANCH  41  42
ENDBRANCH  40  41
ENDBRANCH   1  40
TORSDOF 20
ENDMDL
MODEL 2
REMARK VINA RESULT:     -10.9      3.682      7.283
REMARK SMILES Cc1oc2c(C)c3oc(=O)c(CCC(=O)N[C@H](Cc4ccc(Cl)cc4)C(=O)NCCCCNC(=O)c4ccc(-c5c6nc(c(-c7ccc(S(=O)(=O)[O-])cc7)c7ccc([nH]7)c(-c7ccc(S(=O)(=O)[O-])cc7)c7nc(c(-c8ccc(S(=O)(=O)[O-])cc8)c8ccc5[nH]8)C=C7)C=C6)cc4)c(C)c3cc2c1C
REMARK SMILES IDX 30 1 29 2 28 3 26 4 27 5 17 7 16 8 14 9 15 10 13 12 12 13
REMARK SMILES IDX 11 14 1 15 2 16 3 17 101 18 4 19 100 20 102 21 5 22 99 23
REMARK SMILES IDX 6 24 7 25 98 26 8 27 96 28 9 29 97 30 10 31 18 32 19 33
REMARK SMILES IDX 20 34 25 35 21 36 24 37 22 38 23 39 31 40 32 41 33 42 34 43
REMARK SMILES IDX 35 45 36 46 37 47 95 48 38 49 94 50 39 51 40 52 41 53 88 54
REMARK SMILES IDX 42 55 93 56 87 57 89 58 43 59 92 60 86 61 85 62 44 64 74 65
REMARK SMILES IDX 55 66 73 67 56 68 59 69 72 70 90 71 57 72 58 73 71 75 91 76
REMARK SMILES IDX 60 77 45 78 46 79 54 80 47 81 53 82 48 83 49 84 50 85 51 86
REMARK SMILES IDX 52 87 75 88 76 89 84 90 77 91 83 92 78 93 79 94 80 95 81 96
REMARK SMILES IDX 82 97 61 98 62 99 70 100 63 101 69 102 64 103 65 104 66 105
REMARK SMILES IDX 67 106 68 107
REMARK H PARENT 28 6 16 11 33 44 89 63 59 74
REMARK Flexibility Score: inf
ROOT
ATOM      1  C   UNL A   1      40.488  26.106  28.547  1.00  0.00     0.023 C 
ENDROOT
BRANCH   1   2
ATOM      2  C   UNL A   1      39.880  27.598  28.841  1.00  0.00     0.116 C 
BRANCH   2   3
ATOM      3  N   UNL A   1      38.736  27.999  30.024  1.00  0.00    -0.354 N 
ATOM      4  C   UNL A   1      37.747  28.750  30.677  1.00  0.00     0.242 C 
ATOM      5  O   UNL A   1      37.455  28.189  31.763  1.00  0.00    -0.273 OA
ATOM      6  H   UNL A   1      38.812  27.225  30.626  1.00  0.00     0.163 HD
BRANCH   4   7
ATOM      7  C   UNL A   1      36.720  30.141  30.393  1.00  0.00     0.175 C 
BRANCH   7   8
ATOM      8  N   UNL A   1      37.183  30.682  29.151  1.00  0.00    -0.344 N 
ATOM      9  C   UNL A   1      36.659  30.171  28.011  1.00  0.00     0.220 C 
ATOM     10  O   UNL A   1      37.324  30.220  26.964  1.00  0.00    -0.275 OA
ATOM     11  H   UNL A   1      37.859  31.398  29.127  1.00  0.00     0.164 HD
BRANCH   9  12
ATOM     12  C   UNL A   1      35.225  29.637  28.063  1.00  0.00     0.105 C 
BRANCH  12  13
ATOM     13  C   UNL A   1      34.424  28.959  26.820  1.00  0.00     0.053 C 
BRANCH  13  14
ATOM     14  C   UNL A   1      33.085  27.937  26.536  1.00  0.00     0.042 A 
ATOM     15  C   UNL A   1      32.531  20.304  23.423  1.00  0.00     0.088 C 
ATOM     16  C   UNL A   1      32.425  21.704  23.853  1.00  0.00     0.105 A 
ATOM     17  O   UNL A   1      31.442  22.048  24.755  1.00  0.00    -0.461 OA
ATOM     18  C   UNL A   1      33.215  22.781  23.545  1.00  0.00    -0.002 A 
ATOM     19  C   UNL A   1      31.641  23.371  25.070  1.00  0.00     0.141 A 
ATOM     20  C   UNL A   1      32.741  23.808  24.356  1.00  0.00     0.025 A 
ATOM     21  C   UNL A   1      34.369  22.975  22.638  1.00  0.00     0.049 C 
ATOM     22  C   UNL A   1      30.981  24.178  26.003  1.00  0.00     0.036 A 
ATOM     23  C   UNL A   1      33.249  25.073  24.530  1.00  0.00     0.024 A 
ATOM     24  C   UNL A   1      29.899  23.705  26.929  1.00  0.00     0.052 C 
ATOM     25  C   UNL A   1      31.524  25.496  26.047  1.00  0.00     0.145 A 
ATOM     26  C   UNL A   1      32.537  25.992  25.242  1.00  0.00     0.022 A 
ATOM     27  O   UNL A   1      31.134  26.317  27.088  1.00  0.00    -0.422 OA
ATOM     28  C   UNL A   1      33.138  27.320  25.340  1.00  0.00    -0.030 A 
ATOM     29  C   UNL A   1      31.712  27.563  27.285  1.00  0.00     0.339 A 
ATOM     30  C   UNL A   1      34.069  27.731  24.223  1.00  0.00     0.046 C 
ATOM     31  O   UNL A   1      31.015  28.274  28.002  1.00  0.00    -0.246 OA
ENDBRANCH  13  14
ENDBRANCH  12  13
ENDBRANCH   9  12
ENDBRANCH   7   8
BRANCH   7  32
ATOM     32  C   UNL A   1      36.288  31.415  31.250  1.00  0.00     0.070 C 
BRANCH  32  33
ATOM     33  C   UNL A   1      35.133  32.447  31.156  1.00  0.00    -0.045 A 
ATOM     34  C   UNL A   1      34.779  32.981  29.883  1.00  0.00     0.005 A 
ATOM     35  C   UNL A   1      34.710  33.170  32.279  1.00  0.00     0.005 A 
ATOM     36  C   UNL A   1      34.079  34.193  29.742  1.00  0.00     0.021 A 
ATOM     37  C   UNL A   1      34.006  34.386  32.137  1.00  0.00     0.021 A 
ATOM     38  C   UNL A   1      33.706  34.899  30.876  1.00  0.00     0.041 A 
ATOM     39  Cl  UNL A   1      32.942  36.438  30.721  1.00  0.00    -0.084 Cl
ENDBRANCH  32  33
ENDBRANCH   7  32
ENDBRANCH   4   7
ENDBRANCH   2   3
ENDBRANCH   1   2
BRANCH   1  40
ATOM     40  C   UNL A   1      39.578  24.943  28.090  1.00  0.00     0.023 C 
BRANCH  40  41
ATOM     41  C   UNL A   1      39.618  24.540  26.615  1.00  0.00     0.116 C 
BRANCH  41  42
ATOM     42  N   UNL A   1      40.155  23.197  26.400  1.00  0.00    -0.352 N 
ATOM     43  C   UNL A   1      41.468  22.805  26.267  1.00  0.00     0.251 C 
ATOM     44  H   UNL A   1      39.488  22.476  26.343  1.00  0.00     0.163 HD
ATOM     45  O   UNL A   1      41.717  21.645  25.904  1.00  0.00    -0.269 OA
BRANCH  43  46
ATOM     46  C   UNL A   1      42.591  23.733  26.530  1.00  0.00     0.039 A 
ATOM     47  C   UNL A   1      43.144  24.459  25.467  1.00  0.00     0.014 A 
ATOM     48  C   UNL A   1      43.158  23.834  27.803  1.00  0.00     0.014 A 
ATOM     49  C   UNL A   1      44.207  25.340  25.692  1.00  0.00     0.010 A 
ATOM     50  C   UNL A   1      44.226  24.710  28.025  1.00  0.00     0.010 A 
ATOM     51  C   UNL A   1      44.736  25.499  26.981  1.00  0.00    -0.014 A 
BRANCH  51  52
ATOM     52  C   UNL A   1      45.660  26.641  27.213  1.00  0.00     0.031 A 
ATOM     53  C   UNL A   1      44.955  27.857  27.765  1.00  0.00     0.074 A 
ATOM     54  C   UNL A   1      46.959  26.456  27.546  1.00  0.00     0.049 A 
ATOM     55  N   UNL A   1      44.629  28.011  29.017  1.00  0.00    -0.248 NA
ATOM     56  C   UNL A   1      44.302  28.822  26.875  1.00  0.00     0.031 C 
ATOM     57  C   UNL A   1      47.413  25.495  28.558  1.00  0.00     0.029 A 
ATOM     58  N   UNL A   1      48.079  27.222  27.281  1.00  0.00    -0.354 N 
ATOM     59  C   UNL A   1      43.728  29.067  29.091  1.00  0.00     0.074 A 
ATOM     60  C   UNL A   1      43.546  29.526  27.733  1.00  0.00     0.031 C 
ATOM     61  C   UNL A   1      48.661  25.830  28.945  1.00  0.00     0.029 A 
ATOM     62  C   UNL A   1      49.144  26.956  28.143  1.00  0.00     0.049 A 
ATOM     63  H   UNL A   1      48.120  27.888  26.558  1.00  0.00     0.167 HD
ATOM     64  C   UNL A   1      43.203  29.517  30.267  1.00  0.00     0.031 A 
ATOM     65  C   UNL A   1      50.057  27.883  28.563  1.00  0.00     0.031 A 
ATOM     66  C   UNL A   1      43.733  28.883  31.439  1.00  0.00     0.049 A 
ATOM     67  C   UNL A   1      49.280  28.559  29.664  1.00  0.00     0.074 A 
ATOM     68  C   UNL A   1      43.353  27.972  32.399  1.00  0.00     0.029 A 
ATOM     69  N   UNL A   1      44.998  29.260  31.814  1.00  0.00    -0.354 N 
ATOM     70  N   UNL A   1      49.077  28.093  30.866  1.00  0.00    -0.248 NA
ATOM     71  C   UNL A   1      48.347  29.609  29.250  1.00  0.00     0.031 C 
ATOM     72  C   UNL A   1      44.573  27.527  33.006  1.00  0.00     0.029 A 
ATOM     73  C   UNL A   1      45.626  28.179  32.365  1.00  0.00     0.049 A 
ATOM     74  H   UNL A   1      45.387  30.158  31.705  1.00  0.00     0.167 HD
ATOM     75  C   UNL A   1      47.797  28.529  31.218  1.00  0.00     0.074 A 
ATOM     76  C   UNL A   1      47.411  29.467  30.180  1.00  0.00     0.031 C 
ATOM     77  C   UNL A   1      47.050  27.965  32.217  1.00  0.00     0.031 A 
BRANCH  64  78
ATOM     78  C   UNL A   1      42.375  30.741  30.440  1.00  0.00    -0.014 A 
ATOM     79  C   UNL A   1      41.000  30.546  30.671  1.00  0.00     0.010 A 
ATOM     80  C   UNL A   1      42.835  32.034  30.145  1.00  0.00     0.010 A 
ATOM     81  C   UNL A   1      40.090  31.594  30.549  1.00  0.00     0.020 A 
ATOM     82  C   UNL A   1      41.923  33.100  30.039  1.00  0.00     0.020 A 
ATOM     83  C   UNL A   1      40.553  32.865  30.218  1.00  0.00     0.054 A 
BRANCH  83  84
ATOM     84  S   UNL A   1      39.322  34.176  29.974  1.00  0.00     0.124 S 
ATOM     85  O   UNL A   1      40.078  35.175  29.220  1.00  0.00    -0.237 OA
ATOM     86  O   UNL A   1      38.279  33.479  29.222  1.00  0.00    -0.237 OA
ATOM     87  O   UNL A   1      38.954  34.563  31.330  1.00  0.00    -0.744 OA
ENDBRANCH  83  84
ENDBRANCH  64  78
BRANCH  65  88
ATOM     88  C   UNL A   1      50.803  28.639  27.505  1.00  0.00    -0.014 A 
ATOM     89  C   UNL A   1      51.010  27.985  26.273  1.00  0.00     0.010 A 
ATOM     90  C   UNL A   1      51.299  29.949  27.632  1.00  0.00     0.010 A 
ATOM     91  C   UNL A   1      51.523  28.662  25.163  1.00  0.00     0.020 A 
ATOM     92  C   UNL A   1      51.792  30.647  26.517  1.00  0.00     0.020 A 
ATOM     93  C   UNL A   1      51.858  30.008  25.279  1.00  0.00     0.054 A 
BRANCH  93  94
ATOM     94  S   UNL A   1      52.280  30.923  23.771  1.00  0.00     0.124 S 
ATOM     95  O   UNL A   1      51.688  32.233  24.022  1.00  0.00    -0.237 OA
ATOM     96  O   UNL A   1      53.741  30.876  23.789  1.00  0.00    -0.237 OA
ATOM     97  O   UNL A   1      51.651  30.146  22.707  1.00  0.00    -0.744 OA
ENDBRANCH  93  94
ENDBRANCH  65  88
BRANCH  77  98
ATOM     98  C   UNL A   1      47.733  26.939  33.070  1.00  0.00    -0.014 A 
ATOM     99  C   UNL A   1      47.983  25.657  32.557  1.00  0.00     0.010 A 
ATOM    100  C   UNL A   1      48.204  27.260  34.356  1.00  0.00     0.010 A 
ATOM    101  C   UNL A   1      48.724  24.730  33.291  1.00  0.00     0.020 A 
ATOM    102  C   UNL A   1      48.965  26.343  35.090  1.00  0.00     0.020 A 
ATOM    103  C   UNL A   1      49.228  25.085  34.544  1.00  0.00     0.054 A 
BRANCH 103 104
ATOM    104  S   UNL A   1      50.279  23.896  35.418  1.00  0.00     0.124 S 
ATOM    105  O   UNL A   1      51.494  23.892  34.608  1.00  0.00    -0.237 OA
ATOM    106  O   UNL A   1      50.410  24.503  36.741  1.00  0.00    -0.237 OA
ATOM    107  O   UNL A   1      49.507  22.655  35.385  1.00  0.00    -0.744 OA
ENDBRANCH 103 104
ENDBRANCH  77  98
ENDBRANCH  51  52
ENDBRANCH  43  46
ENDBRANCH  41  42
ENDBRANCH  40  41
ENDBRANCH   1  40
TORSDOF 20
ENDMDL
MODEL 3
REMARK VINA RESULT:     -10.8      4.040     10.972
REMARK SMILES Cc1oc2c(C)c3oc(=O)c(CCC(=O)N[C@H](Cc4ccc(Cl)cc4)C(=O)NCCCCNC(=O)c4ccc(-c5c6nc(c(-c7ccc(S(=O)(=O)[O-])cc7)c7ccc([nH]7)c(-c7ccc(S(=O)(=O)[O-])cc7)c7nc(c(-c8ccc(S(=O)(=O)[O-])cc8)c8ccc5[nH]8)C=C7)C=C6)cc4)c(C)c3cc2c1C
REMARK SMILES IDX 30 1 29 2 28 3 26 4 27 5 17 7 16 8 14 9 15 10 13 12 12 13
REMARK SMILES IDX 11 14 1 15 2 16 3 17 101 18 4 19 100 20 102 21 5 22 99 23
REMARK SMILES IDX 6 24 7 25 98 26 8 27 96 28 9 29 97 30 10 31 18 32 19 33
REMARK SMILES IDX 20 34 25 35 21 36 24 37 22 38 23 39 31 40 32 41 33 42 34 43
REMARK SMILES IDX 35 45 36 46 37 47 95 48 38 49 94 50 39 51 40 52 41 53 88 54
REMARK SMILES IDX 42 55 93 56 87 57 89 58 43 59 92 60 86 61 85 62 44 64 74 65
REMARK SMILES IDX 55 66 73 67 56 68 59 69 72 70 90 71 57 72 58 73 71 75 91 76
REMARK SMILES IDX 60 77 45 78 46 79 54 80 47 81 53 82 48 83 49 84 50 85 51 86
REMARK SMILES IDX 52 87 75 88 76 89 84 90 77 91 83 92 78 93 79 94 80 95 81 96
REMARK SMILES IDX 82 97 61 98 62 99 70 100 63 101 69 102 64 103 65 104 66 105
REMARK SMILES IDX 67 106 68 107
REMARK H PARENT 28 6 16 11 33 44 89 63 59 74
REMARK Flexibility Score: inf
ROOT
ATOM      1  C   UNL A   1      47.879  26.733  37.298  1.00  0.00     0.023 C 
ENDROOT
BRANCH   1   2
ATOM      2  C   UNL A   1      47.646  28.353  37.272  1.00  0.00     0.116 C 
BRANCH   2   3
ATOM      3  N   UNL A   1      46.216  29.167  37.672  1.00  0.00    -0.354 N 
ATOM      4  C   UNL A   1      45.051  29.923  37.478  1.00  0.00     0.242 C 
ATOM      5  O   UNL A   1      44.523  30.161  38.595  1.00  0.00    -0.273 OA
ATOM      6  H   UNL A   1      46.181  29.014  38.644  1.00  0.00     0.163 HD
BRANCH   4   7
ATOM      7  C   UNL A   1      44.050  30.525  36.171  1.00  0.00     0.175 C 
BRANCH   7   8
ATOM      8  N   UNL A   1      43.153  29.449  35.881  1.00  0.00    -0.344 N 
ATOM      9  C   UNL A   1      41.865  29.582  36.279  1.00  0.00     0.220 C 
ATOM     10  O   UNL A   1      41.192  28.564  36.505  1.00  0.00    -0.275 OA
ATOM     11  H   UNL A   1      43.461  28.641  35.411  1.00  0.00     0.164 HD
BRANCH   9  12
ATOM     12  C   UNL A   1      41.282  30.997  36.342  1.00  0.00     0.105 C 
BRANCH  12  13
ATOM     13  C   UNL A   1      40.044  31.549  35.441  1.00  0.00     0.053 C 
BRANCH  13  14
ATOM     14  C   UNL A   1      38.828  30.960  34.396  1.00  0.00     0.042 A 
ATOM     15  C   UNL A   1      33.467  34.818  29.433  1.00  0.00     0.088 C 
ATOM     16  C   UNL A   1      34.236  33.980  30.361  1.00  0.00     0.105 A 
ATOM     17  O   UNL A   1      34.614  32.718  29.958  1.00  0.00    -0.461 OA
ATOM     18  C   UNL A   1      34.728  34.271  31.608  1.00  0.00    -0.002 A 
ATOM     19  C   UNL A   1      35.410  32.206  30.956  1.00  0.00     0.141 A 
ATOM     20  C   UNL A   1      35.505  33.166  31.946  1.00  0.00     0.025 A 
ATOM     21  C   UNL A   1      34.610  35.443  32.505  1.00  0.00     0.049 C 
ATOM     22  C   UNL A   1      36.122  31.004  31.003  1.00  0.00     0.036 A 
ATOM     23  C   UNL A   1      36.315  32.985  33.040  1.00  0.00     0.024 A 
ATOM     24  C   UNL A   1      36.195  30.008  29.882  1.00  0.00     0.052 C 
ATOM     25  C   UNL A   1      36.862  30.869  32.215  1.00  0.00     0.145 A 
ATOM     26  C   UNL A   1      36.861  31.758  33.278  1.00  0.00     0.022 A 
ATOM     27  O   UNL A   1      37.795  29.853  32.288  1.00  0.00    -0.422 OA
ATOM     28  C   UNL A   1      37.676  31.651  34.486  1.00  0.00    -0.030 A 
ATOM     29  C   UNL A   1      38.652  29.732  33.373  1.00  0.00     0.339 A 
ATOM     30  C   UNL A   1      37.354  32.607  35.611  1.00  0.00     0.046 C 
ATOM     31  O   UNL A   1      39.139  28.608  33.439  1.00  0.00    -0.246 OA
ENDBRANCH  13  14
ENDBRANCH  12  13
ENDBRANCH   9  12
ENDBRANCH   7   8
BRANCH   7  32
ATOM     32  C   UNL A   1      44.335  31.204  34.756  1.00  0.00     0.070 C 
BRANCH  32  33
ATOM     33  C   UNL A   1      43.443  31.823  33.649  1.00  0.00    -0.045 A 
ATOM     34  C   UNL A   1      43.128  33.213  33.703  1.00  0.00     0.005 A 
ATOM     35  C   UNL A   1      42.614  31.024  32.850  1.00  0.00     0.005 A 
ATOM     36  C   UNL A   1      42.021  33.762  33.032  1.00  0.00     0.021 A 
ATOM     37  C   UNL A   1      41.503  31.576  32.176  1.00  0.00     0.021 A 
ATOM     38  C   UNL A   1      41.203  32.934  32.278  1.00  0.00     0.041 A 
ATOM     39  Cl  UNL A   1      39.782  33.570  31.536  1.00  0.00    -0.084 Cl
ENDBRANCH  32  33
ENDBRANCH   7  32
ENDBRANCH   4   7
ENDBRANCH   2   3
ENDBRANCH   1   2
BRANCH   1  40
ATOM     40  C   UNL A   1      46.842  25.782  37.939  1.00  0.00     0.023 C 
BRANCH  40  41
ATOM     41  C   UNL A   1      46.148  24.764  37.033  1.00  0.00     0.116 C 
BRANCH  41  42
ATOM     42  N   UNL A   1      44.699  24.718  37.225  1.00  0.00    -0.352 N 
ATOM     43  C   UNL A   1      43.701  24.825  36.282  1.00  0.00     0.251 C 
ATOM     44  H   UNL A   1      44.396  24.594  38.153  1.00  0.00     0.163 HD
ATOM     45  O   UNL A   1      42.525  24.949  36.660  1.00  0.00    -0.269 OA
BRANCH  43  46
ATOM     46  C   UNL A   1      43.992  24.811  34.831  1.00  0.00     0.039 A 
ATOM     47  C   UNL A   1      43.954  26.013  34.112  1.00  0.00     0.014 A 
ATOM     48  C   UNL A   1      44.224  23.611  34.155  1.00  0.00     0.014 A 
ATOM     49  C   UNL A   1      44.223  26.023  32.740  1.00  0.00     0.010 A 
ATOM     50  C   UNL A   1      44.487  23.622  32.781  1.00  0.00     0.010 A 
ATOM     51  C   UNL A   1      44.526  24.830  32.068  1.00  0.00    -0.014 A 
BRANCH  51  52
ATOM     52  C   UNL A   1      45.077  24.933  30.690  1.00  0.00     0.031 A 
ATOM     53  C   UNL A   1      44.108  24.450  29.637  1.00  0.00     0.074 A 
ATOM     54  C   UNL A   1      45.962  25.896  30.342  1.00  0.00     0.049 A 
ATOM     55  N   UNL A   1      43.117  25.157  29.173  1.00  0.00    -0.248 NA
ATOM     56  C   UNL A   1      44.020  23.030  29.285  1.00  0.00     0.031 C 
ATOM     57  C   UNL A   1      45.818  27.309  30.711  1.00  0.00     0.029 A 
ATOM     58  N   UNL A   1      46.982  25.893  29.408  1.00  0.00    -0.354 N 
ATOM     59  C   UNL A   1      42.270  24.296  28.487  1.00  0.00     0.074 A 
ATOM     60  C   UNL A   1      42.867  22.984  28.598  1.00  0.00     0.031 C 
ATOM     61  C   UNL A   1      46.597  28.052  29.898  1.00  0.00     0.029 A 
ATOM     62  C   UNL A   1      47.379  27.175  29.023  1.00  0.00     0.049 A 
ATOM     63  H   UNL A   1      47.387  25.071  29.051  1.00  0.00     0.167 HD
ATOM     64  C   UNL A   1      41.141  24.713  27.846  1.00  0.00     0.031 A 
ATOM     65  C   UNL A   1      47.828  27.511  27.776  1.00  0.00     0.031 A 
ATOM     66  C   UNL A   1      40.946  26.135  27.847  1.00  0.00     0.049 A 
ATOM     67  C   UNL A   1      46.520  27.649  27.038  1.00  0.00     0.074 A 
ATOM     68  C   UNL A   1      40.145  27.081  28.445  1.00  0.00     0.029 A 
ATOM     69  N   UNL A   1      41.743  26.857  26.995  1.00  0.00    -0.354 N 
ATOM     70  N   UNL A   1      45.698  28.660  27.105  1.00  0.00    -0.248 NA
ATOM     71  C   UNL A   1      45.926  26.409  26.533  1.00  0.00     0.031 C 
ATOM     72  C   UNL A   1      40.825  28.329  28.259  1.00  0.00     0.029 A 
ATOM     73  C   UNL A   1      42.012  28.065  27.575  1.00  0.00     0.049 A 
ATOM     74  H   UNL A   1      42.067  26.556  26.116  1.00  0.00     0.167 HD
ATOM     75  C   UNL A   1      44.421  28.103  26.989  1.00  0.00     0.074 A 
ATOM     76  C   UNL A   1      44.638  26.714  26.629  1.00  0.00     0.031 C 
ATOM     77  C   UNL A   1      43.275  28.742  27.379  1.00  0.00     0.031 A 
BRANCH  64  78
ATOM     78  C   UNL A   1      40.286  23.885  26.954  1.00  0.00    -0.014 A 
ATOM     79  C   UNL A   1      39.078  24.463  26.520  1.00  0.00     0.010 A 
ATOM     80  C   UNL A   1      40.497  22.514  26.736  1.00  0.00     0.010 A 
ATOM     81  C   UNL A   1      38.072  23.690  25.942  1.00  0.00     0.020 A 
ATOM     82  C   UNL A   1      39.492  21.733  26.136  1.00  0.00     0.020 A 
ATOM     83  C   UNL A   1      38.278  22.325  25.766  1.00  0.00     0.054 A 
BRANCH  83  84
ATOM     84  S   UNL A   1      36.903  21.343  25.100  1.00  0.00     0.124 S 
ATOM     85  O   UNL A   1      35.869  21.528  26.117  1.00  0.00    -0.237 OA
ATOM     86  O   UNL A   1      36.649  22.004  23.820  1.00  0.00    -0.237 OA
ATOM     87  O   UNL A   1      37.452  19.997  25.005  1.00  0.00    -0.744 OA
ENDBRANCH  83  84
ENDBRANCH  64  78
BRANCH  65  88
ATOM     88  C   UNL A   1      48.995  26.740  27.237  1.00  0.00    -0.014 A 
ATOM     89  C   UNL A   1      49.457  27.089  25.951  1.00  0.00     0.010 A 
ATOM     90  C   UNL A   1      49.677  25.710  27.910  1.00  0.00     0.010 A 
ATOM     91  C   UNL A   1      50.647  26.566  25.435  1.00  0.00     0.020 A 
ATOM     92  C   UNL A   1      50.886  25.197  27.413  1.00  0.00     0.020 A 
ATOM     93  C   UNL A   1      51.383  25.665  26.198  1.00  0.00     0.054 A 
BRANCH  93  94
ATOM     94  S   UNL A   1      53.038  25.198  25.618  1.00  0.00     0.124 S 
ATOM     95  O   UNL A   1      52.903  23.760  25.407  1.00  0.00    -0.237 OA
ATOM     96  O   UNL A   1      53.171  26.005  24.406  1.00  0.00    -0.237 OA
ATOM     97  O   UNL A   1      53.913  25.590  26.719  1.00  0.00    -0.744 OA
ENDBRANCH  93  94
ENDBRANCH  65  88
BRANCH  77  98
ATOM     98  C   UNL A   1      43.413  30.177  27.790  1.00  0.00    -0.014 A 
ATOM     99  C   UNL A   1      43.252  30.538  29.136  1.00  0.00     0.010 A 
ATOM    100  C   UNL A   1      43.782  31.168  26.860  1.00  0.00     0.010 A 
ATOM    101  C   UNL A   1      43.495  31.847  29.555  1.00  0.00     0.020 A 
ATOM    102  C   UNL A   1      44.048  32.477  27.276  1.00  0.00     0.020 A 
ATOM    103  C   UNL A   1      43.913  32.804  28.627  1.00  0.00     0.054 A 
BRANCH 103 104
ATOM    104  S   UNL A   1      44.328  34.462  29.226  1.00  0.00     0.124 S 
ATOM    105  O   UNL A   1      43.013  35.046  29.476  1.00  0.00    -0.237 OA
ATOM    106  O   UNL A   1      45.124  34.177  30.417  1.00  0.00    -0.237 OA
ATOM    107  O   UNL A   1      45.071  35.059  28.118  1.00  0.00    -0.744 OA
ENDBRANCH 103 104
ENDBRANCH  77  98
ENDBRANCH  51  52
ENDBRANCH  43  46
ENDBRANCH  41  42
ENDBRANCH  40  41
ENDBRANCH   1  40
TORSDOF 20
ENDMDL
