MODEL 1
REMARK VINA RESULT:     -11.0      0.000      0.000
REMARK SMILES CC[C@@H](C)[C@H](NC(=O)[C@H](C)N1C(=O)N2CCC3=c4cc(OC)ccc4=N[C@H]3[C@@]2(C)C1=O)C(=O)NCCCCNC(=O)c1ccc(-c2c3nc(c(-c4ccc(S(=O)(=O)[O-])cc4)c4ccc([nH]4)c(-c4ccc(S(=O)(=O)[O-])cc4)c4nc(c(-c5ccc(S(=O)(=O)[O-])cc5)c5ccc2[nH]5)C=C4)C=C3)cc1
REMARK SMILES IDX 36 1 35 2 34 3 32 4 33 5 5 7 3 8 4 9 2 10 1 11 6 12 7 13
REMARK SMILES IDX 8 15 9 16 10 17 11 18 12 19 30 20 14 21 13 22 28 23 31 24
REMARK SMILES IDX 15 25 27 26 29 27 16 28 17 29 26 30 18 31 25 32 19 33 24 34
REMARK SMILES IDX 20 35 23 36 21 37 22 38 37 39 38 40 39 41 40 42 41 44 42 45
REMARK SMILES IDX 43 46 101 47 44 48 100 49 45 50 46 51 47 52 94 53 48 54
REMARK SMILES IDX 99 55 93 56 95 57 49 58 98 59 92 60 91 61 50 63 80 64 61 65
REMARK SMILES IDX 79 66 62 67 65 68 78 69 96 70 63 71 64 72 77 74 97 75 66 76
REMARK SMILES IDX 51 77 52 78 60 79 53 80 59 81 54 82 55 83 56 84 57 85 58 86
REMARK SMILES IDX 81 87 82 88 90 89 83 90 89 91 84 92 85 93 86 94 87 95 88 96
REMARK SMILES IDX 67 97 68 98 76 99 69 100 75 101 70 102 71 103 72 104 73 105
REMARK SMILES IDX 74 106
REMARK H PARENT 34 6 6 14 39 43 95 62 65 73
REMARK Flexibility Score: inf
ROOT
ATOM      1  C   UNL A   1      36.254  22.327  25.381  1.00  0.00     0.023 C 
ENDROOT
BRANCH   1   2
ATOM      2  C   UNL A   1      35.254  23.370  24.909  1.00  0.00     0.116 C 
BRANCH   2   3
ATOM      3  N   UNL A   1      35.080  23.407  23.476  1.00  0.00    -0.354 N 
ATOM      4  C   UNL A   1      33.985  23.215  22.706  1.00  0.00     0.242 C 
ATOM      5  O   UNL A   1      34.056  23.567  21.526  1.00  0.00    -0.273 OA
ATOM      6  H   UNL A   1      35.900  23.607  22.971  1.00  0.00     0.163 HD
BRANCH   4   7
ATOM      7  C   UNL A   1      32.694  22.588  23.253  1.00  0.00     0.174 C 
BRANCH   7   8
ATOM      8  C   UNL A   1      32.649  21.005  23.240  1.00  0.00     0.018 C 
ATOM      9  C   UNL A   1      31.907  20.420  22.022  1.00  0.00     0.010 C 
BRANCH   8  10
ATOM     10  C   UNL A   1      32.194  20.292  24.543  1.00  0.00     0.002 C 
ATOM     11  C   UNL A   1      33.297  20.178  25.602  1.00  0.00     0.004 C 
ENDBRANCH   8  10
ENDBRANCH   7   8
BRANCH   7  12
ATOM     12  N   UNL A   1      31.555  23.298  22.633  1.00  0.00    -0.342 N 
ATOM     13  C   UNL A   1      31.166  24.598  22.922  1.00  0.00     0.243 C 
ATOM     14  H   UNL A   1      31.030  22.809  21.959  1.00  0.00     0.164 HD
ATOM     15  O   UNL A   1      31.276  25.383  21.968  1.00  0.00    -0.273 OA
BRANCH  13  16
ATOM     16  C   UNL A   1      30.758  25.142  24.367  1.00  0.00     0.181 C 
ATOM     17  C   UNL A   1      29.583  26.087  24.217  1.00  0.00     0.042 C 
BRANCH  16  18
ATOM     18  N   UNL A   1      31.864  25.632  25.238  1.00  0.00    -0.250 N 
ATOM     19  C   UNL A   1      33.043  26.316  24.916  1.00  0.00     0.328 C 
ATOM     20  C   UNL A   1      31.543  26.069  26.461  1.00  0.00     0.259 C 
ATOM     21  N   UNL A   1      33.184  27.394  25.977  1.00  0.00    -0.307 N 
ATOM     22  O   UNL A   1      33.709  26.255  23.927  1.00  0.00    -0.248 OA
ATOM     23  C   UNL A   1      31.807  27.546  26.420  1.00  0.00     0.147 C 
ATOM     24  O   UNL A   1      31.414  25.375  27.461  1.00  0.00    -0.271 OA
ATOM     25  C   UNL A   1      33.902  28.705  25.761  1.00  0.00     0.127 C 
ATOM     26  C   UNL A   1      31.248  28.404  25.213  1.00  0.00     0.168 C 
ATOM     27  C   UNL A   1      31.671  28.097  27.837  1.00  0.00     0.048 C 
ATOM     28  C   UNL A   1      32.922  30.068  25.645  1.00  0.00     0.055 C 
ATOM     29  C   UNL A   1      31.395  29.878  25.265  1.00  0.00    -0.032 C 
ATOM     30  N   UNL A   1      30.653  27.990  23.917  1.00  0.00    -0.274 NA
ATOM     31  C   UNL A   1      30.715  30.374  24.194  1.00  0.00     0.005 A 
ATOM     32  C   UNL A   1      30.745  29.138  23.298  1.00  0.00     0.066 A 
ATOM     33  C   UNL A   1      29.250  30.699  24.133  1.00  0.00     0.056 A 
ATOM     34  C   UNL A   1      30.508  29.437  21.881  1.00  0.00     0.032 A 
ATOM     35  C   UNL A   1      28.622  30.486  22.940  1.00  0.00     0.119 A 
ATOM     36  C   UNL A   1      29.422  30.209  21.745  1.00  0.00     0.048 A 
BRANCH  35  37
ATOM     37  O   UNL A   1      27.271  30.184  22.857  1.00  0.00    -0.497 OA
ATOM     38  C   UNL A   1      26.982  28.806  23.198  1.00  0.00     0.278 C 
ENDBRANCH  35  37
ENDBRANCH  16  18
ENDBRANCH  13  16
ENDBRANCH   7  12
ENDBRANCH   4   7
ENDBRANCH   2   3
ENDBRANCH   1   2
BRANCH   1  39
ATOM     39  C   UNL A   1      37.721  22.699  25.198  1.00  0.00     0.023 C 
BRANCH  39  40
ATOM     40  C   UNL A   1      38.660  22.306  26.328  1.00  0.00     0.116 C 
BRANCH  40  41
ATOM     41  N   UNL A   1      39.903  21.690  25.897  1.00  0.00    -0.352 N 
ATOM     42  C   UNL A   1      41.178  22.186  26.067  1.00  0.00     0.251 C 
ATOM     43  H   UNL A   1      39.826  20.825  25.434  1.00  0.00     0.163 HD
ATOM     44  O   UNL A   1      42.151  21.582  25.631  1.00  0.00    -0.269 OA
BRANCH  42  45
ATOM     45  C   UNL A   1      41.333  23.499  26.729  1.00  0.00     0.039 A 
ATOM     46  C   UNL A   1      41.242  24.677  25.983  1.00  0.00     0.014 A 
ATOM     47  C   UNL A   1      41.716  23.535  28.072  1.00  0.00     0.014 A 
ATOM     48  C   UNL A   1      41.714  25.863  26.531  1.00  0.00     0.010 A 
ATOM     49  C   UNL A   1      42.100  24.749  28.646  1.00  0.00     0.010 A 
ATOM     50  C   UNL A   1      42.159  25.914  27.864  1.00  0.00    -0.014 A 
BRANCH  50  51
ATOM     51  C   UNL A   1      42.681  27.196  28.404  1.00  0.00     0.031 A 
ATOM     52  C   UNL A   1      44.139  27.555  28.298  1.00  0.00     0.074 A 
ATOM     53  C   UNL A   1      41.806  28.084  28.918  1.00  0.00     0.049 A 
ATOM     54  N   UNL A   1      44.736  28.669  28.641  1.00  0.00    -0.248 NA
ATOM     55  C   UNL A   1      45.049  26.541  27.738  1.00  0.00     0.031 C 
ATOM     56  C   UNL A   1      40.366  27.854  29.056  1.00  0.00     0.029 A 
ATOM     57  N   UNL A   1      41.983  29.368  29.365  1.00  0.00    -0.354 N 
ATOM     58  C   UNL A   1      46.084  28.487  28.357  1.00  0.00     0.074 A 
ATOM     59  C   UNL A   1      46.227  27.145  27.837  1.00  0.00     0.031 C 
ATOM     60  C   UNL A   1      39.780  28.988  29.463  1.00  0.00     0.029 A 
ATOM     61  C   UNL A   1      40.806  30.002  29.685  1.00  0.00     0.049 A 
ATOM     62  H   UNL A   1      42.868  29.795  29.449  1.00  0.00     0.167 HD
ATOM     63  C   UNL A   1      47.107  29.362  28.505  1.00  0.00     0.031 A 
ATOM     64  C   UNL A   1      40.567  31.260  30.104  1.00  0.00     0.031 A 
ATOM     65  C   UNL A   1      46.959  30.703  29.010  1.00  0.00     0.049 A 
ATOM     66  C   UNL A   1      41.718  32.202  30.289  1.00  0.00     0.074 A 
ATOM     67  C   UNL A   1      47.938  31.666  29.185  1.00  0.00     0.029 A 
ATOM     68  N   UNL A   1      45.761  31.274  29.411  1.00  0.00    -0.354 N 
ATOM     69  N   UNL A   1      42.987  32.001  30.031  1.00  0.00    -0.248 NA
ATOM     70  C   UNL A   1      41.411  33.530  30.835  1.00  0.00     0.031 C 
ATOM     71  C   UNL A   1      47.340  32.801  29.741  1.00  0.00     0.029 A 
ATOM     72  C   UNL A   1      45.979  32.566  29.859  1.00  0.00     0.049 A 
ATOM     73  H   UNL A   1      44.884  30.828  29.382  1.00  0.00     0.167 HD
ATOM     74  C   UNL A   1      43.636  33.174  30.395  1.00  0.00     0.074 A 
ATOM     75  C   UNL A   1      42.613  34.091  30.862  1.00  0.00     0.031 C 
ATOM     76  C   UNL A   1      44.960  33.458  30.353  1.00  0.00     0.031 A 
BRANCH  63  77
ATOM     77  C   UNL A   1      48.493  28.906  28.127  1.00  0.00    -0.014 A 
ATOM     78  C   UNL A   1      48.904  28.967  26.782  1.00  0.00     0.010 A 
ATOM     79  C   UNL A   1      49.354  28.334  29.079  1.00  0.00     0.010 A 
ATOM     80  C   UNL A   1      50.145  28.455  26.394  1.00  0.00     0.020 A 
ATOM     81  C   UNL A   1      50.607  27.840  28.699  1.00  0.00     0.020 A 
ATOM     82  C   UNL A   1      50.987  27.888  27.355  1.00  0.00     0.054 A 
BRANCH  82  83
ATOM     83  S   UNL A   1      52.602  27.238  26.841  1.00  0.00     0.124 S 
ATOM     84  O   UNL A   1      52.358  25.801  26.803  1.00  0.00    -0.237 OA
ATOM     85  O   UNL A   1      52.810  27.878  25.544  1.00  0.00    -0.237 OA
ATOM     86  O   UNL A   1      53.502  27.695  27.898  1.00  0.00    -0.744 OA
ENDBRANCH  82  83
ENDBRANCH  63  77
BRANCH  64  87
ATOM     87  C   UNL A   1      39.159  31.675  30.345  1.00  0.00    -0.014 A 
ATOM     88  C   UNL A   1      38.351  32.099  29.273  1.00  0.00     0.010 A 
ATOM     89  C   UNL A   1      38.670  31.781  31.658  1.00  0.00     0.010 A 
ATOM     90  C   UNL A   1      37.109  32.689  29.514  1.00  0.00     0.020 A 
ATOM     91  C   UNL A   1      37.415  32.347  31.900  1.00  0.00     0.020 A 
ATOM     92  C   UNL A   1      36.660  32.831  30.828  1.00  0.00     0.054 A 
BRANCH  92  93
ATOM     93  S   UNL A   1      35.086  33.681  31.128  1.00  0.00     0.124 S 
ATOM     94  O   UNL A   1      34.888  34.394  29.868  1.00  0.00    -0.237 OA
ATOM     95  O   UNL A   1      34.164  32.577  31.376  1.00  0.00    -0.237 OA
ATOM     96  O   UNL A   1      35.370  34.524  32.286  1.00  0.00    -0.744 OA
ENDBRANCH  92  93
ENDBRANCH  64  87
BRANCH  76  97
ATOM     97  C   UNL A   1      45.404  34.802  30.858  1.00  0.00    -0.014 A 
ATOM     98  C   UNL A   1      45.627  35.857  29.955  1.00  0.00     0.010 A 
ATOM     99  C   UNL A   1      45.709  34.985  32.220  1.00  0.00     0.010 A 
ATOM    100  C   UNL A   1      46.174  37.064  30.398  1.00  0.00     0.020 A 
ATOM    101  C   UNL A   1      46.235  36.199  32.669  1.00  0.00     0.020 A 
ATOM    102  C   UNL A   1      46.485  37.223  31.751  1.00  0.00     0.054 A 
BRANCH 102 103
ATOM    103  S   UNL A   1      47.214  38.787  32.309  1.00  0.00     0.124 S 
ATOM    104  O   UNL A   1      46.035  39.554  32.699  1.00  0.00    -0.237 OA
ATOM    105  O   UNL A   1      48.083  38.366  33.407  1.00  0.00    -0.237 OA
ATOM    106  O   UNL A   1      47.917  39.278  31.125  1.00  0.00    -0.744 OA
ENDBRANCH 102 103
ENDBRANCH  76  97
ENDBRANCH  50  51
ENDBRANCH  42  45
ENDBRANCH  40  41
ENDBRANCH  39  40
ENDBRANCH   1  39
TORSDOF 20
ENDMDL
MODEL 2
REMARK VINA RESULT:     -10.8      2.045      3.677
REMARK SMILES CC[C@@H](C)[C@H](NC(=O)[C@H](C)N1C(=O)N2CCC3=c4cc(OC)ccc4=N[C@H]3[C@@]2(C)C1=O)C(=O)NCCCCNC(=O)c1ccc(-c2c3nc(c(-c4ccc(S(=O)(=O)[O-])cc4)c4ccc([nH]4)c(-c4ccc(S(=O)(=O)[O-])cc4)c4nc(c(-c5ccc(S(=O)(=O)[O-])cc5)c5ccc2[nH]5)C=C4)C=C3)cc1
REMARK SMILES IDX 36 1 35 2 34 3 32 4 33 5 5 7 3 8 4 9 2 10 1 11 6 12 7 13
REMARK SMILES IDX 8 15 9 16 10 17 11 18 12 19 30 20 14 21 13 22 28 23 31 24
REMARK SMILES IDX 15 25 27 26 29 27 16 28 17 29 26 30 18 31 25 32 19 33 24 34
REMARK SMILES IDX 20 35 23 36 21 37 22 38 37 39 38 40 39 41 40 42 41 44 42 45
REMARK SMILES IDX 43 46 101 47 44 48 100 49 45 50 46 51 47 52 94 53 48 54
REMARK SMILES IDX 99 55 93 56 95 57 49 58 98 59 92 60 91 61 50 63 80 64 61 65
REMARK SMILES IDX 79 66 62 67 65 68 78 69 96 70 63 71 64 72 77 74 97 75 66 76
REMARK SMILES IDX 51 77 52 78 60 79 53 80 59 81 54 82 55 83 56 84 57 85 58 86
REMARK SMILES IDX 81 87 82 88 90 89 83 90 89 91 84 92 85 93 86 94 87 95 88 96
REMARK SMILES IDX 67 97 68 98 76 99 69 100 75 101 70 102 71 103 72 104 73 105
REMARK SMILES IDX 74 106
REMARK H PARENT 34 6 6 14 39 43 95 62 65 73
REMARK Flexibility Score: inf
ROOT
ATOM      1  C   UNL A   1      38.234  23.453  26.584  1.00  0.00     0.023 C 
ENDROOT
BRANCH   1   2
ATOM      2  C   UNL A   1      37.167  24.105  25.720  1.00  0.00     0.116 C 
BRANCH   2   3
ATOM      3  N   UNL A   1      37.079  23.557  24.386  1.00  0.00    -0.354 N 
ATOM      4  C   UNL A   1      36.019  23.117  23.672  1.00  0.00     0.242 C 
ATOM      5  O   UNL A   1      36.186  22.949  22.461  1.00  0.00    -0.273 OA
ATOM      6  H   UNL A   1      37.941  23.493  23.915  1.00  0.00     0.163 HD
BRANCH   4   7
ATOM      7  C   UNL A   1      34.654  22.831  24.315  1.00  0.00     0.174 C 
BRANCH   7   8
ATOM      8  C   UNL A   1      34.621  21.615  25.328  1.00  0.00     0.018 C 
ATOM      9  C   UNL A   1      35.651  20.516  25.004  1.00  0.00     0.010 C 
BRANCH   8  10
ATOM     10  C   UNL A   1      33.237  20.983  25.643  1.00  0.00     0.002 C 
ATOM     11  C   UNL A   1      32.983  19.659  24.912  1.00  0.00     0.004 C 
ENDBRANCH   8  10
ENDBRANCH   7   8
BRANCH   7  12
ATOM     12  N   UNL A   1      33.643  22.836  23.237  1.00  0.00    -0.342 N 
ATOM     13  C   UNL A   1      32.998  23.963  22.746  1.00  0.00     0.243 C 
ATOM     14  H   UNL A   1      33.407  21.970  22.834  1.00  0.00     0.164 HD
ATOM     15  O   UNL A   1      33.253  24.214  21.558  1.00  0.00    -0.273 OA
BRANCH  13  16
ATOM     16  C   UNL A   1      32.124  24.980  23.612  1.00  0.00     0.181 C 
ATOM     17  C   UNL A   1      31.622  24.259  24.848  1.00  0.00     0.042 C 
BRANCH  16  18
ATOM     18  N   UNL A   1      31.101  25.780  22.881  1.00  0.00    -0.250 N 
ATOM     19  C   UNL A   1      29.867  26.289  23.305  1.00  0.00     0.328 C 
ATOM     20  C   UNL A   1      31.536  26.661  21.973  1.00  0.00     0.259 C 
ATOM     21  N   UNL A   1      29.800  27.698  22.742  1.00  0.00    -0.307 N 
ATOM     22  O   UNL A   1      29.100  25.848  24.107  1.00  0.00    -0.248 OA
ATOM     23  C   UNL A   1      31.209  28.004  22.557  1.00  0.00     0.147 C 
ATOM     24  O   UNL A   1      31.801  26.415  20.803  1.00  0.00    -0.271 OA
ATOM     25  C   UNL A   1      29.010  28.822  23.368  1.00  0.00     0.127 C 
ATOM     26  C   UNL A   1      31.598  28.314  24.060  1.00  0.00     0.168 C 
ATOM     27  C   UNL A   1      31.477  29.067  21.495  1.00  0.00     0.048 C 
ATOM     28  C   UNL A   1      29.915  30.025  24.121  1.00  0.00     0.055 C 
ATOM     29  C   UNL A   1      31.398  29.691  24.572  1.00  0.00    -0.032 C 
ATOM     30  N   UNL A   1      32.064  27.421  25.150  1.00  0.00    -0.274 NA
ATOM     31  C   UNL A   1      31.936  29.722  25.823  1.00  0.00     0.005 A 
ATOM     32  C   UNL A   1      31.859  28.234  26.153  1.00  0.00     0.066 A 
ATOM     33  C   UNL A   1      33.371  29.988  26.177  1.00  0.00     0.056 A 
ATOM     34  C   UNL A   1      31.927  27.950  27.592  1.00  0.00     0.032 A 
ATOM     35  C   UNL A   1      33.874  29.320  27.255  1.00  0.00     0.119 A 
ATOM     36  C   UNL A   1      32.959  28.600  28.144  1.00  0.00     0.048 A 
BRANCH  35  37
ATOM     37  O   UNL A   1      35.218  29.001  27.370  1.00  0.00    -0.497 OA
ATOM     38  C   UNL A   1      36.080  30.161  27.260  1.00  0.00     0.278 C 
ENDBRANCH  35  37
ENDBRANCH  16  18
ENDBRANCH  13  16
ENDBRANCH   7  12
ENDBRANCH   4   7
ENDBRANCH   2   3
ENDBRANCH   1   2
BRANCH   1  39
ATOM     39  C   UNL A   1      38.979  22.291  25.937  1.00  0.00     0.023 C 
BRANCH  39  40
ATOM     40  C   UNL A   1      39.658  21.316  26.888  1.00  0.00     0.116 C 
BRANCH  40  41
ATOM     41  N   UNL A   1      40.334  20.207  26.237  1.00  0.00    -0.352 N 
ATOM     42  C   UNL A   1      41.668  20.128  25.901  1.00  0.00     0.251 C 
ATOM     43  H   UNL A   1      39.778  19.426  26.012  1.00  0.00     0.163 HD
ATOM     44  O   UNL A   1      42.116  19.143  25.326  1.00  0.00    -0.269 OA
BRANCH  42  45
ATOM     45  C   UNL A   1      42.530  21.295  26.191  1.00  0.00     0.039 A 
ATOM     46  C   UNL A   1      43.063  21.473  27.469  1.00  0.00     0.014 A 
ATOM     47  C   UNL A   1      42.676  22.284  25.216  1.00  0.00     0.014 A 
ATOM     48  C   UNL A   1      43.577  22.715  27.822  1.00  0.00     0.010 A 
ATOM     49  C   UNL A   1      43.280  23.498  25.550  1.00  0.00     0.010 A 
ATOM     50  C   UNL A   1      43.682  23.747  26.872  1.00  0.00    -0.014 A 
BRANCH  50  51
ATOM     51  C   UNL A   1      44.213  25.069  27.295  1.00  0.00     0.031 A 
ATOM     52  C   UNL A   1      45.592  25.523  26.896  1.00  0.00     0.074 A 
ATOM     53  C   UNL A   1      43.402  25.903  27.976  1.00  0.00     0.049 A 
ATOM     54  N   UNL A   1      46.168  26.679  27.113  1.00  0.00    -0.248 NA
ATOM     55  C   UNL A   1      46.437  24.565  26.164  1.00  0.00     0.031 C 
ATOM     56  C   UNL A   1      42.038  25.578  28.403  1.00  0.00     0.029 A 
ATOM     57  N   UNL A   1      43.577  27.202  28.379  1.00  0.00    -0.354 N 
ATOM     58  C   UNL A   1      47.441  26.584  26.561  1.00  0.00     0.074 A 
ATOM     59  C   UNL A   1      47.567  25.248  26.023  1.00  0.00     0.031 C 
ATOM     60  C   UNL A   1      41.471  26.675  28.921  1.00  0.00     0.029 A 
ATOM     61  C   UNL A   1      42.449  27.759  28.931  1.00  0.00     0.049 A 
ATOM     62  H   UNL A   1      44.429  27.687  28.283  1.00  0.00     0.167 HD
ATOM     63  C   UNL A   1      48.411  27.528  26.500  1.00  0.00     0.031 A 
ATOM     64  C   UNL A   1      42.213  29.003  29.390  1.00  0.00     0.031 A 
ATOM     65  C   UNL A   1      48.276  28.862  27.025  1.00  0.00     0.049 A 
ATOM     66  C   UNL A   1      43.311  30.023  29.339  1.00  0.00     0.074 A 
ATOM     67  C   UNL A   1      49.201  29.891  26.999  1.00  0.00     0.029 A 
ATOM     68  N   UNL A   1      47.147  29.357  27.661  1.00  0.00    -0.354 N 
ATOM     69  N   UNL A   1      44.513  29.904  28.830  1.00  0.00    -0.248 NA
ATOM     70  C   UNL A   1      43.030  31.335  29.937  1.00  0.00     0.031 C 
ATOM     71  C   UNL A   1      48.652  30.990  27.665  1.00  0.00     0.029 A 
ATOM     72  C   UNL A   1      47.363  30.666  28.057  1.00  0.00     0.049 A 
ATOM     73  H   UNL A   1      46.315  28.852  27.810  1.00  0.00     0.167 HD
ATOM     74  C   UNL A   1      45.139  31.123  29.056  1.00  0.00     0.074 A 
ATOM     75  C   UNL A   1      44.172  31.975  29.721  1.00  0.00     0.031 C 
ATOM     76  C   UNL A   1      46.405  31.494  28.746  1.00  0.00     0.031 A 
BRANCH  63  77
ATOM     77  C   UNL A   1      49.719  27.160  25.849  1.00  0.00    -0.014 A 
ATOM     78  C   UNL A   1      50.821  26.806  26.650  1.00  0.00     0.010 A 
ATOM     79  C   UNL A   1      49.888  27.253  24.457  1.00  0.00     0.010 A 
ATOM     80  C   UNL A   1      52.070  26.562  26.072  1.00  0.00     0.020 A 
ATOM     81  C   UNL A   1      51.131  26.987  23.872  1.00  0.00     0.020 A 
ATOM     82  C   UNL A   1      52.219  26.661  24.687  1.00  0.00     0.054 A 
BRANCH  82  83
ATOM     83  S   UNL A   1      53.843  26.328  23.947  1.00  0.00     0.124 S 
ATOM     84  O   UNL A   1      54.607  27.508  24.336  1.00  0.00    -0.237 OA
ATOM     85  O   UNL A   1      54.241  25.077  24.591  1.00  0.00    -0.237 OA
ATOM     86  O   UNL A   1      53.548  26.212  22.520  1.00  0.00    -0.744 OA
ENDBRANCH  82  83
ENDBRANCH  63  77
BRANCH  64  87
ATOM     87  C   UNL A   1      40.858  29.326  29.911  1.00  0.00    -0.014 A 
ATOM     88  C   UNL A   1      39.918  29.974  29.089  1.00  0.00     0.010 A 
ATOM     89  C   UNL A   1      40.555  29.115  31.267  1.00  0.00     0.010 A 
ATOM     90  C   UNL A   1      38.729  30.471  29.627  1.00  0.00     0.020 A 
ATOM     91  C   UNL A   1      39.353  29.587  31.804  1.00  0.00     0.020 A 
ATOM     92  C   UNL A   1      38.466  30.294  30.987  1.00  0.00     0.054 A 
BRANCH  92  93
ATOM     93  S   UNL A   1      36.962  31.024  31.689  1.00  0.00     0.124 S 
ATOM     94  O   UNL A   1      36.638  30.075  32.752  1.00  0.00    -0.237 OA
ATOM     95  O   UNL A   1      37.416  32.337  32.137  1.00  0.00    -0.237 OA
ATOM     96  O   UNL A   1      36.034  31.040  30.562  1.00  0.00    -0.744 OA
ENDBRANCH  92  93
ENDBRANCH  64  87
BRANCH  76  97
ATOM     97  C   UNL A   1      46.849  32.872  29.153  1.00  0.00    -0.014 A 
ATOM     98  C   UNL A   1      47.384  33.091  30.435  1.00  0.00     0.010 A 
ATOM     99  C   UNL A   1      46.629  33.971  28.302  1.00  0.00     0.010 A 
ATOM    100  C   UNL A   1      47.667  34.387  30.872  1.00  0.00     0.020 A 
ATOM    101  C   UNL A   1      46.932  35.266  28.728  1.00  0.00     0.020 A 
ATOM    102  C   UNL A   1      47.428  35.468  30.018  1.00  0.00     0.054 A 
BRANCH 102 103
ATOM    103  S   UNL A   1      47.780  37.148  30.605  1.00  0.00     0.124 S 
ATOM    104  O   UNL A   1      48.987  37.489  29.857  1.00  0.00    -0.237 OA
ATOM    105  O   UNL A   1      46.575  37.882  30.226  1.00  0.00    -0.237 OA
ATOM    106  O   UNL A   1      47.964  36.974  32.045  1.00  0.00    -0.744 OA
ENDBRANCH 102 103
ENDBRANCH  76  97
ENDBRANCH  50  51
ENDBRANCH  42  45
ENDBRANCH  40  41
ENDBRANCH  39  40
ENDBRANCH   1  39
TORSDOF 20
ENDMDL
MODEL 3
REMARK VINA RESULT:     -10.7      2.229      8.284
REMARK SMILES CC[C@@H](C)[C@H](NC(=O)[C@H](C)N1C(=O)N2CCC3=c4cc(OC)ccc4=N[C@H]3[C@@]2(C)C1=O)C(=O)NCCCCNC(=O)c1ccc(-c2c3nc(c(-c4ccc(S(=O)(=O)[O-])cc4)c4ccc([nH]4)c(-c4ccc(S(=O)(=O)[O-])cc4)c4nc(c(-c5ccc(S(=O)(=O)[O-])cc5)c5ccc2[nH]5)C=C4)C=C3)cc1
REMARK SMILES IDX 36 1 35 2 34 3 32 4 33 5 5 7 3 8 4 9 2 10 1 11 6 12 7 13
REMARK SMILES IDX 8 15 9 16 10 17 11 18 12 19 30 20 14 21 13 22 28 23 31 24
REMARK SMILES IDX 15 25 27 26 29 27 16 28 17 29 26 30 18 31 25 32 19 33 24 34
REMARK SMILES IDX 20 35 23 36 21 37 22 38 37 39 38 40 39 41 40 42 41 44 42 45
REMARK SMILES IDX 43 46 101 47 44 48 100 49 45 50 46 51 47 52 94 53 48 54
REMARK SMILES IDX 99 55 93 56 95 57 49 58 98 59 92 60 91 61 50 63 80 64 61 65
REMARK SMILES IDX 79 66 62 67 65 68 78 69 96 70 63 71 64 72 77 74 97 75 66 76
REMARK SMILES IDX 51 77 52 78 60 79 53 80 59 81 54 82 55 83 56 84 57 85 58 86
REMARK SMILES IDX 81 87 82 88 90 89 83 90 89 91 84 92 85 93 86 94 87 95 88 96
REMARK SMILES IDX 67 97 68 98 76 99 69 100 75 101 70 102 71 103 72 104 73 105
REMARK SMILES IDX 74 106
REMARK H PARENT 34 6 6 14 39 43 95 62 65 73
REMARK Flexibility Score: inf
ROOT
ATOM      1  C   UNL A   1      38.428  23.189  26.483  1.00  0.00     0.023 C 
ENDROOT
BRANCH   1   2
ATOM      2  C   UNL A   1      37.238  23.765  25.732  1.00  0.00     0.116 C 
BRANCH   2   3
ATOM      3  N   UNL A   1      37.146  23.326  24.359  1.00  0.00    -0.354 N 
ATOM      4  C   UNL A   1      36.077  23.011  23.594  1.00  0.00     0.242 C 
ATOM      5  O   UNL A   1      36.259  22.925  22.376  1.00  0.00    -0.273 OA
ATOM      6  H   UNL A   1      38.012  23.243  23.899  1.00  0.00     0.163 HD
BRANCH   4   7
ATOM      7  C   UNL A   1      34.682  22.767  24.189  1.00  0.00     0.174 C 
BRANCH   7   8
ATOM      8  C   UNL A   1      34.557  21.500  25.130  1.00  0.00     0.018 C 
ATOM      9  C   UNL A   1      33.272  20.683  24.895  1.00  0.00     0.010 C 
BRANCH   8  10
ATOM     10  C   UNL A   1      34.792  21.713  26.651  1.00  0.00     0.002 C 
ATOM     11  C   UNL A   1      33.696  22.540  27.335  1.00  0.00     0.004 C 
ENDBRANCH   8  10
ENDBRANCH   7   8
BRANCH   7  12
ATOM     12  N   UNL A   1      33.700  22.888  23.090  1.00  0.00    -0.342 N 
ATOM     13  C   UNL A   1      33.089  24.066  22.686  1.00  0.00     0.243 C 
ATOM     14  H   UNL A   1      33.461  22.066  22.605  1.00  0.00     0.164 HD
ATOM     15  O   UNL A   1      33.380  24.416  21.532  1.00  0.00    -0.273 OA
BRANCH  13  16
ATOM     16  C   UNL A   1      32.209  25.019  23.618  1.00  0.00     0.181 C 
ATOM     17  C   UNL A   1      31.791  24.242  24.850  1.00  0.00     0.042 C 
BRANCH  16  18
ATOM     18  N   UNL A   1      31.124  25.794  22.953  1.00  0.00    -0.250 N 
ATOM     19  C   UNL A   1      29.908  26.276  23.455  1.00  0.00     0.328 C 
ATOM     20  C   UNL A   1      31.479  26.683  22.019  1.00  0.00     0.259 C 
ATOM     21  N   UNL A   1      29.773  27.682  22.897  1.00  0.00    -0.307 N 
ATOM     22  O   UNL A   1      29.205  25.819  24.305  1.00  0.00    -0.248 OA
ATOM     23  C   UNL A   1      31.160  28.020  22.622  1.00  0.00     0.147 C 
ATOM     24  O   UNL A   1      31.674  26.440  20.834  1.00  0.00    -0.271 OA
ATOM     25  C   UNL A   1      28.999  28.789  23.572  1.00  0.00     0.127 C 
ATOM     26  C   UNL A   1      31.637  28.342  24.096  1.00  0.00     0.168 C 
ATOM     27  C   UNL A   1      31.334  29.086  21.544  1.00  0.00     0.048 C 
ATOM     28  C   UNL A   1      29.924  30.013  24.264  1.00  0.00     0.055 C 
ATOM     29  C   UNL A   1      31.440  29.715  24.619  1.00  0.00    -0.032 C 
ATOM     30  N   UNL A   1      32.193  27.461  25.155  1.00  0.00    -0.274 NA
ATOM     31  C   UNL A   1      32.056  29.760  25.833  1.00  0.00     0.005 A 
ATOM     32  C   UNL A   1      32.034  28.271  26.168  1.00  0.00     0.066 A 
ATOM     33  C   UNL A   1      33.505  30.060  26.093  1.00  0.00     0.056 A 
ATOM     34  C   UNL A   1      32.202  27.992  27.600  1.00  0.00     0.032 A 
ATOM     35  C   UNL A   1      34.090  29.405  27.137  1.00  0.00     0.119 A 
ATOM     36  C   UNL A   1      33.252  28.667  28.084  1.00  0.00     0.048 A 
BRANCH  35  37
ATOM     37  O   UNL A   1      35.447  29.118  27.166  1.00  0.00    -0.497 OA
ATOM     38  C   UNL A   1      36.219  30.128  27.861  1.00  0.00     0.278 C 
ENDBRANCH  35  37
ENDBRANCH  16  18
ENDBRANCH  13  16
ENDBRANCH   7  12
ENDBRANCH   4   7
ENDBRANCH   2   3
ENDBRANCH   1   2
BRANCH   1  39
ATOM     39  C   UNL A   1      38.876  21.803  26.034  1.00  0.00     0.023 C 
BRANCH  39  40
ATOM     40  C   UNL A   1      39.919  21.119  26.905  1.00  0.00     0.116 C 
BRANCH  40  41
ATOM     41  N   UNL A   1      40.618  20.019  26.263  1.00  0.00    -0.352 N 
ATOM     42  C   UNL A   1      41.924  20.010  25.821  1.00  0.00     0.251 C 
ATOM     43  H   UNL A   1      40.103  19.191  26.130  1.00  0.00     0.163 HD
ATOM     44  O   UNL A   1      42.393  19.023  25.267  1.00  0.00    -0.269 OA
BRANCH  42  45
ATOM     45  C   UNL A   1      42.720  21.247  25.972  1.00  0.00     0.039 A 
ATOM     46  C   UNL A   1      43.394  21.507  27.167  1.00  0.00     0.014 A 
ATOM     47  C   UNL A   1      42.664  22.211  24.963  1.00  0.00     0.014 A 
ATOM     48  C   UNL A   1      43.848  22.795  27.423  1.00  0.00     0.010 A 
ATOM     49  C   UNL A   1      43.207  23.478  25.190  1.00  0.00     0.010 A 
ATOM     50  C   UNL A   1      43.751  23.800  26.443  1.00  0.00    -0.014 A 
BRANCH  50  51
ATOM     51  C   UNL A   1      44.225  25.171  26.765  1.00  0.00     0.031 A 
ATOM     52  C   UNL A   1      43.409  26.099  27.625  1.00  0.00     0.074 A 
ATOM     53  C   UNL A   1      45.449  25.547  26.344  1.00  0.00     0.049 A 
ATOM     54  N   UNL A   1      43.721  27.292  28.067  1.00  0.00    -0.248 NA
ATOM     55  C   UNL A   1      42.075  25.639  28.045  1.00  0.00     0.031 C 
ATOM     56  C   UNL A   1      46.338  24.725  25.519  1.00  0.00     0.029 A 
ATOM     57  N   UNL A   1      46.179  26.681  26.593  1.00  0.00    -0.354 N 
ATOM     58  C   UNL A   1      42.624  27.730  28.799  1.00  0.00     0.074 A 
ATOM     59  C   UNL A   1      41.624  26.688  28.722  1.00  0.00     0.031 C 
ATOM     60  C   UNL A   1      47.523  25.338  25.410  1.00  0.00     0.029 A 
ATOM     61  C   UNL A   1      47.458  26.627  26.092  1.00  0.00     0.049 A 
ATOM     62  H   UNL A   1      45.821  27.458  27.081  1.00  0.00     0.167 HD
ATOM     63  C   UNL A   1      42.468  28.890  29.482  1.00  0.00     0.031 A 
ATOM     64  C   UNL A   1      48.475  27.506  26.174  1.00  0.00     0.031 A 
ATOM     65  C   UNL A   1      43.473  29.919  29.568  1.00  0.00     0.049 A 
ATOM     66  C   UNL A   1      48.271  28.796  26.910  1.00  0.00     0.074 A 
ATOM     67  C   UNL A   1      43.409  31.124  30.246  1.00  0.00     0.029 A 
ATOM     68  N   UNL A   1      44.721  29.865  28.968  1.00  0.00    -0.354 N 
ATOM     69  N   UNL A   1      47.218  29.197  27.579  1.00  0.00    -0.248 NA
ATOM     70  C   UNL A   1      49.381  29.758  26.890  1.00  0.00     0.031 C 
ATOM     71  C   UNL A   1      44.598  31.820  30.013  1.00  0.00     0.029 A 
ATOM     72  C   UNL A   1      45.426  31.026  29.236  1.00  0.00     0.049 A 
ATOM     73  H   UNL A   1      45.058  29.112  28.429  1.00  0.00     0.167 HD
ATOM     74  C   UNL A   1      47.531  30.465  28.051  1.00  0.00     0.074 A 
ATOM     75  C   UNL A   1      48.885  30.751  27.616  1.00  0.00     0.031 C 
ATOM     76  C   UNL A   1      46.760  31.315  28.772  1.00  0.00     0.031 A 
BRANCH  63  77
ATOM     77  C   UNL A   1      41.161  29.127  30.191  1.00  0.00    -0.014 A 
ATOM     78  C   UNL A   1      40.244  30.061  29.672  1.00  0.00     0.010 A 
ATOM     79  C   UNL A   1      40.875  28.498  31.416  1.00  0.00     0.010 A 
ATOM     80  C   UNL A   1      39.073  30.371  30.369  1.00  0.00     0.020 A 
ATOM     81  C   UNL A   1      39.693  28.788  32.105  1.00  0.00     0.020 A 
ATOM     82  C   UNL A   1      38.808  29.737  31.585  1.00  0.00     0.054 A 
BRANCH  82  83
ATOM     83  S   UNL A   1      37.276  30.137  32.474  1.00  0.00     0.124 S 
ATOM     84  O   UNL A   1      36.262  29.945  31.443  1.00  0.00    -0.237 OA
ATOM     85  O   UNL A   1      37.267  29.158  33.559  1.00  0.00    -0.237 OA
ATOM     86  O   UNL A   1      37.485  31.519  32.902  1.00  0.00    -0.744 OA
ENDBRANCH  82  83
ENDBRANCH  63  77
BRANCH  64  87
ATOM     87  C   UNL A   1      49.777  27.151  25.548  1.00  0.00    -0.014 A 
ATOM     88  C   UNL A   1      50.811  26.597  26.326  1.00  0.00     0.010 A 
ATOM     89  C   UNL A   1      50.033  27.495  24.210  1.00  0.00     0.010 A 
ATOM     90  C   UNL A   1      52.097  26.461  25.800  1.00  0.00     0.020 A 
ATOM     91  C   UNL A   1      51.314  27.335  23.672  1.00  0.00     0.020 A 
ATOM     92  C   UNL A   1      52.344  26.853  24.483  1.00  0.00     0.054 A 
BRANCH  92  93
ATOM     93  S   UNL A   1      54.039  26.754  23.845  1.00  0.00     0.124 S 
ATOM     94  O   UNL A   1      54.449  25.425  24.294  1.00  0.00    -0.237 OA
ATOM     95  O   UNL A   1      53.852  26.899  22.404  1.00  0.00    -0.237 OA
ATOM     96  O   UNL A   1      54.714  27.871  24.498  1.00  0.00    -0.744 OA
ENDBRANCH  92  93
ENDBRANCH  64  87
BRANCH  76  97
ATOM     97  C   UNL A   1      47.334  32.662  29.113  1.00  0.00    -0.014 A 
ATOM     98  C   UNL A   1      47.998  32.855  30.337  1.00  0.00     0.010 A 
ATOM     99  C   UNL A   1      47.113  33.764  28.267  1.00  0.00     0.010 A 
ATOM    100  C   UNL A   1      48.410  34.133  30.724  1.00  0.00     0.020 A 
ATOM    101  C   UNL A   1      47.543  35.040  28.642  1.00  0.00     0.020 A 
ATOM    102  C   UNL A   1      48.169  35.219  29.878  1.00  0.00     0.054 A 
BRANCH 102 103
ATOM    103  S   UNL A   1      48.689  36.876  30.403  1.00  0.00     0.124 S 
ATOM    104  O   UNL A   1      48.023  37.013  31.695  1.00  0.00    -0.237 OA
ATOM    105  O   UNL A   1      50.145  36.757  30.455  1.00  0.00    -0.237 OA
ATOM    106  O   UNL A   1      48.183  37.744  29.342  1.00  0.00    -0.744 OA
ENDBRANCH 102 103
ENDBRANCH  76  97
ENDBRANCH  50  51
ENDBRANCH  42  45
ENDBRANCH  40  41
ENDBRANCH  39  40
ENDBRANCH   1  39
TORSDOF 20
ENDMDL
