MODEL 1
REMARK VINA RESULT:     -11.4      0.000      0.000
REMARK SMILES Cc1cc(C)cc(C(=O)N2CC[C@H](C(=O)NCCCCNC(=O)c3ccc(-c4c5nc(c(-c6ccc(S(=O)(=O)[O-])cc6)c6ccc([nH]6)c(-c6ccc(S(=O)(=O)[O-])cc6)c6nc(c(-c7ccc(S(=O)(=O)[O-])cc7)c7ccc4[nH]7)C=C6)C=C5)cc3)[C@@H]2C)c1
REMARK SMILES IDX 19 1 18 2 17 3 16 4 14 5 15 6 13 8 10 9 11 10 84 11 12 12
REMARK SMILES IDX 85 13 8 14 9 15 7 16 1 17 2 18 3 19 86 20 4 21 5 22 6 23
REMARK SMILES IDX 20 24 21 25 22 26 23 28 24 29 25 30 83 31 26 32 82 33 27 34
REMARK SMILES IDX 28 35 29 36 76 37 30 38 81 39 75 40 77 41 31 42 80 43 74 44
REMARK SMILES IDX 73 45 32 47 62 48 43 49 61 50 44 51 47 52 60 53 78 54 45 55
REMARK SMILES IDX 46 56 59 58 79 59 48 60 33 61 34 62 42 63 35 64 41 65 36 66
REMARK SMILES IDX 37 67 38 68 39 69 40 70 63 71 64 72 72 73 65 74 71 75 66 76
REMARK SMILES IDX 67 77 68 78 69 79 70 80 49 81 50 82 58 83 51 84 57 85 52 86
REMARK SMILES IDX 53 87 54 88 55 89 56 90
REMARK H PARENT 16 7 21 27 77 46 47 57
REMARK Flexibility Score: inf
ROOT
ATOM      1  C   UNL A   1      33.929  28.070  25.902  1.00  0.00     0.023 C 
ENDROOT
BRANCH   1   2
ATOM      2  C   UNL A   1      33.537  29.063  24.806  1.00  0.00     0.023 C 
BRANCH   2   3
ATOM      3  C   UNL A   1      32.605  28.511  23.732  1.00  0.00     0.116 C 
BRANCH   3   4
ATOM      4  N   UNL A   1      33.281  27.588  22.839  1.00  0.00    -0.356 N 
ATOM      5  C   UNL A   1      33.172  26.238  22.711  1.00  0.00     0.225 C 
ATOM      6  O   UNL A   1      33.815  25.688  21.816  1.00  0.00    -0.275 OA
ATOM      7  H   UNL A   1      33.924  28.009  22.224  1.00  0.00     0.163 HD
BRANCH   5   8
ATOM      8  C   UNL A   1      32.286  25.452  23.662  1.00  0.00     0.102 C 
ATOM      9  N   UNL A   1      32.707  23.271  24.524  1.00  0.00    -0.335 N 
ATOM     10  C   UNL A   1      32.306  23.101  23.145  1.00  0.00     0.121 C 
ATOM     11  C   UNL A   1      33.036  24.682  24.781  1.00  0.00     0.094 C 
ATOM     12  C   UNL A   1      31.515  24.365  22.888  1.00  0.00     0.037 C 
ATOM     13  C   UNL A   1      34.554  24.876  24.818  1.00  0.00     0.032 C 
BRANCH   9  14
ATOM     14  C   UNL A   1      32.845  22.152  25.324  1.00  0.00     0.254 C 
ATOM     15  O   UNL A   1      32.313  22.089  26.433  1.00  0.00    -0.269 OA
BRANCH  14  16
ATOM     16  C   UNL A   1      33.780  21.054  24.942  1.00  0.00     0.040 A 
ATOM     17  C   UNL A   1      37.507  20.251  24.937  1.00  0.00     0.044 C 
ATOM     18  C   UNL A   1      36.018  20.094  24.843  1.00  0.00    -0.050 A 
ATOM     19  C   UNL A   1      35.460  18.831  24.617  1.00  0.00     0.006 A 
ATOM     20  C   UNL A   1      35.169  21.191  25.044  1.00  0.00     0.017 A 
ATOM     21  C   UNL A   1      34.071  18.660  24.568  1.00  0.00    -0.050 A 
ATOM     22  C   UNL A   1      33.491  17.281  24.446  1.00  0.00     0.044 C 
ATOM     23  C   UNL A   1      33.240  19.779  24.708  1.00  0.00     0.017 A 
ENDBRANCH  14  16
ENDBRANCH   9  14
ENDBRANCH   5   8
ENDBRANCH   3   4
ENDBRANCH   2   3
ENDBRANCH   1   2
BRANCH   1  24
ATOM     24  C   UNL A   1      33.432  28.407  27.305  1.00  0.00     0.116 C 
BRANCH  24  25
ATOM     25  N   UNL A   1      33.403  29.837  27.566  1.00  0.00    -0.352 N 
ATOM     26  C   UNL A   1      34.382  30.648  28.089  1.00  0.00     0.251 C 
ATOM     27  H   UNL A   1      32.560  30.291  27.334  1.00  0.00     0.163 HD
ATOM     28  O   UNL A   1      34.119  31.815  28.368  1.00  0.00    -0.269 OA
BRANCH  26  29
ATOM     29  C   UNL A   1      35.738  30.110  28.345  1.00  0.00     0.039 A 
ATOM     30  C   UNL A   1      36.680  30.139  27.315  1.00  0.00     0.014 A 
ATOM     31  C   UNL A   1      36.082  29.585  29.595  1.00  0.00     0.014 A 
ATOM     32  C   UNL A   1      37.989  29.713  27.560  1.00  0.00     0.010 A 
ATOM     33  C   UNL A   1      37.405  29.232  29.857  1.00  0.00     0.010 A 
ATOM     34  C   UNL A   1      38.375  29.295  28.844  1.00  0.00    -0.014 A 
BRANCH  34  35
ATOM     35  C   UNL A   1      39.785  28.934  29.148  1.00  0.00     0.031 A 
ATOM     36  C   UNL A   1      40.712  29.946  29.771  1.00  0.00     0.074 A 
ATOM     37  C   UNL A   1      40.250  27.713  28.810  1.00  0.00     0.049 A 
ATOM     38  N   UNL A   1      41.987  29.834  30.048  1.00  0.00    -0.248 NA
ATOM     39  C   UNL A   1      40.139  31.259  30.107  1.00  0.00     0.031 C 
ATOM     40  C   UNL A   1      39.466  26.654  28.169  1.00  0.00     0.029 A 
ATOM     41  N   UNL A   1      41.499  27.158  28.953  1.00  0.00    -0.354 N 
ATOM     42  C   UNL A   1      42.368  31.061  30.580  1.00  0.00     0.074 A 
ATOM     43  C   UNL A   1      41.204  31.919  30.539  1.00  0.00     0.031 C 
ATOM     44  C   UNL A   1      40.244  25.573  27.997  1.00  0.00     0.029 A 
ATOM     45  C   UNL A   1      41.591  25.873  28.471  1.00  0.00     0.049 A 
ATOM     46  H   UNL A   1      42.256  27.636  29.361  1.00  0.00     0.167 HD
ATOM     47  C   UNL A   1      43.572  31.433  31.078  1.00  0.00     0.031 A 
ATOM     48  C   UNL A   1      42.642  25.032  28.405  1.00  0.00     0.031 A 
ATOM     49  C   UNL A   1      44.727  30.576  31.126  1.00  0.00     0.049 A 
ATOM     50  C   UNL A   1      43.976  25.482  28.940  1.00  0.00     0.074 A 
ATOM     51  C   UNL A   1      45.977  30.850  31.653  1.00  0.00     0.029 A 
ATOM     52  N   UNL A   1      44.776  29.281  30.634  1.00  0.00    -0.354 N 
ATOM     53  N   UNL A   1      44.298  26.626  29.495  1.00  0.00    -0.248 NA
ATOM     54  C   UNL A   1      45.086  24.523  28.850  1.00  0.00     0.031 C 
ATOM     55  C   UNL A   1      46.799  29.741  31.429  1.00  0.00     0.029 A 
ATOM     56  C   UNL A   1      46.042  28.752  30.823  1.00  0.00     0.049 A 
ATOM     57  H   UNL A   1      44.023  28.808  30.212  1.00  0.00     0.167 HD
ATOM     58  C   UNL A   1      45.639  26.510  29.850  1.00  0.00     0.074 A 
ATOM     59  C   UNL A   1      46.060  25.180  29.463  1.00  0.00     0.031 C 
ATOM     60  C   UNL A   1      46.447  27.423  30.442  1.00  0.00     0.031 A 
BRANCH  47  61
ATOM     61  C   UNL A   1      43.704  32.832  31.621  1.00  0.00    -0.014 A 
ATOM     62  C   UNL A   1      44.122  33.892  30.794  1.00  0.00     0.010 A 
ATOM     63  C   UNL A   1      43.337  33.107  32.951  1.00  0.00     0.010 A 
ATOM     64  C   UNL A   1      44.197  35.193  31.296  1.00  0.00     0.020 A 
ATOM     65  C   UNL A   1      43.384  34.413  33.448  1.00  0.00     0.020 A 
ATOM     66  C   UNL A   1      43.824  35.446  32.619  1.00  0.00     0.054 A 
BRANCH  66  67
ATOM     67  S   UNL A   1      43.887  37.155  33.225  1.00  0.00     0.124 S 
ATOM     68  O   UNL A   1      42.703  37.217  34.077  1.00  0.00    -0.237 OA
ATOM     69  O   UNL A   1      45.168  37.197  33.925  1.00  0.00    -0.237 OA
ATOM     70  O   UNL A   1      43.820  37.959  32.006  1.00  0.00    -0.744 OA
ENDBRANCH  66  67
ENDBRANCH  47  61
BRANCH  48  71
ATOM     71  C   UNL A   1      42.486  23.676  27.808  1.00  0.00    -0.014 A 
ATOM     72  C   UNL A   1      41.901  22.630  28.544  1.00  0.00     0.010 A 
ATOM     73  C   UNL A   1      42.947  23.416  26.504  1.00  0.00     0.010 A 
ATOM     74  C   UNL A   1      41.814  21.344  28.003  1.00  0.00     0.020 A 
ATOM     75  C   UNL A   1      42.830  22.139  25.946  1.00  0.00     0.020 A 
ATOM     76  C   UNL A   1      42.281  21.106  26.707  1.00  0.00     0.054 A 
BRANCH  76  77
ATOM     77  S   UNL A   1      42.142  19.434  26.018  1.00  0.00     0.124 S 
ATOM     78  O   UNL A   1      42.726  18.619  27.079  1.00  0.00    -0.237 OA
ATOM     79  O   UNL A   1      40.700  19.290  25.831  1.00  0.00    -0.237 OA
ATOM     80  O   UNL A   1      42.918  19.507  24.783  1.00  0.00    -0.744 OA
ENDBRANCH  76  77
ENDBRANCH  48  71
BRANCH  60  81
ATOM     81  C   UNL A   1      47.860  27.005  30.753  1.00  0.00    -0.014 A 
ATOM     82  C   UNL A   1      48.931  27.357  29.913  1.00  0.00     0.010 A 
ATOM     83  C   UNL A   1      48.125  26.291  31.937  1.00  0.00     0.010 A 
ATOM     84  C   UNL A   1      50.237  26.975  30.234  1.00  0.00     0.020 A 
ATOM     85  C   UNL A   1      49.432  25.934  32.277  1.00  0.00     0.020 A 
ATOM     86  C   UNL A   1      50.479  26.266  31.415  1.00  0.00     0.054 A 
BRANCH  86  87
ATOM     87  S   UNL A   1      52.187  25.821  31.830  1.00  0.00     0.124 S 
ATOM     88  O   UNL A   1      52.024  24.489  32.405  1.00  0.00    -0.237 OA
ATOM     89  O   UNL A   1      52.854  25.868  30.531  1.00  0.00    -0.237 OA
ATOM     90  O   UNL A   1      52.597  26.860  32.772  1.00  0.00    -0.744 OA
ENDBRANCH  86  87
ENDBRANCH  60  81
ENDBRANCH  34  35
ENDBRANCH  26  29
ENDBRANCH  24  25
ENDBRANCH   1  24
TORSDOF 16
ENDMDL
MODEL 2
REMARK VINA RESULT:     -11.1      4.025     11.381
REMARK SMILES Cc1cc(C)cc(C(=O)N2CC[C@H](C(=O)NCCCCNC(=O)c3ccc(-c4c5nc(c(-c6ccc(S(=O)(=O)[O-])cc6)c6ccc([nH]6)c(-c6ccc(S(=O)(=O)[O-])cc6)c6nc(c(-c7ccc(S(=O)(=O)[O-])cc7)c7ccc4[nH]7)C=C6)C=C5)cc3)[C@@H]2C)c1
REMARK SMILES IDX 19 1 18 2 17 3 16 4 14 5 15 6 13 8 10 9 11 10 84 11 12 12
REMARK SMILES IDX 85 13 8 14 9 15 7 16 1 17 2 18 3 19 86 20 4 21 5 22 6 23
REMARK SMILES IDX 20 24 21 25 22 26 23 28 24 29 25 30 83 31 26 32 82 33 27 34
REMARK SMILES IDX 28 35 29 36 76 37 30 38 81 39 75 40 77 41 31 42 80 43 74 44
REMARK SMILES IDX 73 45 32 47 62 48 43 49 61 50 44 51 47 52 60 53 78 54 45 55
REMARK SMILES IDX 46 56 59 58 79 59 48 60 33 61 34 62 42 63 35 64 41 65 36 66
REMARK SMILES IDX 37 67 38 68 39 69 40 70 63 71 64 72 72 73 65 74 71 75 66 76
REMARK SMILES IDX 67 77 68 78 69 79 70 80 49 81 50 82 58 83 51 84 57 85 52 86
REMARK SMILES IDX 53 87 54 88 55 89 56 90
REMARK H PARENT 16 7 21 27 77 46 47 57
REMARK Flexibility Score: inf
ROOT
ATOM      1  C   UNL A   1      41.890  22.375  27.393  1.00  0.00     0.023 C 
ENDROOT
BRANCH   1   2
ATOM      2  C   UNL A   1      42.421  23.116  28.621  1.00  0.00     0.023 C 
BRANCH   2   3
ATOM      3  C   UNL A   1      43.931  23.036  28.825  1.00  0.00     0.116 C 
BRANCH   3   4
ATOM      4  N   UNL A   1      44.625  22.594  27.629  1.00  0.00    -0.356 N 
ATOM      5  C   UNL A   1      45.612  23.190  26.906  1.00  0.00     0.225 C 
ATOM      6  O   UNL A   1      46.088  22.567  25.956  1.00  0.00    -0.275 OA
ATOM      7  H   UNL A   1      44.334  21.720  27.285  1.00  0.00     0.163 HD
BRANCH   5   8
ATOM      8  C   UNL A   1      46.088  24.585  27.271  1.00  0.00     0.102 C 
ATOM      9  N   UNL A   1      46.244  26.463  25.813  1.00  0.00    -0.335 N 
ATOM     10  C   UNL A   1      47.343  25.586  25.477  1.00  0.00     0.121 C 
ATOM     11  C   UNL A   1      45.269  25.747  26.651  1.00  0.00     0.094 C 
ATOM     12  C   UNL A   1      47.526  24.803  26.759  1.00  0.00     0.037 C 
ATOM     13  C   UNL A   1      44.054  25.332  25.818  1.00  0.00     0.032 C 
BRANCH   9  14
ATOM     14  C   UNL A   1      46.191  27.719  25.239  1.00  0.00     0.254 C 
ATOM     15  O   UNL A   1      46.290  27.872  24.021  1.00  0.00    -0.269 OA
BRANCH  14  16
ATOM     16  C   UNL A   1      46.180  28.944  26.090  1.00  0.00     0.040 A 
ATOM     17  C   UNL A   1      43.747  31.123  28.058  1.00  0.00     0.044 C 
ATOM     18  C   UNL A   1      45.022  30.533  27.531  1.00  0.00    -0.050 A 
ATOM     19  C   UNL A   1      46.255  30.982  28.017  1.00  0.00     0.006 A 
ATOM     20  C   UNL A   1      44.994  29.488  26.598  1.00  0.00     0.017 A 
ATOM     21  C   UNL A   1      47.453  30.413  27.566  1.00  0.00    -0.050 A 
ATOM     22  C   UNL A   1      48.756  30.823  28.188  1.00  0.00     0.044 C 
ATOM     23  C   UNL A   1      47.408  29.413  26.587  1.00  0.00     0.017 A 
ENDBRANCH  14  16
ENDBRANCH   9  14
ENDBRANCH   5   8
ENDBRANCH   3   4
ENDBRANCH   2   3
ENDBRANCH   1   2
BRANCH   1  24
ATOM     24  C   UNL A   1      40.605  21.580  27.609  1.00  0.00     0.116 C 
BRANCH  24  25
ATOM     25  N   UNL A   1      39.628  21.785  26.552  1.00  0.00    -0.352 N 
ATOM     26  C   UNL A   1      38.970  22.935  26.185  1.00  0.00     0.251 C 
ATOM     27  H   UNL A   1      39.406  20.986  26.022  1.00  0.00     0.163 HD
ATOM     28  O   UNL A   1      38.069  22.880  25.351  1.00  0.00    -0.269 OA
BRANCH  26  29
ATOM     29  C   UNL A   1      39.322  24.229  26.814  1.00  0.00     0.039 A 
ATOM     30  C   UNL A   1      38.905  24.476  28.124  1.00  0.00     0.014 A 
ATOM     31  C   UNL A   1      40.063  25.191  26.123  1.00  0.00     0.014 A 
ATOM     32  C   UNL A   1      39.296  25.656  28.765  1.00  0.00     0.010 A 
ATOM     33  C   UNL A   1      40.514  26.329  26.789  1.00  0.00     0.010 A 
ATOM     34  C   UNL A   1      40.140  26.573  28.119  1.00  0.00    -0.014 A 
BRANCH  34  35
ATOM     35  C   UNL A   1      40.648  27.783  28.819  1.00  0.00     0.031 A 
ATOM     36  C   UNL A   1      42.043  27.802  29.390  1.00  0.00     0.074 A 
ATOM     37  C   UNL A   1      39.834  28.844  28.996  1.00  0.00     0.049 A 
ATOM     38  N   UNL A   1      42.635  28.738  30.086  1.00  0.00    -0.248 NA
ATOM     39  C   UNL A   1      42.873  26.606  29.166  1.00  0.00     0.031 C 
ATOM     40  C   UNL A   1      38.450  28.940  28.525  1.00  0.00     0.029 A 
ATOM     41  N   UNL A   1      40.051  30.046  29.625  1.00  0.00    -0.354 N 
ATOM     42  C   UNL A   1      43.898  28.243  30.391  1.00  0.00     0.074 A 
ATOM     43  C   UNL A   1      43.969  26.904  29.849  1.00  0.00     0.031 C 
ATOM     44  C   UNL A   1      37.952  30.141  28.860  1.00  0.00     0.029 A 
ATOM     45  C   UNL A   1      38.961  30.885  29.607  1.00  0.00     0.049 A 
ATOM     46  H   UNL A   1      40.907  30.284  30.049  1.00  0.00     0.167 HD
ATOM     47  C   UNL A   1      44.916  28.856  31.043  1.00  0.00     0.031 A 
ATOM     48  C   UNL A   1      38.785  32.109  30.143  1.00  0.00     0.031 A 
ATOM     49  C   UNL A   1      44.847  30.191  31.575  1.00  0.00     0.049 A 
ATOM     50  C   UNL A   1      39.923  32.754  30.888  1.00  0.00     0.074 A 
ATOM     51  C   UNL A   1      45.842  30.912  32.213  1.00  0.00     0.029 A 
ATOM     52  N   UNL A   1      43.728  31.007  31.531  1.00  0.00    -0.354 N 
ATOM     53  N   UNL A   1      41.131  32.292  31.111  1.00  0.00    -0.248 NA
ATOM     54  C   UNL A   1      39.679  34.092  31.445  1.00  0.00     0.031 C 
ATOM     55  C   UNL A   1      45.307  32.143  32.604  1.00  0.00     0.029 A 
ATOM     56  C   UNL A   1      44.000  32.215  32.151  1.00  0.00     0.049 A 
ATOM     57  H   UNL A   1      42.867  30.764  31.120  1.00  0.00     0.167 HD
ATOM     58  C   UNL A   1      41.798  33.297  31.804  1.00  0.00     0.074 A 
ATOM     59  C   UNL A   1      40.868  34.396  31.947  1.00  0.00     0.031 C 
ATOM     60  C   UNL A   1      43.068  33.306  32.279  1.00  0.00     0.031 A 
BRANCH  47  61
ATOM     61  C   UNL A   1      46.200  28.088  31.216  1.00  0.00    -0.014 A 
ATOM     62  C   UNL A   1      46.427  27.307  32.365  1.00  0.00     0.010 A 
ATOM     63  C   UNL A   1      47.162  28.088  30.189  1.00  0.00     0.010 A 
ATOM     64  C   UNL A   1      47.603  26.563  32.493  1.00  0.00     0.020 A 
ATOM     65  C   UNL A   1      48.326  27.322  30.303  1.00  0.00     0.020 A 
ATOM     66  C   UNL A   1      48.543  26.572  31.460  1.00  0.00     0.054 A 
BRANCH  66  67
ATOM     67  S   UNL A   1      50.036  25.558  31.638  1.00  0.00     0.124 S 
ATOM     68  O   UNL A   1      51.046  26.562  31.962  1.00  0.00    -0.237 OA
ATOM     69  O   UNL A   1      49.678  24.653  32.728  1.00  0.00    -0.237 OA
ATOM     70  O   UNL A   1      50.185  24.925  30.330  1.00  0.00    -0.744 OA
ENDBRANCH  66  67
ENDBRANCH  47  61
BRANCH  48  71
ATOM     71  C   UNL A   1      37.480  32.813  30.001  1.00  0.00    -0.014 A 
ATOM     72  C   UNL A   1      36.499  32.718  31.005  1.00  0.00     0.010 A 
ATOM     73  C   UNL A   1      37.200  33.566  28.845  1.00  0.00     0.010 A 
ATOM     74  C   UNL A   1      35.253  33.330  30.840  1.00  0.00     0.020 A 
ATOM     75  C   UNL A   1      35.967  34.206  28.691  1.00  0.00     0.020 A 
ATOM     76  C   UNL A   1      34.993  34.068  29.682  1.00  0.00     0.054 A 
BRANCH  76  77
ATOM     77  S   UNL A   1      33.376  34.868  29.497  1.00  0.00     0.124 S 
ATOM     78  O   UNL A   1      32.905  34.922  30.877  1.00  0.00    -0.237 OA
ATOM     79  O   UNL A   1      33.726  36.152  28.896  1.00  0.00    -0.237 OA
ATOM     80  O   UNL A   1      32.644  33.958  28.619  1.00  0.00    -0.744 OA
ENDBRANCH  76  77
ENDBRANCH  48  71
BRANCH  60  81
ATOM     81  C   UNL A   1      43.547  34.562  32.960  1.00  0.00    -0.014 A 
ATOM     82  C   UNL A   1      43.467  34.715  34.356  1.00  0.00     0.010 A 
ATOM     83  C   UNL A   1      44.137  35.583  32.192  1.00  0.00     0.010 A 
ATOM     84  C   UNL A   1      43.938  35.881  34.966  1.00  0.00     0.020 A 
ATOM     85  C   UNL A   1      44.637  36.736  32.802  1.00  0.00     0.020 A 
ATOM     86  C   UNL A   1      44.521  36.884  34.185  1.00  0.00     0.054 A 
BRANCH  86  87
ATOM     87  S   UNL A   1      45.163  38.367  35.007  1.00  0.00     0.124 S 
ATOM     88  O   UNL A   1      45.060  38.003  36.417  1.00  0.00    -0.237 OA
ATOM     89  O   UNL A   1      46.523  38.461  34.480  1.00  0.00    -0.237 OA
ATOM     90  O   UNL A   1      44.258  39.426  34.569  1.00  0.00    -0.744 OA
ENDBRANCH  86  87
ENDBRANCH  60  81
ENDBRANCH  34  35
ENDBRANCH  26  29
ENDBRANCH  24  25
ENDBRANCH   1  24
TORSDOF 16
ENDMDL
MODEL 3
REMARK VINA RESULT:     -11.1      2.949      3.860
REMARK SMILES Cc1cc(C)cc(C(=O)N2CC[C@H](C(=O)NCCCCNC(=O)c3ccc(-c4c5nc(c(-c6ccc(S(=O)(=O)[O-])cc6)c6ccc([nH]6)c(-c6ccc(S(=O)(=O)[O-])cc6)c6nc(c(-c7ccc(S(=O)(=O)[O-])cc7)c7ccc4[nH]7)C=C6)C=C5)cc3)[C@@H]2C)c1
REMARK SMILES IDX 19 1 18 2 17 3 16 4 14 5 15 6 13 8 10 9 11 10 84 11 12 12
REMARK SMILES IDX 85 13 8 14 9 15 7 16 1 17 2 18 3 19 86 20 4 21 5 22 6 23
REMARK SMILES IDX 20 24 21 25 22 26 23 28 24 29 25 30 83 31 26 32 82 33 27 34
REMARK SMILES IDX 28 35 29 36 76 37 30 38 81 39 75 40 77 41 31 42 80 43 74 44
REMARK SMILES IDX 73 45 32 47 62 48 43 49 61 50 44 51 47 52 60 53 78 54 45 55
REMARK SMILES IDX 46 56 59 58 79 59 48 60 33 61 34 62 42 63 35 64 41 65 36 66
REMARK SMILES IDX 37 67 38 68 39 69 40 70 63 71 64 72 72 73 65 74 71 75 66 76
REMARK SMILES IDX 67 77 68 78 69 79 70 80 49 81 50 82 58 83 51 84 57 85 52 86
REMARK SMILES IDX 53 87 54 88 55 89 56 90
REMARK H PARENT 16 7 21 27 77 46 47 57
REMARK Flexibility Score: inf
ROOT
ATOM      1  C   UNL A   1      34.690  30.190  27.044  1.00  0.00     0.023 C 
ENDROOT
BRANCH   1   2
ATOM      2  C   UNL A   1      33.334  30.892  27.127  1.00  0.00     0.023 C 
BRANCH   2   3
ATOM      3  C   UNL A   1      32.121  29.989  26.929  1.00  0.00     0.116 C 
BRANCH   3   4
ATOM      4  N   UNL A   1      31.455  30.231  25.663  1.00  0.00    -0.356 N 
ATOM      5  C   UNL A   1      31.082  29.369  24.678  1.00  0.00     0.225 C 
ATOM      6  O   UNL A   1      30.460  29.823  23.717  1.00  0.00    -0.275 OA
ATOM      7  H   UNL A   1      31.237  31.175  25.487  1.00  0.00     0.163 HD
BRANCH   5   8
ATOM      8  C   UNL A   1      31.443  27.897  24.777  1.00  0.00     0.102 C 
ATOM      9  N   UNL A   1      32.433  26.556  23.074  1.00  0.00    -0.335 N 
ATOM     10  C   UNL A   1      31.051  26.751  22.697  1.00  0.00     0.121 C 
ATOM     11  C   UNL A   1      32.801  27.504  24.139  1.00  0.00     0.094 C 
ATOM     12  C   UNL A   1      30.397  27.046  24.030  1.00  0.00     0.037 C 
ATOM     13  C   UNL A   1      33.622  28.659  23.561  1.00  0.00     0.032 C 
BRANCH   9  14
ATOM     14  C   UNL A   1      33.205  25.665  22.353  1.00  0.00     0.254 C 
ATOM     15  O   UNL A   1      33.530  25.898  21.188  1.00  0.00    -0.269 OA
BRANCH  14  16
ATOM     16  C   UNL A   1      33.528  24.318  22.905  1.00  0.00     0.040 A 
ATOM     17  C   UNL A   1      35.351  22.720  25.849  1.00  0.00     0.044 C 
ATOM     18  C   UNL A   1      34.478  22.894  24.640  1.00  0.00    -0.050 A 
ATOM     19  C   UNL A   1      33.753  21.807  24.138  1.00  0.00     0.006 A 
ATOM     20  C   UNL A   1      34.328  24.152  24.042  1.00  0.00     0.017 A 
ATOM     21  C   UNL A   1      32.901  21.963  23.037  1.00  0.00    -0.050 A 
ATOM     22  C   UNL A   1      32.040  20.817  22.590  1.00  0.00     0.044 C 
ATOM     23  C   UNL A   1      32.813  23.214  22.413  1.00  0.00     0.017 A 
ENDBRANCH  14  16
ENDBRANCH   9  14
ENDBRANCH   5   8
ENDBRANCH   3   4
ENDBRANCH   2   3
ENDBRANCH   1   2
BRANCH   1  24
ATOM     24  C   UNL A   1      35.188  29.563  28.344  1.00  0.00     0.116 C 
BRANCH  24  25
ATOM     25  N   UNL A   1      35.361  30.536  29.411  1.00  0.00    -0.352 N 
ATOM     26  C   UNL A   1      36.490  30.847  30.131  1.00  0.00     0.251 C 
ATOM     27  H   UNL A   1      34.554  31.046  29.652  1.00  0.00     0.163 HD
ATOM     28  O   UNL A   1      36.405  31.603  31.096  1.00  0.00    -0.269 OA
BRANCH  26  29
ATOM     29  C   UNL A   1      37.795  30.250  29.768  1.00  0.00     0.039 A 
ATOM     30  C   UNL A   1      38.167  30.211  28.422  1.00  0.00     0.014 A 
ATOM     31  C   UNL A   1      38.653  29.738  30.745  1.00  0.00     0.014 A 
ATOM     32  C   UNL A   1      39.429  29.727  28.064  1.00  0.00     0.010 A 
ATOM     33  C   UNL A   1      39.937  29.327  30.394  1.00  0.00     0.010 A 
ATOM     34  C   UNL A   1      40.342  29.320  29.050  1.00  0.00    -0.014 A 
BRANCH  34  35
ATOM     35  C   UNL A   1      41.724  28.898  28.697  1.00  0.00     0.031 A 
ATOM     36  C   UNL A   1      42.842  29.908  28.661  1.00  0.00     0.074 A 
ATOM     37  C   UNL A   1      41.963  27.617  28.349  1.00  0.00     0.049 A 
ATOM     38  N   UNL A   1      44.093  29.740  28.314  1.00  0.00    -0.248 NA
ATOM     39  C   UNL A   1      42.508  31.289  29.045  1.00  0.00     0.031 C 
ATOM     40  C   UNL A   1      40.961  26.548  28.307  1.00  0.00     0.029 A 
ATOM     41  N   UNL A   1      43.124  26.995  27.958  1.00  0.00    -0.354 N 
ATOM     42  C   UNL A   1      44.690  30.990  28.428  1.00  0.00     0.074 A 
ATOM     43  C   UNL A   1      43.654  31.918  28.826  1.00  0.00     0.031 C 
ATOM     44  C   UNL A   1      41.555  25.401  27.937  1.00  0.00     0.029 A 
ATOM     45  C   UNL A   1      42.966  25.658  27.671  1.00  0.00     0.049 A 
ATOM     46  H   UNL A   1      43.987  27.462  27.890  1.00  0.00     0.167 HD
ATOM     47  C   UNL A   1      45.988  31.332  28.241  1.00  0.00     0.031 A 
ATOM     48  C   UNL A   1      43.853  24.744  27.232  1.00  0.00     0.031 A 
ATOM     49  C   UNL A   1      47.019  30.407  27.854  1.00  0.00     0.049 A 
ATOM     50  C   UNL A   1      45.283  25.158  27.003  1.00  0.00     0.074 A 
ATOM     51  C   UNL A   1      48.371  30.652  27.682  1.00  0.00     0.029 A 
ATOM     52  N   UNL A   1      46.819  29.063  27.579  1.00  0.00    -0.354 N 
ATOM     53  N   UNL A   1      45.839  26.333  27.178  1.00  0.00    -0.248 NA
ATOM     54  C   UNL A   1      46.208  24.119  26.531  1.00  0.00     0.031 C 
ATOM     55  C   UNL A   1      48.978  29.469  27.251  1.00  0.00     0.029 A 
ATOM     56  C   UNL A   1      48.018  28.471  27.217  1.00  0.00     0.049 A 
ATOM     57  H   UNL A   1      45.953  28.598  27.633  1.00  0.00     0.167 HD
ATOM     58  C   UNL A   1      47.185  26.164  26.867  1.00  0.00     0.074 A 
ATOM     59  C   UNL A   1      47.361  24.772  26.513  1.00  0.00     0.031 C 
ATOM     60  C   UNL A   1      48.183  27.081  26.876  1.00  0.00     0.031 A 
BRANCH  47  61
ATOM     61  C   UNL A   1      46.372  32.772  28.459  1.00  0.00    -0.014 A 
ATOM     62  C   UNL A   1      46.309  33.705  27.407  1.00  0.00     0.010 A 
ATOM     63  C   UNL A   1      46.730  33.216  29.746  1.00  0.00     0.010 A 
ATOM     64  C   UNL A   1      46.623  35.047  27.632  1.00  0.00     0.020 A 
ATOM     65  C   UNL A   1      47.018  34.565  29.980  1.00  0.00     0.020 A 
ATOM     66  C   UNL A   1      46.973  35.469  28.917  1.00  0.00     0.054 A 
BRANCH  66  67
ATOM     67  S   UNL A   1      47.329  37.227  29.185  1.00  0.00     0.124 S 
ATOM     68  O   UNL A   1      48.166  37.545  28.031  1.00  0.00    -0.237 OA
ATOM     69  O   UNL A   1      45.997  37.827  29.178  1.00  0.00    -0.237 OA
ATOM     70  O   UNL A   1      48.013  37.251  30.476  1.00  0.00    -0.744 OA
ENDBRANCH  66  67
ENDBRANCH  47  61
BRANCH  48  71
ATOM     71  C   UNL A   1      43.422  23.341  26.971  1.00  0.00    -0.014 A 
ATOM     72  C   UNL A   1      42.995  22.514  28.025  1.00  0.00     0.010 A 
ATOM     73  C   UNL A   1      43.461  22.817  25.666  1.00  0.00     0.010 A 
ATOM     74  C   UNL A   1      42.651  21.180  27.785  1.00  0.00     0.020 A 
ATOM     75  C   UNL A   1      43.085  21.493  25.417  1.00  0.00     0.020 A 
ATOM     76  C   UNL A   1      42.701  20.677  26.482  1.00  0.00     0.054 A 
BRANCH  76  77
ATOM     77  S   UNL A   1      42.233  18.948  26.192  1.00  0.00     0.124 S 
ATOM     78  O   UNL A   1      42.494  18.341  27.493  1.00  0.00    -0.237 OA
ATOM     79  O   UNL A   1      40.826  19.062  25.817  1.00  0.00    -0.237 OA
ATOM     80  O   UNL A   1      43.125  18.530  25.113  1.00  0.00    -0.744 OA
ENDBRANCH  76  77
ENDBRANCH  48  71
BRANCH  60  81
ATOM     81  C   UNL A   1      49.570  26.603  26.534  1.00  0.00    -0.014 A 
ATOM     82  C   UNL A   1      50.397  26.002  27.500  1.00  0.00     0.010 A 
ATOM     83  C   UNL A   1      50.032  26.712  25.210  1.00  0.00     0.010 A 
ATOM     84  C   UNL A   1      51.673  25.548  27.154  1.00  0.00     0.020 A 
ATOM     85  C   UNL A   1      51.294  26.231  24.852  1.00  0.00     0.020 A 
ATOM     86  C   UNL A   1      52.113  25.665  25.832  1.00  0.00     0.054 A 
BRANCH  86  87
ATOM     87  S   UNL A   1      53.755  25.027  25.400  1.00  0.00     0.124 S 
ATOM     88  O   UNL A   1      54.551  25.428  26.555  1.00  0.00    -0.237 OA
ATOM     89  O   UNL A   1      53.516  23.592  25.268  1.00  0.00    -0.237 OA
ATOM     90  O   UNL A   1      54.077  25.715  24.151  1.00  0.00    -0.744 OA
ENDBRANCH  86  87
ENDBRANCH  60  81
ENDBRANCH  34  35
ENDBRANCH  26  29
ENDBRANCH  24  25
ENDBRANCH   1  24
TORSDOF 16
ENDMDL
