MODEL 1
REMARK VINA RESULT:      -9.8      0.000      0.000
REMARK SMILES C[C@H](CO)CSc1cc(Cl)ccc1C(=O)NCCCCNC(=O)c1ccc(-c2c3nc(c(-c4ccc(S(=O)(=O)[O-])cc4)c4ccc([nH]4)c(-c4ccc(S(=O)(=O)[O-])cc4)c4nc(c(-c5ccc(S(=O)(=O)[O-])cc5)c5ccc2[nH]5)C=C4)C=C3)cc1
REMARK SMILES IDX 17 1 16 2 14 3 15 4 13 6 7 7 8 8 9 9 12 10 10 11 11 12 6 13
REMARK SMILES IDX 5 14 2 15 1 16 3 17 4 18 18 20 19 21 20 22 21 23 22 24 23 26
REMARK SMILES IDX 24 27 25 28 83 29 26 30 82 31 27 32 28 33 29 34 76 35 30 36
REMARK SMILES IDX 81 37 75 38 77 39 31 40 80 41 74 42 73 43 32 45 62 46 43 47
REMARK SMILES IDX 61 48 44 49 47 50 60 51 78 52 45 53 46 54 59 56 79 57 48 58
REMARK SMILES IDX 33 59 34 60 42 61 35 62 41 63 36 64 37 65 38 66 39 67 40 68
REMARK SMILES IDX 63 69 64 70 72 71 65 72 71 73 66 74 67 75 68 76 69 77 70 78
REMARK SMILES IDX 49 79 50 80 58 81 51 82 57 83 52 84 53 85 54 86 55 87 56 88
REMARK H PARENT 16 5 4 19 21 25 77 44 47 55
REMARK Flexibility Score: inf
ROOT
ATOM      1  C   UNL A   1      31.076  26.649  26.212  1.00  0.00     0.116 C 
ENDROOT
BRANCH   1   2
ATOM      2  N   UNL A   1      31.025  25.332  26.796  1.00  0.00    -0.352 N 
ATOM      3  C   UNL A   1      31.768  24.195  26.849  1.00  0.00     0.252 C 
ATOM      4  O   UNL A   1      31.138  23.279  27.403  1.00  0.00    -0.269 OA
ATOM      5  H   UNL A   1      30.198  25.223  27.319  1.00  0.00     0.163 HD
BRANCH   3   6
ATOM      6  C   UNL A   1      33.181  23.888  26.404  1.00  0.00     0.053 A 
ATOM      7  C   UNL A   1      34.155  24.592  25.666  1.00  0.00     0.021 A 
ATOM      8  C   UNL A   1      35.450  24.022  25.500  1.00  0.00     0.036 A 
ATOM      9  C   UNL A   1      35.780  22.759  25.978  1.00  0.00     0.042 A 
ATOM     10  C   UNL A   1      33.574  22.594  26.872  1.00  0.00     0.016 A 
ATOM     11  Cl  UNL A   1      37.347  22.111  25.708  1.00  0.00    -0.084 Cl
ATOM     12  C   UNL A   1      34.835  22.030  26.660  1.00  0.00     0.021 A 
BRANCH   7  13
ATOM     13  S   UNL A   1      34.107  26.188  24.866  1.00  0.00    -0.125 SA
BRANCH  13  14
ATOM     14  C   UNL A   1      33.266  25.817  23.295  1.00  0.00     0.080 C 
BRANCH  14  15
ATOM     15  C   UNL A   1      32.533  24.475  23.204  1.00  0.00     0.022 C 
ATOM     16  C   UNL A   1      33.077  23.713  21.983  1.00  0.00     0.011 C 
BRANCH  15  17
ATOM     17  C   UNL A   1      31.018  24.650  23.095  1.00  0.00     0.160 C 
BRANCH  17  18
ATOM     18  O   UNL A   1      30.389  23.429  22.725  1.00  0.00    -0.396 OA
ATOM     19  H   UNL A   1      29.731  23.188  23.396  1.00  0.00     0.210 HD
ENDBRANCH  17  18
ENDBRANCH  15  17
ENDBRANCH  14  15
ENDBRANCH  13  14
ENDBRANCH   7  13
ENDBRANCH   3   6
ENDBRANCH   1   2
BRANCH   1  20
ATOM     20  C   UNL A   1      31.788  27.610  27.168  1.00  0.00     0.023 C 
BRANCH  20  21
ATOM     21  C   UNL A   1      32.141  28.968  26.574  1.00  0.00     0.023 C 
BRANCH  21  22
ATOM     22  C   UNL A   1      33.525  29.481  26.953  1.00  0.00     0.116 C 
BRANCH  22  23
ATOM     23  N   UNL A   1      33.523  30.744  27.685  1.00  0.00    -0.352 N 
ATOM     24  C   UNL A   1      34.523  31.269  28.473  1.00  0.00     0.251 C 
ATOM     25  H   UNL A   1      32.706  31.289  27.606  1.00  0.00     0.163 HD
ATOM     26  O   UNL A   1      34.362  32.321  29.079  1.00  0.00    -0.269 OA
BRANCH  24  27
ATOM     27  C   UNL A   1      35.774  30.500  28.607  1.00  0.00     0.039 A 
ATOM     28  C   UNL A   1      36.737  30.593  27.602  1.00  0.00     0.014 A 
ATOM     29  C   UNL A   1      36.038  29.812  29.794  1.00  0.00     0.014 A 
ATOM     30  C   UNL A   1      38.013  30.078  27.833  1.00  0.00     0.010 A 
ATOM     31  C   UNL A   1      37.332  29.385  30.056  1.00  0.00     0.010 A 
ATOM     32  C   UNL A   1      38.335  29.524  29.084  1.00  0.00    -0.014 A 
BRANCH  32  33
ATOM     33  C   UNL A   1      39.718  29.097  29.414  1.00  0.00     0.031 A 
ATOM     34  C   UNL A   1      40.660  30.068  30.074  1.00  0.00     0.074 A 
ATOM     35  C   UNL A   1      40.155  27.880  29.031  1.00  0.00     0.049 A 
ATOM     36  N   UNL A   1      41.936  29.934  30.325  1.00  0.00    -0.248 NA
ATOM     37  C   UNL A   1      40.104  31.376  30.460  1.00  0.00     0.031 C 
ATOM     38  C   UNL A   1      39.360  26.872  28.321  1.00  0.00     0.029 A 
ATOM     39  N   UNL A   1      41.383  27.287  29.174  1.00  0.00    -0.354 N 
ATOM     40  C   UNL A   1      42.342  31.153  30.859  1.00  0.00     0.074 A 
ATOM     41  C   UNL A   1      41.189  32.025  30.853  1.00  0.00     0.031 C 
ATOM     42  C   UNL A   1      40.112  25.777  28.121  1.00  0.00     0.029 A 
ATOM     43  C   UNL A   1      41.450  26.016  28.651  1.00  0.00     0.049 A 
ATOM     44  H   UNL A   1      42.146  27.730  29.610  1.00  0.00     0.167 HD
ATOM     45  C   UNL A   1      43.559  31.506  31.331  1.00  0.00     0.031 A 
ATOM     46  C   UNL A   1      42.474  25.143  28.604  1.00  0.00     0.031 A 
ATOM     47  C   UNL A   1      44.689  30.619  31.386  1.00  0.00     0.049 A 
ATOM     48  C   UNL A   1      43.798  25.535  29.199  1.00  0.00     0.074 A 
ATOM     49  C   UNL A   1      45.944  30.856  31.918  1.00  0.00     0.029 A 
ATOM     50  N   UNL A   1      44.693  29.318  30.909  1.00  0.00    -0.354 N 
ATOM     51  N   UNL A   1      44.145  26.672  29.753  1.00  0.00    -0.248 NA
ATOM     52  C   UNL A   1      44.863  24.523  29.175  1.00  0.00     0.031 C 
ATOM     53  C   UNL A   1      46.716  29.704  31.741  1.00  0.00     0.029 A 
ATOM     54  C   UNL A   1      45.929  28.739  31.132  1.00  0.00     0.049 A 
ATOM     55  H   UNL A   1      43.930  28.872  30.475  1.00  0.00     0.167 HD
ATOM     56  C   UNL A   1      45.461  26.503  30.166  1.00  0.00     0.074 A 
ATOM     57  C   UNL A   1      45.843  25.151  29.809  1.00  0.00     0.031 C 
ATOM     58  C   UNL A   1      46.282  27.388  30.782  1.00  0.00     0.031 A 
BRANCH  45  59
ATOM     59  C   UNL A   1      43.722  32.912  31.840  1.00  0.00    -0.014 A 
ATOM     60  C   UNL A   1      43.613  33.200  33.212  1.00  0.00     0.010 A 
ATOM     61  C   UNL A   1      44.015  33.952  30.941  1.00  0.00     0.010 A 
ATOM     62  C   UNL A   1      43.750  34.513  33.671  1.00  0.00     0.020 A 
ATOM     63  C   UNL A   1      44.179  35.263  31.399  1.00  0.00     0.020 A 
ATOM     64  C   UNL A   1      44.027  35.536  32.761  1.00  0.00     0.054 A 
BRANCH  64  65
ATOM     65  S   UNL A   1      44.222  37.228  33.385  1.00  0.00     0.124 S 
ATOM     66  O   UNL A   1      44.657  37.940  32.187  1.00  0.00    -0.237 OA
ATOM     67  O   UNL A   1      42.879  37.554  33.857  1.00  0.00    -0.237 OA
ATOM     68  O   UNL A   1      45.231  37.095  34.433  1.00  0.00    -0.744 OA
ENDBRANCH  64  65
ENDBRANCH  45  59
BRANCH  46  69
ATOM     69  C   UNL A   1      42.282  23.798  27.998  1.00  0.00    -0.014 A 
ATOM     70  C   UNL A   1      42.502  22.638  28.764  1.00  0.00     0.010 A 
ATOM     71  C   UNL A   1      41.882  23.666  26.656  1.00  0.00     0.010 A 
ATOM     72  C   UNL A   1      42.350  21.373  28.193  1.00  0.00     0.020 A 
ATOM     73  C   UNL A   1      41.708  22.401  26.088  1.00  0.00     0.020 A 
ATOM     74  C   UNL A   1      41.957  21.261  26.857  1.00  0.00     0.054 A 
BRANCH  74  75
ATOM     75  S   UNL A   1      41.726  19.609  26.143  1.00  0.00     0.124 S 
ATOM     76  O   UNL A   1      40.315  19.636  25.771  1.00  0.00    -0.237 OA
ATOM     77  O   UNL A   1      42.675  19.606  25.032  1.00  0.00    -0.237 OA
ATOM     78  O   UNL A   1      42.068  18.713  27.245  1.00  0.00    -0.744 OA
ENDBRANCH  74  75
ENDBRANCH  46  69
BRANCH  58  79
ATOM     79  C   UNL A   1      47.659  26.912  31.148  1.00  0.00    -0.014 A 
ATOM     80  C   UNL A   1      47.923  26.366  32.416  1.00  0.00     0.010 A 
ATOM     81  C   UNL A   1      48.685  26.955  30.187  1.00  0.00     0.010 A 
ATOM     82  C   UNL A   1      49.199  25.892  32.725  1.00  0.00     0.020 A 
ATOM     83  C   UNL A   1      49.956  26.463  30.487  1.00  0.00     0.020 A 
ATOM     84  C   UNL A   1      50.209  25.946  31.758  1.00  0.00     0.054 A 
BRANCH  84  85
ATOM     85  S   UNL A   1      51.846  25.278  32.164  1.00  0.00     0.124 S 
ATOM     86  O   UNL A   1      52.689  25.905  31.150  1.00  0.00    -0.237 OA
ATOM     87  O   UNL A   1      52.057  25.744  33.532  1.00  0.00    -0.237 OA
ATOM     88  O   UNL A   1      51.672  23.834  32.026  1.00  0.00    -0.744 OA
ENDBRANCH  84  85
ENDBRANCH  58  79
ENDBRANCH  32  33
ENDBRANCH  24  27
ENDBRANCH  22  23
ENDBRANCH  21  22
ENDBRANCH  20  21
ENDBRANCH   1  20
TORSDOF 19
ENDMDL
MODEL 2
REMARK VINA RESULT:      -9.7      3.929      8.235
REMARK SMILES C[C@H](CO)CSc1cc(Cl)ccc1C(=O)NCCCCNC(=O)c1ccc(-c2c3nc(c(-c4ccc(S(=O)(=O)[O-])cc4)c4ccc([nH]4)c(-c4ccc(S(=O)(=O)[O-])cc4)c4nc(c(-c5ccc(S(=O)(=O)[O-])cc5)c5ccc2[nH]5)C=C4)C=C3)cc1
REMARK SMILES IDX 17 1 16 2 14 3 15 4 13 6 7 7 8 8 9 9 12 10 10 11 11 12 6 13
REMARK SMILES IDX 5 14 2 15 1 16 3 17 4 18 18 20 19 21 20 22 21 23 22 24 23 26
REMARK SMILES IDX 24 27 25 28 83 29 26 30 82 31 27 32 28 33 29 34 76 35 30 36
REMARK SMILES IDX 81 37 75 38 77 39 31 40 80 41 74 42 73 43 32 45 62 46 43 47
REMARK SMILES IDX 61 48 44 49 47 50 60 51 78 52 45 53 46 54 59 56 79 57 48 58
REMARK SMILES IDX 33 59 34 60 42 61 35 62 41 63 36 64 37 65 38 66 39 67 40 68
REMARK SMILES IDX 63 69 64 70 72 71 65 72 71 73 66 74 67 75 68 76 69 77 70 78
REMARK SMILES IDX 49 79 50 80 58 81 51 82 57 83 52 84 53 85 54 86 55 87 56 88
REMARK H PARENT 16 5 4 19 21 25 77 44 47 55
REMARK Flexibility Score: inf
ROOT
ATOM      1  C   UNL A   1      36.092  23.578  25.474  1.00  0.00     0.116 C 
ENDROOT
BRANCH   1   2
ATOM      2  N   UNL A   1      35.435  22.726  26.433  1.00  0.00    -0.352 N 
ATOM      3  C   UNL A   1      34.467  21.773  26.477  1.00  0.00     0.252 C 
ATOM      4  O   UNL A   1      34.195  21.471  27.651  1.00  0.00    -0.269 OA
ATOM      5  H   UNL A   1      35.802  22.881  27.334  1.00  0.00     0.163 HD
BRANCH   3   6
ATOM      6  C   UNL A   1      33.732  21.025  25.387  1.00  0.00     0.053 A 
ATOM      7  C   UNL A   1      32.688  21.358  24.498  1.00  0.00     0.021 A 
ATOM      8  C   UNL A   1      32.285  20.411  23.512  1.00  0.00     0.036 A 
ATOM      9  C   UNL A   1      32.830  19.135  23.431  1.00  0.00     0.042 A 
ATOM     10  C   UNL A   1      34.256  19.699  25.259  1.00  0.00     0.016 A 
ATOM     11  Cl  UNL A   1      32.270  18.026  22.246  1.00  0.00    -0.084 Cl
ATOM     12  C   UNL A   1      33.815  18.767  24.315  1.00  0.00     0.021 A 
BRANCH   7  13
ATOM     13  S   UNL A   1      31.720  22.847  24.317  1.00  0.00    -0.125 SA
BRANCH  13  14
ATOM     14  C   UNL A   1      32.838  23.932  23.374  1.00  0.00     0.080 C 
BRANCH  14  15
ATOM     15  C   UNL A   1      32.260  25.266  22.892  1.00  0.00     0.022 C 
ATOM     16  C   UNL A   1      30.756  25.284  23.220  1.00  0.00     0.011 C 
BRANCH  15  17
ATOM     17  C   UNL A   1      32.486  25.488  21.397  1.00  0.00     0.160 C 
BRANCH  17  18
ATOM     18  O   UNL A   1      33.498  26.461  21.172  1.00  0.00    -0.396 OA
ATOM     19  H   UNL A   1      33.940  26.667  22.011  1.00  0.00     0.210 HD
ENDBRANCH  17  18
ENDBRANCH  15  17
ENDBRANCH  14  15
ENDBRANCH  13  14
ENDBRANCH   7  13
ENDBRANCH   3   6
ENDBRANCH   1   2
BRANCH   1  20
ATOM     20  C   UNL A   1      37.610  23.452  25.626  1.00  0.00     0.023 C 
BRANCH  20  21
ATOM     21  C   UNL A   1      38.149  22.027  25.576  1.00  0.00     0.023 C 
BRANCH  21  22
ATOM     22  C   UNL A   1      39.374  21.786  26.449  1.00  0.00     0.116 C 
BRANCH  22  23
ATOM     23  N   UNL A   1      40.041  20.508  26.216  1.00  0.00    -0.352 N 
ATOM     24  C   UNL A   1      41.394  20.257  26.159  1.00  0.00     0.251 C 
ATOM     25  H   UNL A   1      39.452  19.731  26.083  1.00  0.00     0.163 HD
ATOM     26  O   UNL A   1      41.816  19.137  25.897  1.00  0.00    -0.269 OA
BRANCH  24  27
ATOM     27  C   UNL A   1      42.318  21.386  26.372  1.00  0.00     0.039 A 
ATOM     28  C   UNL A   1      42.630  22.218  25.297  1.00  0.00     0.014 A 
ATOM     29  C   UNL A   1      42.746  21.693  27.666  1.00  0.00     0.014 A 
ATOM     30  C   UNL A   1      43.293  23.421  25.538  1.00  0.00     0.010 A 
ATOM     31  C   UNL A   1      43.321  22.932  27.913  1.00  0.00     0.010 A 
ATOM     32  C   UNL A   1      43.589  23.813  26.855  1.00  0.00    -0.014 A 
BRANCH  32  33
ATOM     33  C   UNL A   1      44.163  25.147  27.160  1.00  0.00     0.031 A 
ATOM     34  C   UNL A   1      43.289  26.215  27.760  1.00  0.00     0.074 A 
ATOM     35  C   UNL A   1      45.434  25.429  26.807  1.00  0.00     0.049 A 
ATOM     36  N   UNL A   1      43.561  27.475  27.980  1.00  0.00    -0.248 NA
ATOM     37  C   UNL A   1      41.913  25.826  28.116  1.00  0.00     0.031 C 
ATOM     38  C   UNL A   1      46.364  24.501  26.155  1.00  0.00     0.029 A 
ATOM     39  N   UNL A   1      46.161  26.585  26.936  1.00  0.00    -0.354 N 
ATOM     40  C   UNL A   1      42.383  28.035  28.459  1.00  0.00     0.074 A 
ATOM     41  C   UNL A   1      41.383  26.991  28.457  1.00  0.00     0.031 C 
ATOM     42  C   UNL A   1      47.545  25.116  25.971  1.00  0.00     0.029 A 
ATOM     43  C   UNL A   1      47.446  26.489  26.455  1.00  0.00     0.049 A 
ATOM     44  H   UNL A   1      45.797  27.408  27.334  1.00  0.00     0.167 HD
ATOM     45  C   UNL A   1      42.159  29.300  28.885  1.00  0.00     0.031 A 
ATOM     46  C   UNL A   1      48.434  27.403  26.409  1.00  0.00     0.031 A 
ATOM     47  C   UNL A   1      43.168  30.321  28.938  1.00  0.00     0.049 A 
ATOM     48  C   UNL A   1      48.180  28.781  26.952  1.00  0.00     0.074 A 
ATOM     49  C   UNL A   1      43.062  31.611  29.427  1.00  0.00     0.029 A 
ATOM     50  N   UNL A   1      44.475  30.160  28.506  1.00  0.00    -0.354 N 
ATOM     51  N   UNL A   1      47.074  29.274  27.457  1.00  0.00    -0.248 NA
ATOM     52  C   UNL A   1      49.309  29.722  26.933  1.00  0.00     0.031 C 
ATOM     53  C   UNL A   1      44.301  32.239  29.267  1.00  0.00     0.029 A 
ATOM     54  C   UNL A   1      45.187  31.328  28.714  1.00  0.00     0.049 A 
ATOM     55  H   UNL A   1      44.843  29.337  28.109  1.00  0.00     0.167 HD
ATOM     56  C   UNL A   1      47.382  30.575  27.838  1.00  0.00     0.074 A 
ATOM     57  C   UNL A   1      48.779  30.787  27.518  1.00  0.00     0.031 C 
ATOM     58  C   UNL A   1      46.579  31.511  28.400  1.00  0.00     0.031 A 
BRANCH  45  59
ATOM     59  C   UNL A   1      40.766  29.639  29.341  1.00  0.00    -0.014 A 
ATOM     60  C   UNL A   1      40.497  29.919  30.692  1.00  0.00     0.010 A 
ATOM     61  C   UNL A   1      39.720  29.707  28.404  1.00  0.00     0.010 A 
ATOM     62  C   UNL A   1      39.196  30.217  31.107  1.00  0.00     0.020 A 
ATOM     63  C   UNL A   1      38.422  30.031  28.810  1.00  0.00     0.020 A 
ATOM     64  C   UNL A   1      38.166  30.266  30.164  1.00  0.00     0.054 A 
BRANCH  64  65
ATOM     65  S   UNL A   1      36.491  30.678  30.724  1.00  0.00     0.124 S 
ATOM     66  O   UNL A   1      36.041  29.405  31.279  1.00  0.00    -0.237 OA
ATOM     67  O   UNL A   1      36.729  31.739  31.699  1.00  0.00    -0.237 OA
ATOM     68  O   UNL A   1      35.813  31.101  29.502  1.00  0.00    -0.744 OA
ENDBRANCH  64  65
ENDBRANCH  45  59
BRANCH  46  69
ATOM     69  C   UNL A   1      49.765  27.039  25.855  1.00  0.00    -0.014 A 
ATOM     70  C   UNL A   1      50.700  26.353  26.652  1.00  0.00     0.010 A 
ATOM     71  C   UNL A   1      50.109  27.375  24.533  1.00  0.00     0.010 A 
ATOM     72  C   UNL A   1      51.962  26.032  26.147  1.00  0.00     0.020 A 
ATOM     73  C   UNL A   1      51.363  27.035  24.017  1.00  0.00     0.020 A 
ATOM     74  C   UNL A   1      52.287  26.378  24.833  1.00  0.00     0.054 A 
BRANCH  74  75
ATOM     75  S   UNL A   1      53.917  25.917  24.180  1.00  0.00     0.124 S 
ATOM     76  O   UNL A   1      54.092  24.576  24.725  1.00  0.00    -0.237 OA
ATOM     77  O   UNL A   1      53.714  25.993  22.734  1.00  0.00    -0.237 OA
ATOM     78  O   UNL A   1      54.803  26.940  24.729  1.00  0.00    -0.744 OA
ENDBRANCH  74  75
ENDBRANCH  46  69
BRANCH  58  79
ATOM     79  C   UNL A   1      47.201  32.836  28.744  1.00  0.00    -0.014 A 
ATOM     80  C   UNL A   1      47.826  33.042  29.986  1.00  0.00     0.010 A 
ATOM     81  C   UNL A   1      47.212  33.864  27.785  1.00  0.00     0.010 A 
ATOM     82  C   UNL A   1      48.433  34.266  30.273  1.00  0.00     0.020 A 
ATOM     83  C   UNL A   1      47.836  35.082  28.062  1.00  0.00     0.020 A 
ATOM     84  C   UNL A   1      48.432  35.280  29.308  1.00  0.00     0.054 A 
BRANCH  84  85
ATOM     85  S   UNL A   1      49.271  36.844  29.682  1.00  0.00     0.124 S 
ATOM     86  O   UNL A   1      50.450  36.389  30.413  1.00  0.00    -0.237 OA
ATOM     87  O   UNL A   1      49.529  37.399  28.355  1.00  0.00    -0.237 OA
ATOM     88  O   UNL A   1      48.289  37.580  30.476  1.00  0.00    -0.744 OA
ENDBRANCH  84  85
ENDBRANCH  58  79
ENDBRANCH  32  33
ENDBRANCH  24  27
ENDBRANCH  22  23
ENDBRANCH  21  22
ENDBRANCH  20  21
ENDBRANCH   1  20
TORSDOF 19
ENDMDL
MODEL 3
REMARK VINA RESULT:      -9.5      2.391      3.131
REMARK SMILES C[C@H](CO)CSc1cc(Cl)ccc1C(=O)NCCCCNC(=O)c1ccc(-c2c3nc(c(-c4ccc(S(=O)(=O)[O-])cc4)c4ccc([nH]4)c(-c4ccc(S(=O)(=O)[O-])cc4)c4nc(c(-c5ccc(S(=O)(=O)[O-])cc5)c5ccc2[nH]5)C=C4)C=C3)cc1
REMARK SMILES IDX 17 1 16 2 14 3 15 4 13 6 7 7 8 8 9 9 12 10 10 11 11 12 6 13
REMARK SMILES IDX 5 14 2 15 1 16 3 17 4 18 18 20 19 21 20 22 21 23 22 24 23 26
REMARK SMILES IDX 24 27 25 28 83 29 26 30 82 31 27 32 28 33 29 34 76 35 30 36
REMARK SMILES IDX 81 37 75 38 77 39 31 40 80 41 74 42 73 43 32 45 62 46 43 47
REMARK SMILES IDX 61 48 44 49 47 50 60 51 78 52 45 53 46 54 59 56 79 57 48 58
REMARK SMILES IDX 33 59 34 60 42 61 35 62 41 63 36 64 37 65 38 66 39 67 40 68
REMARK SMILES IDX 63 69 64 70 72 71 65 72 71 73 66 74 67 75 68 76 69 77 70 78
REMARK SMILES IDX 49 79 50 80 58 81 51 82 57 83 52 84 53 85 54 86 55 87 56 88
REMARK H PARENT 16 5 4 19 21 25 77 44 47 55
REMARK Flexibility Score: inf
ROOT
ATOM      1  C   UNL A   1      31.766  29.673  25.446  1.00  0.00     0.116 C 
ENDROOT
BRANCH   1   2
ATOM      2  N   UNL A   1      32.735  29.492  24.394  1.00  0.00    -0.352 N 
ATOM      3  C   UNL A   1      33.538  28.521  23.884  1.00  0.00     0.252 C 
ATOM      4  O   UNL A   1      34.311  28.987  23.031  1.00  0.00    -0.269 OA
ATOM      5  H   UNL A   1      32.851  30.330  23.889  1.00  0.00     0.163 HD
BRANCH   3   6
ATOM      6  C   UNL A   1      33.614  27.032  24.141  1.00  0.00     0.053 A 
ATOM      7  C   UNL A   1      33.452  25.886  23.335  1.00  0.00     0.021 A 
ATOM      8  C   UNL A   1      33.685  24.598  23.900  1.00  0.00     0.036 A 
ATOM      9  C   UNL A   1      33.999  24.414  25.241  1.00  0.00     0.042 A 
ATOM     10  C   UNL A   1      33.937  26.784  25.513  1.00  0.00     0.016 A 
ATOM     11  Cl  UNL A   1      34.226  22.833  25.870  1.00  0.00    -0.084 Cl
ATOM     12  C   UNL A   1      34.116  25.511  26.061  1.00  0.00     0.021 A 
BRANCH   7  13
ATOM     13  S   UNL A   1      33.018  25.703  21.612  1.00  0.00    -0.125 SA
BRANCH  13  14
ATOM     14  C   UNL A   1      31.278  26.242  21.584  1.00  0.00     0.080 C 
BRANCH  14  15
ATOM     15  C   UNL A   1      30.699  26.773  22.899  1.00  0.00     0.022 C 
ATOM     16  C   UNL A   1      29.810  25.675  23.509  1.00  0.00     0.011 C 
BRANCH  15  17
ATOM     17  C   UNL A   1      29.900  28.061  22.701  1.00  0.00     0.160 C 
BRANCH  17  18
ATOM     18  O   UNL A   1      30.600  28.971  21.863  1.00  0.00    -0.396 OA
ATOM     19  H   UNL A   1      29.976  29.395  21.253  1.00  0.00     0.210 HD
ENDBRANCH  17  18
ENDBRANCH  15  17
ENDBRANCH  14  15
ENDBRANCH  13  14
ENDBRANCH   7  13
ENDBRANCH   3   6
ENDBRANCH   1   2
BRANCH   1  20
ATOM     20  C   UNL A   1      32.347  30.583  26.532  1.00  0.00     0.023 C 
BRANCH  20  21
ATOM     21  C   UNL A   1      33.455  29.958  27.372  1.00  0.00     0.023 C 
BRANCH  21  22
ATOM     22  C   UNL A   1      34.581  30.916  27.742  1.00  0.00     0.116 C 
BRANCH  22  23
ATOM     23  N   UNL A   1      34.490  31.465  29.092  1.00  0.00    -0.352 N 
ATOM     24  C   UNL A   1      35.412  31.368  30.110  1.00  0.00     0.251 C 
ATOM     25  H   UNL A   1      33.668  31.967  29.300  1.00  0.00     0.163 HD
ATOM     26  O   UNL A   1      35.177  31.832  31.219  1.00  0.00    -0.269 OA
BRANCH  24  27
ATOM     27  C   UNL A   1      36.667  30.643  29.841  1.00  0.00     0.039 A 
ATOM     28  C   UNL A   1      37.194  30.659  28.550  1.00  0.00     0.014 A 
ATOM     29  C   UNL A   1      37.380  30.080  30.902  1.00  0.00     0.014 A 
ATOM     30  C   UNL A   1      38.494  30.195  28.340  1.00  0.00     0.010 A 
ATOM     31  C   UNL A   1      38.703  29.708  30.707  1.00  0.00     0.010 A 
ATOM     32  C   UNL A   1      39.277  29.773  29.428  1.00  0.00    -0.014 A 
BRANCH  32  33
ATOM     33  C   UNL A   1      40.707  29.410  29.264  1.00  0.00     0.031 A 
ATOM     34  C   UNL A   1      41.768  30.460  29.453  1.00  0.00     0.074 A 
ATOM     35  C   UNL A   1      41.042  28.172  28.849  1.00  0.00     0.049 A 
ATOM     36  N   UNL A   1      43.054  30.379  29.231  1.00  0.00    -0.248 NA
ATOM     37  C   UNL A   1      41.318  31.787  29.906  1.00  0.00     0.031 C 
ATOM     38  C   UNL A   1      40.101  27.083  28.564  1.00  0.00     0.029 A 
ATOM     39  N   UNL A   1      42.270  27.621  28.582  1.00  0.00    -0.354 N 
ATOM     40  C   UNL A   1      43.558  31.651  29.477  1.00  0.00     0.074 A 
ATOM     41  C   UNL A   1      42.435  32.494  29.822  1.00  0.00     0.031 C 
ATOM     42  C   UNL A   1      40.789  25.990  28.193  1.00  0.00     0.029 A 
ATOM     43  C   UNL A   1      42.213  26.308  28.177  1.00  0.00     0.049 A 
ATOM     44  H   UNL A   1      43.113  28.120  28.671  1.00  0.00     0.167 HD
ATOM     45  C   UNL A   1      44.842  32.074  29.442  1.00  0.00     0.031 A 
ATOM     46  C   UNL A   1      43.198  25.456  27.831  1.00  0.00     0.031 A 
ATOM     47  C   UNL A   1      45.962  31.222  29.153  1.00  0.00     0.049 A 
ATOM     48  C   UNL A   1      44.623  25.932  27.867  1.00  0.00     0.074 A 
ATOM     49  C   UNL A   1      47.310  31.536  29.169  1.00  0.00     0.029 A 
ATOM     50  N   UNL A   1      45.866  29.881  28.816  1.00  0.00    -0.354 N 
ATOM     51  N   UNL A   1      45.083  27.125  28.161  1.00  0.00    -0.248 NA
ATOM     52  C   UNL A   1      45.662  24.946  27.539  1.00  0.00     0.031 C 
ATOM     53  C   UNL A   1      48.028  30.389  28.817  1.00  0.00     0.029 A 
ATOM     54  C   UNL A   1      47.129  29.353  28.618  1.00  0.00     0.049 A 
ATOM     55  H   UNL A   1      45.023  29.379  28.728  1.00  0.00     0.167 HD
ATOM     56  C   UNL A   1      46.467  27.025  28.077  1.00  0.00     0.074 A 
ATOM     57  C   UNL A   1      46.768  25.654  27.718  1.00  0.00     0.031 C 
ATOM     58  C   UNL A   1      47.405  27.983  28.276  1.00  0.00     0.031 A 
BRANCH  45  59
ATOM     59  C   UNL A   1      45.100  33.526  29.739  1.00  0.00    -0.014 A 
ATOM     60  C   UNL A   1      45.183  34.471  28.702  1.00  0.00     0.010 A 
ATOM     61  C   UNL A   1      45.235  33.955  31.071  1.00  0.00     0.010 A 
ATOM     62  C   UNL A   1      45.440  35.815  28.989  1.00  0.00     0.020 A 
ATOM     63  C   UNL A   1      45.465  35.303  31.365  1.00  0.00     0.020 A 
ATOM     64  C   UNL A   1      45.584  36.221  30.318  1.00  0.00     0.054 A 
BRANCH  64  65
ATOM     65  S   UNL A   1      45.894  37.974  30.665  1.00  0.00     0.124 S 
ATOM     66  O   UNL A   1      45.470  38.082  32.058  1.00  0.00    -0.237 OA
ATOM     67  O   UNL A   1      47.331  38.098  30.435  1.00  0.00    -0.237 OA
ATOM     68  O   UNL A   1      45.050  38.671  29.699  1.00  0.00    -0.744 OA
ENDBRANCH  64  65
ENDBRANCH  45  59
BRANCH  46  69
ATOM     69  C   UNL A   1      42.874  24.055  27.449  1.00  0.00    -0.014 A 
ATOM     70  C   UNL A   1      42.693  23.714  26.096  1.00  0.00     0.010 A 
ATOM     71  C   UNL A   1      42.742  23.056  28.430  1.00  0.00     0.010 A 
ATOM     72  C   UNL A   1      42.363  22.406  25.733  1.00  0.00     0.020 A 
ATOM     73  C   UNL A   1      42.433  21.742  28.068  1.00  0.00     0.020 A 
ATOM     74  C   UNL A   1      42.231  21.428  26.722  1.00  0.00     0.054 A 
BRANCH  74  75
ATOM     75  S   UNL A   1      41.840  19.726  26.229  1.00  0.00     0.124 S 
ATOM     76  O   UNL A   1      42.242  18.970  27.411  1.00  0.00    -0.237 OA
ATOM     77  O   UNL A   1      40.403  19.789  25.976  1.00  0.00    -0.237 OA
ATOM     78  O   UNL A   1      42.664  19.521  25.041  1.00  0.00    -0.744 OA
ENDBRANCH  74  75
ENDBRANCH  46  69
BRANCH  58  79
ATOM     79  C   UNL A   1      48.845  27.574  28.152  1.00  0.00    -0.014 A 
ATOM     80  C   UNL A   1      49.487  27.552  26.901  1.00  0.00     0.010 A 
ATOM     81  C   UNL A   1      49.580  27.268  29.311  1.00  0.00     0.010 A 
ATOM     82  C   UNL A   1      50.837  27.208  26.810  1.00  0.00     0.020 A 
ATOM     83  C   UNL A   1      50.935  26.944  29.225  1.00  0.00     0.020 A 
ATOM     84  C   UNL A   1      51.552  26.904  27.973  1.00  0.00     0.054 A 
BRANCH  84  85
ATOM     85  S   UNL A   1      53.318  26.509  27.837  1.00  0.00     0.124 S 
ATOM     86  O   UNL A   1      53.860  27.740  27.269  1.00  0.00    -0.237 OA
ATOM     87  O   UNL A   1      53.696  26.236  29.222  1.00  0.00    -0.237 OA
ATOM     88  O   UNL A   1      53.343  25.348  26.951  1.00  0.00    -0.744 OA
ENDBRANCH  84  85
ENDBRANCH  58  79
ENDBRANCH  32  33
ENDBRANCH  24  27
ENDBRANCH  22  23
ENDBRANCH  21  22
ENDBRANCH  20  21
ENDBRANCH   1  20
TORSDOF 19
ENDMDL
