MODEL 1
REMARK VINA RESULT:     -11.7      0.000      0.000
REMARK SMILES CC(C)CSc1cc2c(cc1Cl)C=C(C(=O)NCCCCNC(=O)c1ccc(-c3c4nc(c(-c5ccc(S(=O)(=O)[O-])cc5)c5ccc([nH]5)c(-c5ccc(S(=O)(=O)[O-])cc5)c5nc(c(-c6ccc(S(=O)(=O)[O-])cc6)c6ccc3[nH]6)C=C5)C=C4)cc1)[C@@H](C(F)(F)F)O2
REMARK SMILES IDX 19 1 18 2 17 3 15 4 16 5 14 7 6 8 7 9 11 10 8 11 10 12 12 13
REMARK SMILES IDX 9 14 90 15 13 16 85 17 5 18 4 19 2 20 1 21 3 22 86 23 87 24
REMARK SMILES IDX 88 25 89 26 20 27 21 28 22 29 23 30 24 32 25 33 26 34 84 35
REMARK SMILES IDX 27 36 83 37 28 38 29 39 30 40 77 41 31 42 82 43 76 44 78 45
REMARK SMILES IDX 32 46 81 47 75 48 74 49 33 51 63 52 44 53 62 54 45 55 48 56
REMARK SMILES IDX 61 57 79 58 46 59 47 60 60 62 80 63 49 64 34 65 35 66 43 67
REMARK SMILES IDX 36 68 42 69 37 70 38 71 39 72 40 73 41 74 64 75 65 76 73 77
REMARK SMILES IDX 66 78 72 79 67 80 68 81 69 82 70 83 71 84 50 85 51 86 59 87
REMARK SMILES IDX 52 88 58 89 53 90 54 91 55 92 56 93 57 94
REMARK H PARENT 17 6 22 31 78 50 48 61
REMARK Flexibility Score: inf
ROOT
ATOM      1  C   UNL A   1      34.846  30.345  27.539  1.00  0.00     0.023 C 
ENDROOT
BRANCH   1   2
ATOM      2  C   UNL A   1      33.477  29.881  27.048  1.00  0.00     0.116 C 
BRANCH   2   3
ATOM      3  N   UNL A   1      33.399  29.831  25.599  1.00  0.00    -0.352 N 
ATOM      4  C   UNL A   1      33.186  28.888  24.652  1.00  0.00     0.251 C 
ATOM      5  O   UNL A   1      33.191  29.297  23.486  1.00  0.00    -0.270 OA
ATOM      6  H   UNL A   1      33.540  30.720  25.198  1.00  0.00     0.163 HD
BRANCH   4   7
ATOM      7  C   UNL A   1      32.958  27.435  24.915  1.00  0.00     0.067 C 
ATOM      8  C   UNL A   1      33.584  22.435  25.385  1.00  0.00     0.030 A 
ATOM      9  C   UNL A   1      32.603  23.351  25.791  1.00  0.00     0.063 A 
ATOM     10  C   UNL A   1      34.743  22.931  24.764  1.00  0.00     0.055 A 
ATOM     11  C   UNL A   1      32.740  24.712  25.523  1.00  0.00     0.129 A 
ATOM     12  C   UNL A   1      34.875  24.302  24.499  1.00  0.00     0.033 A 
ATOM     13  Cl  UNL A   1      36.090  21.928  24.350  1.00  0.00    -0.083 Cl
ATOM     14  C   UNL A   1      33.870  25.197  24.874  1.00  0.00     0.019 A 
ATOM     15  O   UNL A   1      31.739  25.521  25.973  1.00  0.00    -0.475 OA
ATOM     16  C   UNL A   1      34.006  26.629  24.655  1.00  0.00     0.025 C 
ATOM     17  C   UNL A   1      31.657  26.855  25.394  1.00  0.00     0.314 C 
BRANCH   8  18
ATOM     18  S   UNL A   1      33.247  20.720  25.775  1.00  0.00    -0.124 SA
BRANCH  18  19
ATOM     19  C   UNL A   1      32.617  20.055  24.189  1.00  0.00     0.078 C 
BRANCH  19  20
ATOM     20  C   UNL A   1      32.750  18.534  23.984  1.00  0.00    -0.007 C 
ATOM     21  C   UNL A   1      32.381  18.073  22.574  1.00  0.00     0.008 C 
ATOM     22  C   UNL A   1      34.201  18.125  24.272  1.00  0.00     0.008 C 
ENDBRANCH  19  20
ENDBRANCH  18  19
ENDBRANCH   8  18
BRANCH  17  23
ATOM     23  C   UNL A   1      30.571  26.849  24.302  1.00  0.00     0.429 C 
ATOM     24  F   UNL A   1      31.075  26.375  23.136  1.00  0.00    -0.167 F 
ATOM     25  F   UNL A   1      29.518  26.059  24.615  1.00  0.00    -0.167 F 
ATOM     26  F   UNL A   1      30.080  28.086  24.058  1.00  0.00    -0.167 F 
ENDBRANCH  17  23
ENDBRANCH   4   7
ENDBRANCH   2   3
ENDBRANCH   1   2
BRANCH   1  27
ATOM     27  C   UNL A   1      34.878  31.789  28.045  1.00  0.00     0.023 C 
BRANCH  27  28
ATOM     28  C   UNL A   1      35.849  32.067  29.192  1.00  0.00     0.116 C 
BRANCH  28  29
ATOM     29  N   UNL A   1      35.671  31.201  30.350  1.00  0.00    -0.352 N 
ATOM     30  C   UNL A   1      36.587  30.349  30.926  1.00  0.00     0.251 C 
ATOM     31  H   UNL A   1      34.784  31.228  30.776  1.00  0.00     0.163 HD
ATOM     32  O   UNL A   1      36.261  29.631  31.866  1.00  0.00    -0.269 OA
BRANCH  30  33
ATOM     33  C   UNL A   1      37.950  30.272  30.359  1.00  0.00     0.039 A 
ATOM     34  C   UNL A   1      38.135  30.215  28.976  1.00  0.00     0.014 A 
ATOM     35  C   UNL A   1      39.042  30.174  31.224  1.00  0.00     0.014 A 
ATOM     36  C   UNL A   1      39.383  29.877  28.469  1.00  0.00     0.010 A 
ATOM     37  C   UNL A   1      40.314  29.917  30.704  1.00  0.00     0.010 A 
ATOM     38  C   UNL A   1      40.484  29.709  29.328  1.00  0.00    -0.014 A 
BRANCH  38  39
ATOM     39  C   UNL A   1      41.792  29.299  28.754  1.00  0.00     0.031 A 
ATOM     40  C   UNL A   1      42.967  30.242  28.764  1.00  0.00     0.074 A 
ATOM     41  C   UNL A   1      41.941  28.039  28.300  1.00  0.00     0.049 A 
ATOM     42  N   UNL A   1      44.195  30.023  28.368  1.00  0.00    -0.248 NA
ATOM     43  C   UNL A   1      42.741  31.601  29.284  1.00  0.00     0.031 C 
ATOM     44  C   UNL A   1      40.880  27.031  28.264  1.00  0.00     0.029 A 
ATOM     45  N   UNL A   1      43.046  27.378  27.827  1.00  0.00    -0.354 N 
ATOM     46  C   UNL A   1      44.882  31.213  28.578  1.00  0.00     0.074 A 
ATOM     47  C   UNL A   1      43.931  32.162  29.108  1.00  0.00     0.031 C 
ATOM     48  C   UNL A   1      41.402  25.861  27.868  1.00  0.00     0.029 A 
ATOM     49  C   UNL A   1      42.814  26.050  27.557  1.00  0.00     0.049 A 
ATOM     50  H   UNL A   1      43.918  27.813  27.693  1.00  0.00     0.167 HD
ATOM     51  C   UNL A   1      46.191  31.483  28.359  1.00  0.00     0.031 A 
ATOM     52  C   UNL A   1      43.642  25.086  27.108  1.00  0.00     0.031 A 
ATOM     53  C   UNL A   1      47.139  30.529  27.845  1.00  0.00     0.049 A 
ATOM     54  C   UNL A   1      45.077  25.421  26.834  1.00  0.00     0.074 A 
ATOM     55  C   UNL A   1      48.489  30.710  27.602  1.00  0.00     0.029 A 
ATOM     56  N   UNL A   1      46.843  29.219  27.502  1.00  0.00    -0.354 N 
ATOM     57  N   UNL A   1      45.704  26.557  27.028  1.00  0.00    -0.248 NA
ATOM     58  C   UNL A   1      45.916  24.355  26.270  1.00  0.00     0.031 C 
ATOM     59  C   UNL A   1      48.999  29.527  27.062  1.00  0.00     0.029 A 
ATOM     60  C   UNL A   1      47.980  28.588  27.026  1.00  0.00     0.049 A 
ATOM     61  H   UNL A   1      45.957  28.799  27.586  1.00  0.00     0.167 HD
ATOM     62  C   UNL A   1      47.011  26.344  26.607  1.00  0.00     0.074 A 
ATOM     63  C   UNL A   1      47.093  24.963  26.174  1.00  0.00     0.031 C 
ATOM     64  C   UNL A   1      48.046  27.219  26.578  1.00  0.00     0.031 A 
BRANCH  51  65
ATOM     65  C   UNL A   1      46.695  32.869  28.670  1.00  0.00    -0.014 A 
ATOM     66  C   UNL A   1      46.995  33.221  29.999  1.00  0.00     0.010 A 
ATOM     67  C   UNL A   1      46.765  33.854  27.669  1.00  0.00     0.010 A 
ATOM     68  C   UNL A   1      47.335  34.536  30.327  1.00  0.00     0.020 A 
ATOM     69  C   UNL A   1      47.128  35.166  27.989  1.00  0.00     0.020 A 
ATOM     70  C   UNL A   1      47.390  35.503  29.320  1.00  0.00     0.054 A 
BRANCH  70  71
ATOM     71  S   UNL A   1      47.823  37.209  29.761  1.00  0.00     0.124 S 
ATOM     72  O   UNL A   1      46.518  37.796  30.041  1.00  0.00    -0.237 OA
ATOM     73  O   UNL A   1      48.697  37.029  30.918  1.00  0.00    -0.237 OA
ATOM     74  O   UNL A   1      48.493  37.711  28.562  1.00  0.00    -0.744 OA
ENDBRANCH  70  71
ENDBRANCH  51  65
BRANCH  52  75
ATOM     75  C   UNL A   1      43.107  23.711  26.917  1.00  0.00    -0.014 A 
ATOM     76  C   UNL A   1      43.145  22.782  27.974  1.00  0.00     0.010 A 
ATOM     77  C   UNL A   1      42.656  23.294  25.654  1.00  0.00     0.010 A 
ATOM     78  C   UNL A   1      42.806  21.445  27.755  1.00  0.00     0.020 A 
ATOM     79  C   UNL A   1      42.289  21.961  25.438  1.00  0.00     0.020 A 
ATOM     80  C   UNL A   1      42.399  21.039  26.482  1.00  0.00     0.054 A 
BRANCH  80  81
ATOM     81  S   UNL A   1      42.028  19.287  26.200  1.00  0.00     0.124 S 
ATOM     82  O   UNL A   1      40.599  19.329  25.898  1.00  0.00    -0.237 OA
ATOM     83  O   UNL A   1      42.899  18.950  25.077  1.00  0.00    -0.237 OA
ATOM     84  O   UNL A   1      42.382  18.656  27.469  1.00  0.00    -0.744 OA
ENDBRANCH  80  81
ENDBRANCH  52  75
BRANCH  64  85
ATOM     85  C   UNL A   1      49.362  26.733  26.038  1.00  0.00    -0.014 A 
ATOM     86  C   UNL A   1      50.294  26.128  26.901  1.00  0.00     0.010 A 
ATOM     87  C   UNL A   1      49.725  26.988  24.704  1.00  0.00     0.010 A 
ATOM     88  C   UNL A   1      51.576  25.812  26.448  1.00  0.00     0.020 A 
ATOM     89  C   UNL A   1      51.000  26.651  24.241  1.00  0.00     0.020 A 
ATOM     90  C   UNL A   1      51.926  26.087  25.123  1.00  0.00     0.054 A 
BRANCH  90  91
ATOM     91  S   UNL A   1      53.604  25.696  24.557  1.00  0.00     0.124 S 
ATOM     92  O   UNL A   1      53.541  26.050  23.142  1.00  0.00    -0.237 OA
ATOM     93  O   UNL A   1      54.435  26.564  25.387  1.00  0.00    -0.237 OA
ATOM     94  O   UNL A   1      53.734  24.268  24.838  1.00  0.00    -0.744 OA
ENDBRANCH  90  91
ENDBRANCH  64  85
ENDBRANCH  38  39
ENDBRANCH  30  33
ENDBRANCH  28  29
ENDBRANCH  27  28
ENDBRANCH   1  27
TORSDOF 18
ENDMDL
MODEL 2
REMARK VINA RESULT:     -11.5      6.285     11.780
REMARK SMILES CC(C)CSc1cc2c(cc1Cl)C=C(C(=O)NCCCCNC(=O)c1ccc(-c3c4nc(c(-c5ccc(S(=O)(=O)[O-])cc5)c5ccc([nH]5)c(-c5ccc(S(=O)(=O)[O-])cc5)c5nc(c(-c6ccc(S(=O)(=O)[O-])cc6)c6ccc3[nH]6)C=C5)C=C4)cc1)[C@@H](C(F)(F)F)O2
REMARK SMILES IDX 19 1 18 2 17 3 15 4 16 5 14 7 6 8 7 9 11 10 8 11 10 12 12 13
REMARK SMILES IDX 9 14 90 15 13 16 85 17 5 18 4 19 2 20 1 21 3 22 86 23 87 24
REMARK SMILES IDX 88 25 89 26 20 27 21 28 22 29 23 30 24 32 25 33 26 34 84 35
REMARK SMILES IDX 27 36 83 37 28 38 29 39 30 40 77 41 31 42 82 43 76 44 78 45
REMARK SMILES IDX 32 46 81 47 75 48 74 49 33 51 63 52 44 53 62 54 45 55 48 56
REMARK SMILES IDX 61 57 79 58 46 59 47 60 60 62 80 63 49 64 34 65 35 66 43 67
REMARK SMILES IDX 36 68 42 69 37 70 38 71 39 72 40 73 41 74 64 75 65 76 73 77
REMARK SMILES IDX 66 78 72 79 67 80 68 81 69 82 70 83 71 84 50 85 51 86 59 87
REMARK SMILES IDX 52 88 58 89 53 90 54 91 55 92 56 93 57 94
REMARK H PARENT 17 6 22 31 78 50 48 61
REMARK Flexibility Score: inf
ROOT
ATOM      1  C   UNL A   1      38.366  22.831  26.129  1.00  0.00     0.023 C 
ENDROOT
BRANCH   1   2
ATOM      2  C   UNL A   1      37.430  21.825  25.463  1.00  0.00     0.116 C 
BRANCH   2   3
ATOM      3  N   UNL A   1      36.242  21.570  26.257  1.00  0.00    -0.352 N 
ATOM      4  C   UNL A   1      34.979  22.052  26.330  1.00  0.00     0.251 C 
ATOM      5  O   UNL A   1      34.257  21.518  27.179  1.00  0.00    -0.270 OA
ATOM      6  H   UNL A   1      36.395  20.857  26.918  1.00  0.00     0.163 HD
BRANCH   4   7
ATOM      7  C   UNL A   1      34.423  23.151  25.484  1.00  0.00     0.067 C 
ATOM      8  C   UNL A   1      32.449  27.540  23.916  1.00  0.00     0.030 A 
ATOM      9  C   UNL A   1      33.035  26.435  23.280  1.00  0.00     0.063 A 
ATOM     10  C   UNL A   1      32.429  27.565  25.321  1.00  0.00     0.055 A 
ATOM     11  C   UNL A   1      33.522  25.359  24.020  1.00  0.00     0.129 A 
ATOM     12  C   UNL A   1      32.922  26.479  26.059  1.00  0.00     0.033 A 
ATOM     13  Cl  UNL A   1      31.872  28.930  26.228  1.00  0.00    -0.083 Cl
ATOM     14  C   UNL A   1      33.466  25.369  25.409  1.00  0.00     0.019 A 
ATOM     15  O   UNL A   1      34.086  24.342  23.307  1.00  0.00    -0.475 OA
ATOM     16  C   UNL A   1      34.029  24.252  26.152  1.00  0.00     0.025 C 
ATOM     17  C   UNL A   1      34.251  23.067  23.993  1.00  0.00     0.314 C 
BRANCH   8  18
ATOM     18  S   UNL A   1      31.844  28.825  22.827  1.00  0.00    -0.124 SA
BRANCH  18  19
ATOM     19  C   UNL A   1      30.122  28.301  22.490  1.00  0.00     0.078 C 
BRANCH  19  20
ATOM     20  C   UNL A   1      29.015  29.300  22.876  1.00  0.00    -0.007 C 
ATOM     21  C   UNL A   1      28.832  30.432  21.864  1.00  0.00     0.008 C 
ATOM     22  C   UNL A   1      27.689  28.538  23.007  1.00  0.00     0.008 C 
ENDBRANCH  19  20
ENDBRANCH  18  19
ENDBRANCH   8  18
BRANCH  17  23
ATOM     23  C   UNL A   1      33.098  22.135  23.578  1.00  0.00     0.429 C 
ATOM     24  F   UNL A   1      33.479  20.837  23.678  1.00  0.00    -0.167 F 
ATOM     25  F   UNL A   1      32.004  22.275  24.363  1.00  0.00    -0.167 F 
ATOM     26  F   UNL A   1      32.700  22.343  22.302  1.00  0.00    -0.167 F 
ENDBRANCH  17  23
ENDBRANCH   4   7
ENDBRANCH   2   3
ENDBRANCH   1   2
BRANCH   1  27
ATOM     27  C   UNL A   1      39.630  22.213  26.732  1.00  0.00     0.023 C 
BRANCH  27  28
ATOM     28  C   UNL A   1      40.753  23.194  27.064  1.00  0.00     0.116 C 
BRANCH  28  29
ATOM     29  N   UNL A   1      41.089  24.107  25.980  1.00  0.00    -0.352 N 
ATOM     30  C   UNL A   1      41.307  25.466  26.047  1.00  0.00     0.251 C 
ATOM     31  H   UNL A   1      41.171  23.703  25.086  1.00  0.00     0.163 HD
ATOM     32  O   UNL A   1      41.518  26.111  25.025  1.00  0.00    -0.269 OA
BRANCH  30  33
ATOM     33  C   UNL A   1      41.227  26.140  27.359  1.00  0.00     0.039 A 
ATOM     34  C   UNL A   1      40.040  26.115  28.093  1.00  0.00     0.014 A 
ATOM     35  C   UNL A   1      42.326  26.873  27.815  1.00  0.00     0.014 A 
ATOM     36  C   UNL A   1      39.893  26.964  29.183  1.00  0.00     0.010 A 
ATOM     37  C   UNL A   1      42.201  27.663  28.961  1.00  0.00     0.010 A 
ATOM     38  C   UNL A   1      40.967  27.761  29.620  1.00  0.00    -0.014 A 
BRANCH  38  39
ATOM     39  C   UNL A   1      40.757  28.694  30.757  1.00  0.00     0.031 A 
ATOM     40  C   UNL A   1      41.721  28.726  31.914  1.00  0.00     0.074 A 
ATOM     41  C   UNL A   1      39.739  29.574  30.702  1.00  0.00     0.049 A 
ATOM     42  N   UNL A   1      41.727  29.523  32.953  1.00  0.00    -0.248 NA
ATOM     43  C   UNL A   1      42.820  27.744  31.910  1.00  0.00     0.031 C 
ATOM     44  C   UNL A   1      38.757  29.652  29.618  1.00  0.00     0.029 A 
ATOM     45  N   UNL A   1      39.386  30.597  31.545  1.00  0.00    -0.354 N 
ATOM     46  C   UNL A   1      42.813  29.134  33.728  1.00  0.00     0.074 A 
ATOM     47  C   UNL A   1      43.429  28.011  33.059  1.00  0.00     0.031 C 
ATOM     48  C   UNL A   1      37.963  30.712  29.823  1.00  0.00     0.029 A 
ATOM     49  C   UNL A   1      38.332  31.349  31.083  1.00  0.00     0.049 A 
ATOM     50  H   UNL A   1      39.844  30.774  32.398  1.00  0.00     0.167 HD
ATOM     51  C   UNL A   1      43.262  29.673  34.885  1.00  0.00     0.031 A 
ATOM     52  C   UNL A   1      37.725  32.430  31.609  1.00  0.00     0.031 A 
ATOM     53  C   UNL A   1      42.654  30.803  35.540  1.00  0.00     0.049 A 
ATOM     54  C   UNL A   1      38.215  32.983  32.914  1.00  0.00     0.074 A 
ATOM     55  C   UNL A   1      43.047  31.426  36.712  1.00  0.00     0.029 A 
ATOM     56  N   UNL A   1      41.535  31.480  35.083  1.00  0.00    -0.354 N 
ATOM     57  N   UNL A   1      39.238  32.593  33.636  1.00  0.00    -0.248 NA
ATOM     58  C   UNL A   1      37.468  34.113  33.482  1.00  0.00     0.031 C 
ATOM     59  C   UNL A   1      42.135  32.446  36.992  1.00  0.00     0.029 A 
ATOM     60  C   UNL A   1      41.209  32.499  35.963  1.00  0.00     0.049 A 
ATOM     61  H   UNL A   1      41.045  31.269  34.256  1.00  0.00     0.167 HD
ATOM     62  C   UNL A   1      39.255  33.426  34.747  1.00  0.00     0.074 A 
ATOM     63  C   UNL A   1      38.159  34.360  34.589  1.00  0.00     0.031 C 
ATOM     64  C   UNL A   1      40.102  33.411  35.806  1.00  0.00     0.031 A 
BRANCH  51  65
ATOM     65  C   UNL A   1      44.474  29.058  35.537  1.00  0.00    -0.014 A 
ATOM     66  C   UNL A   1      44.314  27.990  36.439  1.00  0.00     0.010 A 
ATOM     67  C   UNL A   1      45.754  29.607  35.346  1.00  0.00     0.010 A 
ATOM     68  C   UNL A   1      45.408  27.494  37.154  1.00  0.00     0.020 A 
ATOM     69  C   UNL A   1      46.855  29.098  36.041  1.00  0.00     0.020 A 
ATOM     70  C   UNL A   1      46.671  28.058  36.957  1.00  0.00     0.054 A 
BRANCH  70  71
ATOM     71  S   UNL A   1      48.080  27.412  37.900  1.00  0.00     0.124 S 
ATOM     72  O   UNL A   1      49.180  27.568  36.955  1.00  0.00    -0.237 OA
ATOM     73  O   UNL A   1      48.118  28.292  39.065  1.00  0.00    -0.237 OA
ATOM     74  O   UNL A   1      47.691  26.032  38.188  1.00  0.00    -0.744 OA
ENDBRANCH  70  71
ENDBRANCH  51  65
BRANCH  52  75
ATOM     75  C   UNL A   1      36.597  33.053  30.866  1.00  0.00    -0.014 A 
ATOM     76  C   UNL A   1      36.849  33.869  29.748  1.00  0.00     0.010 A 
ATOM     77  C   UNL A   1      35.279  32.920  31.335  1.00  0.00     0.010 A 
ATOM     78  C   UNL A   1      35.815  34.594  29.151  1.00  0.00     0.020 A 
ATOM     79  C   UNL A   1      34.235  33.624  30.723  1.00  0.00     0.020 A 
ATOM     80  C   UNL A   1      34.517  34.481  29.656  1.00  0.00     0.054 A 
BRANCH  80  81
ATOM     81  S   UNL A   1      33.200  35.482  28.913  1.00  0.00     0.124 S 
ATOM     82  O   UNL A   1      33.967  36.485  28.178  1.00  0.00    -0.237 OA
ATOM     83  O   UNL A   1      32.483  34.511  28.090  1.00  0.00    -0.237 OA
ATOM     84  O   UNL A   1      32.460  35.982  30.068  1.00  0.00    -0.744 OA
ENDBRANCH  80  81
ENDBRANCH  52  75
BRANCH  64  85
ATOM     85  C   UNL A   1      39.876  34.415  36.902  1.00  0.00    -0.014 A 
ATOM     86  C   UNL A   1      40.540  35.655  36.865  1.00  0.00     0.010 A 
ATOM     87  C   UNL A   1      39.105  34.081  38.029  1.00  0.00     0.010 A 
ATOM     88  C   UNL A   1      40.460  36.533  37.948  1.00  0.00     0.020 A 
ATOM     89  C   UNL A   1      39.003  34.968  39.104  1.00  0.00     0.020 A 
ATOM     90  C   UNL A   1      39.701  36.177  39.067  1.00  0.00     0.054 A 
BRANCH  90  91
ATOM     91  S   UNL A   1      39.630  37.316  40.478  1.00  0.00     0.124 S 
ATOM     92  O   UNL A   1      38.262  37.819  40.396  1.00  0.00    -0.237 OA
ATOM     93  O   UNL A   1      39.912  36.441  41.613  1.00  0.00    -0.237 OA
ATOM     94  O   UNL A   1      40.674  38.293  40.180  1.00  0.00    -0.744 OA
ENDBRANCH  90  91
ENDBRANCH  64  85
ENDBRANCH  38  39
ENDBRANCH  30  33
ENDBRANCH  28  29
ENDBRANCH  27  28
ENDBRANCH   1  27
TORSDOF 18
ENDMDL
MODEL 3
REMARK VINA RESULT:     -11.4      6.352     11.561
REMARK SMILES CC(C)CSc1cc2c(cc1Cl)C=C(C(=O)NCCCCNC(=O)c1ccc(-c3c4nc(c(-c5ccc(S(=O)(=O)[O-])cc5)c5ccc([nH]5)c(-c5ccc(S(=O)(=O)[O-])cc5)c5nc(c(-c6ccc(S(=O)(=O)[O-])cc6)c6ccc3[nH]6)C=C5)C=C4)cc1)[C@@H](C(F)(F)F)O2
REMARK SMILES IDX 19 1 18 2 17 3 15 4 16 5 14 7 6 8 7 9 11 10 8 11 10 12 12 13
REMARK SMILES IDX 9 14 90 15 13 16 85 17 5 18 4 19 2 20 1 21 3 22 86 23 87 24
REMARK SMILES IDX 88 25 89 26 20 27 21 28 22 29 23 30 24 32 25 33 26 34 84 35
REMARK SMILES IDX 27 36 83 37 28 38 29 39 30 40 77 41 31 42 82 43 76 44 78 45
REMARK SMILES IDX 32 46 81 47 75 48 74 49 33 51 63 52 44 53 62 54 45 55 48 56
REMARK SMILES IDX 61 57 79 58 46 59 47 60 60 62 80 63 49 64 34 65 35 66 43 67
REMARK SMILES IDX 36 68 42 69 37 70 38 71 39 72 40 73 41 74 64 75 65 76 73 77
REMARK SMILES IDX 66 78 72 79 67 80 68 81 69 82 70 83 71 84 50 85 51 86 59 87
REMARK SMILES IDX 52 88 58 89 53 90 54 91 55 92 56 93 57 94
REMARK H PARENT 17 6 22 31 78 50 48 61
REMARK Flexibility Score: inf
ROOT
ATOM      1  C   UNL A   1      38.095  22.259  25.716  1.00  0.00     0.023 C 
ENDROOT
BRANCH   1   2
ATOM      2  C   UNL A   1      37.453  21.816  24.404  1.00  0.00     0.116 C 
BRANCH   2   3
ATOM      3  N   UNL A   1      36.431  20.805  24.604  1.00  0.00    -0.352 N 
ATOM      4  C   UNL A   1      35.096  20.778  24.828  1.00  0.00     0.251 C 
ATOM      5  O   UNL A   1      34.599  19.652  24.931  1.00  0.00    -0.270 OA
ATOM      6  H   UNL A   1      36.809  19.896  24.569  1.00  0.00     0.163 HD
BRANCH   4   7
ATOM      7  C   UNL A   1      34.218  21.980  24.957  1.00  0.00     0.067 C 
ATOM      8  C   UNL A   1      32.025  26.484  24.235  1.00  0.00     0.030 A 
ATOM      9  C   UNL A   1      31.726  25.351  25.005  1.00  0.00     0.063 A 
ATOM     10  C   UNL A   1      33.128  26.427  23.367  1.00  0.00     0.055 A 
ATOM     11  C   UNL A   1      32.542  24.222  24.963  1.00  0.00     0.129 A 
ATOM     12  C   UNL A   1      33.944  25.287  23.328  1.00  0.00     0.033 A 
ATOM     13  Cl  UNL A   1      33.517  27.697  22.257  1.00  0.00    -0.083 Cl
ATOM     14  C   UNL A   1      33.656  24.182  24.131  1.00  0.00     0.019 A 
ATOM     15  O   UNL A   1      32.156  23.167  25.737  1.00  0.00    -0.475 OA
ATOM     16  C   UNL A   1      34.457  22.968  24.073  1.00  0.00     0.025 C 
ATOM     17  C   UNL A   1      33.158  22.146  26.010  1.00  0.00     0.314 C 
BRANCH   8  18
ATOM     18  S   UNL A   1      30.900  27.864  24.424  1.00  0.00    -0.124 SA
BRANCH  18  19
ATOM     19  C   UNL A   1      31.945  29.142  25.216  1.00  0.00     0.078 C 
BRANCH  19  20
ATOM     20  C   UNL A   1      32.642  28.739  26.530  1.00  0.00    -0.007 C 
ATOM     21  C   UNL A   1      33.444  29.873  27.169  1.00  0.00     0.008 C 
ATOM     22  C   UNL A   1      31.575  28.267  27.527  1.00  0.00     0.008 C 
ENDBRANCH  19  20
ENDBRANCH  18  19
ENDBRANCH   8  18
BRANCH  17  23
ATOM     23  C   UNL A   1      33.746  22.398  27.410  1.00  0.00     0.429 C 
ATOM     24  F   UNL A   1      32.755  22.654  28.301  1.00  0.00    -0.167 F 
ATOM     25  F   UNL A   1      34.427  21.332  27.892  1.00  0.00    -0.167 F 
ATOM     26  F   UNL A   1      34.592  23.453  27.433  1.00  0.00    -0.167 F 
ENDBRANCH  17  23
ENDBRANCH   4   7
ENDBRANCH   2   3
ENDBRANCH   1   2
BRANCH   1  27
ATOM     27  C   UNL A   1      37.674  23.654  26.184  1.00  0.00     0.023 C 
BRANCH  27  28
ATOM     28  C   UNL A   1      38.797  24.536  26.728  1.00  0.00     0.116 C 
BRANCH  28  29
ATOM     29  N   UNL A   1      39.959  24.634  25.853  1.00  0.00    -0.352 N 
ATOM     30  C   UNL A   1      41.106  25.372  26.041  1.00  0.00     0.251 C 
ATOM     31  H   UNL A   1      39.919  24.106  25.024  1.00  0.00     0.163 HD
ATOM     32  O   UNL A   1      41.973  25.402  25.173  1.00  0.00    -0.269 OA
BRANCH  30  33
ATOM     33  C   UNL A   1      41.251  26.171  27.276  1.00  0.00     0.039 A 
ATOM     34  C   UNL A   1      40.604  25.778  28.449  1.00  0.00     0.014 A 
ATOM     35  C   UNL A   1      41.974  27.365  27.232  1.00  0.00     0.014 A 
ATOM     36  C   UNL A   1      40.527  26.665  29.516  1.00  0.00     0.010 A 
ATOM     37  C   UNL A   1      41.965  28.218  28.340  1.00  0.00     0.010 A 
ATOM     38  C   UNL A   1      41.194  27.902  29.467  1.00  0.00    -0.014 A 
BRANCH  38  39
ATOM     39  C   UNL A   1      41.049  28.845  30.607  1.00  0.00     0.031 A 
ATOM     40  C   UNL A   1      39.930  29.853  30.635  1.00  0.00     0.074 A 
ATOM     41  C   UNL A   1      41.883  28.732  31.659  1.00  0.00     0.049 A 
ATOM     42  N   UNL A   1      39.617  30.702  31.581  1.00  0.00    -0.248 NA
ATOM     43  C   UNL A   1      39.047  29.919  29.458  1.00  0.00     0.031 C 
ATOM     44  C   UNL A   1      42.988  27.776  31.753  1.00  0.00     0.029 A 
ATOM     45  N   UNL A   1      41.906  29.387  32.864  1.00  0.00    -0.354 N 
ATOM     46  C   UNL A   1      38.516  31.408  31.112  1.00  0.00     0.074 A 
ATOM     47  C   UNL A   1      38.229  30.912  29.785  1.00  0.00     0.031 C 
ATOM     48  C   UNL A   1      43.531  27.853  32.976  1.00  0.00     0.029 A 
ATOM     49  C   UNL A   1      42.860  28.908  33.729  1.00  0.00     0.049 A 
ATOM     50  H   UNL A   1      41.298  30.129  33.086  1.00  0.00     0.167 HD
ATOM     51  C   UNL A   1      37.802  32.374  31.737  1.00  0.00     0.031 A 
ATOM     52  C   UNL A   1      43.168  29.273  34.990  1.00  0.00     0.031 A 
ATOM     53  C   UNL A   1      38.081  32.854  33.066  1.00  0.00     0.049 A 
ATOM     54  C   UNL A   1      42.389  30.374  35.645  1.00  0.00     0.074 A 
ATOM     55  C   UNL A   1      37.404  33.822  33.786  1.00  0.00     0.029 A 
ATOM     56  N   UNL A   1      39.112  32.402  33.875  1.00  0.00    -0.354 N 
ATOM     57  N   UNL A   1      41.358  31.037  35.179  1.00  0.00    -0.248 NA
ATOM     58  C   UNL A   1      42.818  30.786  36.988  1.00  0.00     0.031 C 
ATOM     59  C   UNL A   1      38.057  33.995  35.008  1.00  0.00     0.029 A 
ATOM     60  C   UNL A   1      39.105  33.090  35.076  1.00  0.00     0.049 A 
ATOM     61  H   UNL A   1      39.755  31.697  33.631  1.00  0.00     0.167 HD
ATOM     62  C   UNL A   1      41.016  31.948  36.170  1.00  0.00     0.074 A 
ATOM     63  C   UNL A   1      41.931  31.733  37.273  1.00  0.00     0.031 C 
ATOM     64  C   UNL A   1      40.034  32.882  36.160  1.00  0.00     0.031 A 
BRANCH  51  65
ATOM     65  C   UNL A   1      36.640  32.991  31.003  1.00  0.00    -0.014 A 
ATOM     66  C   UNL A   1      36.870  34.022  30.074  1.00  0.00     0.010 A 
ATOM     67  C   UNL A   1      35.316  32.631  31.312  1.00  0.00     0.010 A 
ATOM     68  C   UNL A   1      35.799  34.698  29.482  1.00  0.00     0.020 A 
ATOM     69  C   UNL A   1      34.242  33.289  30.705  1.00  0.00     0.020 A 
ATOM     70  C   UNL A   1      34.491  34.333  29.809  1.00  0.00     0.054 A 
BRANCH  70  71
ATOM     71  S   UNL A   1      33.110  35.226  29.041  1.00  0.00     0.124 S 
ATOM     72  O   UNL A   1      33.783  36.365  28.428  1.00  0.00    -0.237 OA
ATOM     73  O   UNL A   1      32.566  34.238  28.112  1.00  0.00    -0.237 OA
ATOM     74  O   UNL A   1      32.241  35.545  30.173  1.00  0.00    -0.744 OA
ENDBRANCH  70  71
ENDBRANCH  51  65
BRANCH  52  75
ATOM     75  C   UNL A   1      44.262  28.555  35.698  1.00  0.00    -0.014 A 
ATOM     76  C   UNL A   1      45.599  28.964  35.536  1.00  0.00     0.010 A 
ATOM     77  C   UNL A   1      43.984  27.401  36.449  1.00  0.00     0.010 A 
ATOM     78  C   UNL A   1      46.643  28.195  36.056  1.00  0.00     0.020 A 
ATOM     79  C   UNL A   1      45.026  26.644  36.996  1.00  0.00     0.020 A 
ATOM     80  C   UNL A   1      46.350  27.029  36.766  1.00  0.00     0.054 A 
BRANCH  80  81
ATOM     81  S   UNL A   1      47.719  26.008  37.375  1.00  0.00     0.124 S 
ATOM     82  O   UNL A   1      47.868  26.496  38.744  1.00  0.00    -0.237 OA
ATOM     83  O   UNL A   1      47.193  24.652  37.244  1.00  0.00    -0.237 OA
ATOM     84  O   UNL A   1      48.817  26.337  36.469  1.00  0.00    -0.744 OA
ENDBRANCH  80  81
ENDBRANCH  52  75
BRANCH  64  85
ATOM     85  C   UNL A   1      39.898  33.773  37.364  1.00  0.00    -0.014 A 
ATOM     86  C   UNL A   1      39.187  33.324  38.492  1.00  0.00     0.010 A 
ATOM     87  C   UNL A   1      40.368  35.098  37.329  1.00  0.00     0.010 A 
ATOM     88  C   UNL A   1      38.923  34.192  39.553  1.00  0.00     0.020 A 
ATOM     89  C   UNL A   1      40.126  35.962  38.401  1.00  0.00     0.020 A 
ATOM     90  C   UNL A   1      39.384  35.510  39.495  1.00  0.00     0.054 A 
BRANCH  90  91
ATOM     91  S   UNL A   1      39.009  36.634  40.869  1.00  0.00     0.124 S 
ATOM     92  O   UNL A   1      37.995  35.887  41.607  1.00  0.00    -0.237 OA
ATOM     93  O   UNL A   1      40.301  36.770  41.537  1.00  0.00    -0.237 OA
ATOM     94  O   UNL A   1      38.531  37.842  40.200  1.00  0.00    -0.744 OA
ENDBRANCH  90  91
ENDBRANCH  64  85
ENDBRANCH  38  39
ENDBRANCH  30  33
ENDBRANCH  28  29
ENDBRANCH  27  28
ENDBRANCH   1  27
TORSDOF 18
ENDMDL
