MODEL 1
REMARK VINA RESULT:      -9.8      0.000      0.000
REMARK SMILES CC[C@@](C)(Nc1nccs1)C(=O)NCCCCNC(=O)c1ccc(-c2c3nc(c(-c4ccc(S(=O)(=O)[O-])cc4)c4ccc([nH]4)c(-c4ccc(S(=O)(=O)[O-])cc4)c4nc(c(-c5ccc(S(=O)(=O)[O-])cc5)c5ccc2[nH]5)C=C4)C=C3)cc1
REMARK SMILES IDX 16 1 15 2 14 3 13 4 11 5 12 6 3 8 4 9 2 10 1 11 5 12 6 14
REMARK SMILES IDX 7 15 10 16 8 17 9 18 17 19 18 20 19 21 20 23 21 24 22 25
REMARK SMILES IDX 80 26 23 27 79 28 24 29 25 30 26 31 73 32 27 33 78 34 72 35
REMARK SMILES IDX 74 36 28 37 77 38 71 39 70 40 29 42 59 43 40 44 58 45 41 46
REMARK SMILES IDX 44 47 57 48 75 49 42 50 43 51 56 53 76 54 45 55 30 56 31 57
REMARK SMILES IDX 39 58 32 59 38 60 33 61 34 62 35 63 36 64 37 65 60 66 61 67
REMARK SMILES IDX 69 68 62 69 68 70 63 71 64 72 65 73 66 74 67 75 46 76 47 77
REMARK SMILES IDX 55 78 48 79 54 80 49 81 50 82 51 83 52 84 53 85
REMARK H PARENT 13 7 5 13 18 22 74 41 44 52
REMARK Flexibility Score: inf
ROOT
ATOM      1  C   UNL A   1      32.289  27.693  27.208  1.00  0.00     0.023 C 
ENDROOT
BRANCH   1   2
ATOM      2  C   UNL A   1      31.425  27.632  25.955  1.00  0.00     0.023 C 
BRANCH   2   3
ATOM      3  C   UNL A   1      31.125  26.228  25.433  1.00  0.00     0.116 C 
BRANCH   3   4
ATOM      4  N   UNL A   1      31.043  25.207  26.458  1.00  0.00    -0.354 N 
ATOM      5  C   UNL A   1      31.793  24.083  26.679  1.00  0.00     0.245 C 
ATOM      6  O   UNL A   1      31.486  23.412  27.671  1.00  0.00    -0.272 OA
ATOM      7  H   UNL A   1      30.320  25.345  27.112  1.00  0.00     0.163 HD
BRANCH   5   8
ATOM      8  C   UNL A   1      33.020  23.714  25.774  1.00  0.00     0.115 C 
ATOM      9  C   UNL A   1      32.506  23.326  24.370  1.00  0.00     0.045 C 
BRANCH   8  10
ATOM     10  C   UNL A   1      34.003  24.916  25.621  1.00  0.00     0.035 C 
ATOM     11  C   UNL A   1      34.261  25.410  24.197  1.00  0.00     0.007 C 
ENDBRANCH   8  10
BRANCH   8  12
ATOM     12  N   UNL A   1      33.818  22.586  26.306  1.00  0.00    -0.347 N 
ATOM     13  H   UNL A   1      33.438  22.057  27.044  1.00  0.00     0.164 HD
BRANCH  12  14
ATOM     14  C   UNL A   1      35.039  22.241  25.836  1.00  0.00     0.183 A 
ATOM     15  N   UNL A   1      36.157  22.894  26.040  1.00  0.00    -0.229 NA
ATOM     16  S   UNL A   1      35.233  20.770  24.947  1.00  0.00    -0.106 S 
ATOM     17  C   UNL A   1      37.242  22.163  25.600  1.00  0.00     0.125 A 
ATOM     18  C   UNL A   1      36.936  20.972  24.984  1.00  0.00     0.088 A 
ENDBRANCH  12  14
ENDBRANCH   8  12
ENDBRANCH   5   8
ENDBRANCH   3   4
ENDBRANCH   2   3
ENDBRANCH   1   2
BRANCH   1  19
ATOM     19  C   UNL A   1      33.608  28.420  27.009  1.00  0.00     0.116 C 
BRANCH  19  20
ATOM     20  N   UNL A   1      33.506  29.836  27.339  1.00  0.00    -0.352 N 
ATOM     21  C   UNL A   1      34.394  30.635  28.014  1.00  0.00     0.251 C 
ATOM     22  H   UNL A   1      32.684  30.282  27.033  1.00  0.00     0.163 HD
ATOM     23  O   UNL A   1      34.051  31.744  28.404  1.00  0.00    -0.269 OA
BRANCH  21  24
ATOM     24  C   UNL A   1      35.759  30.136  28.276  1.00  0.00     0.039 A 
ATOM     25  C   UNL A   1      36.709  30.173  27.254  1.00  0.00     0.014 A 
ATOM     26  C   UNL A   1      36.099  29.650  29.541  1.00  0.00     0.014 A 
ATOM     27  C   UNL A   1      38.019  29.775  27.522  1.00  0.00     0.010 A 
ATOM     28  C   UNL A   1      37.423  29.350  29.831  1.00  0.00     0.010 A 
ATOM     29  C   UNL A   1      38.393  29.393  28.820  1.00  0.00    -0.014 A 
BRANCH  29  30
ATOM     30  C   UNL A   1      39.789  29.013  29.144  1.00  0.00     0.031 A 
ATOM     31  C   UNL A   1      40.711  30.022  29.775  1.00  0.00     0.074 A 
ATOM     32  C   UNL A   1      40.243  27.790  28.810  1.00  0.00     0.049 A 
ATOM     33  N   UNL A   1      41.979  29.906  30.075  1.00  0.00    -0.248 NA
ATOM     34  C   UNL A   1      40.142  31.345  30.084  1.00  0.00     0.031 C 
ATOM     35  C   UNL A   1      39.457  26.745  28.148  1.00  0.00     0.029 A 
ATOM     36  N   UNL A   1      41.480  27.218  28.974  1.00  0.00    -0.354 N 
ATOM     37  C   UNL A   1      42.360  31.140  30.588  1.00  0.00     0.074 A 
ATOM     38  C   UNL A   1      41.208  32.010  30.502  1.00  0.00     0.031 C 
ATOM     39  C   UNL A   1      40.220  25.652  27.992  1.00  0.00     0.029 A 
ATOM     40  C   UNL A   1      41.561  25.931  28.497  1.00  0.00     0.049 A 
ATOM     41  H   UNL A   1      42.238  27.686  29.393  1.00  0.00     0.167 HD
ATOM     42  C   UNL A   1      43.553  31.510  31.110  1.00  0.00     0.031 A 
ATOM     43  C   UNL A   1      42.600  25.074  28.465  1.00  0.00     0.031 A 
ATOM     44  C   UNL A   1      44.692  30.635  31.200  1.00  0.00     0.049 A 
ATOM     45  C   UNL A   1      43.919  25.509  29.040  1.00  0.00     0.074 A 
ATOM     46  C   UNL A   1      45.932  30.892  31.756  1.00  0.00     0.029 A 
ATOM     47  N   UNL A   1      44.728  29.334  30.720  1.00  0.00    -0.354 N 
ATOM     48  N   UNL A   1      44.241  26.660  29.584  1.00  0.00    -0.248 NA
ATOM     49  C   UNL A   1      45.012  24.528  29.011  1.00  0.00     0.031 C 
ATOM     50  C   UNL A   1      46.737  29.766  31.561  1.00  0.00     0.029 A 
ATOM     51  C   UNL A   1      45.978  28.783  30.946  1.00  0.00     0.049 A 
ATOM     52  H   UNL A   1      43.977  28.872  30.283  1.00  0.00     0.167 HD
ATOM     53  C   UNL A   1      45.565  26.530  29.986  1.00  0.00     0.074 A 
ATOM     54  C   UNL A   1      45.977  25.185  29.639  1.00  0.00     0.031 C 
ATOM     55  C   UNL A   1      46.368  27.442  30.590  1.00  0.00     0.031 A 
BRANCH  42  56
ATOM     56  C   UNL A   1      43.683  32.923  31.620  1.00  0.00    -0.014 A 
ATOM     57  C   UNL A   1      43.393  33.241  32.960  1.00  0.00     0.010 A 
ATOM     58  C   UNL A   1      44.129  33.941  30.759  1.00  0.00     0.010 A 
ATOM     59  C   UNL A   1      43.501  34.557  33.416  1.00  0.00     0.020 A 
ATOM     60  C   UNL A   1      44.272  35.254  31.220  1.00  0.00     0.020 A 
ATOM     61  C   UNL A   1      43.939  35.556  32.541  1.00  0.00     0.054 A 
BRANCH  61  62
ATOM     62  S   UNL A   1      44.091  37.251  33.168  1.00  0.00     0.124 S 
ATOM     63  O   UNL A   1      44.104  38.030  31.932  1.00  0.00    -0.237 OA
ATOM     64  O   UNL A   1      42.892  37.396  33.989  1.00  0.00    -0.237 OA
ATOM     65  O   UNL A   1      45.351  37.237  33.908  1.00  0.00    -0.744 OA
ENDBRANCH  61  62
ENDBRANCH  42  56
BRANCH  43  66
ATOM     66  C   UNL A   1      42.425  23.717  27.876  1.00  0.00    -0.014 A 
ATOM     67  C   UNL A   1      42.589  23.509  26.495  1.00  0.00     0.010 A 
ATOM     68  C   UNL A   1      42.115  22.619  28.699  1.00  0.00     0.010 A 
ATOM     69  C   UNL A   1      42.427  22.233  25.946  1.00  0.00     0.020 A 
ATOM     70  C   UNL A   1      41.982  21.337  28.159  1.00  0.00     0.020 A 
ATOM     71  C   UNL A   1      42.128  21.154  26.782  1.00  0.00     0.054 A 
BRANCH  71  72
ATOM     72  S   UNL A   1      41.976  19.499  26.054  1.00  0.00     0.124 S 
ATOM     73  O   UNL A   1      42.493  18.649  27.122  1.00  0.00    -0.237 OA
ATOM     74  O   UNL A   1      40.541  19.397  25.802  1.00  0.00    -0.237 OA
ATOM     75  O   UNL A   1      42.808  19.575  24.855  1.00  0.00    -0.744 OA
ENDBRANCH  71  72
ENDBRANCH  43  66
BRANCH  55  76
ATOM     76  C   UNL A   1      47.765  27.005  30.948  1.00  0.00    -0.014 A 
ATOM     77  C   UNL A   1      48.059  26.455  32.208  1.00  0.00     0.010 A 
ATOM     78  C   UNL A   1      48.785  27.092  29.982  1.00  0.00     0.010 A 
ATOM     79  C   UNL A   1      49.357  26.032  32.507  1.00  0.00     0.020 A 
ATOM     80  C   UNL A   1      50.075  26.639  30.266  1.00  0.00     0.020 A 
ATOM     81  C   UNL A   1      50.356  26.126  31.533  1.00  0.00     0.054 A 
BRANCH  81  82
ATOM     82  S   UNL A   1      52.020  25.527  31.932  1.00  0.00     0.124 S 
ATOM     83  O   UNL A   1      52.311  26.241  33.172  1.00  0.00    -0.237 OA
ATOM     84  O   UNL A   1      51.818  24.087  32.068  1.00  0.00    -0.237 OA
ATOM     85  O   UNL A   1      52.821  25.931  30.777  1.00  0.00    -0.744 OA
ENDBRANCH  81  82
ENDBRANCH  55  76
ENDBRANCH  29  30
ENDBRANCH  21  24
ENDBRANCH  19  20
ENDBRANCH   1  19
TORSDOF 17
ENDMDL
MODEL 2
REMARK VINA RESULT:      -9.4      3.369      9.483
REMARK SMILES CC[C@@](C)(Nc1nccs1)C(=O)NCCCCNC(=O)c1ccc(-c2c3nc(c(-c4ccc(S(=O)(=O)[O-])cc4)c4ccc([nH]4)c(-c4ccc(S(=O)(=O)[O-])cc4)c4nc(c(-c5ccc(S(=O)(=O)[O-])cc5)c5ccc2[nH]5)C=C4)C=C3)cc1
REMARK SMILES IDX 16 1 15 2 14 3 13 4 11 5 12 6 3 8 4 9 2 10 1 11 5 12 6 14
REMARK SMILES IDX 7 15 10 16 8 17 9 18 17 19 18 20 19 21 20 23 21 24 22 25
REMARK SMILES IDX 80 26 23 27 79 28 24 29 25 30 26 31 73 32 27 33 78 34 72 35
REMARK SMILES IDX 74 36 28 37 77 38 71 39 70 40 29 42 59 43 40 44 58 45 41 46
REMARK SMILES IDX 44 47 57 48 75 49 42 50 43 51 56 53 76 54 45 55 30 56 31 57
REMARK SMILES IDX 39 58 32 59 38 60 33 61 34 62 35 63 36 64 37 65 60 66 61 67
REMARK SMILES IDX 69 68 62 69 68 70 63 71 64 72 65 73 66 74 67 75 46 76 47 77
REMARK SMILES IDX 55 78 48 79 54 80 49 81 50 82 51 83 52 84 53 85
REMARK H PARENT 13 7 5 13 18 22 74 41 44 52
REMARK Flexibility Score: inf
ROOT
ATOM      1  C   UNL A   1      38.131  20.009  25.004  1.00  0.00     0.023 C 
ENDROOT
BRANCH   1   2
ATOM      2  C   UNL A   1      37.172  21.109  24.564  1.00  0.00     0.023 C 
BRANCH   2   3
ATOM      3  C   UNL A   1      36.713  22.058  25.668  1.00  0.00     0.116 C 
BRANCH   3   4
ATOM      4  N   UNL A   1      35.652  21.541  26.509  1.00  0.00    -0.354 N 
ATOM      5  C   UNL A   1      34.306  21.789  26.524  1.00  0.00     0.245 C 
ATOM      6  O   UNL A   1      33.647  21.162  27.361  1.00  0.00    -0.272 OA
ATOM      7  H   UNL A   1      35.951  20.895  27.189  1.00  0.00     0.163 HD
BRANCH   5   8
ATOM      8  C   UNL A   1      33.629  22.753  25.488  1.00  0.00     0.115 C 
ATOM      9  C   UNL A   1      34.285  24.147  25.599  1.00  0.00     0.045 C 
BRANCH   8  10
ATOM     10  C   UNL A   1      33.810  22.242  24.024  1.00  0.00     0.035 C 
ATOM     11  C   UNL A   1      34.357  23.249  23.012  1.00  0.00     0.007 C 
ENDBRANCH   8  10
BRANCH   8  12
ATOM     12  N   UNL A   1      32.172  22.907  25.700  1.00  0.00    -0.347 N 
ATOM     13  H   UNL A   1      31.648  22.102  25.915  1.00  0.00     0.164 HD
BRANCH  12  14
ATOM     14  C   UNL A   1      31.520  24.090  25.615  1.00  0.00     0.183 A 
ATOM     15  N   UNL A   1      31.341  24.945  26.592  1.00  0.00    -0.229 NA
ATOM     16  S   UNL A   1      30.913  24.628  24.087  1.00  0.00    -0.106 S 
ATOM     17  C   UNL A   1      30.824  26.134  26.119  1.00  0.00     0.125 A 
ATOM     18  C   UNL A   1      30.534  26.153  24.774  1.00  0.00     0.088 A 
ENDBRANCH  12  14
ENDBRANCH   8  12
ENDBRANCH   5   8
ENDBRANCH   3   4
ENDBRANCH   2   3
ENDBRANCH   1   2
BRANCH   1  19
ATOM     19  C   UNL A   1      39.319  20.515  25.805  1.00  0.00     0.116 C 
BRANCH  19  20
ATOM     20  N   UNL A   1      40.296  19.463  26.056  1.00  0.00    -0.352 N 
ATOM     21  C   UNL A   1      41.653  19.564  26.233  1.00  0.00     0.251 C 
ATOM     22  H   UNL A   1      39.930  18.551  26.106  1.00  0.00     0.163 HD
ATOM     23  O   UNL A   1      42.353  18.559  26.205  1.00  0.00    -0.269 OA
BRANCH  21  24
ATOM     24  C   UNL A   1      42.256  20.895  26.442  1.00  0.00     0.039 A 
ATOM     25  C   UNL A   1      42.681  21.635  25.337  1.00  0.00     0.014 A 
ATOM     26  C   UNL A   1      42.381  21.415  27.733  1.00  0.00     0.014 A 
ATOM     27  C   UNL A   1      43.180  22.924  25.527  1.00  0.00     0.010 A 
ATOM     28  C   UNL A   1      42.782  22.732  27.909  1.00  0.00     0.010 A 
ATOM     29  C   UNL A   1      43.202  23.494  26.811  1.00  0.00    -0.014 A 
BRANCH  29  30
ATOM     30  C   UNL A   1      43.680  24.880  27.035  1.00  0.00     0.031 A 
ATOM     31  C   UNL A   1      45.138  25.206  26.854  1.00  0.00     0.074 A 
ATOM     32  C   UNL A   1      42.818  25.822  27.463  1.00  0.00     0.049 A 
ATOM     33  N   UNL A   1      45.762  26.337  27.062  1.00  0.00    -0.248 NA
ATOM     34  C   UNL A   1      46.017  24.112  26.409  1.00  0.00     0.031 C 
ATOM     35  C   UNL A   1      41.390  25.612  27.723  1.00  0.00     0.029 A 
ATOM     36  N   UNL A   1      43.016  27.146  27.765  1.00  0.00    -0.354 N 
ATOM     37  C   UNL A   1      47.102  26.085  26.792  1.00  0.00     0.074 A 
ATOM     38  C   UNL A   1      47.211  24.681  26.465  1.00  0.00     0.031 C 
ATOM     39  C   UNL A   1      40.838  26.771  28.113  1.00  0.00     0.029 A 
ATOM     40  C   UNL A   1      41.876  27.795  28.177  1.00  0.00     0.049 A 
ATOM     41  H   UNL A   1      43.892  27.589  27.692  1.00  0.00     0.167 HD
ATOM     42  C   UNL A   1      48.143  26.949  26.789  1.00  0.00     0.031 A 
ATOM     43  C   UNL A   1      41.689  29.070  28.571  1.00  0.00     0.031 A 
ATOM     44  C   UNL A   1      48.023  28.347  27.106  1.00  0.00     0.049 A 
ATOM     45  C   UNL A   1      42.863  30.010  28.569  1.00  0.00     0.074 A 
ATOM     46  C   UNL A   1      49.005  29.321  27.085  1.00  0.00     0.029 A 
ATOM     47  N   UNL A   1      46.849  28.968  27.505  1.00  0.00    -0.354 N 
ATOM     48  N   UNL A   1      44.112  29.769  28.244  1.00  0.00    -0.248 NA
ATOM     49  C   UNL A   1      42.602  31.398  28.975  1.00  0.00     0.031 C 
ATOM     50  C   UNL A   1      48.437  30.520  27.525  1.00  0.00     0.029 A 
ATOM     51  C   UNL A   1      47.086  30.309  27.755  1.00  0.00     0.049 A 
ATOM     52  H   UNL A   1      45.976  28.521  27.597  1.00  0.00     0.167 HD
ATOM     53  C   UNL A   1      44.778  30.981  28.379  1.00  0.00     0.074 A 
ATOM     54  C   UNL A   1      43.791  31.955  28.799  1.00  0.00     0.031 C 
ATOM     55  C   UNL A   1      46.089  31.263  28.174  1.00  0.00     0.031 A 
BRANCH  42  56
ATOM     56  C   UNL A   1      49.502  26.402  26.432  1.00  0.00    -0.014 A 
ATOM     57  C   UNL A   1      50.267  25.685  27.371  1.00  0.00     0.010 A 
ATOM     58  C   UNL A   1      50.009  26.579  25.132  1.00  0.00     0.010 A 
ATOM     59  C   UNL A   1      51.532  25.198  27.031  1.00  0.00     0.020 A 
ATOM     60  C   UNL A   1      51.261  26.064  24.778  1.00  0.00     0.020 A 
ATOM     61  C   UNL A   1      52.021  25.392  25.737  1.00  0.00     0.054 A 
BRANCH  61  62
ATOM     62  S   UNL A   1      53.657  24.729  25.320  1.00  0.00     0.124 S 
ATOM     63  O   UNL A   1      54.040  25.563  24.184  1.00  0.00    -0.237 OA
ATOM     64  O   UNL A   1      54.414  24.953  26.548  1.00  0.00    -0.237 OA
ATOM     65  O   UNL A   1      53.393  23.327  25.001  1.00  0.00    -0.744 OA
ENDBRANCH  61  62
ENDBRANCH  42  56
BRANCH  43  66
ATOM     66  C   UNL A   1      40.334  29.528  28.986  1.00  0.00    -0.014 A 
ATOM     67  C   UNL A   1      40.048  29.785  30.338  1.00  0.00     0.010 A 
ATOM     68  C   UNL A   1      39.327  29.732  28.024  1.00  0.00     0.010 A 
ATOM     69  C   UNL A   1      38.774  30.218  30.723  1.00  0.00     0.020 A 
ATOM     70  C   UNL A   1      38.063  30.194  28.402  1.00  0.00     0.020 A 
ATOM     71  C   UNL A   1      37.791  30.423  29.752  1.00  0.00     0.054 A 
BRANCH  71  72
ATOM     72  S   UNL A   1      36.165  31.036  30.270  1.00  0.00     0.124 S 
ATOM     73  O   UNL A   1      35.336  30.713  29.113  1.00  0.00    -0.237 OA
ATOM     74  O   UNL A   1      35.903  30.255  31.476  1.00  0.00    -0.237 OA
ATOM     75  O   UNL A   1      36.393  32.462  30.498  1.00  0.00    -0.744 OA
ENDBRANCH  71  72
ENDBRANCH  43  66
BRANCH  55  76
ATOM     76  C   UNL A   1      46.529  32.691  28.364  1.00  0.00    -0.014 A 
ATOM     77  C   UNL A   1      46.474  33.619  27.310  1.00  0.00     0.010 A 
ATOM     78  C   UNL A   1      46.945  33.122  29.638  1.00  0.00     0.010 A 
ATOM     79  C   UNL A   1      46.861  34.946  27.518  1.00  0.00     0.020 A 
ATOM     80  C   UNL A   1      47.301  34.454  29.857  1.00  0.00     0.020 A 
ATOM     81  C   UNL A   1      47.271  35.355  28.792  1.00  0.00     0.054 A 
BRANCH  81  82
ATOM     82  S   UNL A   1      47.725  37.092  29.045  1.00  0.00     0.124 S 
ATOM     83  O   UNL A   1      49.040  37.158  28.414  1.00  0.00    -0.237 OA
ATOM     84  O   UNL A   1      46.657  37.806  28.350  1.00  0.00    -0.237 OA
ATOM     85  O   UNL A   1      47.723  37.242  30.499  1.00  0.00    -0.744 OA
ENDBRANCH  81  82
ENDBRANCH  55  76
ENDBRANCH  29  30
ENDBRANCH  21  24
ENDBRANCH  19  20
ENDBRANCH   1  19
TORSDOF 17
ENDMDL
MODEL 3
REMARK VINA RESULT:      -9.3      2.636      9.338
REMARK SMILES CC[C@@](C)(Nc1nccs1)C(=O)NCCCCNC(=O)c1ccc(-c2c3nc(c(-c4ccc(S(=O)(=O)[O-])cc4)c4ccc([nH]4)c(-c4ccc(S(=O)(=O)[O-])cc4)c4nc(c(-c5ccc(S(=O)(=O)[O-])cc5)c5ccc2[nH]5)C=C4)C=C3)cc1
REMARK SMILES IDX 16 1 15 2 14 3 13 4 11 5 12 6 3 8 4 9 2 10 1 11 5 12 6 14
REMARK SMILES IDX 7 15 10 16 8 17 9 18 17 19 18 20 19 21 20 23 21 24 22 25
REMARK SMILES IDX 80 26 23 27 79 28 24 29 25 30 26 31 73 32 27 33 78 34 72 35
REMARK SMILES IDX 74 36 28 37 77 38 71 39 70 40 29 42 59 43 40 44 58 45 41 46
REMARK SMILES IDX 44 47 57 48 75 49 42 50 43 51 56 53 76 54 45 55 30 56 31 57
REMARK SMILES IDX 39 58 32 59 38 60 33 61 34 62 35 63 36 64 37 65 60 66 61 67
REMARK SMILES IDX 69 68 62 69 68 70 63 71 64 72 65 73 66 74 67 75 46 76 47 77
REMARK SMILES IDX 55 78 48 79 54 80 49 81 50 82 51 83 52 84 53 85
REMARK H PARENT 13 7 5 13 18 22 74 41 44 52
REMARK Flexibility Score: inf
ROOT
ATOM      1  C   UNL A   1      35.380  23.184  24.969  1.00  0.00     0.023 C 
ENDROOT
BRANCH   1   2
ATOM      2  C   UNL A   1      34.286  22.685  25.905  1.00  0.00     0.023 C 
BRANCH   2   3
ATOM      3  C   UNL A   1      32.906  22.521  25.273  1.00  0.00     0.116 C 
BRANCH   3   4
ATOM      4  N   UNL A   1      31.802  22.941  26.113  1.00  0.00    -0.354 N 
ATOM      5  C   UNL A   1      30.935  23.995  26.010  1.00  0.00     0.245 C 
ATOM      6  O   UNL A   1      30.067  24.072  26.887  1.00  0.00    -0.272 OA
ATOM      7  H   UNL A   1      31.647  22.365  26.897  1.00  0.00     0.163 HD
BRANCH   5   8
ATOM      8  C   UNL A   1      30.989  24.998  24.805  1.00  0.00     0.115 C 
ATOM      9  C   UNL A   1      30.613  24.245  23.510  1.00  0.00     0.045 C 
BRANCH   8  10
ATOM     10  C   UNL A   1      29.986  26.178  24.994  1.00  0.00     0.035 C 
ATOM     11  C   UNL A   1      28.895  26.325  23.932  1.00  0.00     0.007 C 
ENDBRANCH   8  10
BRANCH   8  12
ATOM     12  N   UNL A   1      32.324  25.610  24.616  1.00  0.00    -0.347 N 
ATOM     13  H   UNL A   1      32.956  25.164  24.008  1.00  0.00     0.164 HD
BRANCH  12  14
ATOM     14  C   UNL A   1      32.725  26.746  25.233  1.00  0.00     0.183 A 
ATOM     15  N   UNL A   1      32.989  26.880  26.510  1.00  0.00    -0.229 NA
ATOM     16  S   UNL A   1      33.017  28.173  24.299  1.00  0.00    -0.106 S 
ATOM     17  C   UNL A   1      33.569  28.105  26.768  1.00  0.00     0.125 A 
ATOM     18  C   UNL A   1      33.675  28.944  25.682  1.00  0.00     0.088 A 
ENDBRANCH  12  14
ENDBRANCH   8  12
ENDBRANCH   5   8
ENDBRANCH   3   4
ENDBRANCH   2   3
ENDBRANCH   1   2
BRANCH   1  19
ATOM     19  C   UNL A   1      36.572  23.791  25.687  1.00  0.00     0.116 C 
BRANCH  19  20
ATOM     20  N   UNL A   1      37.664  22.836  25.835  1.00  0.00    -0.352 N 
ATOM     21  C   UNL A   1      38.944  23.045  26.283  1.00  0.00     0.251 C 
ATOM     22  H   UNL A   1      37.452  21.910  25.577  1.00  0.00     0.163 HD
ATOM     23  O   UNL A   1      39.799  22.182  26.128  1.00  0.00    -0.269 OA
BRANCH  21  24
ATOM     24  C   UNL A   1      39.278  24.324  26.940  1.00  0.00     0.039 A 
ATOM     25  C   UNL A   1      38.912  24.526  28.272  1.00  0.00     0.014 A 
ATOM     26  C   UNL A   1      39.972  25.314  26.240  1.00  0.00     0.014 A 
ATOM     27  C   UNL A   1      39.295  25.702  28.917  1.00  0.00     0.010 A 
ATOM     28  C   UNL A   1      40.437  26.436  26.911  1.00  0.00     0.010 A 
ATOM     29  C   UNL A   1      40.089  26.650  28.252  1.00  0.00    -0.014 A 
BRANCH  29  30
ATOM     30  C   UNL A   1      40.553  27.885  28.929  1.00  0.00     0.031 A 
ATOM     31  C   UNL A   1      41.929  27.932  29.538  1.00  0.00     0.074 A 
ATOM     32  C   UNL A   1      39.716  28.932  29.054  1.00  0.00     0.049 A 
ATOM     33  N   UNL A   1      42.494  28.891  30.225  1.00  0.00    -0.248 NA
ATOM     34  C   UNL A   1      42.771  26.734  29.380  1.00  0.00     0.031 C 
ATOM     35  C   UNL A   1      38.341  28.985  28.548  1.00  0.00     0.029 A 
ATOM     36  N   UNL A   1      39.894  30.155  29.651  1.00  0.00    -0.354 N 
ATOM     37  C   UNL A   1      43.743  28.406  30.594  1.00  0.00     0.074 A 
ATOM     38  C   UNL A   1      43.830  27.046  30.109  1.00  0.00     0.031 C 
ATOM     39  C   UNL A   1      37.814  30.186  28.830  1.00  0.00     0.029 A 
ATOM     40  C   UNL A   1      38.792  30.973  29.574  1.00  0.00     0.049 A 
ATOM     41  H   UNL A   1      40.733  30.421  30.093  1.00  0.00     0.167 HD
ATOM     42  C   UNL A   1      44.739  29.042  31.253  1.00  0.00     0.031 A 
ATOM     43  C   UNL A   1      38.589  32.215  30.056  1.00  0.00     0.031 A 
ATOM     44  C   UNL A   1      44.647  30.398  31.724  1.00  0.00     0.049 A 
ATOM     45  C   UNL A   1      39.706  32.900  30.794  1.00  0.00     0.074 A 
ATOM     46  C   UNL A   1      45.615  31.156  32.358  1.00  0.00     0.029 A 
ATOM     47  N   UNL A   1      43.519  31.198  31.613  1.00  0.00    -0.354 N 
ATOM     48  N   UNL A   1      40.907  32.449  31.073  1.00  0.00    -0.248 NA
ATOM     49  C   UNL A   1      39.448  34.265  31.270  1.00  0.00     0.031 C 
ATOM     50  C   UNL A   1      45.054  32.395  32.682  1.00  0.00     0.029 A 
ATOM     51  C   UNL A   1      43.759  32.434  32.189  1.00  0.00     0.049 A 
ATOM     52  H   UNL A   1      42.674  30.926  31.189  1.00  0.00     0.167 HD
ATOM     53  C   UNL A   1      41.556  33.485  31.733  1.00  0.00     0.074 A 
ATOM     54  C   UNL A   1      40.620  34.590  31.796  1.00  0.00     0.031 C 
ATOM     55  C   UNL A   1      42.813  33.521  32.242  1.00  0.00     0.031 A 
BRANCH  42  56
ATOM     56  C   UNL A   1      46.013  28.274  31.501  1.00  0.00    -0.014 A 
ATOM     57  C   UNL A   1      47.081  28.322  30.587  1.00  0.00     0.010 A 
ATOM     58  C   UNL A   1      46.157  27.518  32.679  1.00  0.00     0.010 A 
ATOM     59  C   UNL A   1      48.249  27.592  30.822  1.00  0.00     0.020 A 
ATOM     60  C   UNL A   1      47.337  26.813  32.934  1.00  0.00     0.020 A 
ATOM     61  C   UNL A   1      48.368  26.841  31.994  1.00  0.00     0.054 A 
BRANCH  61  62
ATOM     62  S   UNL A   1      49.906  25.921  32.280  1.00  0.00     0.124 S 
ATOM     63  O   UNL A   1      49.898  24.968  31.173  1.00  0.00    -0.237 OA
ATOM     64  O   UNL A   1      50.922  26.967  32.202  1.00  0.00    -0.237 OA
ATOM     65  O   UNL A   1      49.718  25.336  33.607  1.00  0.00    -0.744 OA
ENDBRANCH  61  62
ENDBRANCH  42  56
BRANCH  43  66
ATOM     66  C   UNL A   1      37.278  32.890  29.841  1.00  0.00    -0.014 A 
ATOM     67  C   UNL A   1      36.239  32.750  30.778  1.00  0.00     0.010 A 
ATOM     68  C   UNL A   1      37.071  33.697  28.708  1.00  0.00     0.010 A 
ATOM     69  C   UNL A   1      35.011  33.387  30.574  1.00  0.00     0.020 A 
ATOM     70  C   UNL A   1      35.856  34.360  28.516  1.00  0.00     0.020 A 
ATOM     71  C   UNL A   1      34.828  34.191  29.447  1.00  0.00     0.054 A 
BRANCH  71  72
ATOM     72  S   UNL A   1      33.245  35.051  29.232  1.00  0.00     0.124 S 
ATOM     73  O   UNL A   1      32.565  34.197  28.264  1.00  0.00    -0.237 OA
ATOM     74  O   UNL A   1      32.695  35.039  30.585  1.00  0.00    -0.237 OA
ATOM     75  O   UNL A   1      33.636  36.370  28.738  1.00  0.00    -0.744 OA
ENDBRANCH  71  72
ENDBRANCH  43  66
BRANCH  55  76
ATOM     76  C   UNL A   1      43.266  34.808  32.880  1.00  0.00    -0.014 A 
ATOM     77  C   UNL A   1      43.825  35.846  32.114  1.00  0.00     0.010 A 
ATOM     78  C   UNL A   1      43.071  35.001  34.261  1.00  0.00     0.010 A 
ATOM     79  C   UNL A   1      44.213  37.042  32.725  1.00  0.00     0.020 A 
ATOM     80  C   UNL A   1      43.427  36.207  34.867  1.00  0.00     0.020 A 
ATOM     81  C   UNL A   1      44.010  37.215  34.098  1.00  0.00     0.054 A 
BRANCH  81  82
ATOM     82  S   UNL A   1      44.480  38.793  34.856  1.00  0.00     0.124 S 
ATOM     83  O   UNL A   1      43.520  39.716  34.256  1.00  0.00    -0.237 OA
ATOM     84  O   UNL A   1      44.294  38.530  36.281  1.00  0.00    -0.237 OA
ATOM     85  O   UNL A   1      45.869  38.979  34.439  1.00  0.00    -0.744 OA
ENDBRANCH  81  82
ENDBRANCH  55  76
ENDBRANCH  29  30
ENDBRANCH  21  24
ENDBRANCH  19  20
ENDBRANCH   1  19
TORSDOF 17
ENDMDL
