MODEL 1
REMARK VINA RESULT:     -10.1      0.000      0.000
REMARK SMILES CC(C)C[C@@H](NC(=O)c1cccnc1)C(=O)NCCCCNC(=O)c1ccc(-c2c3nc(c(-c4ccc(S(=O)(=O)[O-])cc4)c4ccc([nH]4)c(-c4ccc(S(=O)(=O)[O-])cc4)c4nc(c(-c5ccc(S(=O)(=O)[O-])cc5)c5ccc2[nH]5)C=C4)C=C3)cc1
REMARK SMILES IDX 20 1 19 2 18 3 17 4 15 5 16 6 5 8 4 9 2 10 1 11 3 12 6 13
REMARK SMILES IDX 7 14 8 16 9 17 10 18 14 19 11 20 13 21 12 22 21 23 22 24
REMARK SMILES IDX 23 25 24 27 25 28 26 29 84 30 27 31 83 32 28 33 29 34 30 35
REMARK SMILES IDX 77 36 31 37 82 38 76 39 78 40 32 41 81 42 75 43 74 44 33 46
REMARK SMILES IDX 63 47 44 48 62 49 45 50 48 51 61 52 79 53 46 54 47 55 60 57
REMARK SMILES IDX 80 58 49 59 34 60 35 61 43 62 36 63 42 64 37 65 38 66 39 67
REMARK SMILES IDX 40 68 41 69 64 70 65 71 73 72 66 73 72 74 67 75 68 76 69 77
REMARK SMILES IDX 70 78 71 79 50 80 51 81 59 82 52 83 58 84 53 85 54 86 55 87
REMARK SMILES IDX 56 88 57 89
REMARK H PARENT 17 7 6 15 22 26 78 45 48 56
REMARK Flexibility Score: inf
ROOT
ATOM      1  C   UNL A   1      32.980  27.028  26.515  1.00  0.00     0.023 C 
ENDROOT
BRANCH   1   2
ATOM      2  C   UNL A   1      33.266  25.844  25.589  1.00  0.00     0.023 C 
BRANCH   2   3
ATOM      3  C   UNL A   1      32.643  24.534  26.054  1.00  0.00     0.116 C 
BRANCH   3   4
ATOM      4  N   UNL A   1      31.534  24.154  25.199  1.00  0.00    -0.354 N 
ATOM      5  C   UNL A   1      31.521  23.849  23.871  1.00  0.00     0.242 C 
ATOM      6  O   UNL A   1      30.428  23.703  23.314  1.00  0.00    -0.273 OA
ATOM      7  H   UNL A   1      30.658  24.109  25.647  1.00  0.00     0.163 HD
BRANCH   5   8
ATOM      8  C   UNL A   1      32.824  23.825  23.047  1.00  0.00     0.171 C 
BRANCH   8   9
ATOM      9  C   UNL A   1      33.369  22.381  23.214  1.00  0.00     0.038 C 
BRANCH   9  10
ATOM     10  C   UNL A   1      34.769  22.194  23.818  1.00  0.00    -0.015 C 
ATOM     11  C   UNL A   1      35.534  23.511  23.885  1.00  0.00     0.007 C 
ATOM     12  C   UNL A   1      34.627  21.594  25.224  1.00  0.00     0.007 C 
ENDBRANCH   9  10
ENDBRANCH   8   9
BRANCH   8  13
ATOM     13  N   UNL A   1      32.687  24.231  21.637  1.00  0.00    -0.340 N 
ATOM     14  C   UNL A   1      32.847  25.462  21.040  1.00  0.00     0.253 C 
ATOM     15  H   UNL A   1      32.441  23.504  21.021  1.00  0.00     0.164 HD
ATOM     16  O   UNL A   1      33.024  25.523  19.826  1.00  0.00    -0.269 OA
BRANCH  14  17
ATOM     17  C   UNL A   1      32.630  26.708  21.790  1.00  0.00     0.058 A 
ATOM     18  C   UNL A   1      33.647  27.567  22.192  1.00  0.00     0.017 A 
ATOM     19  C   UNL A   1      31.325  27.004  22.171  1.00  0.00     0.124 A 
ATOM     20  C   UNL A   1      33.331  28.631  23.039  1.00  0.00     0.021 A 
ATOM     21  N   UNL A   1      30.993  28.022  23.000  1.00  0.00    -0.264 NA
ATOM     22  C   UNL A   1      32.008  28.806  23.426  1.00  0.00     0.111 A 
ENDBRANCH  14  17
ENDBRANCH   8  13
ENDBRANCH   5   8
ENDBRANCH   3   4
ENDBRANCH   2   3
ENDBRANCH   1   2
BRANCH   1  23
ATOM     23  C   UNL A   1      34.119  28.033  26.638  1.00  0.00     0.116 C 
BRANCH  23  24
ATOM     24  N   UNL A   1      33.644  29.371  26.963  1.00  0.00    -0.352 N 
ATOM     25  C   UNL A   1      34.277  30.346  27.693  1.00  0.00     0.251 C 
ATOM     26  H   UNL A   1      32.753  29.606  26.615  1.00  0.00     0.163 HD
ATOM     27  O   UNL A   1      33.677  31.365  28.022  1.00  0.00    -0.269 OA
BRANCH  25  28
ATOM     28  C   UNL A   1      35.679  30.133  28.104  1.00  0.00     0.039 A 
ATOM     29  C   UNL A   1      35.941  29.625  29.377  1.00  0.00     0.014 A 
ATOM     30  C   UNL A   1      36.721  30.391  27.209  1.00  0.00     0.014 A 
ATOM     31  C   UNL A   1      37.254  29.313  29.733  1.00  0.00     0.010 A 
ATOM     32  C   UNL A   1      38.020  30.020  27.543  1.00  0.00     0.010 A 
ATOM     33  C   UNL A   1      38.298  29.477  28.808  1.00  0.00    -0.014 A 
BRANCH  33  34
ATOM     34  C   UNL A   1      39.688  29.083  29.143  1.00  0.00     0.031 A 
ATOM     35  C   UNL A   1      40.617  30.074  29.789  1.00  0.00     0.074 A 
ATOM     36  C   UNL A   1      40.131  27.854  28.813  1.00  0.00     0.049 A 
ATOM     37  N   UNL A   1      41.876  29.933  30.111  1.00  0.00    -0.248 NA
ATOM     38  C   UNL A   1      40.064  31.405  30.091  1.00  0.00     0.031 C 
ATOM     39  C   UNL A   1      39.340  26.817  28.145  1.00  0.00     0.029 A 
ATOM     40  N   UNL A   1      41.361  27.269  28.988  1.00  0.00    -0.354 N 
ATOM     41  C   UNL A   1      42.270  31.158  30.637  1.00  0.00     0.074 A 
ATOM     42  C   UNL A   1      41.130  32.043  30.549  1.00  0.00     0.031 C 
ATOM     43  C   UNL A   1      40.097  25.719  27.986  1.00  0.00     0.029 A 
ATOM     44  C   UNL A   1      41.433  25.983  28.510  1.00  0.00     0.049 A 
ATOM     45  H   UNL A   1      42.119  27.729  29.417  1.00  0.00     0.167 HD
ATOM     46  C   UNL A   1      43.468  31.508  31.163  1.00  0.00     0.031 A 
ATOM     47  C   UNL A   1      42.462  25.113  28.492  1.00  0.00     0.031 A 
ATOM     48  C   UNL A   1      44.596  30.622  31.261  1.00  0.00     0.049 A 
ATOM     49  C   UNL A   1      43.782  25.524  29.086  1.00  0.00     0.074 A 
ATOM     50  C   UNL A   1      45.835  30.867  31.826  1.00  0.00     0.029 A 
ATOM     51  N   UNL A   1      44.624  29.320  30.783  1.00  0.00    -0.354 N 
ATOM     52  N   UNL A   1      44.115  26.666  29.636  1.00  0.00    -0.248 NA
ATOM     53  C   UNL A   1      44.858  24.524  29.067  1.00  0.00     0.031 C 
ATOM     54  C   UNL A   1      46.627  29.725  31.653  1.00  0.00     0.029 A 
ATOM     55  C   UNL A   1      45.864  28.755  31.024  1.00  0.00     0.049 A 
ATOM     56  H   UNL A   1      43.872  28.867  30.339  1.00  0.00     0.167 HD
ATOM     57  C   UNL A   1      45.433  26.515  30.052  1.00  0.00     0.074 A 
ATOM     58  C   UNL A   1      45.830  25.165  29.701  1.00  0.00     0.031 C 
ATOM     59  C   UNL A   1      46.242  27.411  30.670  1.00  0.00     0.031 A 
BRANCH  46  60
ATOM     60  C   UNL A   1      43.615  32.916  31.674  1.00  0.00    -0.014 A 
ATOM     61  C   UNL A   1      43.418  33.216  33.035  1.00  0.00     0.010 A 
ATOM     62  C   UNL A   1      43.985  33.947  30.791  1.00  0.00     0.010 A 
ATOM     63  C   UNL A   1      43.550  34.528  33.496  1.00  0.00     0.020 A 
ATOM     64  C   UNL A   1      44.144  35.256  31.255  1.00  0.00     0.020 A 
ATOM     65  C   UNL A   1      43.908  35.541  32.601  1.00  0.00     0.054 A 
BRANCH  65  66
ATOM     66  S   UNL A   1      44.095  37.232  33.231  1.00  0.00     0.124 S 
ATOM     67  O   UNL A   1      44.152  38.008  31.996  1.00  0.00    -0.237 OA
ATOM     68  O   UNL A   1      42.886  37.413  34.030  1.00  0.00    -0.237 OA
ATOM     69  O   UNL A   1      45.340  37.182  33.993  1.00  0.00    -0.744 OA
ENDBRANCH  65  66
ENDBRANCH  46  60
BRANCH  47  70
ATOM     70  C   UNL A   1      42.279  23.757  27.906  1.00  0.00    -0.014 A 
ATOM     71  C   UNL A   1      42.626  23.506  26.567  1.00  0.00     0.010 A 
ATOM     72  C   UNL A   1      41.767  22.706  28.688  1.00  0.00     0.010 A 
ATOM     73  C   UNL A   1      42.447  22.234  26.015  1.00  0.00     0.020 A 
ATOM     74  C   UNL A   1      41.610  21.428  28.147  1.00  0.00     0.020 A 
ATOM     75  C   UNL A   1      41.940  21.202  26.809  1.00  0.00     0.054 A 
BRANCH  75  76
ATOM     76  S   UNL A   1      41.762  19.546  26.088  1.00  0.00     0.124 S 
ATOM     77  O   UNL A   1      42.235  18.691  27.172  1.00  0.00    -0.237 OA
ATOM     78  O   UNL A   1      40.331  19.476  25.803  1.00  0.00    -0.237 OA
ATOM     79  O   UNL A   1      42.622  19.597  24.908  1.00  0.00    -0.744 OA
ENDBRANCH  75  76
ENDBRANCH  47  70
BRANCH  59  80
ATOM     80  C   UNL A   1      47.628  26.954  31.035  1.00  0.00    -0.014 A 
ATOM     81  C   UNL A   1      48.718  27.179  30.177  1.00  0.00     0.010 A 
ATOM     82  C   UNL A   1      47.849  26.341  32.282  1.00  0.00     0.010 A 
ATOM     83  C   UNL A   1      50.003  26.773  30.548  1.00  0.00     0.020 A 
ATOM     84  C   UNL A   1      49.135  25.955  32.666  1.00  0.00     0.020 A 
ATOM     85  C   UNL A   1      50.203  26.162  31.790  1.00  0.00     0.054 A 
BRANCH  85  86
ATOM     86  S   UNL A   1      51.886  25.685  32.269  1.00  0.00     0.124 S 
ATOM     87  O   UNL A   1      52.609  25.817  31.008  1.00  0.00    -0.237 OA
ATOM     88  O   UNL A   1      52.222  26.672  33.293  1.00  0.00    -0.237 OA
ATOM     89  O   UNL A   1      51.731  24.317  32.760  1.00  0.00    -0.744 OA
ENDBRANCH  85  86
ENDBRANCH  59  80
ENDBRANCH  33  34
ENDBRANCH  25  28
ENDBRANCH  23  24
ENDBRANCH   1  23
TORSDOF 18
ENDMDL
MODEL 2
REMARK VINA RESULT:     -10.1      1.362      2.771
REMARK SMILES CC(C)C[C@@H](NC(=O)c1cccnc1)C(=O)NCCCCNC(=O)c1ccc(-c2c3nc(c(-c4ccc(S(=O)(=O)[O-])cc4)c4ccc([nH]4)c(-c4ccc(S(=O)(=O)[O-])cc4)c4nc(c(-c5ccc(S(=O)(=O)[O-])cc5)c5ccc2[nH]5)C=C4)C=C3)cc1
REMARK SMILES IDX 20 1 19 2 18 3 17 4 15 5 16 6 5 8 4 9 2 10 1 11 3 12 6 13
REMARK SMILES IDX 7 14 8 16 9 17 10 18 14 19 11 20 13 21 12 22 21 23 22 24
REMARK SMILES IDX 23 25 24 27 25 28 26 29 84 30 27 31 83 32 28 33 29 34 30 35
REMARK SMILES IDX 77 36 31 37 82 38 76 39 78 40 32 41 81 42 75 43 74 44 33 46
REMARK SMILES IDX 63 47 44 48 62 49 45 50 48 51 61 52 79 53 46 54 47 55 60 57
REMARK SMILES IDX 80 58 49 59 34 60 35 61 43 62 36 63 42 64 37 65 38 66 39 67
REMARK SMILES IDX 40 68 41 69 64 70 65 71 73 72 66 73 72 74 67 75 68 76 69 77
REMARK SMILES IDX 70 78 71 79 50 80 51 81 59 82 52 83 58 84 53 85 54 86 55 87
REMARK SMILES IDX 56 88 57 89
REMARK H PARENT 17 7 6 15 22 26 78 45 48 56
REMARK Flexibility Score: inf
ROOT
ATOM      1  C   UNL A   1      33.312  28.188  25.488  1.00  0.00     0.023 C 
ENDROOT
BRANCH   1   2
ATOM      2  C   UNL A   1      33.359  26.733  25.018  1.00  0.00     0.023 C 
BRANCH   2   3
ATOM      3  C   UNL A   1      33.425  25.721  26.155  1.00  0.00     0.116 C 
BRANCH   3   4
ATOM      4  N   UNL A   1      32.202  24.941  26.226  1.00  0.00    -0.354 N 
ATOM      5  C   UNL A   1      31.972  23.646  25.871  1.00  0.00     0.242 C 
ATOM      6  O   UNL A   1      30.808  23.234  25.877  1.00  0.00    -0.273 OA
ATOM      7  H   UNL A   1      31.422  25.420  26.586  1.00  0.00     0.163 HD
BRANCH   5   8
ATOM      8  C   UNL A   1      33.112  22.750  25.342  1.00  0.00     0.171 C 
BRANCH   8   9
ATOM      9  C   UNL A   1      32.481  21.337  25.225  1.00  0.00     0.038 C 
BRANCH   9  10
ATOM     10  C   UNL A   1      33.050  20.367  24.178  1.00  0.00    -0.015 C 
ATOM     11  C   UNL A   1      33.092  18.936  24.701  1.00  0.00     0.007 C 
ATOM     12  C   UNL A   1      32.185  20.442  22.911  1.00  0.00     0.007 C 
ENDBRANCH   9  10
ENDBRANCH   8   9
BRANCH   8  13
ATOM     13  N   UNL A   1      33.743  23.207  24.091  1.00  0.00    -0.340 N 
ATOM     14  C   UNL A   1      35.033  23.057  23.632  1.00  0.00     0.253 C 
ATOM     15  H   UNL A   1      33.145  23.699  23.483  1.00  0.00     0.164 HD
ATOM     16  O   UNL A   1      35.266  23.206  22.435  1.00  0.00    -0.269 OA
BRANCH  14  17
ATOM     17  C   UNL A   1      36.162  22.905  24.562  1.00  0.00     0.058 A 
ATOM     18  C   UNL A   1      36.647  23.923  25.377  1.00  0.00     0.017 A 
ATOM     19  C   UNL A   1      36.818  21.679  24.574  1.00  0.00     0.124 A 
ATOM     20  C   UNL A   1      37.825  23.704  26.093  1.00  0.00     0.021 A 
ATOM     21  N   UNL A   1      37.967  21.444  25.251  1.00  0.00    -0.264 NA
ATOM     22  C   UNL A   1      38.452  22.469  25.987  1.00  0.00     0.111 A 
ENDBRANCH  14  17
ENDBRANCH   8  13
ENDBRANCH   5   8
ENDBRANCH   3   4
ENDBRANCH   2   3
ENDBRANCH   1   2
BRANCH   1  23
ATOM     23  C   UNL A   1      33.699  28.402  26.948  1.00  0.00     0.116 C 
BRANCH  23  24
ATOM     24  N   UNL A   1      33.564  29.792  27.358  1.00  0.00    -0.352 N 
ATOM     25  C   UNL A   1      34.464  30.569  28.045  1.00  0.00     0.251 C 
ATOM     26  H   UNL A   1      32.718  30.232  27.111  1.00  0.00     0.163 HD
ATOM     27  O   UNL A   1      34.138  31.676  28.463  1.00  0.00    -0.269 OA
BRANCH  25  28
ATOM     28  C   UNL A   1      35.816  30.037  28.301  1.00  0.00     0.039 A 
ATOM     29  C   UNL A   1      36.766  30.083  27.280  1.00  0.00     0.014 A 
ATOM     30  C   UNL A   1      36.150  29.542  29.566  1.00  0.00     0.014 A 
ATOM     31  C   UNL A   1      38.078  29.689  27.546  1.00  0.00     0.010 A 
ATOM     32  C   UNL A   1      37.472  29.210  29.845  1.00  0.00     0.010 A 
ATOM     33  C   UNL A   1      38.449  29.281  28.838  1.00  0.00    -0.014 A 
BRANCH  33  34
ATOM     34  C   UNL A   1      39.853  28.928  29.158  1.00  0.00     0.031 A 
ATOM     35  C   UNL A   1      40.759  29.945  29.797  1.00  0.00     0.074 A 
ATOM     36  C   UNL A   1      40.330  27.714  28.818  1.00  0.00     0.049 A 
ATOM     37  N   UNL A   1      42.025  29.841  30.105  1.00  0.00    -0.248 NA
ATOM     38  C   UNL A   1      40.169  31.257  30.110  1.00  0.00     0.031 C 
ATOM     39  C   UNL A   1      39.563  26.657  28.154  1.00  0.00     0.029 A 
ATOM     40  N   UNL A   1      41.578  27.167  28.978  1.00  0.00    -0.354 N 
ATOM     41  C   UNL A   1      42.388  31.075  30.632  1.00  0.00     0.074 A 
ATOM     42  C   UNL A   1      41.221  31.925  30.559  1.00  0.00     0.031 C 
ATOM     43  C   UNL A   1      40.351  25.583  27.983  1.00  0.00     0.029 A 
ATOM     44  C   UNL A   1      41.684  25.885  28.494  1.00  0.00     0.049 A 
ATOM     45  H   UNL A   1      42.327  27.647  29.400  1.00  0.00     0.167 HD
ATOM     46  C   UNL A   1      43.580  31.459  31.147  1.00  0.00     0.031 A 
ATOM     47  C   UNL A   1      42.739  25.046  28.461  1.00  0.00     0.031 A 
ATOM     48  C   UNL A   1      44.735  30.607  31.229  1.00  0.00     0.049 A 
ATOM     49  C   UNL A   1      44.052  25.495  29.043  1.00  0.00     0.074 A 
ATOM     50  C   UNL A   1      45.973  30.887  31.782  1.00  0.00     0.029 A 
ATOM     51  N   UNL A   1      44.797  29.309  30.746  1.00  0.00    -0.354 N 
ATOM     52  N   UNL A   1      44.356  26.644  29.594  1.00  0.00    -0.248 NA
ATOM     53  C   UNL A   1      45.157  24.527  29.008  1.00  0.00     0.031 C 
ATOM     54  C   UNL A   1      46.797  29.771  31.596  1.00  0.00     0.029 A 
ATOM     55  C   UNL A   1      46.056  28.780  30.972  1.00  0.00     0.049 A 
ATOM     56  H   UNL A   1      44.054  28.834  30.308  1.00  0.00     0.167 HD
ATOM     57  C   UNL A   1      45.683  26.531  29.995  1.00  0.00     0.074 A 
ATOM     58  C   UNL A   1      46.116  25.196  29.635  1.00  0.00     0.031 C 
ATOM     59  C   UNL A   1      46.470  27.449  30.608  1.00  0.00     0.031 A 
BRANCH  46  60
ATOM     60  C   UNL A   1      43.690  32.869  31.662  1.00  0.00    -0.014 A 
ATOM     61  C   UNL A   1      44.072  33.922  30.810  1.00  0.00     0.010 A 
ATOM     62  C   UNL A   1      43.376  33.151  33.004  1.00  0.00     0.010 A 
ATOM     63  C   UNL A   1      44.177  35.225  31.301  1.00  0.00     0.020 A 
ATOM     64  C   UNL A   1      43.455  34.460  33.491  1.00  0.00     0.020 A 
ATOM     65  C   UNL A   1      43.872  35.486  32.641  1.00  0.00     0.054 A 
BRANCH  65  66
ATOM     66  S   UNL A   1      43.995  37.191  33.246  1.00  0.00     0.124 S 
ATOM     67  O   UNL A   1      45.269  37.165  33.960  1.00  0.00    -0.237 OA
ATOM     68  O   UNL A   1      43.983  37.972  32.013  1.00  0.00    -0.237 OA
ATOM     69  O   UNL A   1      42.812  37.345  34.089  1.00  0.00    -0.744 OA
ENDBRANCH  65  66
ENDBRANCH  46  60
BRANCH  47  70
ATOM     70  C   UNL A   1      42.590  23.688  27.871  1.00  0.00    -0.014 A 
ATOM     71  C   UNL A   1      42.030  22.641  28.623  1.00  0.00     0.010 A 
ATOM     72  C   UNL A   1      42.999  23.438  26.548  1.00  0.00     0.010 A 
ATOM     73  C   UNL A   1      41.899  21.363  28.070  1.00  0.00     0.020 A 
ATOM     74  C   UNL A   1      42.845  22.169  25.984  1.00  0.00     0.020 A 
ATOM     75  C   UNL A   1      42.307  21.136  26.753  1.00  0.00     0.054 A 
BRANCH  75  76
ATOM     76  S   UNL A   1      42.080  19.483  26.038  1.00  0.00     0.124 S 
ATOM     77  O   UNL A   1      42.879  19.568  24.819  1.00  0.00    -0.237 OA
ATOM     78  O   UNL A   1      42.609  18.610  27.083  1.00  0.00    -0.237 OA
ATOM     79  O   UNL A   1      40.636  19.396  25.837  1.00  0.00    -0.744 OA
ENDBRANCH  75  76
ENDBRANCH  47  70
BRANCH  59  80
ATOM     80  C   UNL A   1      47.874  27.032  30.957  1.00  0.00    -0.014 A 
ATOM     81  C   UNL A   1      48.150  26.327  32.141  1.00  0.00     0.010 A 
ATOM     82  C   UNL A   1      48.921  27.303  30.057  1.00  0.00     0.010 A 
ATOM     83  C   UNL A   1      49.455  25.924  32.433  1.00  0.00     0.020 A 
ATOM     84  C   UNL A   1      50.222  26.881  30.334  1.00  0.00     0.020 A 
ATOM     85  C   UNL A   1      50.484  26.205  31.528  1.00  0.00     0.054 A 
BRANCH  85  86
ATOM     86  S   UNL A   1      52.163  25.632  31.906  1.00  0.00     0.124 S 
ATOM     87  O   UNL A   1      51.938  24.226  32.227  1.00  0.00    -0.237 OA
ATOM     88  O   UNL A   1      52.879  25.885  30.658  1.00  0.00    -0.237 OA
ATOM     89  O   UNL A   1      52.570  26.471  33.032  1.00  0.00    -0.744 OA
ENDBRANCH  85  86
ENDBRANCH  59  80
ENDBRANCH  33  34
ENDBRANCH  25  28
ENDBRANCH  23  24
ENDBRANCH   1  23
TORSDOF 18
ENDMDL
MODEL 3
REMARK VINA RESULT:     -10.0      1.079      2.667
REMARK SMILES CC(C)C[C@@H](NC(=O)c1cccnc1)C(=O)NCCCCNC(=O)c1ccc(-c2c3nc(c(-c4ccc(S(=O)(=O)[O-])cc4)c4ccc([nH]4)c(-c4ccc(S(=O)(=O)[O-])cc4)c4nc(c(-c5ccc(S(=O)(=O)[O-])cc5)c5ccc2[nH]5)C=C4)C=C3)cc1
REMARK SMILES IDX 20 1 19 2 18 3 17 4 15 5 16 6 5 8 4 9 2 10 1 11 3 12 6 13
REMARK SMILES IDX 7 14 8 16 9 17 10 18 14 19 11 20 13 21 12 22 21 23 22 24
REMARK SMILES IDX 23 25 24 27 25 28 26 29 84 30 27 31 83 32 28 33 29 34 30 35
REMARK SMILES IDX 77 36 31 37 82 38 76 39 78 40 32 41 81 42 75 43 74 44 33 46
REMARK SMILES IDX 63 47 44 48 62 49 45 50 48 51 61 52 79 53 46 54 47 55 60 57
REMARK SMILES IDX 80 58 49 59 34 60 35 61 43 62 36 63 42 64 37 65 38 66 39 67
REMARK SMILES IDX 40 68 41 69 64 70 65 71 73 72 66 73 72 74 67 75 68 76 69 77
REMARK SMILES IDX 70 78 71 79 50 80 51 81 59 82 52 83 58 84 53 85 54 86 55 87
REMARK SMILES IDX 56 88 57 89
REMARK H PARENT 17 7 6 15 22 26 78 45 48 56
REMARK Flexibility Score: inf
ROOT
ATOM      1  C   UNL A   1      34.151  28.305  25.833  1.00  0.00     0.023 C 
ENDROOT
BRANCH   1   2
ATOM      2  C   UNL A   1      33.186  27.878  24.725  1.00  0.00     0.023 C 
BRANCH   2   3
ATOM      3  C   UNL A   1      33.714  26.748  23.850  1.00  0.00     0.116 C 
BRANCH   3   4
ATOM      4  N   UNL A   1      32.990  26.682  22.594  1.00  0.00    -0.354 N 
ATOM      5  C   UNL A   1      32.092  25.757  22.153  1.00  0.00     0.242 C 
ATOM      6  O   UNL A   1      31.714  25.822  20.979  1.00  0.00    -0.273 OA
ATOM      7  H   UNL A   1      33.175  27.418  21.967  1.00  0.00     0.163 HD
BRANCH   5   8
ATOM      8  C   UNL A   1      31.661  24.575  23.046  1.00  0.00     0.171 C 
BRANCH   8   9
ATOM      9  C   UNL A   1      30.194  24.892  23.438  1.00  0.00     0.038 C 
BRANCH   9  10
ATOM     10  C   UNL A   1      29.912  26.174  24.239  1.00  0.00    -0.015 C 
ATOM     11  C   UNL A   1      28.494  26.683  24.004  1.00  0.00     0.007 C 
ATOM     12  C   UNL A   1      30.130  25.885  25.731  1.00  0.00     0.007 C 
ENDBRANCH   9  10
ENDBRANCH   8   9
BRANCH   8  13
ATOM     13  N   UNL A   1      31.824  23.239  22.446  1.00  0.00    -0.340 N 
ATOM     14  C   UNL A   1      32.562  22.154  22.863  1.00  0.00     0.253 C 
ATOM     15  H   UNL A   1      31.322  23.100  21.610  1.00  0.00     0.164 HD
ATOM     16  O   UNL A   1      32.297  21.040  22.418  1.00  0.00    -0.269 OA
BRANCH  14  17
ATOM     17  C   UNL A   1      33.771  22.322  23.682  1.00  0.00     0.058 A 
ATOM     18  C   UNL A   1      34.923  22.971  23.253  1.00  0.00     0.017 A 
ATOM     19  C   UNL A   1      33.772  21.736  24.944  1.00  0.00     0.124 A 
ATOM     20  C   UNL A   1      36.061  22.922  24.062  1.00  0.00     0.021 A 
ATOM     21  N   UNL A   1      34.865  21.665  25.742  1.00  0.00    -0.264 NA
ATOM     22  C   UNL A   1      35.990  22.251  25.275  1.00  0.00     0.111 A 
ENDBRANCH  14  17
ENDBRANCH   8  13
ENDBRANCH   5   8
ENDBRANCH   3   4
ENDBRANCH   2   3
ENDBRANCH   1   2
BRANCH   1  23
ATOM     23  C   UNL A   1      33.510  28.485  27.205  1.00  0.00     0.116 C 
BRANCH  23  24
ATOM     24  N   UNL A   1      33.399  29.887  27.584  1.00  0.00    -0.352 N 
ATOM     25  C   UNL A   1      34.333  30.678  28.205  1.00  0.00     0.251 C 
ATOM     26  H   UNL A   1      32.543  30.323  27.367  1.00  0.00     0.163 HD
ATOM     27  O   UNL A   1      34.031  31.797  28.608  1.00  0.00    -0.269 OA
BRANCH  25  28
ATOM     28  C   UNL A   1      35.695  30.148  28.409  1.00  0.00     0.039 A 
ATOM     29  C   UNL A   1      36.610  30.211  27.357  1.00  0.00     0.014 A 
ATOM     30  C   UNL A   1      36.073  29.638  29.655  1.00  0.00     0.014 A 
ATOM     31  C   UNL A   1      37.932  29.819  27.575  1.00  0.00     0.010 A 
ATOM     32  C   UNL A   1      37.404  29.307  29.886  1.00  0.00     0.010 A 
ATOM     33  C   UNL A   1      38.346  29.396  28.848  1.00  0.00    -0.014 A 
BRANCH  33  34
ATOM     34  C   UNL A   1      39.762  29.044  29.116  1.00  0.00     0.031 A 
ATOM     35  C   UNL A   1      40.695  30.069  29.700  1.00  0.00     0.074 A 
ATOM     36  C   UNL A   1      40.221  27.822  28.779  1.00  0.00     0.049 A 
ATOM     37  N   UNL A   1      41.973  29.966  29.957  1.00  0.00    -0.248 NA
ATOM     38  C   UNL A   1      40.122  31.388  30.012  1.00  0.00     0.031 C 
ATOM     39  C   UNL A   1      39.425  26.756  28.166  1.00  0.00     0.029 A 
ATOM     40  N   UNL A   1      41.474  27.274  28.897  1.00  0.00    -0.354 N 
ATOM     41  C   UNL A   1      42.360  31.208  30.447  1.00  0.00     0.074 A 
ATOM     42  C   UNL A   1      41.194  32.061  30.406  1.00  0.00     0.031 C 
ATOM     43  C   UNL A   1      40.203  25.676  27.982  1.00  0.00     0.029 A 
ATOM     44  C   UNL A   1      41.557  25.983  28.433  1.00  0.00     0.049 A 
ATOM     45  H   UNL A   1      42.240  27.759  29.280  1.00  0.00     0.167 HD
ATOM     46  C   UNL A   1      43.573  31.597  30.905  1.00  0.00     0.031 A 
ATOM     47  C   UNL A   1      42.607  25.140  28.372  1.00  0.00     0.031 A 
ATOM     48  C   UNL A   1      44.729  30.743  30.955  1.00  0.00     0.049 A 
ATOM     49  C   UNL A   1      43.943  25.595  28.891  1.00  0.00     0.074 A 
ATOM     50  C   UNL A   1      45.989  31.029  31.452  1.00  0.00     0.029 A 
ATOM     51  N   UNL A   1      44.767  29.436  30.494  1.00  0.00    -0.354 N 
ATOM     52  N   UNL A   1      44.273  26.753  29.409  1.00  0.00    -0.248 NA
ATOM     53  C   UNL A   1      45.045  24.624  28.829  1.00  0.00     0.031 C 
ATOM     54  C   UNL A   1      46.801  29.907  31.253  1.00  0.00     0.029 A 
ATOM     55  C   UNL A   1      46.034  28.907  30.677  1.00  0.00     0.049 A 
ATOM     56  H   UNL A   1      44.007  28.956  30.095  1.00  0.00     0.167 HD
ATOM     57  C   UNL A   1      45.615  26.643  29.757  1.00  0.00     0.074 A 
ATOM     58  C   UNL A   1      46.030  25.300  29.404  1.00  0.00     0.031 C 
ATOM     59  C   UNL A   1      46.429  27.569  30.321  1.00  0.00     0.031 A 
BRANCH  46  60
ATOM     60  C   UNL A   1      43.708  33.016  31.390  1.00  0.00    -0.014 A 
ATOM     61  C   UNL A   1      43.415  33.355  32.724  1.00  0.00     0.010 A 
ATOM     62  C   UNL A   1      44.162  34.016  30.511  1.00  0.00     0.010 A 
ATOM     63  C   UNL A   1      43.537  34.677  33.160  1.00  0.00     0.020 A 
ATOM     64  C   UNL A   1      44.310  35.335  30.952  1.00  0.00     0.020 A 
ATOM     65  C   UNL A   1      43.980  35.660  32.269  1.00  0.00     0.054 A 
BRANCH  65  66
ATOM     66  S   UNL A   1      44.150  37.364  32.868  1.00  0.00     0.124 S 
ATOM     67  O   UNL A   1      45.530  37.377  33.346  1.00  0.00    -0.237 OA
ATOM     68  O   UNL A   1      43.894  38.154  31.668  1.00  0.00    -0.237 OA
ATOM     69  O   UNL A   1      43.131  37.468  33.909  1.00  0.00    -0.744 OA
ENDBRANCH  65  66
ENDBRANCH  46  60
BRANCH  47  70
ATOM     70  C   UNL A   1      42.431  23.773  27.813  1.00  0.00    -0.014 A 
ATOM     71  C   UNL A   1      42.513  23.551  26.428  1.00  0.00     0.010 A 
ATOM     72  C   UNL A   1      42.192  22.680  28.667  1.00  0.00     0.010 A 
ATOM     73  C   UNL A   1      42.340  22.267  25.903  1.00  0.00     0.020 A 
ATOM     74  C   UNL A   1      42.044  21.391  28.149  1.00  0.00     0.020 A 
ATOM     75  C   UNL A   1      42.107  21.194  26.768  1.00  0.00     0.054 A 
BRANCH  75  76
ATOM     76  S   UNL A   1      41.936  19.527  26.071  1.00  0.00     0.124 S 
ATOM     77  O   UNL A   1      40.513  19.477  25.750  1.00  0.00    -0.237 OA
ATOM     78  O   UNL A   1      42.843  19.567  24.926  1.00  0.00    -0.237 OA
ATOM     79  O   UNL A   1      42.363  18.657  27.164  1.00  0.00    -0.744 OA
ENDBRANCH  75  76
ENDBRANCH  47  70
BRANCH  59  80
ATOM     80  C   UNL A   1      47.845  27.154  30.620  1.00  0.00    -0.014 A 
ATOM     81  C   UNL A   1      48.903  27.512  29.767  1.00  0.00     0.010 A 
ATOM     82  C   UNL A   1      48.124  26.446  31.802  1.00  0.00     0.010 A 
ATOM     83  C   UNL A   1      50.214  27.142  30.077  1.00  0.00     0.020 A 
ATOM     84  C   UNL A   1      49.436  26.096  32.128  1.00  0.00     0.020 A 
ATOM     85  C   UNL A   1      50.472  26.435  31.255  1.00  0.00     0.054 A 
BRANCH  85  86
ATOM     86  S   UNL A   1      52.187  26.005  31.661  1.00  0.00     0.124 S 
ATOM     87  O   UNL A   1      52.034  24.684  32.263  1.00  0.00    -0.237 OA
ATOM     88  O   UNL A   1      52.843  26.028  30.355  1.00  0.00    -0.237 OA
ATOM     89  O   UNL A   1      52.601  27.065  32.578  1.00  0.00    -0.744 OA
ENDBRANCH  85  86
ENDBRANCH  59  80
ENDBRANCH  33  34
ENDBRANCH  25  28
ENDBRANCH  23  24
ENDBRANCH   1  23
TORSDOF 18
ENDMDL
