MODEL 1
REMARK VINA RESULT:      -9.0      0.000      0.000
REMARK SMILES CC(C)[NH2+][C@]1(C(=O)NCCCCNC(=O)c2ccc(-c3c4nc(c(-c5ccc(S(=O)(=O)[O-])cc5)c5ccc([nH]5)c(-c5ccc(S(=O)(=O)[O-])cc5)c5nc(c(-c6ccc(S(=O)(=O)[O-])cc6)c6ccc3[nH]6)C=C5)C=C4)cc2)CCC[C@H]([N@H+](C)C2CCCCC2)C1
REMARK SMILES IDX 11 1 10 2 9 3 8 4 6 5 7 6 5 8 76 9 88 10 77 11 79 12 78 13
REMARK SMILES IDX 4 14 2 17 1 18 3 19 80 20 81 21 82 23 83 24 87 25 84 26
REMARK SMILES IDX 86 27 85 28 12 29 13 30 14 31 15 33 16 34 17 35 75 36 18 37
REMARK SMILES IDX 74 38 19 39 20 40 21 41 68 42 22 43 73 44 67 45 69 46 23 47
REMARK SMILES IDX 72 48 66 49 65 50 24 52 54 53 35 54 53 55 36 56 39 57 52 58
REMARK SMILES IDX 70 59 37 60 38 61 51 63 71 64 40 65 25 66 26 67 34 68 27 69
REMARK SMILES IDX 33 70 28 71 29 72 30 73 31 74 32 75 55 76 56 77 64 78 57 79
REMARK SMILES IDX 63 80 58 81 59 82 60 83 61 84 62 85 41 86 42 87 50 88 43 89
REMARK SMILES IDX 49 90 44 91 45 92 46 93 47 94 48 95
REMARK H PARENT 8 7 4 15 4 16 80 22 13 32 69 51 39 62
REMARK Flexibility Score: inf
ROOT
ATOM      1  C   UNL A   1      35.431  33.997  29.044  1.00  0.00     0.023 C 
ENDROOT
BRANCH   1   2
ATOM      2  C   UNL A   1      34.507  33.524  30.168  1.00  0.00     0.023 C 
BRANCH   2   3
ATOM      3  C   UNL A   1      35.244  33.025  31.407  1.00  0.00     0.116 C 
BRANCH   3   4
ATOM      4  N   UNL A   1      35.451  34.093  32.354  1.00  0.00    -0.351 N 
ATOM      5  C   UNL A   1      36.254  34.255  33.429  1.00  0.00     0.281 C 
ATOM      6  O   UNL A   1      36.041  35.307  34.055  1.00  0.00    -0.268 OA
ATOM      7  H   UNL A   1      34.883  34.877  32.178  1.00  0.00     0.163 HD
BRANCH   5   8
ATOM      8  C   UNL A   1      37.393  33.268  33.893  1.00  0.00     0.181 C 
ATOM      9  C   UNL A   1      37.983  34.033  35.118  1.00  0.00     0.079 C 
ATOM     10  C   UNL A   1      37.031  31.848  34.390  1.00  0.00     0.144 C 
ATOM     11  C   UNL A   1      38.997  33.297  35.980  1.00  0.00     0.013 C 
ATOM     12  C   UNL A   1      38.205  31.030  35.034  1.00  0.00     0.190 C 
ATOM     13  C   UNL A   1      38.641  31.842  36.262  1.00  0.00     0.065 C 
BRANCH   8  14
ATOM     14  N   UNL A   1      38.432  33.165  32.820  1.00  0.00    -0.331 N 
ATOM     15  H   UNL A   1      39.221  32.650  33.210  1.00  0.00     0.347 HD
ATOM     16  H   UNL A   1      37.951  32.714  32.041  1.00  0.00     0.347 HD
BRANCH  14  17
ATOM     17  C   UNL A   1      38.963  34.416  32.250  1.00  0.00     0.176 C 
ATOM     18  C   UNL A   1      40.458  34.488  32.583  1.00  0.00     0.075 C 
ATOM     19  C   UNL A   1      38.804  34.590  30.737  1.00  0.00     0.075 C 
ENDBRANCH  14  17
ENDBRANCH   8  14
BRANCH  12  20
ATOM     20  N   UNL A   1      39.161  30.585  33.969  1.00  0.00    -0.332 N 
ATOM     21  C   UNL A   1      38.389  29.786  32.980  1.00  0.00     0.333 C 
ATOM     22  H   UNL A   1      39.544  31.469  33.637  1.00  0.00     0.348 HD
BRANCH  20  23
ATOM     23  C   UNL A   1      40.431  29.853  34.311  1.00  0.00     0.184 C 
ATOM     24  C   UNL A   1      40.542  28.552  33.450  1.00  0.00     0.065 C 
ATOM     25  C   UNL A   1      41.723  30.664  34.081  1.00  0.00     0.065 C 
ATOM     26  C   UNL A   1      41.866  27.799  33.565  1.00  0.00     0.006 C 
ATOM     27  C   UNL A   1      43.027  29.883  34.205  1.00  0.00     0.006 C 
ATOM     28  C   UNL A   1      43.048  28.698  33.263  1.00  0.00     0.000 C 
ENDBRANCH  20  23
ENDBRANCH  12  20
ENDBRANCH   5   8
ENDBRANCH   3   4
ENDBRANCH   2   3
ENDBRANCH   1   2
BRANCH   1  29
ATOM     29  C   UNL A   1      35.666  32.979  27.930  1.00  0.00     0.116 C 
BRANCH  29  30
ATOM     30  N   UNL A   1      34.573  32.029  27.774  1.00  0.00    -0.352 N 
ATOM     31  C   UNL A   1      34.632  30.655  27.819  1.00  0.00     0.251 C 
ATOM     32  H   UNL A   1      33.683  32.419  27.619  1.00  0.00     0.163 HD
ATOM     33  O   UNL A   1      33.639  29.979  27.610  1.00  0.00    -0.269 OA
BRANCH  31  34
ATOM     34  C   UNL A   1      35.940  30.026  28.076  1.00  0.00     0.039 A 
ATOM     35  C   UNL A   1      36.871  29.975  27.037  1.00  0.00     0.014 A 
ATOM     36  C   UNL A   1      36.268  29.583  29.359  1.00  0.00     0.014 A 
ATOM     37  C   UNL A   1      38.167  29.536  27.305  1.00  0.00     0.010 A 
ATOM     38  C   UNL A   1      37.577  29.206  29.636  1.00  0.00     0.010 A 
ATOM     39  C   UNL A   1      38.538  29.185  28.613  1.00  0.00    -0.014 A 
BRANCH  39  40
ATOM     40  C   UNL A   1      39.935  28.806  28.936  1.00  0.00     0.031 A 
ATOM     41  C   UNL A   1      40.864  29.822  29.540  1.00  0.00     0.074 A 
ATOM     42  C   UNL A   1      40.382  27.576  28.613  1.00  0.00     0.049 A 
ATOM     43  N   UNL A   1      42.133  29.703  29.831  1.00  0.00    -0.248 NA
ATOM     44  C   UNL A   1      40.303  31.153  29.827  1.00  0.00     0.031 C 
ATOM     45  C   UNL A   1      39.590  26.524  27.968  1.00  0.00     0.029 A 
ATOM     46  N   UNL A   1      41.619  27.005  28.771  1.00  0.00    -0.354 N 
ATOM     47  C   UNL A   1      42.529  30.948  30.304  1.00  0.00     0.074 A 
ATOM     48  C   UNL A   1      41.376  31.818  30.232  1.00  0.00     0.031 C 
ATOM     49  C   UNL A   1      40.356  25.433  27.803  1.00  0.00     0.029 A 
ATOM     50  C   UNL A   1      41.698  25.715  28.298  1.00  0.00     0.049 A 
ATOM     51  H   UNL A   1      42.380  27.474  29.185  1.00  0.00     0.167 HD
ATOM     52  C   UNL A   1      43.741  31.327  30.771  1.00  0.00     0.031 A 
ATOM     53  C   UNL A   1      42.739  24.860  28.263  1.00  0.00     0.031 A 
ATOM     54  C   UNL A   1      44.872  30.445  30.882  1.00  0.00     0.049 A 
ATOM     55  C   UNL A   1      44.064  25.298  28.826  1.00  0.00     0.074 A 
ATOM     56  C   UNL A   1      46.113  30.709  31.433  1.00  0.00     0.029 A 
ATOM     57  N   UNL A   1      44.898  29.133  30.437  1.00  0.00    -0.354 N 
ATOM     58  N   UNL A   1      44.391  26.451  29.361  1.00  0.00    -0.248 NA
ATOM     59  C   UNL A   1      45.157  24.315  28.794  1.00  0.00     0.031 C 
ATOM     60  C   UNL A   1      46.906  29.566  31.284  1.00  0.00     0.029 A 
ATOM     61  C   UNL A   1      46.142  28.579  30.682  1.00  0.00     0.049 A 
ATOM     62  H   UNL A   1      44.144  28.666  30.010  1.00  0.00     0.167 HD
ATOM     63  C   UNL A   1      45.717  26.320  29.754  1.00  0.00     0.074 A 
ATOM     64  C   UNL A   1      46.128  24.974  29.411  1.00  0.00     0.031 C 
ATOM     65  C   UNL A   1      46.525  27.233  30.347  1.00  0.00     0.031 A 
BRANCH  52  66
ATOM     66  C   UNL A   1      43.914  32.755  31.207  1.00  0.00    -0.014 A 
ATOM     67  C   UNL A   1      43.999  33.795  30.263  1.00  0.00     0.010 A 
ATOM     68  C   UNL A   1      43.912  33.069  32.578  1.00  0.00     0.010 A 
ATOM     69  C   UNL A   1      44.100  35.124  30.686  1.00  0.00     0.020 A 
ATOM     70  C   UNL A   1      43.990  34.399  33.003  1.00  0.00     0.020 A 
ATOM     71  C   UNL A   1      44.093  35.416  32.053  1.00  0.00     0.054 A 
BRANCH  71  72
ATOM     72  S   UNL A   1      44.162  37.154  32.570  1.00  0.00     0.124 S 
ATOM     73  O   UNL A   1      43.928  37.851  31.309  1.00  0.00    -0.237 OA
ATOM     74  O   UNL A   1      43.079  37.241  33.547  1.00  0.00    -0.237 OA
ATOM     75  O   UNL A   1      45.507  37.298  33.122  1.00  0.00    -0.744 OA
ENDBRANCH  71  72
ENDBRANCH  52  66
BRANCH  53  76
ATOM     76  C   UNL A   1      42.578  23.499  27.683  1.00  0.00    -0.014 A 
ATOM     77  C   UNL A   1      42.167  22.423  28.490  1.00  0.00     0.010 A 
ATOM     78  C   UNL A   1      42.868  23.266  26.327  1.00  0.00     0.010 A 
ATOM     79  C   UNL A   1      42.088  21.131  27.962  1.00  0.00     0.020 A 
ATOM     80  C   UNL A   1      42.765  21.979  25.789  1.00  0.00     0.020 A 
ATOM     81  C   UNL A   1      42.396  20.916  26.616  1.00  0.00     0.054 A 
BRANCH  81  82
ATOM     82  S   UNL A   1      42.279  19.234  25.945  1.00  0.00     0.124 S 
ATOM     83  O   UNL A   1      40.852  19.120  25.662  1.00  0.00    -0.237 OA
ATOM     84  O   UNL A   1      43.154  19.296  24.776  1.00  0.00    -0.237 OA
ATOM     85  O   UNL A   1      42.774  18.399  27.037  1.00  0.00    -0.744 OA
ENDBRANCH  81  82
ENDBRANCH  53  76
BRANCH  65  86
ATOM     86  C   UNL A   1      47.919  26.796  30.703  1.00  0.00    -0.014 A 
ATOM     87  C   UNL A   1      48.972  26.904  29.779  1.00  0.00     0.010 A 
ATOM     88  C   UNL A   1      48.186  26.328  32.002  1.00  0.00     0.010 A 
ATOM     89  C   UNL A   1      50.266  26.522  30.140  1.00  0.00     0.020 A 
ATOM     90  C   UNL A   1      49.483  25.968  32.374  1.00  0.00     0.020 A 
ATOM     91  C   UNL A   1      50.513  26.055  31.435  1.00  0.00     0.054 A 
BRANCH  91  92
ATOM     92  S   UNL A   1      52.209  25.610  31.897  1.00  0.00     0.124 S 
ATOM     93  O   UNL A   1      52.089  24.177  32.147  1.00  0.00    -0.237 OA
ATOM     94  O   UNL A   1      52.976  25.978  30.709  1.00  0.00    -0.237 OA
ATOM     95  O   UNL A   1      52.472  26.429  33.078  1.00  0.00    -0.744 OA
ENDBRANCH  91  92
ENDBRANCH  65  86
ENDBRANCH  39  40
ENDBRANCH  31  34
ENDBRANCH  29  30
ENDBRANCH   1  29
TORSDOF 18
ENDMDL
MODEL 2
REMARK VINA RESULT:      -8.9      3.947      7.326
REMARK SMILES CC(C)[NH2+][C@]1(C(=O)NCCCCNC(=O)c2ccc(-c3c4nc(c(-c5ccc(S(=O)(=O)[O-])cc5)c5ccc([nH]5)c(-c5ccc(S(=O)(=O)[O-])cc5)c5nc(c(-c6ccc(S(=O)(=O)[O-])cc6)c6ccc3[nH]6)C=C5)C=C4)cc2)CCC[C@H]([N@H+](C)C2CCCCC2)C1
REMARK SMILES IDX 11 1 10 2 9 3 8 4 6 5 7 6 5 8 76 9 88 10 77 11 79 12 78 13
REMARK SMILES IDX 4 14 2 17 1 18 3 19 80 20 81 21 82 23 83 24 87 25 84 26
REMARK SMILES IDX 86 27 85 28 12 29 13 30 14 31 15 33 16 34 17 35 75 36 18 37
REMARK SMILES IDX 74 38 19 39 20 40 21 41 68 42 22 43 73 44 67 45 69 46 23 47
REMARK SMILES IDX 72 48 66 49 65 50 24 52 54 53 35 54 53 55 36 56 39 57 52 58
REMARK SMILES IDX 70 59 37 60 38 61 51 63 71 64 40 65 25 66 26 67 34 68 27 69
REMARK SMILES IDX 33 70 28 71 29 72 30 73 31 74 32 75 55 76 56 77 64 78 57 79
REMARK SMILES IDX 63 80 58 81 59 82 60 83 61 84 62 85 41 86 42 87 50 88 43 89
REMARK SMILES IDX 49 90 44 91 45 92 46 93 47 94 48 95
REMARK H PARENT 8 7 4 15 4 16 80 22 13 32 69 51 39 62
REMARK Flexibility Score: inf
ROOT
ATOM      1  C   UNL A   1      32.370  28.226  27.085  1.00  0.00     0.023 C 
ENDROOT
BRANCH   1   2
ATOM      2  C   UNL A   1      31.393  28.957  26.160  1.00  0.00     0.023 C 
BRANCH   2   3
ATOM      3  C   UNL A   1      32.029  29.481  24.877  1.00  0.00     0.116 C 
BRANCH   3   4
ATOM      4  N   UNL A   1      31.187  29.223  23.736  1.00  0.00    -0.351 N 
ATOM      5  C   UNL A   1      31.022  28.168  22.906  1.00  0.00     0.281 C 
ATOM      6  O   UNL A   1      30.255  28.397  21.957  1.00  0.00    -0.268 OA
ATOM      7  H   UNL A   1      30.602  29.982  23.511  1.00  0.00     0.163 HD
BRANCH   5   8
ATOM      8  C   UNL A   1      31.678  26.744  23.077  1.00  0.00     0.181 C 
ATOM      9  C   UNL A   1      31.972  26.362  21.592  1.00  0.00     0.079 C 
ATOM     10  C   UNL A   1      33.013  26.595  23.845  1.00  0.00     0.144 C 
ATOM     11  C   UNL A   1      32.805  25.114  21.343  1.00  0.00     0.013 C 
ATOM     12  C   UNL A   1      33.691  25.182  23.766  1.00  0.00     0.190 C 
ATOM     13  C   UNL A   1      33.998  24.961  22.278  1.00  0.00     0.065 C 
BRANCH   8  14
ATOM     14  N   UNL A   1      30.672  25.795  23.647  1.00  0.00    -0.331 N 
ATOM     15  H   UNL A   1      30.091  25.467  22.875  1.00  0.00     0.347 HD
ATOM     16  H   UNL A   1      31.230  25.080  24.114  1.00  0.00     0.347 HD
BRANCH  14  17
ATOM     17  C   UNL A   1      29.765  26.297  24.696  1.00  0.00     0.176 C 
ATOM     18  C   UNL A   1      28.343  26.308  24.122  1.00  0.00     0.075 C 
ATOM     19  C   UNL A   1      29.743  25.504  26.005  1.00  0.00     0.075 C 
ENDBRANCH  14  17
ENDBRANCH   8  14
BRANCH  12  20
ATOM     20  N   UNL A   1      32.922  24.199  24.595  1.00  0.00    -0.332 N 
ATOM     21  C   UNL A   1      33.259  24.456  26.021  1.00  0.00     0.333 C 
ATOM     22  H   UNL A   1      31.959  24.387  24.317  1.00  0.00     0.348 HD
BRANCH  20  23
ATOM     23  C   UNL A   1      32.997  22.720  24.329  1.00  0.00     0.184 C 
ATOM     24  C   UNL A   1      34.394  22.171  24.768  1.00  0.00     0.065 C 
ATOM     25  C   UNL A   1      31.927  21.880  25.059  1.00  0.00     0.065 C 
ATOM     26  C   UNL A   1      34.548  20.652  24.718  1.00  0.00     0.006 C 
ATOM     27  C   UNL A   1      32.110  20.367  24.987  1.00  0.00     0.006 C 
ATOM     28  C   UNL A   1      33.466  19.954  25.517  1.00  0.00     0.000 C 
ENDBRANCH  20  23
ENDBRANCH  12  20
ENDBRANCH   5   8
ENDBRANCH   3   4
ENDBRANCH   2   3
ENDBRANCH   1   2
BRANCH   1  29
ATOM     29  C   UNL A   1      33.767  28.838  27.160  1.00  0.00     0.116 C 
BRANCH  29  30
ATOM     30  N   UNL A   1      33.766  30.237  27.565  1.00  0.00    -0.352 N 
ATOM     31  C   UNL A   1      34.778  30.945  28.170  1.00  0.00     0.251 C 
ATOM     32  H   UNL A   1      32.938  30.737  27.384  1.00  0.00     0.163 HD
ATOM     33  O   UNL A   1      34.615  32.105  28.510  1.00  0.00    -0.269 OA
BRANCH  31  34
ATOM     34  C   UNL A   1      36.048  30.245  28.438  1.00  0.00     0.039 A 
ATOM     35  C   UNL A   1      37.038  30.258  27.455  1.00  0.00     0.014 A 
ATOM     36  C   UNL A   1      36.283  29.668  29.689  1.00  0.00     0.014 A 
ATOM     37  C   UNL A   1      38.300  29.747  27.753  1.00  0.00     0.010 A 
ATOM     38  C   UNL A   1      37.559  29.217  30.002  1.00  0.00     0.010 A 
ATOM     39  C   UNL A   1      38.580  29.258  29.040  1.00  0.00    -0.014 A 
BRANCH  39  40
ATOM     40  C   UNL A   1      39.942  28.797  29.403  1.00  0.00     0.031 A 
ATOM     41  C   UNL A   1      40.880  29.730  30.117  1.00  0.00     0.074 A 
ATOM     42  C   UNL A   1      40.353  27.571  29.021  1.00  0.00     0.049 A 
ATOM     43  N   UNL A   1      42.127  29.535  30.461  1.00  0.00    -0.248 NA
ATOM     44  C   UNL A   1      40.361  31.063  30.465  1.00  0.00     0.031 C 
ATOM     45  C   UNL A   1      39.552  26.600  28.270  1.00  0.00     0.029 A 
ATOM     46  N   UNL A   1      41.556  26.936  29.200  1.00  0.00    -0.354 N 
ATOM     47  C   UNL A   1      42.549  30.729  31.035  1.00  0.00     0.074 A 
ATOM     48  C   UNL A   1      41.438  31.652  30.965  1.00  0.00     0.031 C 
ATOM     49  C   UNL A   1      40.279  25.489  28.070  1.00  0.00     0.029 A 
ATOM     50  C   UNL A   1      41.606  25.677  28.647  1.00  0.00     0.049 A 
ATOM     51  H   UNL A   1      42.313  27.344  29.680  1.00  0.00     0.167 HD
ATOM     52  C   UNL A   1      43.750  31.022  31.584  1.00  0.00     0.031 A 
ATOM     53  C   UNL A   1      42.610  24.781  28.606  1.00  0.00     0.031 A 
ATOM     54  C   UNL A   1      44.836  30.085  31.690  1.00  0.00     0.049 A 
ATOM     55  C   UNL A   1      43.922  25.122  29.260  1.00  0.00     0.074 A 
ATOM     56  C   UNL A   1      46.057  30.257  32.316  1.00  0.00     0.029 A 
ATOM     57  N   UNL A   1      44.830  28.805  31.161  1.00  0.00    -0.354 N 
ATOM     58  N   UNL A   1      44.268  26.223  29.885  1.00  0.00    -0.248 NA
ATOM     59  C   UNL A   1      44.973  24.096  29.215  1.00  0.00     0.031 C 
ATOM     60  C   UNL A   1      46.809  29.092  32.130  1.00  0.00     0.029 A 
ATOM     61  C   UNL A   1      46.037  28.181  31.428  1.00  0.00     0.049 A 
ATOM     62  H   UNL A   1      44.081  28.400  30.668  1.00  0.00     0.167 HD
ATOM     63  C   UNL A   1      45.566  26.008  30.333  1.00  0.00     0.074 A 
ATOM     64  C   UNL A   1      45.938  24.670  29.921  1.00  0.00     0.031 C 
ATOM     65  C   UNL A   1      46.380  26.843  31.023  1.00  0.00     0.031 A 
BRANCH  52  66
ATOM     66  C   UNL A   1      43.959  32.410  32.121  1.00  0.00    -0.014 A 
ATOM     67  C   UNL A   1      43.673  32.718  33.464  1.00  0.00     0.010 A 
ATOM     68  C   UNL A   1      44.522  33.398  31.294  1.00  0.00     0.010 A 
ATOM     69  C   UNL A   1      43.928  33.998  33.963  1.00  0.00     0.020 A 
ATOM     70  C   UNL A   1      44.800  34.673  31.797  1.00  0.00     0.020 A 
ATOM     71  C   UNL A   1      44.491  34.967  33.127  1.00  0.00     0.054 A 
BRANCH  71  72
ATOM     72  S   UNL A   1      44.869  36.600  33.819  1.00  0.00     0.124 S 
ATOM     73  O   UNL A   1      45.249  36.264  35.189  1.00  0.00    -0.237 OA
ATOM     74  O   UNL A   1      45.957  37.067  32.964  1.00  0.00    -0.237 OA
ATOM     75  O   UNL A   1      43.615  37.334  33.682  1.00  0.00    -0.744 OA
ENDBRANCH  71  72
ENDBRANCH  52  66
BRANCH  53  76
ATOM     76  C   UNL A   1      42.423  23.468  27.929  1.00  0.00    -0.014 A 
ATOM     77  C   UNL A   1      41.720  22.431  28.567  1.00  0.00     0.010 A 
ATOM     78  C   UNL A   1      42.976  23.240  26.657  1.00  0.00     0.010 A 
ATOM     79  C   UNL A   1      41.609  21.174  27.963  1.00  0.00     0.020 A 
ATOM     80  C   UNL A   1      42.844  21.993  26.038  1.00  0.00     0.020 A 
ATOM     81  C   UNL A   1      42.179  20.961  26.705  1.00  0.00     0.054 A 
BRANCH  81  82
ATOM     82  S   UNL A   1      42.017  19.328  25.932  1.00  0.00     0.124 S 
ATOM     83  O   UNL A   1      42.533  18.448  26.974  1.00  0.00    -0.237 OA
ATOM     84  O   UNL A   1      40.581  19.236  25.677  1.00  0.00    -0.237 OA
ATOM     85  O   UNL A   1      42.846  19.438  24.733  1.00  0.00    -0.744 OA
ENDBRANCH  81  82
ENDBRANCH  53  76
BRANCH  65  86
ATOM     86  C   UNL A   1      47.734  26.322  31.416  1.00  0.00    -0.014 A 
ATOM     87  C   UNL A   1      47.959  25.774  32.690  1.00  0.00     0.010 A 
ATOM     88  C   UNL A   1      48.779  26.329  30.474  1.00  0.00     0.010 A 
ATOM     89  C   UNL A   1      49.217  25.267  33.026  1.00  0.00     0.020 A 
ATOM     90  C   UNL A   1      50.030  25.801  30.798  1.00  0.00     0.020 A 
ATOM     91  C   UNL A   1      50.245  25.285  32.078  1.00  0.00     0.054 A 
BRANCH  91  92
ATOM     92  S   UNL A   1      51.855  24.578  32.518  1.00  0.00     0.124 S 
ATOM     93  O   UNL A   1      52.755  25.286  31.613  1.00  0.00    -0.237 OA
ATOM     94  O   UNL A   1      51.985  24.926  33.932  1.00  0.00    -0.237 OA
ATOM     95  O   UNL A   1      51.692  23.151  32.247  1.00  0.00    -0.744 OA
ENDBRANCH  91  92
ENDBRANCH  65  86
ENDBRANCH  39  40
ENDBRANCH  31  34
ENDBRANCH  29  30
ENDBRANCH   1  29
TORSDOF 18
ENDMDL
MODEL 3
REMARK VINA RESULT:      -8.9      3.871      7.063
REMARK SMILES CC(C)[NH2+][C@]1(C(=O)NCCCCNC(=O)c2ccc(-c3c4nc(c(-c5ccc(S(=O)(=O)[O-])cc5)c5ccc([nH]5)c(-c5ccc(S(=O)(=O)[O-])cc5)c5nc(c(-c6ccc(S(=O)(=O)[O-])cc6)c6ccc3[nH]6)C=C5)C=C4)cc2)CCC[C@H]([N@H+](C)C2CCCCC2)C1
REMARK SMILES IDX 11 1 10 2 9 3 8 4 6 5 7 6 5 8 76 9 88 10 77 11 79 12 78 13
REMARK SMILES IDX 4 14 2 17 1 18 3 19 80 20 81 21 82 23 83 24 87 25 84 26
REMARK SMILES IDX 86 27 85 28 12 29 13 30 14 31 15 33 16 34 17 35 75 36 18 37
REMARK SMILES IDX 74 38 19 39 20 40 21 41 68 42 22 43 73 44 67 45 69 46 23 47
REMARK SMILES IDX 72 48 66 49 65 50 24 52 54 53 35 54 53 55 36 56 39 57 52 58
REMARK SMILES IDX 70 59 37 60 38 61 51 63 71 64 40 65 25 66 26 67 34 68 27 69
REMARK SMILES IDX 33 70 28 71 29 72 30 73 31 74 32 75 55 76 56 77 64 78 57 79
REMARK SMILES IDX 63 80 58 81 59 82 60 83 61 84 62 85 41 86 42 87 50 88 43 89
REMARK SMILES IDX 49 90 44 91 45 92 46 93 47 94 48 95
REMARK H PARENT 8 7 4 15 4 16 80 22 13 32 69 51 39 62
REMARK Flexibility Score: inf
ROOT
ATOM      1  C   UNL A   1      32.472  28.245  27.119  1.00  0.00     0.023 C 
ENDROOT
BRANCH   1   2
ATOM      2  C   UNL A   1      31.467  29.046  26.287  1.00  0.00     0.023 C 
BRANCH   2   3
ATOM      3  C   UNL A   1      31.587  28.817  24.784  1.00  0.00     0.116 C 
BRANCH   3   4
ATOM      4  N   UNL A   1      30.406  28.176  24.260  1.00  0.00    -0.351 N 
ATOM      5  C   UNL A   1      30.094  26.902  23.929  1.00  0.00     0.281 C 
ATOM      6  O   UNL A   1      28.979  26.786  23.395  1.00  0.00    -0.268 OA
ATOM      7  H   UNL A   1      29.664  28.804  24.110  1.00  0.00     0.163 HD
BRANCH   5   8
ATOM      8  C   UNL A   1      30.990  25.631  24.191  1.00  0.00     0.181 C 
ATOM      9  C   UNL A   1      31.040  25.607  25.750  1.00  0.00     0.079 C 
ATOM     10  C   UNL A   1      30.500  24.234  23.742  1.00  0.00     0.144 C 
ATOM     11  C   UNL A   1      31.660  24.385  26.411  1.00  0.00     0.013 C 
ATOM     12  C   UNL A   1      31.354  23.017  24.244  1.00  0.00     0.190 C 
ATOM     13  C   UNL A   1      31.259  23.059  25.776  1.00  0.00     0.065 C 
BRANCH   8  14
ATOM     14  N   UNL A   1      32.365  25.869  23.651  1.00  0.00    -0.331 N 
ATOM     15  H   UNL A   1      32.840  26.500  24.296  1.00  0.00     0.347 HD
ATOM     16  H   UNL A   1      32.771  24.937  23.565  1.00  0.00     0.347 HD
BRANCH  14  17
ATOM     17  C   UNL A   1      32.486  26.449  22.301  1.00  0.00     0.176 C 
ATOM     18  C   UNL A   1      33.713  27.369  22.292  1.00  0.00     0.075 C 
ATOM     19  C   UNL A   1      32.633  25.452  21.149  1.00  0.00     0.075 C 
ENDBRANCH  14  17
ENDBRANCH   8  14
BRANCH  12  20
ATOM     20  N   UNL A   1      32.659  22.970  23.509  1.00  0.00    -0.332 N 
ATOM     21  C   UNL A   1      32.565  21.880  22.500  1.00  0.00     0.333 C 
ATOM     22  H   UNL A   1      32.736  23.919  23.143  1.00  0.00     0.348 HD
BRANCH  20  23
ATOM     23  C   UNL A   1      33.969  22.854  24.240  1.00  0.00     0.184 C 
ATOM     24  C   UNL A   1      34.315  21.347  24.474  1.00  0.00     0.065 C 
ATOM     25  C   UNL A   1      35.171  23.491  23.511  1.00  0.00     0.065 C 
ATOM     26  C   UNL A   1      35.702  21.074  25.051  1.00  0.00     0.006 C 
ATOM     27  C   UNL A   1      36.541  23.200  24.115  1.00  0.00     0.006 C 
ATOM     28  C   UNL A   1      36.792  21.710  24.212  1.00  0.00     0.000 C 
ENDBRANCH  20  23
ENDBRANCH  12  20
ENDBRANCH   5   8
ENDBRANCH   3   4
ENDBRANCH   2   3
ENDBRANCH   1   2
BRANCH   1  29
ATOM     29  C   UNL A   1      33.846  28.893  27.270  1.00  0.00     0.116 C 
BRANCH  29  30
ATOM     30  N   UNL A   1      33.791  30.255  27.783  1.00  0.00    -0.352 N 
ATOM     31  C   UNL A   1      34.783  30.959  28.425  1.00  0.00     0.251 C 
ATOM     32  H   UNL A   1      32.939  30.730  27.654  1.00  0.00     0.163 HD
ATOM     33  O   UNL A   1      34.576  32.080  28.858  1.00  0.00    -0.269 OA
BRANCH  31  34
ATOM     34  C   UNL A   1      36.088  30.298  28.618  1.00  0.00     0.039 A 
ATOM     35  C   UNL A   1      37.027  30.365  27.589  1.00  0.00     0.014 A 
ATOM     36  C   UNL A   1      36.402  29.707  29.844  1.00  0.00     0.014 A 
ATOM     37  C   UNL A   1      38.319  29.892  27.815  1.00  0.00     0.010 A 
ATOM     38  C   UNL A   1      37.707  29.294  30.086  1.00  0.00     0.010 A 
ATOM     39  C   UNL A   1      38.677  29.388  29.076  1.00  0.00    -0.014 A 
BRANCH  39  40
ATOM     40  C   UNL A   1      40.070  28.968  29.364  1.00  0.00     0.031 A 
ATOM     41  C   UNL A   1      41.028  29.940  29.994  1.00  0.00     0.074 A 
ATOM     42  C   UNL A   1      40.486  27.742  28.988  1.00  0.00     0.049 A 
ATOM     43  N   UNL A   1      42.298  29.783  30.263  1.00  0.00    -0.248 NA
ATOM     44  C   UNL A   1      40.500  31.270  30.341  1.00  0.00     0.031 C 
ATOM     45  C   UNL A   1      39.663  26.733  28.313  1.00  0.00     0.029 A 
ATOM     46  N   UNL A   1      41.713  27.140  29.106  1.00  0.00    -0.354 N 
ATOM     47  C   UNL A   1      42.727  31.000  30.779  1.00  0.00     0.074 A 
ATOM     48  C   UNL A   1      41.592  31.896  30.757  1.00  0.00     0.031 C 
ATOM     49  C   UNL A   1      40.404  25.634  28.095  1.00  0.00     0.029 A 
ATOM     50  C   UNL A   1      41.758  25.868  28.582  1.00  0.00     0.049 A 
ATOM     51  H   UNL A   1      42.489  27.577  29.527  1.00  0.00     0.167 HD
ATOM     52  C   UNL A   1      43.953  31.335  31.244  1.00  0.00     0.031 A 
ATOM     53  C   UNL A   1      42.780  24.994  28.500  1.00  0.00     0.031 A 
ATOM     54  C   UNL A   1      45.065  30.426  31.304  1.00  0.00     0.049 A 
ATOM     55  C   UNL A   1      44.121  25.381  29.061  1.00  0.00     0.074 A 
ATOM     56  C   UNL A   1      46.319  30.642  31.848  1.00  0.00     0.029 A 
ATOM     57  N   UNL A   1      45.058  29.132  30.809  1.00  0.00    -0.354 N 
ATOM     58  N   UNL A   1      44.479  26.506  29.635  1.00  0.00    -0.248 NA
ATOM     59  C   UNL A   1      45.192  24.378  28.976  1.00  0.00     0.031 C 
ATOM     60  C   UNL A   1      47.086  29.490  31.643  1.00  0.00     0.029 A 
ATOM     61  C   UNL A   1      46.293  28.543  31.014  1.00  0.00     0.049 A 
ATOM     62  H   UNL A   1      44.289  28.698  30.374  1.00  0.00     0.167 HD
ATOM     63  C   UNL A   1      45.808  26.332  30.005  1.00  0.00     0.074 A 
ATOM     64  C   UNL A   1      46.185  24.992  29.604  1.00  0.00     0.031 C 
ATOM     65  C   UNL A   1      46.643  27.203  30.621  1.00  0.00     0.031 A 
BRANCH  52  66
ATOM     66  C   UNL A   1      44.162  32.741  31.732  1.00  0.00    -0.014 A 
ATOM     67  C   UNL A   1      43.945  33.079  33.080  1.00  0.00     0.010 A 
ATOM     68  C   UNL A   1      44.654  33.718  30.848  1.00  0.00     0.010 A 
ATOM     69  C   UNL A   1      44.200  34.378  33.531  1.00  0.00     0.020 A 
ATOM     70  C   UNL A   1      44.932  35.011  31.302  1.00  0.00     0.020 A 
ATOM     71  C   UNL A   1      44.693  35.334  32.639  1.00  0.00     0.054 A 
BRANCH  71  72
ATOM     72  S   UNL A   1      45.074  36.993  33.266  1.00  0.00     0.124 S 
ATOM     73  O   UNL A   1      46.296  37.317  32.534  1.00  0.00    -0.237 OA
ATOM     74  O   UNL A   1      43.891  37.761  32.883  1.00  0.00    -0.237 OA
ATOM     75  O   UNL A   1      45.243  36.791  34.702  1.00  0.00    -0.744 OA
ENDBRANCH  71  72
ENDBRANCH  52  66
BRANCH  53  76
ATOM     76  C   UNL A   1      42.583  23.660  27.869  1.00  0.00    -0.014 A 
ATOM     77  C   UNL A   1      42.049  22.592  28.612  1.00  0.00     0.010 A 
ATOM     78  C   UNL A   1      42.958  23.444  26.532  1.00  0.00     0.010 A 
ATOM     79  C   UNL A   1      41.933  21.320  28.041  1.00  0.00     0.020 A 
ATOM     80  C   UNL A   1      42.820  22.180  25.949  1.00  0.00     0.020 A 
ATOM     81  C   UNL A   1      42.327  21.121  26.716  1.00  0.00     0.054 A 
BRANCH  81  82
ATOM     82  S   UNL A   1      42.162  19.467  25.988  1.00  0.00     0.124 S 
ATOM     83  O   UNL A   1      40.722  19.377  25.765  1.00  0.00    -0.237 OA
ATOM     84  O   UNL A   1      42.986  19.564  24.785  1.00  0.00    -0.237 OA
ATOM     85  O   UNL A   1      42.694  18.586  27.026  1.00  0.00    -0.744 OA
ENDBRANCH  81  82
ENDBRANCH  53  76
BRANCH  65  86
ATOM     86  C   UNL A   1      48.031  26.724  30.941  1.00  0.00    -0.014 A 
ATOM     87  C   UNL A   1      49.118  27.043  30.110  1.00  0.00     0.010 A 
ATOM     88  C   UNL A   1      48.257  25.995  32.122  1.00  0.00     0.010 A 
ATOM     89  C   UNL A   1      50.406  26.615  30.441  1.00  0.00     0.020 A 
ATOM     90  C   UNL A   1      49.545  25.586  32.469  1.00  0.00     0.020 A 
ATOM     91  C   UNL A   1      50.612  25.887  31.618  1.00  0.00     0.054 A 
BRANCH  91  92
ATOM     92  S   UNL A   1      52.298  25.382  32.053  1.00  0.00     0.124 S 
ATOM     93  O   UNL A   1      52.118  23.970  32.375  1.00  0.00    -0.237 OA
ATOM     94  O   UNL A   1      53.044  25.657  30.828  1.00  0.00    -0.237 OA
ATOM     95  O   UNL A   1      52.634  26.242  33.186  1.00  0.00    -0.744 OA
ENDBRANCH  91  92
ENDBRANCH  65  86
ENDBRANCH  39  40
ENDBRANCH  31  34
ENDBRANCH  29  30
ENDBRANCH   1  29
TORSDOF 18
ENDMDL
