MODEL 1
REMARK VINA RESULT:     -11.9      0.000      0.000
REMARK SMILES O=C(Cn1nc(C(=O)NCCCCNC(=O)c2ccc(-c3c4nc(c(-c5ccc(S(=O)(=O)[O-])cc5)c5ccc([nH]5)c(-c5ccc(S(=O)(=O)[O-])cc5)c5nc(c(-c6ccc(S(=O)(=O)[O-])cc6)c6ccc3[nH]6)C=C5)C=C4)cc2)c2ccccc2c1=O)NCc1ccc(F)cc1
REMARK SMILES IDX 11 1 10 2 9 3 7 4 8 5 6 7 4 8 5 9 83 10 82 11 84 12 77 13
REMARK SMILES IDX 81 14 78 15 80 16 79 17 3 18 2 19 1 20 85 21 86 23 87 24
REMARK SMILES IDX 88 25 93 26 89 27 92 28 90 29 91 30 12 31 13 32 14 33 15 34
REMARK SMILES IDX 16 36 17 37 18 38 76 39 19 40 75 41 20 42 21 43 22 44 69 45
REMARK SMILES IDX 23 46 74 47 68 48 70 49 24 50 73 51 67 52 66 53 25 55 55 56
REMARK SMILES IDX 36 57 54 58 37 59 40 60 53 61 71 62 38 63 39 64 52 66 72 67
REMARK SMILES IDX 41 68 26 69 27 70 35 71 28 72 34 73 29 74 30 75 31 76 32 77
REMARK SMILES IDX 33 78 56 79 57 80 65 81 58 82 64 83 59 84 60 85 61 86 62 87
REMARK SMILES IDX 63 88 42 89 43 90 51 91 44 92 50 93 45 94 46 95 47 96 48 97
REMARK SMILES IDX 49 98
REMARK H PARENT 9 6 85 22 14 35 70 54 40 65
REMARK Flexibility Score: inf
ROOT
ATOM      1  C   UNL A   1      37.827  23.557  26.149  1.00  0.00     0.023 C 
ENDROOT
BRANCH   1   2
ATOM      2  C   UNL A   1      36.524  22.954  25.635  1.00  0.00     0.116 C 
BRANCH   2   3
ATOM      3  N   UNL A   1      35.668  22.572  26.740  1.00  0.00    -0.351 N 
ATOM      4  C   UNL A   1      34.327  22.267  26.774  1.00  0.00     0.272 C 
ATOM      5  O   UNL A   1      33.807  22.165  27.879  1.00  0.00    -0.267 OA
ATOM      6  H   UNL A   1      36.123  22.519  27.611  1.00  0.00     0.163 HD
BRANCH   4   7
ATOM      7  C   UNL A   1      33.495  22.048  25.484  1.00  0.00     0.156 A 
ATOM      8  N   UNL A   1      32.396  22.989  23.659  1.00  0.00    -0.219 N 
ATOM      9  N   UNL A   1      33.078  23.106  24.846  1.00  0.00    -0.163 NA
ATOM     10  C   UNL A   1      32.145  21.774  23.036  1.00  0.00     0.275 A 
ATOM     11  C   UNL A   1      32.542  20.562  23.771  1.00  0.00     0.051 A 
ATOM     12  O   UNL A   1      31.624  21.669  21.927  1.00  0.00    -0.267 OA
ATOM     13  C   UNL A   1      33.204  20.670  24.994  1.00  0.00     0.020 A 
ATOM     14  C   UNL A   1      32.243  19.304  23.218  1.00  0.00     0.014 A 
ATOM     15  C   UNL A   1      33.539  19.487  25.669  1.00  0.00     0.011 A 
ATOM     16  C   UNL A   1      32.583  18.141  23.900  1.00  0.00     0.001 A 
ATOM     17  C   UNL A   1      33.224  18.234  25.129  1.00  0.00     0.001 A 
BRANCH   8  18
ATOM     18  C   UNL A   1      32.155  24.211  22.888  1.00  0.00     0.248 C 
BRANCH  18  19
ATOM     19  C   UNL A   1      31.341  25.290  23.592  1.00  0.00     0.242 C 
ATOM     20  O   UNL A   1      30.112  25.236  23.650  1.00  0.00    -0.273 OA
ATOM     21  N   UNL A   1      32.077  26.264  24.235  1.00  0.00    -0.350 N 
ATOM     22  H   UNL A   1      33.054  26.160  24.308  1.00  0.00     0.163 HD
BRANCH  21  23
ATOM     23  C   UNL A   1      31.445  27.432  24.805  1.00  0.00     0.151 C 
BRANCH  23  24
ATOM     24  C   UNL A   1      32.351  28.337  25.593  1.00  0.00    -0.029 A 
ATOM     25  C   UNL A   1      33.622  27.927  26.018  1.00  0.00     0.008 A 
ATOM     26  C   UNL A   1      31.844  29.569  26.047  1.00  0.00     0.008 A 
ATOM     27  C   UNL A   1      34.377  28.743  26.863  1.00  0.00     0.039 A 
ATOM     28  C   UNL A   1      32.597  30.380  26.894  1.00  0.00     0.039 A 
ATOM     29  C   UNL A   1      33.858  29.959  27.294  1.00  0.00     0.123 A 
ATOM     30  F   UNL A   1      34.577  30.726  28.124  1.00  0.00    -0.207 F 
ENDBRANCH  23  24
ENDBRANCH  21  23
ENDBRANCH  18  19
ENDBRANCH   8  18
ENDBRANCH   4   7
ENDBRANCH   2   3
ENDBRANCH   1   2
BRANCH   1  31
ATOM     31  C   UNL A   1      38.997  22.581  26.281  1.00  0.00     0.023 C 
BRANCH  31  32
ATOM     32  C   UNL A   1      40.203  23.131  27.030  1.00  0.00     0.116 C 
BRANCH  32  33
ATOM     33  N   UNL A   1      41.251  23.668  26.168  1.00  0.00    -0.352 N 
ATOM     34  C   UNL A   1      41.748  24.952  26.132  1.00  0.00     0.251 C 
ATOM     35  H   UNL A   1      41.651  23.032  25.532  1.00  0.00     0.163 HD
ATOM     36  O   UNL A   1      42.584  25.279  25.297  1.00  0.00    -0.269 OA
BRANCH  34  37
ATOM     37  C   UNL A   1      41.210  25.945  27.083  1.00  0.00     0.039 A 
ATOM     38  C   UNL A   1      41.644  27.271  27.030  1.00  0.00     0.014 A 
ATOM     39  C   UNL A   1      40.357  25.518  28.104  1.00  0.00     0.014 A 
ATOM     40  C   UNL A   1      41.397  28.109  28.108  1.00  0.00     0.010 A 
ATOM     41  C   UNL A   1      40.030  26.397  29.139  1.00  0.00     0.010 A 
ATOM     42  C   UNL A   1      40.604  27.677  29.184  1.00  0.00    -0.014 A 
BRANCH  42  43
ATOM     43  C   UNL A   1      40.423  28.569  30.359  1.00  0.00     0.031 A 
ATOM     44  C   UNL A   1      41.374  28.501  31.527  1.00  0.00     0.074 A 
ATOM     45  C   UNL A   1      39.446  29.497  30.337  1.00  0.00     0.049 A 
ATOM     46  N   UNL A   1      41.369  29.204  32.630  1.00  0.00    -0.248 NA
ATOM     47  C   UNL A   1      42.471  27.522  31.451  1.00  0.00     0.031 C 
ATOM     48  C   UNL A   1      38.494  29.686  29.241  1.00  0.00     0.029 A 
ATOM     49  N   UNL A   1      39.115  30.477  31.238  1.00  0.00    -0.354 N 
ATOM     50  C   UNL A   1      42.440  28.741  33.385  1.00  0.00     0.074 A 
ATOM     51  C   UNL A   1      43.063  27.678  32.628  1.00  0.00     0.031 C 
ATOM     52  C   UNL A   1      37.737  30.761  29.500  1.00  0.00     0.029 A 
ATOM     53  C   UNL A   1      38.088  31.287  30.815  1.00  0.00     0.049 A 
ATOM     54  H   UNL A   1      39.570  30.590  32.104  1.00  0.00     0.167 HD
ATOM     55  C   UNL A   1      42.870  29.171  34.595  1.00  0.00     0.031 A 
ATOM     56  C   UNL A   1      37.481  32.328  31.417  1.00  0.00     0.031 A 
ATOM     57  C   UNL A   1      42.258  30.246  35.331  1.00  0.00     0.049 A 
ATOM     58  C   UNL A   1      37.939  32.750  32.782  1.00  0.00     0.074 A 
ATOM     59  C   UNL A   1      42.625  30.755  36.565  1.00  0.00     0.029 A 
ATOM     60  N   UNL A   1      41.166  30.984  34.902  1.00  0.00    -0.354 N 
ATOM     61  N   UNL A   1      38.933  32.275  33.493  1.00  0.00    -0.248 NA
ATOM     62  C   UNL A   1      37.192  33.834  33.433  1.00  0.00     0.031 C 
ATOM     63  C   UNL A   1      41.722  31.764  36.906  1.00  0.00     0.029 A 
ATOM     64  C   UNL A   1      40.830  31.928  35.858  1.00  0.00     0.049 A 
ATOM     65  H   UNL A   1      40.698  30.856  34.046  1.00  0.00     0.167 HD
ATOM     66  C   UNL A   1      38.932  33.002  34.677  1.00  0.00     0.074 A 
ATOM     67  C   UNL A   1      37.852  33.964  34.577  1.00  0.00     0.031 C 
ATOM     68  C   UNL A   1      39.748  32.874  35.751  1.00  0.00     0.031 A 
BRANCH  55  69
ATOM     69  C   UNL A   1      44.056  28.484  35.221  1.00  0.00    -0.014 A 
ATOM     70  C   UNL A   1      43.851  27.393  36.087  1.00  0.00     0.010 A 
ATOM     71  C   UNL A   1      45.358  28.986  35.051  1.00  0.00     0.010 A 
ATOM     72  C   UNL A   1      44.920  26.832  36.791  1.00  0.00     0.020 A 
ATOM     73  C   UNL A   1      46.435  28.412  35.736  1.00  0.00     0.020 A 
ATOM     74  C   UNL A   1      46.206  27.353  36.618  1.00  0.00     0.054 A 
BRANCH  74  75
ATOM     75  S   UNL A   1      47.581  26.625  37.551  1.00  0.00     0.124 S 
ATOM     76  O   UNL A   1      48.655  26.619  36.563  1.00  0.00    -0.237 OA
ATOM     77  O   UNL A   1      47.747  27.560  38.661  1.00  0.00    -0.237 OA
ATOM     78  O   UNL A   1      47.074  25.308  37.932  1.00  0.00    -0.744 OA
ENDBRANCH  74  75
ENDBRANCH  55  69
BRANCH  56  79
ATOM     79  C   UNL A   1      36.376  33.027  30.706  1.00  0.00    -0.014 A 
ATOM     80  C   UNL A   1      36.661  33.898  29.636  1.00  0.00     0.010 A 
ATOM     81  C   UNL A   1      35.053  32.914  31.163  1.00  0.00     0.010 A 
ATOM     82  C   UNL A   1      35.656  34.695  29.084  1.00  0.00     0.020 A 
ATOM     83  C   UNL A   1      34.038  33.689  30.590  1.00  0.00     0.020 A 
ATOM     84  C   UNL A   1      34.354  34.599  29.578  1.00  0.00     0.054 A 
BRANCH  84  85
ATOM     85  S   UNL A   1      33.078  35.691  28.895  1.00  0.00     0.124 S 
ATOM     86  O   UNL A   1      33.884  36.704  28.220  1.00  0.00    -0.237 OA
ATOM     87  O   UNL A   1      32.326  34.798  28.018  1.00  0.00    -0.237 OA
ATOM     88  O   UNL A   1      32.356  36.152  30.078  1.00  0.00    -0.744 OA
ENDBRANCH  84  85
ENDBRANCH  56  79
BRANCH  68  89
ATOM     89  C   UNL A   1      39.518  33.783  36.927  1.00  0.00    -0.014 A 
ATOM     90  C   UNL A   1      40.247  34.981  37.036  1.00  0.00     0.010 A 
ATOM     91  C   UNL A   1      38.688  33.383  37.988  1.00  0.00     0.010 A 
ATOM     92  C   UNL A   1      40.183  35.744  38.204  1.00  0.00     0.020 A 
ATOM     93  C   UNL A   1      38.601  34.157  39.148  1.00  0.00     0.020 A 
ATOM     94  C   UNL A   1      39.370  35.319  39.258  1.00  0.00     0.054 A 
BRANCH  94  95
ATOM     95  S   UNL A   1      39.333  36.298  40.785  1.00  0.00     0.124 S 
ATOM     96  O   UNL A   1      38.569  37.473  40.378  1.00  0.00    -0.237 OA
ATOM     97  O   UNL A   1      38.660  35.403  41.725  1.00  0.00    -0.237 OA
ATOM     98  O   UNL A   1      40.746  36.538  41.071  1.00  0.00    -0.744 OA
ENDBRANCH  94  95
ENDBRANCH  68  89
ENDBRANCH  42  43
ENDBRANCH  34  37
ENDBRANCH  32  33
ENDBRANCH  31  32
ENDBRANCH   1  31
TORSDOF 18
ENDMDL
MODEL 2
REMARK VINA RESULT:     -11.7      5.792     10.282
REMARK SMILES O=C(Cn1nc(C(=O)NCCCCNC(=O)c2ccc(-c3c4nc(c(-c5ccc(S(=O)(=O)[O-])cc5)c5ccc([nH]5)c(-c5ccc(S(=O)(=O)[O-])cc5)c5nc(c(-c6ccc(S(=O)(=O)[O-])cc6)c6ccc3[nH]6)C=C5)C=C4)cc2)c2ccccc2c1=O)NCc1ccc(F)cc1
REMARK SMILES IDX 11 1 10 2 9 3 7 4 8 5 6 7 4 8 5 9 83 10 82 11 84 12 77 13
REMARK SMILES IDX 81 14 78 15 80 16 79 17 3 18 2 19 1 20 85 21 86 23 87 24
REMARK SMILES IDX 88 25 93 26 89 27 92 28 90 29 91 30 12 31 13 32 14 33 15 34
REMARK SMILES IDX 16 36 17 37 18 38 76 39 19 40 75 41 20 42 21 43 22 44 69 45
REMARK SMILES IDX 23 46 74 47 68 48 70 49 24 50 73 51 67 52 66 53 25 55 55 56
REMARK SMILES IDX 36 57 54 58 37 59 40 60 53 61 71 62 38 63 39 64 52 66 72 67
REMARK SMILES IDX 41 68 26 69 27 70 35 71 28 72 34 73 29 74 30 75 31 76 32 77
REMARK SMILES IDX 33 78 56 79 57 80 65 81 58 82 64 83 59 84 60 85 61 86 62 87
REMARK SMILES IDX 63 88 42 89 43 90 51 91 44 92 50 93 45 94 46 95 47 96 48 97
REMARK SMILES IDX 49 98
REMARK H PARENT 9 6 85 22 14 35 70 54 40 65
REMARK Flexibility Score: inf
ROOT
ATOM      1  C   UNL A   1      38.231  21.678  25.702  1.00  0.00     0.023 C 
ENDROOT
BRANCH   1   2
ATOM      2  C   UNL A   1      36.774  21.768  25.260  1.00  0.00     0.116 C 
BRANCH   2   3
ATOM      3  N   UNL A   1      35.886  21.561  26.386  1.00  0.00    -0.351 N 
ATOM      4  C   UNL A   1      34.516  21.448  26.441  1.00  0.00     0.272 C 
ATOM      5  O   UNL A   1      33.999  21.472  27.552  1.00  0.00    -0.267 OA
ATOM      6  H   UNL A   1      36.339  21.488  27.257  1.00  0.00     0.163 HD
BRANCH   4   7
ATOM      7  C   UNL A   1      33.648  21.285  25.166  1.00  0.00     0.156 A 
ATOM      8  N   UNL A   1      32.462  22.304  23.440  1.00  0.00    -0.219 N 
ATOM      9  N   UNL A   1      33.180  22.368  24.610  1.00  0.00    -0.163 NA
ATOM     10  C   UNL A   1      32.225  21.123  22.750  1.00  0.00     0.275 A 
ATOM     11  C   UNL A   1      32.681  19.880  23.393  1.00  0.00     0.051 A 
ATOM     12  O   UNL A   1      31.670  21.073  21.654  1.00  0.00    -0.267 OA
ATOM     13  C   UNL A   1      33.380  19.932  24.599  1.00  0.00     0.020 A 
ATOM     14  C   UNL A   1      32.399  18.651  22.771  1.00  0.00     0.014 A 
ATOM     15  C   UNL A   1      33.771  18.720  25.186  1.00  0.00     0.011 A 
ATOM     16  C   UNL A   1      32.796  17.458  23.366  1.00  0.00     0.001 A 
ATOM     17  C   UNL A   1      33.475  17.494  24.578  1.00  0.00     0.001 A 
BRANCH   8  18
ATOM     18  C   UNL A   1      32.159  23.564  22.758  1.00  0.00     0.248 C 
BRANCH  18  19
ATOM     19  C   UNL A   1      33.093  24.728  23.067  1.00  0.00     0.242 C 
ATOM     20  O   UNL A   1      33.828  25.211  22.205  1.00  0.00    -0.273 OA
ATOM     21  N   UNL A   1      32.982  25.256  24.337  1.00  0.00    -0.350 N 
ATOM     22  H   UNL A   1      32.255  24.949  24.925  1.00  0.00     0.163 HD
BRANCH  21  23
ATOM     23  C   UNL A   1      33.911  26.252  24.821  1.00  0.00     0.151 C 
BRANCH  23  24
ATOM     24  C   UNL A   1      33.323  27.613  25.078  1.00  0.00    -0.029 A 
ATOM     25  C   UNL A   1      33.973  28.562  25.877  1.00  0.00     0.008 A 
ATOM     26  C   UNL A   1      32.015  27.877  24.631  1.00  0.00     0.008 A 
ATOM     27  C   UNL A   1      33.335  29.760  26.205  1.00  0.00     0.039 A 
ATOM     28  C   UNL A   1      31.378  29.071  24.962  1.00  0.00     0.039 A 
ATOM     29  C   UNL A   1      32.043  30.002  25.747  1.00  0.00     0.123 A 
ATOM     30  F   UNL A   1      31.427  31.142  26.084  1.00  0.00    -0.207 F 
ENDBRANCH  23  24
ENDBRANCH  21  23
ENDBRANCH  18  19
ENDBRANCH   8  18
ENDBRANCH   4   7
ENDBRANCH   2   3
ENDBRANCH   1   2
BRANCH   1  31
ATOM     31  C   UNL A   1      38.952  20.381  25.333  1.00  0.00     0.023 C 
BRANCH  31  32
ATOM     32  C   UNL A   1      39.625  19.672  26.501  1.00  0.00     0.116 C 
BRANCH  32  33
ATOM     33  N   UNL A   1      40.883  19.017  26.159  1.00  0.00    -0.352 N 
ATOM     34  C   UNL A   1      42.139  19.577  26.077  1.00  0.00     0.251 C 
ATOM     35  H   UNL A   1      40.826  18.053  25.963  1.00  0.00     0.163 HD
ATOM     36  O   UNL A   1      43.100  18.913  25.704  1.00  0.00    -0.269 OA
BRANCH  34  37
ATOM     37  C   UNL A   1      42.296  21.011  26.391  1.00  0.00     0.039 A 
ATOM     38  C   UNL A   1      42.200  21.964  25.376  1.00  0.00     0.014 A 
ATOM     39  C   UNL A   1      42.654  21.389  27.688  1.00  0.00     0.014 A 
ATOM     40  C   UNL A   1      42.665  23.251  25.608  1.00  0.00     0.010 A 
ATOM     41  C   UNL A   1      43.029  22.711  27.939  1.00  0.00     0.010 A 
ATOM     42  C   UNL A   1      43.103  23.635  26.886  1.00  0.00    -0.014 A 
BRANCH  42  43
ATOM     43  C   UNL A   1      43.670  24.995  27.084  1.00  0.00     0.031 A 
ATOM     44  C   UNL A   1      42.838  26.088  27.706  1.00  0.00     0.074 A 
ATOM     45  C   UNL A   1      44.962  25.222  26.775  1.00  0.00     0.049 A 
ATOM     46  N   UNL A   1      43.171  27.328  27.956  1.00  0.00    -0.248 NA
ATOM     47  C   UNL A   1      41.459  25.751  28.098  1.00  0.00     0.031 C 
ATOM     48  C   UNL A   1      45.875  24.227  26.209  1.00  0.00     0.029 A 
ATOM     49  N   UNL A   1      45.741  26.340  26.928  1.00  0.00    -0.354 N 
ATOM     50  C   UNL A   1      42.043  27.923  28.512  1.00  0.00     0.074 A 
ATOM     51  C   UNL A   1      41.006  26.917  28.541  1.00  0.00     0.031 C 
ATOM     52  C   UNL A   1      47.104  24.756  26.131  1.00  0.00     0.029 A 
ATOM     53  C   UNL A   1      47.051  26.151  26.559  1.00  0.00     0.049 A 
ATOM     54  H   UNL A   1      45.394  27.197  27.268  1.00  0.00     0.167 HD
ATOM     55  C   UNL A   1      41.893  29.190  28.964  1.00  0.00     0.031 A 
ATOM     56  C   UNL A   1      48.096  27.001  26.548  1.00  0.00     0.031 A 
ATOM     57  C   UNL A   1      42.939  30.179  28.953  1.00  0.00     0.049 A 
ATOM     58  C   UNL A   1      47.889  28.416  27.002  1.00  0.00     0.074 A 
ATOM     59  C   UNL A   1      42.881  31.490  29.393  1.00  0.00     0.029 A 
ATOM     60  N   UNL A   1      44.229  29.967  28.491  1.00  0.00    -0.354 N 
ATOM     61  N   UNL A   1      46.805  28.967  27.492  1.00  0.00    -0.248 NA
ATOM     62  C   UNL A   1      49.035  29.328  26.892  1.00  0.00     0.031 C 
ATOM     63  C   UNL A   1      44.119  32.087  29.148  1.00  0.00     0.029 A 
ATOM     64  C   UNL A   1      44.969  31.131  28.614  1.00  0.00     0.049 A 
ATOM     65  H   UNL A   1      44.568  29.117  28.130  1.00  0.00     0.167 HD
ATOM     66  C   UNL A   1      47.137  30.291  27.749  1.00  0.00     0.074 A 
ATOM     67  C   UNL A   1      48.530  30.453  27.382  1.00  0.00     0.031 C 
ATOM     68  C   UNL A   1      46.353  31.282  28.237  1.00  0.00     0.031 A 
BRANCH  55  69
ATOM     69  C   UNL A   1      40.550  29.603  29.508  1.00  0.00    -0.014 A 
ATOM     70  C   UNL A   1      39.526  29.984  28.621  1.00  0.00     0.010 A 
ATOM     71  C   UNL A   1      40.335  29.728  30.893  1.00  0.00     0.010 A 
ATOM     72  C   UNL A   1      38.323  30.507  29.103  1.00  0.00     0.020 A 
ATOM     73  C   UNL A   1      39.123  30.228  31.380  1.00  0.00     0.020 A 
ATOM     74  C   UNL A   1      38.134  30.635  30.482  1.00  0.00     0.054 A 
BRANCH  74  75
ATOM     75  S   UNL A   1      36.573  31.331  31.093  1.00  0.00     0.124 S 
ATOM     76  O   UNL A   1      35.872  31.652  29.854  1.00  0.00    -0.237 OA
ATOM     77  O   UNL A   1      36.012  30.229  31.871  1.00  0.00    -0.237 OA
ATOM     78  O   UNL A   1      37.002  32.482  31.886  1.00  0.00    -0.744 OA
ENDBRANCH  74  75
ENDBRANCH  55  69
BRANCH  56  79
ATOM     79  C   UNL A   1      49.421  26.507  26.087  1.00  0.00    -0.014 A 
ATOM     80  C   UNL A   1      50.283  25.846  26.984  1.00  0.00     0.010 A 
ATOM     81  C   UNL A   1      49.875  26.792  24.789  1.00  0.00     0.010 A 
ATOM     82  C   UNL A   1      51.595  25.543  26.615  1.00  0.00     0.020 A 
ATOM     83  C   UNL A   1      51.179  26.461  24.405  1.00  0.00     0.020 A 
ATOM     84  C   UNL A   1      52.040  25.870  25.333  1.00  0.00     0.054 A 
BRANCH  84  85
ATOM     85  S   UNL A   1      53.768  25.530  24.896  1.00  0.00     0.124 S 
ATOM     86  O   UNL A   1      53.852  24.089  25.116  1.00  0.00    -0.237 OA
ATOM     87  O   UNL A   1      53.835  25.958  23.501  1.00  0.00    -0.237 OA
ATOM     88  O   UNL A   1      54.524  26.354  25.835  1.00  0.00    -0.744 OA
ENDBRANCH  84  85
ENDBRANCH  56  79
BRANCH  68  89
ATOM     89  C   UNL A   1      46.959  32.648  28.403  1.00  0.00    -0.014 A 
ATOM     90  C   UNL A   1      46.855  33.589  27.362  1.00  0.00     0.010 A 
ATOM     91  C   UNL A   1      47.750  32.948  29.525  1.00  0.00     0.010 A 
ATOM     92  C   UNL A   1      47.564  34.791  27.422  1.00  0.00     0.020 A 
ATOM     93  C   UNL A   1      48.441  34.160  29.600  1.00  0.00     0.020 A 
ATOM     94  C   UNL A   1      48.364  35.062  28.535  1.00  0.00     0.054 A 
BRANCH  94  95
ATOM     95  S   UNL A   1      49.313  36.607  28.575  1.00  0.00     0.124 S 
ATOM     96  O   UNL A   1      49.366  36.972  27.163  1.00  0.00    -0.237 OA
ATOM     97  O   UNL A   1      48.489  37.470  29.419  1.00  0.00    -0.237 OA
ATOM     98  O   UNL A   1      50.590  36.208  29.166  1.00  0.00    -0.744 OA
ENDBRANCH  94  95
ENDBRANCH  68  89
ENDBRANCH  42  43
ENDBRANCH  34  37
ENDBRANCH  32  33
ENDBRANCH  31  32
ENDBRANCH   1  31
TORSDOF 18
ENDMDL
MODEL 3
REMARK VINA RESULT:     -11.6      6.187      8.290
REMARK SMILES O=C(Cn1nc(C(=O)NCCCCNC(=O)c2ccc(-c3c4nc(c(-c5ccc(S(=O)(=O)[O-])cc5)c5ccc([nH]5)c(-c5ccc(S(=O)(=O)[O-])cc5)c5nc(c(-c6ccc(S(=O)(=O)[O-])cc6)c6ccc3[nH]6)C=C5)C=C4)cc2)c2ccccc2c1=O)NCc1ccc(F)cc1
REMARK SMILES IDX 11 1 10 2 9 3 7 4 8 5 6 7 4 8 5 9 83 10 82 11 84 12 77 13
REMARK SMILES IDX 81 14 78 15 80 16 79 17 3 18 2 19 1 20 85 21 86 23 87 24
REMARK SMILES IDX 88 25 93 26 89 27 92 28 90 29 91 30 12 31 13 32 14 33 15 34
REMARK SMILES IDX 16 36 17 37 18 38 76 39 19 40 75 41 20 42 21 43 22 44 69 45
REMARK SMILES IDX 23 46 74 47 68 48 70 49 24 50 73 51 67 52 66 53 25 55 55 56
REMARK SMILES IDX 36 57 54 58 37 59 40 60 53 61 71 62 38 63 39 64 52 66 72 67
REMARK SMILES IDX 41 68 26 69 27 70 35 71 28 72 34 73 29 74 30 75 31 76 32 77
REMARK SMILES IDX 33 78 56 79 57 80 65 81 58 82 64 83 59 84 60 85 61 86 62 87
REMARK SMILES IDX 63 88 42 89 43 90 51 91 44 92 50 93 45 94 46 95 47 96 48 97
REMARK SMILES IDX 49 98
REMARK H PARENT 9 6 85 22 14 35 70 54 40 65
REMARK Flexibility Score: inf
ROOT
ATOM      1  C   UNL A   1      38.883  23.255  26.528  1.00  0.00     0.023 C 
ENDROOT
BRANCH   1   2
ATOM      2  C   UNL A   1      37.550  23.796  26.023  1.00  0.00     0.116 C 
BRANCH   2   3
ATOM      3  N   UNL A   1      37.436  23.616  24.590  1.00  0.00    -0.351 N 
ATOM      4  C   UNL A   1      36.350  23.297  23.808  1.00  0.00     0.272 C 
ATOM      5  O   UNL A   1      36.571  23.013  22.636  1.00  0.00    -0.267 OA
ATOM      6  H   UNL A   1      38.276  23.744  24.094  1.00  0.00     0.163 HD
BRANCH   4   7
ATOM      7  C   UNL A   1      34.901  23.302  24.362  1.00  0.00     0.156 A 
ATOM      8  N   UNL A   1      33.027  24.539  24.981  1.00  0.00    -0.219 N 
ATOM      9  N   UNL A   1      34.332  24.459  24.558  1.00  0.00    -0.163 NA
ATOM     10  C   UNL A   1      32.217  23.430  25.182  1.00  0.00     0.275 A 
ATOM     11  C   UNL A   1      32.857  22.111  25.037  1.00  0.00     0.051 A 
ATOM     12  O   UNL A   1      31.023  23.498  25.463  1.00  0.00    -0.267 OA
ATOM     13  C   UNL A   1      34.192  22.021  24.642  1.00  0.00     0.020 A 
ATOM     14  C   UNL A   1      32.101  20.957  25.304  1.00  0.00     0.014 A 
ATOM     15  C   UNL A   1      34.765  20.744  24.544  1.00  0.00     0.011 A 
ATOM     16  C   UNL A   1      32.683  19.699  25.200  1.00  0.00     0.001 A 
ATOM     17  C   UNL A   1      34.017  19.594  24.827  1.00  0.00     0.001 A 
BRANCH   8  18
ATOM     18  C   UNL A   1      32.386  25.856  24.966  1.00  0.00     0.248 C 
BRANCH  18  19
ATOM     19  C   UNL A   1      31.661  26.227  23.677  1.00  0.00     0.242 C 
ATOM     20  O   UNL A   1      31.803  25.570  22.646  1.00  0.00    -0.273 OA
ATOM     21  N   UNL A   1      30.772  27.278  23.779  1.00  0.00    -0.350 N 
ATOM     22  H   UNL A   1      30.567  27.651  24.667  1.00  0.00     0.163 HD
BRANCH  21  23
ATOM     23  C   UNL A   1      30.138  27.841  22.609  1.00  0.00     0.151 C 
BRANCH  23  24
ATOM     24  C   UNL A   1      29.475  29.175  22.813  1.00  0.00    -0.029 A 
ATOM     25  C   UNL A   1      28.519  29.673  21.918  1.00  0.00     0.008 A 
ATOM     26  C   UNL A   1      29.944  30.010  23.845  1.00  0.00     0.008 A 
ATOM     27  C   UNL A   1      28.028  30.972  22.065  1.00  0.00     0.039 A 
ATOM     28  C   UNL A   1      29.456  31.307  23.988  1.00  0.00     0.039 A 
ATOM     29  C   UNL A   1      28.502  31.777  23.096  1.00  0.00     0.123 A 
ATOM     30  F   UNL A   1      28.046  33.030  23.218  1.00  0.00    -0.207 F 
ENDBRANCH  23  24
ENDBRANCH  21  23
ENDBRANCH  18  19
ENDBRANCH   8  18
ENDBRANCH   4   7
ENDBRANCH   2   3
ENDBRANCH   1   2
BRANCH   1  31
ATOM     31  C   UNL A   1      39.274  21.873  26.003  1.00  0.00     0.023 C 
BRANCH  31  32
ATOM     32  C   UNL A   1      39.968  20.978  27.022  1.00  0.00     0.116 C 
BRANCH  32  33
ATOM     33  N   UNL A   1      40.693  19.855  26.437  1.00  0.00    -0.352 N 
ATOM     34  C   UNL A   1      42.009  19.809  26.034  1.00  0.00     0.251 C 
ATOM     35  H   UNL A   1      40.175  19.026  26.314  1.00  0.00     0.163 HD
ATOM     36  O   UNL A   1      42.466  18.810  25.488  1.00  0.00    -0.269 OA
BRANCH  34  37
ATOM     37  C   UNL A   1      42.848  21.010  26.222  1.00  0.00     0.039 A 
ATOM     38  C   UNL A   1      43.331  21.335  27.491  1.00  0.00     0.014 A 
ATOM     39  C   UNL A   1      43.053  21.873  25.143  1.00  0.00     0.014 A 
ATOM     40  C   UNL A   1      43.827  22.609  27.722  1.00  0.00     0.010 A 
ATOM     41  C   UNL A   1      43.644  23.119  25.363  1.00  0.00     0.010 A 
ATOM     42  C   UNL A   1      43.972  23.524  26.666  1.00  0.00    -0.014 A 
BRANCH  42  43
ATOM     43  C   UNL A   1      44.433  24.907  26.958  1.00  0.00     0.031 A 
ATOM     44  C   UNL A   1      45.862  25.310  26.696  1.00  0.00     0.074 A 
ATOM     45  C   UNL A   1      43.540  25.822  27.384  1.00  0.00     0.049 A 
ATOM     46  N   UNL A   1      46.433  26.471  26.887  1.00  0.00    -0.248 NA
ATOM     47  C   UNL A   1      46.767  24.285  26.150  1.00  0.00     0.031 C 
ATOM     48  C   UNL A   1      42.121  25.557  27.630  1.00  0.00     0.029 A 
ATOM     49  N   UNL A   1      43.680  27.160  27.649  1.00  0.00    -0.354 N 
ATOM     50  C   UNL A   1      47.762  26.311  26.509  1.00  0.00     0.074 A 
ATOM     51  C   UNL A   1      47.922  24.935  26.098  1.00  0.00     0.031 C 
ATOM     52  C   UNL A   1      41.508  26.709  27.937  1.00  0.00     0.029 A 
ATOM     53  C   UNL A   1      42.501  27.777  27.995  1.00  0.00     0.049 A 
ATOM     54  H   UNL A   1      44.541  27.634  27.596  1.00  0.00     0.167 HD
ATOM     55  C   UNL A   1      48.753  27.233  26.497  1.00  0.00     0.031 A 
ATOM     56  C   UNL A   1      42.241  29.054  28.337  1.00  0.00     0.031 A 
ATOM     57  C   UNL A   1      48.579  28.608  26.884  1.00  0.00     0.049 A 
ATOM     58  C   UNL A   1      43.368  30.044  28.369  1.00  0.00     0.074 A 
ATOM     59  C   UNL A   1      49.526  29.618  26.902  1.00  0.00     0.029 A 
ATOM     60  N   UNL A   1      47.385  29.170  27.309  1.00  0.00    -0.354 N 
ATOM     61  N   UNL A   1      44.624  29.863  28.039  1.00  0.00    -0.248 NA
ATOM     62  C   UNL A   1      43.052  31.402  28.829  1.00  0.00     0.031 C 
ATOM     63  C   UNL A   1      48.918  30.777  27.389  1.00  0.00     0.029 A 
ATOM     64  C   UNL A   1      47.577  30.507  27.615  1.00  0.00     0.049 A 
ATOM     65  H   UNL A   1      46.529  28.691  27.383  1.00  0.00     0.167 HD
ATOM     66  C   UNL A   1      45.251  31.085  28.253  1.00  0.00     0.074 A 
ATOM     67  C   UNL A   1      44.230  32.003  28.718  1.00  0.00     0.031 C 
ATOM     68  C   UNL A   1      46.555  31.409  28.085  1.00  0.00     0.031 A 
BRANCH  55  69
ATOM     69  C   UNL A   1      50.129  26.802  26.058  1.00  0.00    -0.014 A 
ATOM     70  C   UNL A   1      51.040  26.308  27.010  1.00  0.00     0.010 A 
ATOM     71  C   UNL A   1      50.561  26.993  24.733  1.00  0.00     0.010 A 
ATOM     72  C   UNL A   1      52.365  26.039  26.655  1.00  0.00     0.020 A 
ATOM     73  C   UNL A   1      51.880  26.700  24.368  1.00  0.00     0.020 A 
ATOM     74  C   UNL A   1      52.779  26.246  25.336  1.00  0.00     0.054 A 
BRANCH  74  75
ATOM     75  S   UNL A   1      54.505  25.907  24.894  1.00  0.00     0.124 S 
ATOM     76  O   UNL A   1      54.580  24.456  25.033  1.00  0.00    -0.237 OA
ATOM     77  O   UNL A   1      54.594  26.416  23.527  1.00  0.00    -0.237 OA
ATOM     78  O   UNL A   1      55.266  26.671  25.881  1.00  0.00    -0.744 OA
ENDBRANCH  74  75
ENDBRANCH  55  69
BRANCH  56  79
ATOM     79  C   UNL A   1      40.843  29.440  28.669  1.00  0.00    -0.014 A 
ATOM     80  C   UNL A   1      40.461  29.637  30.010  1.00  0.00     0.010 A 
ATOM     81  C   UNL A   1      39.864  29.503  27.663  1.00  0.00     0.010 A 
ATOM     82  C   UNL A   1      39.119  29.818  30.346  1.00  0.00     0.020 A 
ATOM     83  C   UNL A   1      38.522  29.716  27.994  1.00  0.00     0.020 A 
ATOM     84  C   UNL A   1      38.155  29.837  29.337  1.00  0.00     0.054 A 
BRANCH  84  85
ATOM     85  S   UNL A   1      36.409  30.005  29.799  1.00  0.00     0.124 S 
ATOM     86  O   UNL A   1      35.740  29.372  28.666  1.00  0.00    -0.237 OA
ATOM     87  O   UNL A   1      36.339  29.271  31.060  1.00  0.00    -0.237 OA
ATOM     88  O   UNL A   1      36.224  31.449  29.910  1.00  0.00    -0.744 OA
ENDBRANCH  84  85
ENDBRANCH  56  79
BRANCH  68  89
ATOM     89  C   UNL A   1      46.983  32.814  28.411  1.00  0.00    -0.014 A 
ATOM     90  C   UNL A   1      47.442  33.121  29.705  1.00  0.00     0.010 A 
ATOM     91  C   UNL A   1      46.795  33.852  27.482  1.00  0.00     0.010 A 
ATOM     92  C   UNL A   1      47.670  34.447  30.078  1.00  0.00     0.020 A 
ATOM     93  C   UNL A   1      47.045  35.178  27.846  1.00  0.00     0.020 A 
ATOM     94  C   UNL A   1      47.455  35.469  29.149  1.00  0.00     0.054 A 
BRANCH  94  95
ATOM     95  S   UNL A   1      47.710  37.189  29.665  1.00  0.00     0.124 S 
ATOM     96  O   UNL A   1      46.915  37.924  28.687  1.00  0.00    -0.237 OA
ATOM     97  O   UNL A   1      47.193  37.196  31.031  1.00  0.00    -0.237 OA
ATOM     98  O   UNL A   1      49.157  37.367  29.555  1.00  0.00    -0.744 OA
ENDBRANCH  94  95
ENDBRANCH  68  89
ENDBRANCH  42  43
ENDBRANCH  34  37
ENDBRANCH  32  33
ENDBRANCH  31  32
ENDBRANCH   1  31
TORSDOF 18
ENDMDL
