MODEL 1
REMARK VINA RESULT:     -12.5      0.000      0.000
REMARK SMILES O=C1[NH+]=C(Nc2ccc(C(=O)NCCCCNC(=O)c3ccc(-c4c5nc(c(-c6ccc(S(=O)(=O)[O-])cc6)c6ccc([nH]6)c(-c6ccc(S(=O)(=O)[O-])cc6)c6nc(c(-c7ccc(S(=O)(=O)[O-])cc7)c7ccc4[nH]7)C=C6)C=C5)cc3)c(O)c2)S/C1=C\c1ccc[nH]1
REMARK SMILES IDX 15 1 14 2 13 3 12 4 10 5 11 6 9 8 6 9 7 10 82 11 8 12 80 13
REMARK SMILES IDX 5 14 1 15 2 16 3 17 84 18 4 19 83 21 85 22 86 24 87 25 90 26
REMARK SMILES IDX 88 27 89 28 81 30 16 32 17 33 18 34 19 36 20 37 21 38 79 39
REMARK SMILES IDX 22 40 78 41 23 42 24 43 25 44 72 45 26 46 77 47 71 48 73 49
REMARK SMILES IDX 27 50 76 51 70 52 69 53 28 55 58 56 39 57 57 58 40 59 43 60
REMARK SMILES IDX 56 61 74 62 41 63 42 64 55 66 75 67 44 68 29 69 30 70 38 71
REMARK SMILES IDX 31 72 37 73 32 74 33 75 34 76 35 77 36 78 59 79 60 80 68 81
REMARK SMILES IDX 61 82 67 83 62 84 63 85 64 86 65 87 66 88 45 89 46 90 54 91
REMARK SMILES IDX 47 92 53 93 48 94 49 95 50 96 51 97 52 98
REMARK H PARENT 12 7 3 20 5 23 90 29 81 31 17 35 73 54 43 65
REMARK Flexibility Score: inf
ROOT
ATOM      1  C   UNL A   1      32.963  28.276  25.815  1.00  0.00     0.023 C 
ENDROOT
BRANCH   1   2
ATOM      2  C   UNL A   1      32.568  29.521  25.024  1.00  0.00     0.023 C 
BRANCH   2   3
ATOM      3  C   UNL A   1      31.076  29.826  24.933  1.00  0.00     0.116 C 
BRANCH   3   4
ATOM      4  N   UNL A   1      30.532  29.839  23.585  1.00  0.00    -0.352 N 
ATOM      5  C   UNL A   1      30.326  28.801  22.705  1.00  0.00     0.255 C 
ATOM      6  O   UNL A   1      29.845  29.039  21.599  1.00  0.00    -0.269 OA
ATOM      7  H   UNL A   1      30.271  30.727  23.250  1.00  0.00     0.163 HD
BRANCH   5   8
ATOM      8  C   UNL A   1      30.726  27.409  23.029  1.00  0.00     0.081 A 
ATOM      9  C   UNL A   1      31.158  24.679  23.613  1.00  0.00     0.129 A 
ATOM     10  C   UNL A   1      30.202  25.417  24.317  1.00  0.00     0.053 A 
ATOM     11  C   UNL A   1      31.944  25.344  22.665  1.00  0.00     0.098 A 
ATOM     12  C   UNL A   1      29.991  26.769  24.035  1.00  0.00     0.022 A 
ATOM     13  C   UNL A   1      31.759  26.704  22.408  1.00  0.00     0.132 A 
BRANCH   9  14
ATOM     14  N   UNL A   1      31.296  23.293  23.762  1.00  0.00    -0.234 N 
ATOM     15  O   UNL A   1      35.627  22.301  25.190  1.00  0.00    -0.240 OA
ATOM     16  C   UNL A   1      34.487  22.102  24.787  1.00  0.00     0.346 C 
ATOM     17  N   UNL A   1      33.587  23.084  24.451  1.00  0.00    -0.199 N 
ATOM     18  C   UNL A   1      33.911  20.740  24.610  1.00  0.00     0.111 C 
ATOM     19  C   UNL A   1      32.434  22.623  24.098  1.00  0.00     0.322 C 
ATOM     20  H   UNL A   1      33.798  24.045  24.478  1.00  0.00     0.316 HD
ATOM     21  S   UNL A   1      32.280  20.880  24.089  1.00  0.00     0.006 SA
ATOM     22  C   UNL A   1      34.618  19.629  24.861  1.00  0.00     0.050 C 
ATOM     23  H   UNL A   1      30.490  22.749  23.609  1.00  0.00     0.313 HD
BRANCH  22  24
ATOM     24  C   UNL A   1      34.104  18.331  24.630  1.00  0.00     0.039 A 
ATOM     25  C   UNL A   1      34.070  17.503  23.525  1.00  0.00     0.027 A 
ATOM     26  N   UNL A   1      33.491  17.668  25.665  1.00  0.00    -0.362 N 
ATOM     27  C   UNL A   1      33.384  16.323  23.894  1.00  0.00     0.020 A 
ATOM     28  C   UNL A   1      33.029  16.454  25.218  1.00  0.00     0.083 A 
ATOM     29  H   UNL A   1      33.397  18.009  26.583  1.00  0.00     0.166 HD
ENDBRANCH  22  24
ENDBRANCH   9  14
BRANCH  13  30
ATOM     30  O   UNL A   1      32.660  27.267  21.548  1.00  0.00    -0.507 OA
ATOM     31  H   UNL A   1      32.488  27.271  20.627  1.00  0.00     0.293 HD
ENDBRANCH  13  30
ENDBRANCH   5   8
ENDBRANCH   3   4
ENDBRANCH   2   3
ENDBRANCH   1   2
BRANCH   1  32
ATOM     32  C   UNL A   1      33.450  28.508  27.241  1.00  0.00     0.116 C 
BRANCH  32  33
ATOM     33  N   UNL A   1      33.473  29.911  27.631  1.00  0.00    -0.352 N 
ATOM     34  C   UNL A   1      34.488  30.658  28.186  1.00  0.00     0.251 C 
ATOM     35  H   UNL A   1      32.634  30.400  27.474  1.00  0.00     0.163 HD
ATOM     36  O   UNL A   1      34.269  31.811  28.546  1.00  0.00    -0.269 OA
BRANCH  34  37
ATOM     37  C   UNL A   1      35.826  30.061  28.386  1.00  0.00     0.039 A 
ATOM     38  C   UNL A   1      36.745  30.090  27.335  1.00  0.00     0.014 A 
ATOM     39  C   UNL A   1      36.188  29.505  29.614  1.00  0.00     0.014 A 
ATOM     40  C   UNL A   1      38.056  29.651  27.548  1.00  0.00     0.010 A 
ATOM     41  C   UNL A   1      37.515  29.163  29.854  1.00  0.00     0.010 A 
ATOM     42  C   UNL A   1      38.468  29.235  28.826  1.00  0.00    -0.014 A 
BRANCH  42  43
ATOM     43  C   UNL A   1      39.885  28.885  29.110  1.00  0.00     0.031 A 
ATOM     44  C   UNL A   1      40.817  29.911  29.700  1.00  0.00     0.074 A 
ATOM     45  C   UNL A   1      40.357  27.667  28.768  1.00  0.00     0.049 A 
ATOM     46  N   UNL A   1      42.097  29.810  29.958  1.00  0.00    -0.248 NA
ATOM     47  C   UNL A   1      40.244  31.230  30.016  1.00  0.00     0.031 C 
ATOM     48  C   UNL A   1      39.571  26.598  28.145  1.00  0.00     0.029 A 
ATOM     49  N   UNL A   1      41.612  27.123  28.889  1.00  0.00    -0.354 N 
ATOM     50  C   UNL A   1      42.482  31.054  30.445  1.00  0.00     0.074 A 
ATOM     51  C   UNL A   1      41.317  31.908  30.394  1.00  0.00     0.031 C 
ATOM     52  C   UNL A   1      40.353  25.521  27.968  1.00  0.00     0.029 A 
ATOM     53  C   UNL A   1      41.706  25.834  28.418  1.00  0.00     0.049 A 
ATOM     54  H   UNL A   1      42.374  27.611  29.278  1.00  0.00     0.167 HD
ATOM     55  C   UNL A   1      43.693  31.446  30.912  1.00  0.00     0.031 A 
ATOM     56  C   UNL A   1      42.762  24.998  28.344  1.00  0.00     0.031 A 
ATOM     57  C   UNL A   1      44.848  30.591  30.969  1.00  0.00     0.049 A 
ATOM     58  C   UNL A   1      44.099  25.459  28.856  1.00  0.00     0.074 A 
ATOM     59  C   UNL A   1      46.102  30.876  31.482  1.00  0.00     0.029 A 
ATOM     60  N   UNL A   1      44.897  29.290  30.491  1.00  0.00    -0.354 N 
ATOM     61  N   UNL A   1      44.424  26.615  29.384  1.00  0.00    -0.248 NA
ATOM     62  C   UNL A   1      45.208  24.501  28.775  1.00  0.00     0.031 C 
ATOM     63  C   UNL A   1      46.928  29.771  31.253  1.00  0.00     0.029 A 
ATOM     64  C   UNL A   1      46.169  28.770  30.668  1.00  0.00     0.049 A 
ATOM     65  H   UNL A   1      44.141  28.808  30.085  1.00  0.00     0.167 HD
ATOM     66  C   UNL A   1      45.768  26.511  29.727  1.00  0.00     0.074 A 
ATOM     67  C   UNL A   1      46.189  25.175  29.359  1.00  0.00     0.031 C 
ATOM     68  C   UNL A   1      46.578  27.438  30.297  1.00  0.00     0.031 A 
BRANCH  55  69
ATOM     69  C   UNL A   1      43.829  32.869  31.391  1.00  0.00    -0.014 A 
ATOM     70  C   UNL A   1      43.571  33.220  32.729  1.00  0.00     0.010 A 
ATOM     71  C   UNL A   1      44.262  33.867  30.498  1.00  0.00     0.010 A 
ATOM     72  C   UNL A   1      43.698  34.545  33.153  1.00  0.00     0.020 A 
ATOM     73  C   UNL A   1      44.423  35.187  30.925  1.00  0.00     0.020 A 
ATOM     74  C   UNL A   1      44.123  35.522  32.247  1.00  0.00     0.054 A 
BRANCH  74  75
ATOM     75  S   UNL A   1      44.299  37.228  32.831  1.00  0.00     0.124 S 
ATOM     76  O   UNL A   1      44.014  37.994  31.620  1.00  0.00    -0.237 OA
ATOM     77  O   UNL A   1      43.286  37.313  33.880  1.00  0.00    -0.237 OA
ATOM     78  O   UNL A   1      45.682  37.296  33.298  1.00  0.00    -0.744 OA
ENDBRANCH  74  75
ENDBRANCH  55  69
BRANCH  56  79
ATOM     79  C   UNL A   1      42.591  23.634  27.769  1.00  0.00    -0.014 A 
ATOM     80  C   UNL A   1      42.818  23.398  26.401  1.00  0.00     0.010 A 
ATOM     81  C   UNL A   1      42.213  22.557  28.592  1.00  0.00     0.010 A 
ATOM     82  C   UNL A   1      42.654  22.116  25.864  1.00  0.00     0.020 A 
ATOM     83  C   UNL A   1      42.081  21.269  28.066  1.00  0.00     0.020 A 
ATOM     84  C   UNL A   1      42.291  21.058  26.703  1.00  0.00     0.054 A 
BRANCH  84  85
ATOM     85  S   UNL A   1      42.141  19.394  25.995  1.00  0.00     0.124 S 
ATOM     86  O   UNL A   1      42.669  18.558  27.070  1.00  0.00    -0.237 OA
ATOM     87  O   UNL A   1      40.705  19.283  25.752  1.00  0.00    -0.237 OA
ATOM     88  O   UNL A   1      42.966  19.459  24.791  1.00  0.00    -0.744 OA
ENDBRANCH  84  85
ENDBRANCH  56  79
BRANCH  68  89
ATOM     89  C   UNL A   1      47.996  27.032  30.604  1.00  0.00    -0.014 A 
ATOM     90  C   UNL A   1      49.059  27.363  29.744  1.00  0.00     0.010 A 
ATOM     91  C   UNL A   1      48.276  26.359  31.808  1.00  0.00     0.010 A 
ATOM     92  C   UNL A   1      50.370  27.002  30.069  1.00  0.00     0.020 A 
ATOM     93  C   UNL A   1      49.588  26.027  32.152  1.00  0.00     0.020 A 
ATOM     94  C   UNL A   1      50.626  26.338  31.273  1.00  0.00     0.054 A 
BRANCH  94  95
ATOM     95  S   UNL A   1      52.341  25.925  31.693  1.00  0.00     0.124 S 
ATOM     96  O   UNL A   1      52.670  26.954  32.675  1.00  0.00    -0.237 OA
ATOM     97  O   UNL A   1      52.224  24.568  32.218  1.00  0.00    -0.237 OA
ATOM     98  O   UNL A   1      53.047  26.035  30.418  1.00  0.00    -0.744 OA
ENDBRANCH  94  95
ENDBRANCH  68  89
ENDBRANCH  42  43
ENDBRANCH  34  37
ENDBRANCH  32  33
ENDBRANCH   1  32
TORSDOF 17
ENDMDL
MODEL 2
REMARK VINA RESULT:     -11.9      0.576      8.033
REMARK SMILES O=C1[NH+]=C(Nc2ccc(C(=O)NCCCCNC(=O)c3ccc(-c4c5nc(c(-c6ccc(S(=O)(=O)[O-])cc6)c6ccc([nH]6)c(-c6ccc(S(=O)(=O)[O-])cc6)c6nc(c(-c7ccc(S(=O)(=O)[O-])cc7)c7ccc4[nH]7)C=C6)C=C5)cc3)c(O)c2)S/C1=C\c1ccc[nH]1
REMARK SMILES IDX 15 1 14 2 13 3 12 4 10 5 11 6 9 8 6 9 7 10 82 11 8 12 80 13
REMARK SMILES IDX 5 14 1 15 2 16 3 17 84 18 4 19 83 21 85 22 86 24 87 25 90 26
REMARK SMILES IDX 88 27 89 28 81 30 16 32 17 33 18 34 19 36 20 37 21 38 79 39
REMARK SMILES IDX 22 40 78 41 23 42 24 43 25 44 72 45 26 46 77 47 71 48 73 49
REMARK SMILES IDX 27 50 76 51 70 52 69 53 28 55 58 56 39 57 57 58 40 59 43 60
REMARK SMILES IDX 56 61 74 62 41 63 42 64 55 66 75 67 44 68 29 69 30 70 38 71
REMARK SMILES IDX 31 72 37 73 32 74 33 75 34 76 35 77 36 78 59 79 60 80 68 81
REMARK SMILES IDX 61 82 67 83 62 84 63 85 64 86 65 87 66 88 45 89 46 90 54 91
REMARK SMILES IDX 47 92 53 93 48 94 49 95 50 96 51 97 52 98
REMARK H PARENT 12 7 3 20 5 23 90 29 81 31 17 35 73 54 43 65
REMARK Flexibility Score: inf
ROOT
ATOM      1  C   UNL A   1      33.997  28.435  25.522  1.00  0.00     0.023 C 
ENDROOT
BRANCH   1   2
ATOM      2  C   UNL A   1      33.138  29.356  24.659  1.00  0.00     0.023 C 
BRANCH   2   3
ATOM      3  C   UNL A   1      31.727  29.644  25.164  1.00  0.00     0.116 C 
BRANCH   3   4
ATOM      4  N   UNL A   1      30.698  29.657  24.137  1.00  0.00    -0.352 N 
ATOM      5  C   UNL A   1      30.129  28.615  23.442  1.00  0.00     0.255 C 
ATOM      6  O   UNL A   1      29.259  28.854  22.607  1.00  0.00    -0.269 OA
ATOM      7  H   UNL A   1      30.355  30.550  23.903  1.00  0.00     0.163 HD
BRANCH   5   8
ATOM      8  C   UNL A   1      30.578  27.212  23.628  1.00  0.00     0.081 A 
ATOM      9  C   UNL A   1      31.137  24.491  24.142  1.00  0.00     0.129 A 
ATOM     10  C   UNL A   1      30.762  25.351  25.178  1.00  0.00     0.053 A 
ATOM     11  C   UNL A   1      31.300  25.028  22.860  1.00  0.00     0.098 A 
ATOM     12  C   UNL A   1      30.491  26.699  24.928  1.00  0.00     0.022 A 
ATOM     13  C   UNL A   1      31.065  26.383  22.616  1.00  0.00     0.132 A 
BRANCH   9  14
ATOM     14  N   UNL A   1      31.272  23.109  24.324  1.00  0.00    -0.234 N 
ATOM     15  O   UNL A   1      35.795  22.019  24.695  1.00  0.00    -0.240 OA
ATOM     16  C   UNL A   1      34.586  21.845  24.595  1.00  0.00     0.346 C 
ATOM     17  N   UNL A   1      33.656  22.845  24.440  1.00  0.00    -0.199 N 
ATOM     18  C   UNL A   1      33.950  20.499  24.635  1.00  0.00     0.111 C 
ATOM     19  C   UNL A   1      32.441  22.412  24.405  1.00  0.00     0.322 C 
ATOM     20  H   UNL A   1      33.893  23.797  24.364  1.00  0.00     0.316 HD
ATOM     21  S   UNL A   1      32.244  20.677  24.524  1.00  0.00     0.006 SA
ATOM     22  C   UNL A   1      34.668  19.375  24.763  1.00  0.00     0.050 C 
ATOM     23  H   UNL A   1      30.440  22.589  24.402  1.00  0.00     0.313 HD
BRANCH  22  24
ATOM     24  C   UNL A   1      34.080  18.088  24.732  1.00  0.00     0.039 A 
ATOM     25  C   UNL A   1      33.942  17.127  23.750  1.00  0.00     0.027 A 
ATOM     26  N   UNL A   1      33.498  17.599  25.876  1.00  0.00    -0.362 N 
ATOM     27  C   UNL A   1      33.223  16.044  24.307  1.00  0.00     0.020 A 
ATOM     28  C   UNL A   1      32.953  16.365  25.619  1.00  0.00     0.083 A 
ATOM     29  H   UNL A   1      33.474  18.060  26.745  1.00  0.00     0.166 HD
ENDBRANCH  22  24
ENDBRANCH   9  14
BRANCH  13  30
ATOM     30  O   UNL A   1      31.367  26.813  21.354  1.00  0.00    -0.507 OA
ATOM     31  H   UNL A   1      32.259  26.977  21.116  1.00  0.00     0.293 HD
ENDBRANCH  13  30
ENDBRANCH   5   8
ENDBRANCH   3   4
ENDBRANCH   2   3
ENDBRANCH   1   2
BRANCH   1  32
ATOM     32  C   UNL A   1      33.746  28.490  27.024  1.00  0.00     0.116 C 
BRANCH  32  33
ATOM     33  N   UNL A   1      33.665  29.844  27.556  1.00  0.00    -0.352 N 
ATOM     34  C   UNL A   1      34.613  30.592  28.218  1.00  0.00     0.251 C 
ATOM     35  H   UNL A   1      32.800  30.293  27.421  1.00  0.00     0.163 HD
ATOM     36  O   UNL A   1      34.309  31.686  28.686  1.00  0.00    -0.269 OA
BRANCH  34  37
ATOM     37  C   UNL A   1      35.982  30.062  28.402  1.00  0.00     0.039 A 
ATOM     38  C   UNL A   1      36.883  30.128  27.337  1.00  0.00     0.014 A 
ATOM     39  C   UNL A   1      36.389  29.534  29.628  1.00  0.00     0.014 A 
ATOM     40  C   UNL A   1      38.217  29.756  27.533  1.00  0.00     0.010 A 
ATOM     41  C   UNL A   1      37.735  29.259  29.850  1.00  0.00     0.010 A 
ATOM     42  C   UNL A   1      38.667  29.370  28.807  1.00  0.00    -0.014 A 
BRANCH  42  43
ATOM     43  C   UNL A   1      40.104  29.092  29.072  1.00  0.00     0.031 A 
ATOM     44  C   UNL A   1      40.696  27.752  28.717  1.00  0.00     0.074 A 
ATOM     45  C   UNL A   1      40.862  30.015  29.700  1.00  0.00     0.049 A 
ATOM     46  N   UNL A   1      41.908  27.305  28.928  1.00  0.00    -0.248 NA
ATOM     47  C   UNL A   1      39.803  26.779  28.066  1.00  0.00     0.031 C 
ATOM     48  C   UNL A   1      40.399  31.334  30.141  1.00  0.00     0.029 A 
ATOM     49  N   UNL A   1      42.180  29.986  30.085  1.00  0.00    -0.354 N 
ATOM     50  C   UNL A   1      41.915  25.997  28.456  1.00  0.00     0.074 A 
ATOM     51  C   UNL A   1      40.575  25.705  28.000  1.00  0.00     0.031 C 
ATOM     52  C   UNL A   1      41.422  31.996  30.705  1.00  0.00     0.029 A 
ATOM     53  C   UNL A   1      42.601  31.135  30.712  1.00  0.00     0.049 A 
ATOM     54  H   UNL A   1      42.769  29.213  29.924  1.00  0.00     0.167 HD
ATOM     55  C   UNL A   1      42.949  25.123  28.388  1.00  0.00     0.031 A 
ATOM     56  C   UNL A   1      43.796  31.460  31.245  1.00  0.00     0.031 A 
ATOM     57  C   UNL A   1      44.283  25.421  28.835  1.00  0.00     0.049 A 
ATOM     58  C   UNL A   1      44.926  30.469  31.170  1.00  0.00     0.074 A 
ATOM     59  C   UNL A   1      45.413  24.625  28.753  1.00  0.00     0.029 A 
ATOM     60  N   UNL A   1      44.669  26.599  29.456  1.00  0.00    -0.354 N 
ATOM     61  N   UNL A   1      44.932  29.265  30.650  1.00  0.00    -0.248 NA
ATOM     62  C   UNL A   1      46.213  30.885  31.743  1.00  0.00     0.031 C 
ATOM     63  C   UNL A   1      46.466  25.295  29.384  1.00  0.00     0.029 A 
ATOM     64  C   UNL A   1      46.011  26.539  29.790  1.00  0.00     0.049 A 
ATOM     65  H   UNL A   1      44.076  27.364  29.633  1.00  0.00     0.167 HD
ATOM     66  C   UNL A   1      46.231  28.792  30.804  1.00  0.00     0.074 A 
ATOM     67  C   UNL A   1      46.984  29.845  31.453  1.00  0.00     0.031 C 
ATOM     68  C   UNL A   1      46.751  27.594  30.438  1.00  0.00     0.031 A 
BRANCH  55  69
ATOM     69  C   UNL A   1      42.672  23.756  27.815  1.00  0.00    -0.014 A 
ATOM     70  C   UNL A   1      43.082  23.410  26.515  1.00  0.00     0.010 A 
ATOM     71  C   UNL A   1      42.025  22.787  28.606  1.00  0.00     0.010 A 
ATOM     72  C   UNL A   1      42.811  22.139  25.999  1.00  0.00     0.020 A 
ATOM     73  C   UNL A   1      41.783  21.505  28.108  1.00  0.00     0.020 A 
ATOM     74  C   UNL A   1      42.162  21.194  26.800  1.00  0.00     0.054 A 
BRANCH  74  75
ATOM     75  S   UNL A   1      41.844  19.548  26.112  1.00  0.00     0.124 S 
ATOM     76  O   UNL A   1      40.400  19.584  25.895  1.00  0.00    -0.237 OA
ATOM     77  O   UNL A   1      42.661  19.544  24.901  1.00  0.00    -0.237 OA
ATOM     78  O   UNL A   1      42.292  18.638  27.164  1.00  0.00    -0.744 OA
ENDBRANCH  74  75
ENDBRANCH  55  69
BRANCH  56  79
ATOM     79  C   UNL A   1      43.987  32.791  31.888  1.00  0.00    -0.014 A 
ATOM     80  C   UNL A   1      44.399  33.902  31.131  1.00  0.00     0.010 A 
ATOM     81  C   UNL A   1      43.741  32.958  33.264  1.00  0.00     0.010 A 
ATOM     82  C   UNL A   1      44.579  35.149  31.738  1.00  0.00     0.020 A 
ATOM     83  C   UNL A   1      43.889  34.210  33.868  1.00  0.00     0.020 A 
ATOM     84  C   UNL A   1      44.317  35.296  33.104  1.00  0.00     0.054 A 
BRANCH  84  85
ATOM     85  S   UNL A   1      44.502  36.936  33.858  1.00  0.00     0.124 S 
ATOM     86  O   UNL A   1      44.819  36.600  35.242  1.00  0.00    -0.237 OA
ATOM     87  O   UNL A   1      45.593  37.518  33.081  1.00  0.00    -0.237 OA
ATOM     88  O   UNL A   1      43.197  37.558  33.648  1.00  0.00    -0.744 OA
ENDBRANCH  84  85
ENDBRANCH  56  79
BRANCH  68  89
ATOM     89  C   UNL A   1      48.220  27.365  30.688  1.00  0.00    -0.014 A 
ATOM     90  C   UNL A   1      48.677  26.729  31.856  1.00  0.00     0.010 A 
ATOM     91  C   UNL A   1      49.153  27.741  29.705  1.00  0.00     0.010 A 
ATOM     92  C   UNL A   1      50.042  26.499  32.048  1.00  0.00     0.020 A 
ATOM     93  C   UNL A   1      50.516  27.483  29.877  1.00  0.00     0.020 A 
ATOM     94  C   UNL A   1      50.953  26.877  31.055  1.00  0.00     0.054 A 
BRANCH  94  95
ATOM     95  S   UNL A   1      52.714  26.524  31.308  1.00  0.00     0.124 S 
ATOM     96  O   UNL A   1      52.671  25.234  31.992  1.00  0.00    -0.237 OA
ATOM     97  O   UNL A   1      53.234  26.496  29.944  1.00  0.00    -0.237 OA
ATOM     98  O   UNL A   1      53.179  27.644  32.123  1.00  0.00    -0.744 OA
ENDBRANCH  94  95
ENDBRANCH  68  89
ENDBRANCH  42  43
ENDBRANCH  34  37
ENDBRANCH  32  33
ENDBRANCH   1  32
TORSDOF 17
ENDMDL
MODEL 3
REMARK VINA RESULT:     -11.9      4.433      7.775
REMARK SMILES O=C1[NH+]=C(Nc2ccc(C(=O)NCCCCNC(=O)c3ccc(-c4c5nc(c(-c6ccc(S(=O)(=O)[O-])cc6)c6ccc([nH]6)c(-c6ccc(S(=O)(=O)[O-])cc6)c6nc(c(-c7ccc(S(=O)(=O)[O-])cc7)c7ccc4[nH]7)C=C6)C=C5)cc3)c(O)c2)S/C1=C\c1ccc[nH]1
REMARK SMILES IDX 15 1 14 2 13 3 12 4 10 5 11 6 9 8 6 9 7 10 82 11 8 12 80 13
REMARK SMILES IDX 5 14 1 15 2 16 3 17 84 18 4 19 83 21 85 22 86 24 87 25 90 26
REMARK SMILES IDX 88 27 89 28 81 30 16 32 17 33 18 34 19 36 20 37 21 38 79 39
REMARK SMILES IDX 22 40 78 41 23 42 24 43 25 44 72 45 26 46 77 47 71 48 73 49
REMARK SMILES IDX 27 50 76 51 70 52 69 53 28 55 58 56 39 57 57 58 40 59 43 60
REMARK SMILES IDX 56 61 74 62 41 63 42 64 55 66 75 67 44 68 29 69 30 70 38 71
REMARK SMILES IDX 31 72 37 73 32 74 33 75 34 76 35 77 36 78 59 79 60 80 68 81
REMARK SMILES IDX 61 82 67 83 62 84 63 85 64 86 65 87 66 88 45 89 46 90 54 91
REMARK SMILES IDX 47 92 53 93 48 94 49 95 50 96 51 97 52 98
REMARK H PARENT 12 7 3 20 5 23 90 29 81 31 17 35 73 54 43 65
REMARK Flexibility Score: inf
ROOT
ATOM      1  C   UNL A   1      34.982  33.151  30.350  1.00  0.00     0.023 C 
ENDROOT
BRANCH   1   2
ATOM      2  C   UNL A   1      36.025  32.461  31.226  1.00  0.00     0.023 C 
BRANCH   2   3
ATOM      3  C   UNL A   1      36.943  33.370  32.037  1.00  0.00     0.116 C 
BRANCH   3   4
ATOM      4  N   UNL A   1      36.751  33.310  33.478  1.00  0.00    -0.352 N 
ATOM      5  C   UNL A   1      37.338  32.490  34.414  1.00  0.00     0.255 C 
ATOM      6  O   UNL A   1      37.028  32.613  35.597  1.00  0.00    -0.269 OA
ATOM      7  H   UNL A   1      36.102  33.957  33.838  1.00  0.00     0.163 HD
BRANCH   5   8
ATOM      8  C   UNL A   1      38.290  31.418  34.029  1.00  0.00     0.081 A 
ATOM      9  C   UNL A   1      40.226  29.404  33.612  1.00  0.00     0.129 A 
ATOM     10  C   UNL A   1      40.597  30.660  34.102  1.00  0.00     0.053 A 
ATOM     11  C   UNL A   1      38.886  29.195  33.264  1.00  0.00     0.098 A 
ATOM     12  C   UNL A   1      39.642  31.660  34.303  1.00  0.00     0.022 A 
ATOM     13  C   UNL A   1      37.938  30.207  33.430  1.00  0.00     0.132 A 
BRANCH   9  14
ATOM     14  N   UNL A   1      41.124  28.332  33.537  1.00  0.00    -0.234 N 
ATOM     15  O   UNL A   1      41.519  26.328  37.733  1.00  0.00    -0.240 OA
ATOM     16  C   UNL A   1      41.759  26.558  36.554  1.00  0.00     0.346 C 
ATOM     17  N   UNL A   1      41.155  27.538  35.803  1.00  0.00    -0.199 N 
ATOM     18  C   UNL A   1      42.754  25.786  35.759  1.00  0.00     0.111 C 
ATOM     19  C   UNL A   1      41.545  27.551  34.572  1.00  0.00     0.322 C 
ATOM     20  H   UNL A   1      40.491  28.167  36.166  1.00  0.00     0.316 HD
ATOM     21  S   UNL A   1      42.759  26.367  34.142  1.00  0.00     0.006 SA
ATOM     22  C   UNL A   1      43.477  24.792  36.294  1.00  0.00     0.050 C 
ATOM     23  H   UNL A   1      41.489  28.122  32.647  1.00  0.00     0.313 HD
BRANCH  22  24
ATOM     24  C   UNL A   1      44.473  24.099  35.567  1.00  0.00     0.039 A 
ATOM     25  C   UNL A   1      45.719  24.450  35.084  1.00  0.00     0.027 A 
ATOM     26  N   UNL A   1      44.250  22.787  35.223  1.00  0.00    -0.362 N 
ATOM     27  C   UNL A   1      46.244  23.332  34.396  1.00  0.00     0.020 A 
ATOM     28  C   UNL A   1      45.314  22.321  34.489  1.00  0.00     0.083 A 
ATOM     29  H   UNL A   1      43.453  22.264  35.464  1.00  0.00     0.166 HD
ENDBRANCH  22  24
ENDBRANCH   9  14
BRANCH  13  30
ATOM     30  O   UNL A   1      36.689  29.925  32.951  1.00  0.00    -0.507 OA
ATOM     31  H   UNL A   1      36.506  29.079  32.591  1.00  0.00     0.293 HD
ENDBRANCH  13  30
ENDBRANCH   5   8
ENDBRANCH   3   4
ENDBRANCH   2   3
ENDBRANCH   1   2
BRANCH   1  32
ATOM     32  C   UNL A   1      35.148  32.983  28.844  1.00  0.00     0.116 C 
BRANCH  32  33
ATOM     33  N   UNL A   1      34.249  31.996  28.262  1.00  0.00    -0.352 N 
ATOM     34  C   UNL A   1      34.483  30.685  27.912  1.00  0.00     0.251 C 
ATOM     35  H   UNL A   1      33.334  32.315  28.092  1.00  0.00     0.163 HD
ATOM     36  O   UNL A   1      33.613  30.045  27.329  1.00  0.00    -0.269 OA
BRANCH  34  37
ATOM     37  C   UNL A   1      35.793  30.061  28.202  1.00  0.00     0.039 A 
ATOM     38  C   UNL A   1      36.805  30.133  27.243  1.00  0.00     0.014 A 
ATOM     39  C   UNL A   1      36.035  29.436  29.427  1.00  0.00     0.014 A 
ATOM     40  C   UNL A   1      38.087  29.667  27.552  1.00  0.00     0.010 A 
ATOM     41  C   UNL A   1      37.332  29.065  29.768  1.00  0.00     0.010 A 
ATOM     42  C   UNL A   1      38.376  29.179  28.838  1.00  0.00    -0.014 A 
BRANCH  42  43
ATOM     43  C   UNL A   1      39.758  28.796  29.231  1.00  0.00     0.031 A 
ATOM     44  C   UNL A   1      40.650  29.788  29.932  1.00  0.00     0.074 A 
ATOM     45  C   UNL A   1      40.240  27.582  28.892  1.00  0.00     0.049 A 
ATOM     46  N   UNL A   1      41.901  29.658  30.296  1.00  0.00    -0.248 NA
ATOM     47  C   UNL A   1      40.071  31.106  30.239  1.00  0.00     0.031 C 
ATOM     48  C   UNL A   1      39.496  26.546  28.170  1.00  0.00     0.029 A 
ATOM     49  N   UNL A   1      41.473  27.013  29.103  1.00  0.00    -0.354 N 
ATOM     50  C   UNL A   1      42.261  30.880  30.854  1.00  0.00     0.074 A 
ATOM     51  C   UNL A   1      41.117  31.754  30.730  1.00  0.00     0.031 C 
ATOM     52  C   UNL A   1      40.276  25.462  28.026  1.00  0.00     0.029 A 
ATOM     53  C   UNL A   1      41.589  25.739  28.601  1.00  0.00     0.049 A 
ATOM     54  H   UNL A   1      42.205  27.476  29.571  1.00  0.00     0.167 HD
ATOM     55  C   UNL A   1      43.431  31.237  31.436  1.00  0.00     0.031 A 
ATOM     56  C   UNL A   1      42.635  24.888  28.591  1.00  0.00     0.031 A 
ATOM     57  C   UNL A   1      44.565  30.360  31.564  1.00  0.00     0.049 A 
ATOM     58  C   UNL A   1      43.929  25.310  29.231  1.00  0.00     0.074 A 
ATOM     59  C   UNL A   1      45.773  30.608  32.192  1.00  0.00     0.029 A 
ATOM     60  N   UNL A   1      44.637  29.075  31.051  1.00  0.00    -0.354 N 
ATOM     61  N   UNL A   1      44.224  26.444  29.822  1.00  0.00    -0.248 NA
ATOM     62  C   UNL A   1      45.028  24.335  29.215  1.00  0.00     0.031 C 
ATOM     63  C   UNL A   1      46.601  29.497  32.000  1.00  0.00     0.029 A 
ATOM     64  C   UNL A   1      45.881  28.528  31.320  1.00  0.00     0.049 A 
ATOM     65  H   UNL A   1      43.912  28.618  30.566  1.00  0.00     0.167 HD
ATOM     66  C   UNL A   1      45.531  26.306  30.276  1.00  0.00     0.074 A 
ATOM     67  C   UNL A   1      45.964  24.975  29.903  1.00  0.00     0.031 C 
ATOM     68  C   UNL A   1      46.302  27.201  30.943  1.00  0.00     0.031 A 
BRANCH  55  69
ATOM     69  C   UNL A   1      43.546  32.642  31.970  1.00  0.00    -0.014 A 
ATOM     70  C   UNL A   1      43.176  32.955  33.291  1.00  0.00     0.010 A 
ATOM     71  C   UNL A   1      44.070  33.659  31.151  1.00  0.00     0.010 A 
ATOM     72  C   UNL A   1      43.284  34.265  33.767  1.00  0.00     0.020 A 
ATOM     73  C   UNL A   1      44.213  34.962  31.632  1.00  0.00     0.020 A 
ATOM     74  C   UNL A   1      43.802  35.261  32.933  1.00  0.00     0.054 A 
BRANCH  74  75
ATOM     75  S   UNL A   1      43.951  36.946  33.585  1.00  0.00     0.124 S 
ATOM     76  O   UNL A   1      44.950  36.775  34.637  1.00  0.00    -0.237 OA
ATOM     77  O   UNL A   1      44.393  37.703  32.417  1.00  0.00    -0.237 OA
ATOM     78  O   UNL A   1      42.603  37.260  34.053  1.00  0.00    -0.744 OA
ENDBRANCH  74  75
ENDBRANCH  55  69
BRANCH  56  79
ATOM     79  C   UNL A   1      42.495  23.544  27.959  1.00  0.00    -0.014 A 
ATOM     80  C   UNL A   1      42.949  23.317  26.648  1.00  0.00     0.010 A 
ATOM     81  C   UNL A   1      41.920  22.478  28.675  1.00  0.00     0.010 A 
ATOM     82  C   UNL A   1      42.814  22.056  26.058  1.00  0.00     0.020 A 
ATOM     83  C   UNL A   1      41.813  21.208  28.101  1.00  0.00     0.020 A 
ATOM     84  C   UNL A   1      42.251  21.008  26.791  1.00  0.00     0.054 A 
BRANCH  84  85
ATOM     85  S   UNL A   1      42.139  19.367  26.025  1.00  0.00     0.124 S 
ATOM     86  O   UNL A   1      42.990  19.522  24.848  1.00  0.00    -0.237 OA
ATOM     87  O   UNL A   1      42.661  18.494  27.073  1.00  0.00    -0.237 OA
ATOM     88  O   UNL A   1      40.712  19.214  25.750  1.00  0.00    -0.744 OA
ENDBRANCH  84  85
ENDBRANCH  56  79
BRANCH  68  89
ATOM     89  C   UNL A   1      47.683  26.762  31.357  1.00  0.00    -0.014 A 
ATOM     90  C   UNL A   1      48.781  26.868  30.486  1.00  0.00     0.010 A 
ATOM     91  C   UNL A   1      47.892  26.292  32.667  1.00  0.00     0.010 A 
ATOM     92  C   UNL A   1      50.057  26.483  30.907  1.00  0.00     0.020 A 
ATOM     93  C   UNL A   1      49.172  25.939  33.103  1.00  0.00     0.020 A 
ATOM     94  C   UNL A   1      50.244  26.023  32.215  1.00  0.00     0.054 A 
BRANCH  94  95
ATOM     95  S   UNL A   1      51.919  25.577  32.751  1.00  0.00     0.124 S 
ATOM     96  O   UNL A   1      52.199  26.599  33.756  1.00  0.00    -0.237 OA
ATOM     97  O   UNL A   1      51.740  24.222  33.264  1.00  0.00    -0.237 OA
ATOM     98  O   UNL A   1      52.712  25.674  31.528  1.00  0.00    -0.744 OA
ENDBRANCH  94  95
ENDBRANCH  68  89
ENDBRANCH  42  43
ENDBRANCH  34  37
ENDBRANCH  32  33
ENDBRANCH   1  32
TORSDOF 17
ENDMDL
