MODEL 1
REMARK VINA RESULT:     -11.1      0.000      0.000
REMARK SMILES Cc1cc(C(=O)N[C@H]2C=C[C@H](C(=O)NCCCCNC(=O)c3ccc(-c4c5nc(c(-c6ccc(S(=O)(=O)[O-])cc6)c6ccc([nH]6)c(-c6ccc(S(=O)(=O)[O-])cc6)c6nc(c(-c7ccc(S(=O)(=O)[O-])cc7)c7ccc4[nH]7)C=C6)C=C5)cc3)C2)ccc1F
REMARK SMILES IDX 17 1 16 2 15 3 14 4 12 5 13 6 11 8 8 9 9 10 82 11 10 12 7 13
REMARK SMILES IDX 5 14 6 15 4 17 1 18 2 19 3 20 85 21 84 22 86 23 83 24 18 25
REMARK SMILES IDX 19 26 20 27 21 29 22 30 23 31 81 32 24 33 80 34 25 35 26 36
REMARK SMILES IDX 27 37 74 38 28 39 79 40 73 41 75 42 29 43 78 44 72 45 71 46
REMARK SMILES IDX 30 48 60 49 41 50 59 51 42 52 45 53 58 54 76 55 43 56 44 57
REMARK SMILES IDX 57 59 77 60 46 61 31 62 32 63 40 64 33 65 39 66 34 67 35 68
REMARK SMILES IDX 36 69 37 70 38 71 61 72 62 73 70 74 63 75 69 76 64 77 65 78
REMARK SMILES IDX 66 79 67 80 68 81 47 82 48 83 56 84 49 85 55 86 50 87 51 88
REMARK SMILES IDX 52 89 53 90 54 91
REMARK H PARENT 14 7 7 16 19 28 75 47 45 58
REMARK Flexibility Score: inf
ROOT
ATOM      1  C   UNL A   1      32.398  28.240  26.321  1.00  0.00     0.023 C 
ENDROOT
BRANCH   1   2
ATOM      2  C   UNL A   1      31.899  29.166  25.211  1.00  0.00     0.023 C 
BRANCH   2   3
ATOM      3  C   UNL A   1      31.044  28.492  24.146  1.00  0.00     0.116 C 
BRANCH   3   4
ATOM      4  N   UNL A   1      31.820  27.592  23.324  1.00  0.00    -0.356 N 
ATOM      5  C   UNL A   1      31.703  26.270  23.055  1.00  0.00     0.227 C 
ATOM      6  O   UNL A   1      32.566  25.807  22.299  1.00  0.00    -0.274 OA
ATOM      7  H   UNL A   1      32.582  28.023  22.874  1.00  0.00     0.163 HD
BRANCH   5   8
ATOM      8  C   UNL A   1      30.621  25.349  23.669  1.00  0.00     0.103 C 
ATOM      9  C   UNL A   1      31.886  24.102  25.289  1.00  0.00     0.106 C 
ATOM     10  C   UNL A   1      31.320  23.173  24.267  1.00  0.00    -0.006 C 
ATOM     11  C   UNL A   1      30.889  25.260  25.187  1.00  0.00     0.047 C 
ATOM     12  C   UNL A   1      30.632  23.875  23.356  1.00  0.00    -0.016 C 
BRANCH   9  13
ATOM     13  N   UNL A   1      31.969  23.488  26.584  1.00  0.00    -0.346 N 
ATOM     14  C   UNL A   1      32.972  22.729  27.140  1.00  0.00     0.251 C 
ATOM     15  O   UNL A   1      32.819  22.325  28.294  1.00  0.00    -0.269 OA
ATOM     16  H   UNL A   1      31.185  23.632  27.163  1.00  0.00     0.164 HD
BRANCH  14  17
ATOM     17  C   UNL A   1      34.261  22.444  26.441  1.00  0.00     0.040 A 
ATOM     18  C   UNL A   1      37.781  23.818  25.929  1.00  0.00     0.047 C 
ATOM     19  C   UNL A   1      36.576  22.932  25.830  1.00  0.00    -0.015 A 
ATOM     20  C   UNL A   1      35.350  23.323  26.392  1.00  0.00     0.020 A 
ATOM     21  C   UNL A   1      36.658  21.693  25.198  1.00  0.00     0.126 A 
ATOM     22  C   UNL A   1      35.560  20.841  25.148  1.00  0.00     0.040 A 
ATOM     23  F   UNL A   1      37.806  21.309  24.624  1.00  0.00    -0.207 F 
ATOM     24  C   UNL A   1      34.370  21.209  25.781  1.00  0.00     0.017 A 
ENDBRANCH  14  17
ENDBRANCH   9  13
ENDBRANCH   5   8
ENDBRANCH   3   4
ENDBRANCH   2   3
ENDBRANCH   1   2
BRANCH   1  25
ATOM     25  C   UNL A   1      33.659  28.698  27.051  1.00  0.00     0.116 C 
BRANCH  25  26
ATOM     26  N   UNL A   1      33.565  30.057  27.563  1.00  0.00    -0.352 N 
ATOM     27  C   UNL A   1      34.497  30.798  28.247  1.00  0.00     0.251 C 
ATOM     28  H   UNL A   1      32.709  30.512  27.393  1.00  0.00     0.163 HD
ATOM     29  O   UNL A   1      34.189  31.898  28.696  1.00  0.00    -0.269 OA
BRANCH  27  30
ATOM     30  C   UNL A   1      35.854  30.255  28.469  1.00  0.00     0.039 A 
ATOM     31  C   UNL A   1      36.799  30.371  27.446  1.00  0.00     0.014 A 
ATOM     32  C   UNL A   1      36.200  29.651  29.680  1.00  0.00     0.014 A 
ATOM     33  C   UNL A   1      38.109  29.943  27.665  1.00  0.00     0.010 A 
ATOM     34  C   UNL A   1      37.523  29.292  29.921  1.00  0.00     0.010 A 
ATOM     35  C   UNL A   1      38.492  29.434  28.917  1.00  0.00    -0.014 A 
BRANCH  35  36
ATOM     36  C   UNL A   1      39.900  29.050  29.190  1.00  0.00     0.031 A 
ATOM     37  C   UNL A   1      40.851  30.039  29.810  1.00  0.00     0.074 A 
ATOM     38  C   UNL A   1      40.339  27.827  28.830  1.00  0.00     0.049 A 
ATOM     39  N   UNL A   1      42.120  29.896  30.093  1.00  0.00    -0.248 NA
ATOM     40  C   UNL A   1      40.310  31.370  30.133  1.00  0.00     0.031 C 
ATOM     41  C   UNL A   1      39.530  26.794  28.176  1.00  0.00     0.029 A 
ATOM     42  N   UNL A   1      41.575  27.243  28.961  1.00  0.00    -0.354 N 
ATOM     43  C   UNL A   1      42.532  31.117  30.612  1.00  0.00     0.074 A 
ATOM     44  C   UNL A   1      41.393  32.006  30.554  1.00  0.00     0.031 C 
ATOM     45  C   UNL A   1      40.281  25.696  27.994  1.00  0.00     0.029 A 
ATOM     46  C   UNL A   1      41.631  25.955  28.483  1.00  0.00     0.049 A 
ATOM     47  H   UNL A   1      42.348  27.705  29.360  1.00  0.00     0.167 HD
ATOM     48  C   UNL A   1      43.742  31.463  31.115  1.00  0.00     0.031 A 
ATOM     49  C   UNL A   1      42.655  25.080  28.444  1.00  0.00     0.031 A 
ATOM     50  C   UNL A   1      44.871  30.574  31.181  1.00  0.00     0.049 A 
ATOM     51  C   UNL A   1      43.988  25.487  29.009  1.00  0.00     0.074 A 
ATOM     52  C   UNL A   1      46.125  30.813  31.717  1.00  0.00     0.029 A 
ATOM     53  N   UNL A   1      44.884  29.274  30.700  1.00  0.00    -0.354 N 
ATOM     54  N   UNL A   1      44.339  26.627  29.553  1.00  0.00    -0.248 NA
ATOM     55  C   UNL A   1      45.059  24.482  28.967  1.00  0.00     0.031 C 
ATOM     56  C   UNL A   1      46.910  29.672  31.518  1.00  0.00     0.029 A 
ATOM     57  C   UNL A   1      46.128  28.704  30.910  1.00  0.00     0.049 A 
ATOM     58  H   UNL A   1      44.120  28.822  30.272  1.00  0.00     0.167 HD
ATOM     59  C   UNL A   1      45.664  26.466  29.946  1.00  0.00     0.074 A 
ATOM     60  C   UNL A   1      46.044  25.113  29.590  1.00  0.00     0.031 C 
ATOM     61  C   UNL A   1      46.491  27.357  30.549  1.00  0.00     0.031 A 
BRANCH  48  62
ATOM     62  C   UNL A   1      43.900  32.868  31.636  1.00  0.00    -0.014 A 
ATOM     63  C   UNL A   1      43.631  33.174  32.983  1.00  0.00     0.010 A 
ATOM     64  C   UNL A   1      44.351  33.888  30.780  1.00  0.00     0.010 A 
ATOM     65  C   UNL A   1      43.765  34.483  33.451  1.00  0.00     0.020 A 
ATOM     66  C   UNL A   1      44.515  35.194  31.253  1.00  0.00     0.020 A 
ATOM     67  C   UNL A   1      44.202  35.486  32.582  1.00  0.00     0.054 A 
BRANCH  67  68
ATOM     68  S   UNL A   1      44.382  37.174  33.221  1.00  0.00     0.124 S 
ATOM     69  O   UNL A   1      45.808  37.224  33.538  1.00  0.00    -0.237 OA
ATOM     70  O   UNL A   1      43.962  37.993  32.086  1.00  0.00    -0.237 OA
ATOM     71  O   UNL A   1      43.486  37.206  34.374  1.00  0.00    -0.744 OA
ENDBRANCH  67  68
ENDBRANCH  48  62
BRANCH  49  72
ATOM     72  C   UNL A   1      42.452  23.722  27.871  1.00  0.00    -0.014 A 
ATOM     73  C   UNL A   1      42.820  23.446  26.542  1.00  0.00     0.010 A 
ATOM     74  C   UNL A   1      41.892  22.694  28.651  1.00  0.00     0.010 A 
ATOM     75  C   UNL A   1      42.611  22.176  25.997  1.00  0.00     0.020 A 
ATOM     76  C   UNL A   1      41.707  21.415  28.119  1.00  0.00     0.020 A 
ATOM     77  C   UNL A   1      42.056  21.168  26.789  1.00  0.00     0.054 A 
BRANCH  77  78
ATOM     78  S   UNL A   1      41.835  19.514  26.076  1.00  0.00     0.124 S 
ATOM     79  O   UNL A   1      40.399  19.484  25.819  1.00  0.00    -0.237 OA
ATOM     80  O   UNL A   1      42.690  19.564  24.891  1.00  0.00    -0.237 OA
ATOM     81  O   UNL A   1      42.303  18.622  27.134  1.00  0.00    -0.744 OA
ENDBRANCH  77  78
ENDBRANCH  49  72
BRANCH  61  82
ATOM     82  C   UNL A   1      47.877  26.884  30.896  1.00  0.00    -0.014 A 
ATOM     83  C   UNL A   1      48.970  27.146  30.053  1.00  0.00     0.010 A 
ATOM     84  C   UNL A   1      48.092  26.201  32.107  1.00  0.00     0.010 A 
ATOM     85  C   UNL A   1      50.249  26.699  30.395  1.00  0.00     0.020 A 
ATOM     86  C   UNL A   1      49.373  25.777  32.467  1.00  0.00     0.020 A 
ATOM     87  C   UNL A   1      50.443  26.014  31.599  1.00  0.00     0.054 A 
BRANCH  87  88
ATOM     88  S   UNL A   1      52.116  25.470  32.038  1.00  0.00     0.124 S 
ATOM     89  O   UNL A   1      52.869  25.804  30.832  1.00  0.00    -0.237 OA
ATOM     90  O   UNL A   1      52.420  26.281  33.213  1.00  0.00    -0.237 OA
ATOM     91  O   UNL A   1      51.958  24.041  32.299  1.00  0.00    -0.744 OA
ENDBRANCH  87  88
ENDBRANCH  61  82
ENDBRANCH  35  36
ENDBRANCH  27  30
ENDBRANCH  25  26
ENDBRANCH   1  25
TORSDOF 16
ENDMDL
MODEL 2
REMARK VINA RESULT:     -11.0      1.716      3.133
REMARK SMILES Cc1cc(C(=O)N[C@H]2C=C[C@H](C(=O)NCCCCNC(=O)c3ccc(-c4c5nc(c(-c6ccc(S(=O)(=O)[O-])cc6)c6ccc([nH]6)c(-c6ccc(S(=O)(=O)[O-])cc6)c6nc(c(-c7ccc(S(=O)(=O)[O-])cc7)c7ccc4[nH]7)C=C6)C=C5)cc3)C2)ccc1F
REMARK SMILES IDX 17 1 16 2 15 3 14 4 12 5 13 6 11 8 8 9 9 10 82 11 10 12 7 13
REMARK SMILES IDX 5 14 6 15 4 17 1 18 2 19 3 20 85 21 84 22 86 23 83 24 18 25
REMARK SMILES IDX 19 26 20 27 21 29 22 30 23 31 81 32 24 33 80 34 25 35 26 36
REMARK SMILES IDX 27 37 74 38 28 39 79 40 73 41 75 42 29 43 78 44 72 45 71 46
REMARK SMILES IDX 30 48 60 49 41 50 59 51 42 52 45 53 58 54 76 55 43 56 44 57
REMARK SMILES IDX 57 59 77 60 46 61 31 62 32 63 40 64 33 65 39 66 34 67 35 68
REMARK SMILES IDX 36 69 37 70 38 71 61 72 62 73 70 74 63 75 69 76 64 77 65 78
REMARK SMILES IDX 66 79 67 80 68 81 47 82 48 83 56 84 49 85 55 86 50 87 51 88
REMARK SMILES IDX 52 89 53 90 54 91
REMARK H PARENT 14 7 7 16 19 28 75 47 45 58
REMARK Flexibility Score: inf
ROOT
ATOM      1  C   UNL A   1      32.088  27.751  27.287  1.00  0.00     0.023 C 
ENDROOT
BRANCH   1   2
ATOM      2  C   UNL A   1      31.874  26.678  26.218  1.00  0.00     0.023 C 
BRANCH   2   3
ATOM      3  C   UNL A   1      32.525  25.334  26.515  1.00  0.00     0.116 C 
BRANCH   3   4
ATOM      4  N   UNL A   1      31.581  24.245  26.406  1.00  0.00    -0.356 N 
ATOM      5  C   UNL A   1      31.647  23.037  25.799  1.00  0.00     0.227 C 
ATOM      6  O   UNL A   1      30.630  22.340  25.897  1.00  0.00    -0.274 OA
ATOM      7  H   UNL A   1      30.725  24.415  26.861  1.00  0.00     0.163 HD
BRANCH   5   8
ATOM      8  C   UNL A   1      32.862  22.541  24.977  1.00  0.00     0.103 C 
ATOM      9  C   UNL A   1      32.275  23.232  22.750  1.00  0.00     0.106 C 
ATOM     10  C   UNL A   1      32.395  21.745  22.802  1.00  0.00    -0.006 C 
ATOM     11  C   UNL A   1      33.185  23.620  23.920  1.00  0.00     0.047 C 
ATOM     12  C   UNL A   1      32.703  21.364  24.049  1.00  0.00    -0.016 C 
BRANCH   9  13
ATOM     13  N   UNL A   1      32.675  23.757  21.475  1.00  0.00    -0.346 N 
ATOM     14  C   UNL A   1      32.696  25.055  21.021  1.00  0.00     0.251 C 
ATOM     15  O   UNL A   1      33.107  25.261  19.878  1.00  0.00    -0.269 OA
ATOM     16  H   UNL A   1      32.980  23.083  20.825  1.00  0.00     0.164 HD
BRANCH  14  17
ATOM     17  C   UNL A   1      32.321  26.223  21.874  1.00  0.00     0.040 A 
ATOM     18  C   UNL A   1      33.810  29.206  23.726  1.00  0.00     0.047 C 
ATOM     19  C   UNL A   1      32.813  28.223  23.188  1.00  0.00    -0.015 A 
ATOM     20  C   UNL A   1      33.237  27.068  22.512  1.00  0.00     0.020 A 
ATOM     21  C   UNL A   1      31.446  28.453  23.329  1.00  0.00     0.126 A 
ATOM     22  C   UNL A   1      30.514  27.575  22.787  1.00  0.00     0.040 A 
ATOM     23  F   UNL A   1      31.014  29.530  23.998  1.00  0.00    -0.207 F 
ATOM     24  C   UNL A   1      30.950  26.472  22.048  1.00  0.00     0.017 A 
ENDBRANCH  14  17
ENDBRANCH   9  13
ENDBRANCH   5   8
ENDBRANCH   3   4
ENDBRANCH   2   3
ENDBRANCH   1   2
BRANCH   1  25
ATOM     25  C   UNL A   1      33.452  28.437  27.276  1.00  0.00     0.116 C 
BRANCH  25  26
ATOM     26  N   UNL A   1      33.383  29.860  27.573  1.00  0.00    -0.352 N 
ATOM     27  C   UNL A   1      34.345  30.691  28.092  1.00  0.00     0.251 C 
ATOM     28  H   UNL A   1      32.520  30.289  27.373  1.00  0.00     0.163 HD
ATOM     29  O   UNL A   1      34.058  31.850  28.377  1.00  0.00    -0.269 OA
BRANCH  27  30
ATOM     30  C   UNL A   1      35.710  30.179  28.335  1.00  0.00     0.039 A 
ATOM     31  C   UNL A   1      36.629  30.189  27.282  1.00  0.00     0.014 A 
ATOM     32  C   UNL A   1      36.089  29.706  29.594  1.00  0.00     0.014 A 
ATOM     33  C   UNL A   1      37.946  29.790  27.512  1.00  0.00     0.010 A 
ATOM     34  C   UNL A   1      37.420  29.379  29.838  1.00  0.00     0.010 A 
ATOM     35  C   UNL A   1      38.363  29.417  28.800  1.00  0.00    -0.014 A 
BRANCH  35  36
ATOM     36  C   UNL A   1      39.780  29.069  29.077  1.00  0.00     0.031 A 
ATOM     37  C   UNL A   1      40.709  30.088  29.679  1.00  0.00     0.074 A 
ATOM     38  C   UNL A   1      40.244  27.850  28.736  1.00  0.00     0.049 A 
ATOM     39  N   UNL A   1      41.982  29.977  29.962  1.00  0.00    -0.248 NA
ATOM     40  C   UNL A   1      40.140  31.412  29.981  1.00  0.00     0.031 C 
ATOM     41  C   UNL A   1      39.457  26.788  28.100  1.00  0.00     0.029 A 
ATOM     42  N   UNL A   1      41.493  27.295  28.874  1.00  0.00    -0.354 N 
ATOM     43  C   UNL A   1      42.368  31.215  30.461  1.00  0.00     0.074 A 
ATOM     44  C   UNL A   1      41.209  32.078  30.391  1.00  0.00     0.031 C 
ATOM     45  C   UNL A   1      40.231  25.704  27.934  1.00  0.00     0.029 A 
ATOM     46  C   UNL A   1      41.576  26.001  28.416  1.00  0.00     0.049 A 
ATOM     47  H   UNL A   1      42.256  27.780  29.263  1.00  0.00     0.167 HD
ATOM     48  C   UNL A   1      43.571  31.595  30.956  1.00  0.00     0.031 A 
ATOM     49  C   UNL A   1      42.619  25.148  28.389  1.00  0.00     0.031 A 
ATOM     50  C   UNL A   1      44.719  30.732  31.033  1.00  0.00     0.049 A 
ATOM     51  C   UNL A   1      43.944  25.593  28.944  1.00  0.00     0.074 A 
ATOM     52  C   UNL A   1      45.968  31.007  31.563  1.00  0.00     0.029 A 
ATOM     53  N   UNL A   1      44.759  29.425  30.573  1.00  0.00    -0.354 N 
ATOM     54  N   UNL A   1      44.271  26.749  29.470  1.00  0.00    -0.248 NA
ATOM     55  C   UNL A   1      45.036  24.610  28.917  1.00  0.00     0.031 C 
ATOM     56  C   UNL A   1      46.778  29.880  31.380  1.00  0.00     0.029 A 
ATOM     57  C   UNL A   1      46.016  28.885  30.790  1.00  0.00     0.049 A 
ATOM     58  H   UNL A   1      44.005  28.950  30.154  1.00  0.00     0.167 HD
ATOM     59  C   UNL A   1      45.600  26.623  29.863  1.00  0.00     0.074 A 
ATOM     60  C   UNL A   1      46.008  25.273  29.528  1.00  0.00     0.031 C 
ATOM     61  C   UNL A   1      46.407  27.541  30.449  1.00  0.00     0.031 A 
BRANCH  48  62
ATOM     62  C   UNL A   1      43.699  33.011  31.453  1.00  0.00    -0.014 A 
ATOM     63  C   UNL A   1      43.289  33.361  32.754  1.00  0.00     0.010 A 
ATOM     64  C   UNL A   1      44.264  33.998  30.626  1.00  0.00     0.010 A 
ATOM     65  C   UNL A   1      43.397  34.680  33.199  1.00  0.00     0.020 A 
ATOM     66  C   UNL A   1      44.401  35.314  31.079  1.00  0.00     0.020 A 
ATOM     67  C   UNL A   1      43.948  35.649  32.357  1.00  0.00     0.054 A 
BRANCH  67  68
ATOM     68  S   UNL A   1      44.091  37.352  32.968  1.00  0.00     0.124 S 
ATOM     69  O   UNL A   1      43.118  37.361  34.059  1.00  0.00    -0.237 OA
ATOM     70  O   UNL A   1      45.492  37.430  33.376  1.00  0.00    -0.237 OA
ATOM     71  O   UNL A   1      43.735  38.167  31.809  1.00  0.00    -0.744 OA
ENDBRANCH  67  68
ENDBRANCH  48  62
BRANCH  49  72
ATOM     72  C   UNL A   1      42.444  23.777  27.838  1.00  0.00    -0.014 A 
ATOM     73  C   UNL A   1      42.671  23.522  26.474  1.00  0.00     0.010 A 
ATOM     74  C   UNL A   1      42.054  22.715  28.675  1.00  0.00     0.010 A 
ATOM     75  C   UNL A   1      42.488  22.238  25.952  1.00  0.00     0.020 A 
ATOM     76  C   UNL A   1      41.897  21.424  28.163  1.00  0.00     0.020 A 
ATOM     77  C   UNL A   1      42.102  21.197  26.800  1.00  0.00     0.054 A 
BRANCH  77  78
ATOM     78  S   UNL A   1      41.914  19.529  26.111  1.00  0.00     0.124 S 
ATOM     79  O   UNL A   1      42.378  18.691  27.212  1.00  0.00    -0.237 OA
ATOM     80  O   UNL A   1      40.482  19.465  25.825  1.00  0.00    -0.237 OA
ATOM     81  O   UNL A   1      42.775  19.549  24.931  1.00  0.00    -0.744 OA
ENDBRANCH  77  78
ENDBRANCH  49  72
BRANCH  61  82
ATOM     82  C   UNL A   1      47.804  27.104  30.801  1.00  0.00    -0.014 A 
ATOM     83  C   UNL A   1      48.901  27.443  29.991  1.00  0.00     0.010 A 
ATOM     84  C   UNL A   1      48.024  26.376  31.985  1.00  0.00     0.010 A 
ATOM     85  C   UNL A   1      50.190  27.028  30.337  1.00  0.00     0.020 A 
ATOM     86  C   UNL A   1      49.314  25.984  32.350  1.00  0.00     0.020 A 
ATOM     87  C   UNL A   1      50.388  26.298  31.514  1.00  0.00     0.054 A 
BRANCH  87  88
ATOM     88  S   UNL A   1      52.073  25.796  31.959  1.00  0.00     0.124 S 
ATOM     89  O   UNL A   1      51.853  24.471  32.533  1.00  0.00    -0.237 OA
ATOM     90  O   UNL A   1      52.765  25.817  30.672  1.00  0.00    -0.237 OA
ATOM     91  O   UNL A   1      52.501  26.823  32.906  1.00  0.00    -0.744 OA
ENDBRANCH  87  88
ENDBRANCH  61  82
ENDBRANCH  35  36
ENDBRANCH  27  30
ENDBRANCH  25  26
ENDBRANCH   1  25
TORSDOF 16
ENDMDL
MODEL 3
REMARK VINA RESULT:     -10.8      3.008      4.220
REMARK SMILES Cc1cc(C(=O)N[C@H]2C=C[C@H](C(=O)NCCCCNC(=O)c3ccc(-c4c5nc(c(-c6ccc(S(=O)(=O)[O-])cc6)c6ccc([nH]6)c(-c6ccc(S(=O)(=O)[O-])cc6)c6nc(c(-c7ccc(S(=O)(=O)[O-])cc7)c7ccc4[nH]7)C=C6)C=C5)cc3)C2)ccc1F
REMARK SMILES IDX 17 1 16 2 15 3 14 4 12 5 13 6 11 8 8 9 9 10 82 11 10 12 7 13
REMARK SMILES IDX 5 14 6 15 4 17 1 18 2 19 3 20 85 21 84 22 86 23 83 24 18 25
REMARK SMILES IDX 19 26 20 27 21 29 22 30 23 31 81 32 24 33 80 34 25 35 26 36
REMARK SMILES IDX 27 37 74 38 28 39 79 40 73 41 75 42 29 43 78 44 72 45 71 46
REMARK SMILES IDX 30 48 60 49 41 50 59 51 42 52 45 53 58 54 76 55 43 56 44 57
REMARK SMILES IDX 57 59 77 60 46 61 31 62 32 63 40 64 33 65 39 66 34 67 35 68
REMARK SMILES IDX 36 69 37 70 38 71 61 72 62 73 70 74 63 75 69 76 64 77 65 78
REMARK SMILES IDX 66 79 67 80 68 81 47 82 48 83 56 84 49 85 55 86 50 87 51 88
REMARK SMILES IDX 52 89 53 90 54 91
REMARK H PARENT 14 7 7 16 19 28 75 47 45 58
REMARK Flexibility Score: inf
ROOT
ATOM      1  C   UNL A   1      35.910  33.601  29.013  1.00  0.00     0.023 C 
ENDROOT
BRANCH   1   2
ATOM      2  C   UNL A   1      34.383  33.544  29.083  1.00  0.00     0.023 C 
BRANCH   2   3
ATOM      3  C   UNL A   1      33.718  32.731  27.980  1.00  0.00     0.116 C 
BRANCH   3   4
ATOM      4  N   UNL A   1      34.345  31.439  27.813  1.00  0.00    -0.356 N 
ATOM      5  C   UNL A   1      33.921  30.285  27.248  1.00  0.00     0.227 C 
ATOM      6  O   UNL A   1      34.730  29.349  27.288  1.00  0.00    -0.274 OA
ATOM      7  H   UNL A   1      35.256  31.390  28.183  1.00  0.00     0.163 HD
BRANCH   5   8
ATOM      8  C   UNL A   1      32.515  30.080  26.634  1.00  0.00     0.103 C 
ATOM      9  C   UNL A   1      32.305  27.685  26.652  1.00  0.00     0.106 C 
ATOM     10  C   UNL A   1      32.246  28.186  25.248  1.00  0.00    -0.006 C 
ATOM     11  C   UNL A   1      31.830  28.931  27.407  1.00  0.00     0.047 C 
ATOM     12  C   UNL A   1      32.383  29.519  25.241  1.00  0.00    -0.016 C 
BRANCH   9  13
ATOM     13  N   UNL A   1      31.490  26.519  26.839  1.00  0.00    -0.346 N 
ATOM     14  C   UNL A   1      31.652  25.240  26.360  1.00  0.00     0.251 C 
ATOM     15  O   UNL A   1      30.818  24.392  26.680  1.00  0.00    -0.269 OA
ATOM     16  H   UNL A   1      30.689  26.656  27.396  1.00  0.00     0.164 HD
BRANCH  14  17
ATOM     17  C   UNL A   1      32.830  24.821  25.542  1.00  0.00     0.040 A 
ATOM     18  C   UNL A   1      36.477  23.744  25.838  1.00  0.00     0.047 C 
ATOM     19  C   UNL A   1      35.147  24.102  25.246  1.00  0.00    -0.015 A 
ATOM     20  C   UNL A   1      34.121  24.625  26.049  1.00  0.00     0.020 A 
ATOM     21  C   UNL A   1      34.898  23.899  23.890  1.00  0.00     0.126 A 
ATOM     22  C   UNL A   1      33.650  24.178  23.342  1.00  0.00     0.040 A 
ATOM     23  F   UNL A   1      35.869  23.433  23.094  1.00  0.00    -0.207 F 
ATOM     24  C   UNL A   1      32.615  24.622  24.169  1.00  0.00     0.017 A 
ENDBRANCH  14  17
ENDBRANCH   9  13
ENDBRANCH   5   8
ENDBRANCH   3   4
ENDBRANCH   2   3
ENDBRANCH   1   2
BRANCH   1  25
ATOM     25  C   UNL A   1      36.649  33.131  30.263  1.00  0.00     0.116 C 
BRANCH  25  26
ATOM     26  N   UNL A   1      36.081  31.926  30.848  1.00  0.00    -0.352 N 
ATOM     27  C   UNL A   1      36.598  30.656  30.905  1.00  0.00     0.251 C 
ATOM     28  H   UNL A   1      35.195  32.038  31.264  1.00  0.00     0.163 HD
ATOM     29  O   UNL A   1      35.913  29.738  31.347  1.00  0.00    -0.269 OA
BRANCH  27  30
ATOM     30  C   UNL A   1      37.964  30.391  30.405  1.00  0.00     0.039 A 
ATOM     31  C   UNL A   1      39.004  30.259  31.329  1.00  0.00     0.014 A 
ATOM     32  C   UNL A   1      38.218  30.259  29.038  1.00  0.00     0.014 A 
ATOM     33  C   UNL A   1      40.284  29.925  30.885  1.00  0.00     0.010 A 
ATOM     34  C   UNL A   1      39.477  29.854  28.604  1.00  0.00     0.010 A 
ATOM     35  C   UNL A   1      40.524  29.683  29.522  1.00  0.00    -0.014 A 
BRANCH  35  36
ATOM     36  C   UNL A   1      41.861  29.248  29.045  1.00  0.00     0.031 A 
ATOM     37  C   UNL A   1      43.000  30.230  28.976  1.00  0.00     0.074 A 
ATOM     38  C   UNL A   1      42.036  27.980  28.622  1.00  0.00     0.049 A 
ATOM     39  N   UNL A   1      44.226  30.042  28.558  1.00  0.00    -0.248 NA
ATOM     40  C   UNL A   1      42.719  31.608  29.411  1.00  0.00     0.031 C 
ATOM     41  C   UNL A   1      41.000  26.944  28.592  1.00  0.00     0.029 A 
ATOM     42  N   UNL A   1      43.151  27.344  28.134  1.00  0.00    -0.354 N 
ATOM     43  C   UNL A   1      44.856  31.276  28.667  1.00  0.00     0.074 A 
ATOM     44  C   UNL A   1      43.863  32.217  29.138  1.00  0.00     0.031 C 
ATOM     45  C   UNL A   1      41.535  25.797  28.143  1.00  0.00     0.029 A 
ATOM     46  C   UNL A   1      42.940  26.022  27.819  1.00  0.00     0.049 A 
ATOM     47  H   UNL A   1      44.020  27.793  28.020  1.00  0.00     0.167 HD
ATOM     48  C   UNL A   1      46.150  31.594  28.421  1.00  0.00     0.031 A 
ATOM     49  C   UNL A   1      43.783  25.094  27.326  1.00  0.00     0.031 A 
ATOM     50  C   UNL A   1      47.138  30.655  27.962  1.00  0.00     0.049 A 
ATOM     51  C   UNL A   1      45.215  25.472  27.062  1.00  0.00     0.074 A 
ATOM     52  C   UNL A   1      48.486  30.867  27.731  1.00  0.00     0.029 A 
ATOM     53  N   UNL A   1      46.888  29.323  27.669  1.00  0.00    -0.354 N 
ATOM     54  N   UNL A   1      45.806  26.630  27.232  1.00  0.00    -0.248 NA
ATOM     55  C   UNL A   1      46.096  24.411  26.554  1.00  0.00     0.031 C 
ATOM     56  C   UNL A   1      49.041  29.675  27.253  1.00  0.00     0.029 A 
ATOM     57  C   UNL A   1      48.051  28.706  27.242  1.00  0.00     0.049 A 
ATOM     58  H   UNL A   1      46.011  28.881  27.752  1.00  0.00     0.167 HD
ATOM     59  C   UNL A   1      47.137  26.430  26.878  1.00  0.00     0.074 A 
ATOM     60  C   UNL A   1      47.264  25.035  26.502  1.00  0.00     0.031 C 
ATOM     61  C   UNL A   1      48.161  27.318  26.869  1.00  0.00     0.031 A 
BRANCH  48  62
ATOM     62  C   UNL A   1      46.566  33.024  28.648  1.00  0.00    -0.014 A 
ATOM     63  C   UNL A   1      46.476  33.976  27.615  1.00  0.00     0.010 A 
ATOM     64  C   UNL A   1      47.024  33.430  29.914  1.00  0.00     0.010 A 
ATOM     65  C   UNL A   1      46.881  35.295  27.832  1.00  0.00     0.020 A 
ATOM     66  C   UNL A   1      47.402  34.757  30.143  1.00  0.00     0.020 A 
ATOM     67  C   UNL A   1      47.345  35.677  29.093  1.00  0.00     0.054 A 
BRANCH  67  68
ATOM     68  S   UNL A   1      47.850  37.400  29.350  1.00  0.00     0.124 S 
ATOM     69  O   UNL A   1      48.337  37.771  28.022  1.00  0.00    -0.237 OA
ATOM     70  O   UNL A   1      46.603  38.041  29.762  1.00  0.00    -0.237 OA
ATOM     71  O   UNL A   1      48.874  37.312  30.387  1.00  0.00    -0.744 OA
ENDBRANCH  67  68
ENDBRANCH  48  62
BRANCH  49  72
ATOM     72  C   UNL A   1      43.300  23.709  27.074  1.00  0.00    -0.014 A 
ATOM     73  C   UNL A   1      42.992  23.288  25.769  1.00  0.00     0.010 A 
ATOM     74  C   UNL A   1      43.150  22.801  28.138  1.00  0.00     0.010 A 
ATOM     75  C   UNL A   1      42.520  21.992  25.534  1.00  0.00     0.020 A 
ATOM     76  C   UNL A   1      42.705  21.496  27.905  1.00  0.00     0.020 A 
ATOM     77  C   UNL A   1      42.380  21.105  26.604  1.00  0.00     0.054 A 
BRANCH  77  78
ATOM     78  S   UNL A   1      41.808  19.415  26.272  1.00  0.00     0.124 S 
ATOM     79  O   UNL A   1      40.383  19.618  26.034  1.00  0.00    -0.237 OA
ATOM     80  O   UNL A   1      42.600  19.038  25.102  1.00  0.00    -0.237 OA
ATOM     81  O   UNL A   1      42.144  18.695  27.498  1.00  0.00    -0.744 OA
ENDBRANCH  77  78
ENDBRANCH  49  72
BRANCH  61  82
ATOM     82  C   UNL A   1      49.518  26.801  26.474  1.00  0.00    -0.014 A 
ATOM     83  C   UNL A   1      50.382  26.219  27.417  1.00  0.00     0.010 A 
ATOM     84  C   UNL A   1      49.916  26.863  25.125  1.00  0.00     0.010 A 
ATOM     85  C   UNL A   1      51.637  25.745  27.028  1.00  0.00     0.020 A 
ATOM     86  C   UNL A   1      51.158  26.363  24.726  1.00  0.00     0.020 A 
ATOM     87  C   UNL A   1      52.019  25.822  25.684  1.00  0.00     0.054 A 
BRANCH  87  88
ATOM     88  S   UNL A   1      53.639  25.172  25.196  1.00  0.00     0.124 S 
ATOM     89  O   UNL A   1      53.415  23.729  25.245  1.00  0.00    -0.237 OA
ATOM     90  O   UNL A   1      53.823  25.734  23.861  1.00  0.00    -0.237 OA
ATOM     91  O   UNL A   1      54.544  25.697  26.216  1.00  0.00    -0.744 OA
ENDBRANCH  87  88
ENDBRANCH  61  82
ENDBRANCH  35  36
ENDBRANCH  27  30
ENDBRANCH  25  26
ENDBRANCH   1  25
TORSDOF 16
ENDMDL
