MODEL 1
REMARK VINA RESULT:     -10.4      0.000      0.000
REMARK SMILES CC(C)(C)OC(=O)N[C@@H](CC(=O)NCCCCNC(=O)c1ccc(-c2c3nc(c(-c4ccc(S(=O)(=O)[O-])cc4)c4ccc([nH]4)c(-c4ccc(S(=O)(=O)[O-])cc4)c4nc(c(-c5ccc(S(=O)(=O)[O-])cc5)c5ccc2[nH]5)C=C4)C=C3)cc1)c1cccnc1
REMARK SMILES IDX 15 1 14 2 13 3 11 4 12 5 10 7 9 8 8 9 6 10 7 11 5 13 2 14
REMARK SMILES IDX 1 15 3 16 4 17 81 18 82 19 86 20 83 21 85 22 84 23 16 24
REMARK SMILES IDX 17 25 18 26 19 27 20 29 21 30 22 31 80 32 23 33 79 34 24 35
REMARK SMILES IDX 25 36 26 37 73 38 27 39 78 40 72 41 74 42 28 43 77 44 71 45
REMARK SMILES IDX 70 46 29 48 59 49 40 50 58 51 41 52 44 53 57 54 75 55 42 56
REMARK SMILES IDX 43 57 56 59 76 60 45 61 30 62 31 63 39 64 32 65 38 66 33 67
REMARK SMILES IDX 34 68 35 69 36 70 37 71 60 72 61 73 69 74 62 75 68 76 63 77
REMARK SMILES IDX 64 78 65 79 66 80 67 81 46 82 47 83 55 84 48 85 54 86 49 87
REMARK SMILES IDX 50 88 51 89 52 90 53 91
REMARK H PARENT 13 6 8 12 18 28 74 47 44 58
REMARK Flexibility Score: inf
ROOT
ATOM      1  C   UNL A   1      33.297  26.639  26.023  1.00  0.00     0.023 C 
ENDROOT
BRANCH   1   2
ATOM      2  C   UNL A   1      31.980  26.006  25.575  1.00  0.00     0.116 C 
BRANCH   2   3
ATOM      3  N   UNL A   1      31.452  25.112  26.584  1.00  0.00    -0.356 N 
ATOM      4  C   UNL A   1      31.053  23.816  26.474  1.00  0.00     0.222 C 
ATOM      5  O   UNL A   1      30.669  23.245  27.498  1.00  0.00    -0.275 OA
ATOM      6  H   UNL A   1      31.368  25.500  27.484  1.00  0.00     0.163 HD
BRANCH   4   7
ATOM      7  C   UNL A   1      31.085  23.077  25.150  1.00  0.00     0.130 C 
BRANCH   7   8
ATOM      8  C   UNL A   1      32.391  22.375  24.716  1.00  0.00     0.126 C 
BRANCH   8   9
ATOM      9  N   UNL A   1      33.065  23.040  23.615  1.00  0.00    -0.314 N 
ATOM     10  C   UNL A   1      34.175  23.816  23.586  1.00  0.00     0.408 C 
ATOM     11  O   UNL A   1      34.435  24.453  22.574  1.00  0.00    -0.225 OA
ATOM     12  H   UNL A   1      32.642  22.903  22.737  1.00  0.00     0.167 HD
BRANCH  10  13
ATOM     13  O   UNL A   1      34.928  23.768  24.707  1.00  0.00    -0.444 OA
BRANCH  13  14
ATOM     14  C   UNL A   1      36.135  22.952  24.690  1.00  0.00     0.106 C 
ATOM     15  C   UNL A   1      37.132  23.683  25.600  1.00  0.00     0.056 C 
ATOM     16  C   UNL A   1      36.706  22.886  23.269  1.00  0.00     0.056 C 
ATOM     17  C   UNL A   1      35.921  21.543  25.277  1.00  0.00     0.056 C 
ENDBRANCH  13  14
ENDBRANCH  10  13
ENDBRANCH   8   9
BRANCH   8  18
ATOM     18  C   UNL A   1      32.334  20.896  24.384  1.00  0.00    -0.007 A 
ATOM     19  C   UNL A   1      32.637  19.953  25.376  1.00  0.00     0.009 A 
ATOM     20  C   UNL A   1      32.176  20.399  23.091  1.00  0.00     0.116 A 
ATOM     21  C   UNL A   1      32.764  18.604  25.052  1.00  0.00     0.020 A 
ATOM     22  N   UNL A   1      32.289  19.093  22.749  1.00  0.00    -0.264 NA
ATOM     23  C   UNL A   1      32.584  18.225  23.735  1.00  0.00     0.111 A 
ENDBRANCH   8  18
ENDBRANCH   7   8
ENDBRANCH   4   7
ENDBRANCH   2   3
ENDBRANCH   1   2
BRANCH   1  24
ATOM     24  C   UNL A   1      33.191  27.963  26.761  1.00  0.00     0.023 C 
BRANCH  24  25
ATOM     25  C   UNL A   1      33.992  29.101  26.160  1.00  0.00     0.116 C 
BRANCH  25  26
ATOM     26  N   UNL A   1      33.744  30.396  26.782  1.00  0.00    -0.352 N 
ATOM     27  C   UNL A   1      34.498  31.047  27.731  1.00  0.00     0.251 C 
ATOM     28  H   UNL A   1      32.931  30.866  26.484  1.00  0.00     0.163 HD
ATOM     29  O   UNL A   1      34.121  32.111  28.210  1.00  0.00    -0.269 OA
BRANCH  27  30
ATOM     30  C   UNL A   1      35.747  30.413  28.202  1.00  0.00     0.039 A 
ATOM     31  C   UNL A   1      36.951  30.750  27.581  1.00  0.00     0.014 A 
ATOM     32  C   UNL A   1      35.733  29.573  29.317  1.00  0.00     0.014 A 
ATOM     33  C   UNL A   1      38.153  30.311  28.138  1.00  0.00     0.010 A 
ATOM     34  C   UNL A   1      36.931  29.230  29.930  1.00  0.00     0.010 A 
ATOM     35  C   UNL A   1      38.154  29.592  29.346  1.00  0.00    -0.014 A 
BRANCH  35  36
ATOM     36  C   UNL A   1      39.422  29.207  30.016  1.00  0.00     0.031 A 
ATOM     37  C   UNL A   1      39.893  29.973  31.222  1.00  0.00     0.074 A 
ATOM     38  C   UNL A   1      40.180  28.219  29.498  1.00  0.00     0.049 A 
ATOM     39  N   UNL A   1      40.996  29.828  31.911  1.00  0.00    -0.248 NA
ATOM     40  C   UNL A   1      39.032  31.070  31.697  1.00  0.00     0.031 C 
ATOM     41  C   UNL A   1      39.863  27.445  28.293  1.00  0.00     0.029 A 
ATOM     42  N   UNL A   1      41.380  27.700  29.916  1.00  0.00    -0.354 N 
ATOM     43  C   UNL A   1      40.970  30.823  32.879  1.00  0.00     0.074 A 
ATOM     44  C   UNL A   1      39.774  31.604  32.655  1.00  0.00     0.031 C 
ATOM     45  C   UNL A   1      40.823  26.527  28.093  1.00  0.00     0.029 A 
ATOM     46  C   UNL A   1      41.842  26.670  29.128  1.00  0.00     0.049 A 
ATOM     47  H   UNL A   1      41.864  28.032  30.706  1.00  0.00     0.167 HD
ATOM     48  C   UNL A   1      41.847  31.052  33.884  1.00  0.00     0.031 A 
ATOM     49  C   UNL A   1      42.961  25.927  29.228  1.00  0.00     0.031 A 
ATOM     50  C   UNL A   1      43.019  30.255  34.122  1.00  0.00     0.049 A 
ATOM     51  C   UNL A   1      43.909  26.185  30.366  1.00  0.00     0.074 A 
ATOM     52  C   UNL A   1      43.934  30.358  35.155  1.00  0.00     0.029 A 
ATOM     53  N   UNL A   1      43.435  29.204  33.320  1.00  0.00    -0.354 N 
ATOM     54  N   UNL A   1      43.825  27.083  31.320  1.00  0.00    -0.248 NA
ATOM     55  C   UNL A   1      45.096  25.323  30.451  1.00  0.00     0.031 C 
ATOM     56  C   UNL A   1      44.931  29.399  34.950  1.00  0.00     0.029 A 
ATOM     57  C   UNL A   1      44.606  28.662  33.822  1.00  0.00     0.049 A 
ATOM     58  H   UNL A   1      42.968  28.889  32.513  1.00  0.00     0.167 HD
ATOM     59  C   UNL A   1      44.933  26.875  32.133  1.00  0.00     0.074 A 
ATOM     60  C   UNL A   1      45.663  25.757  31.569  1.00  0.00     0.031 C 
ATOM     61  C   UNL A   1      45.315  27.548  33.247  1.00  0.00     0.031 A 
BRANCH  48  62
ATOM     62  C   UNL A   1      41.563  32.207  34.807  1.00  0.00    -0.014 A 
ATOM     63  C   UNL A   1      40.752  32.045  35.947  1.00  0.00     0.010 A 
ATOM     64  C   UNL A   1      42.144  33.464  34.555  1.00  0.00     0.010 A 
ATOM     65  C   UNL A   1      40.496  33.126  36.794  1.00  0.00     0.020 A 
ATOM     66  C   UNL A   1      41.913  34.541  35.417  1.00  0.00     0.020 A 
ATOM     67  C   UNL A   1      41.078  34.368  36.522  1.00  0.00     0.054 A 
BRANCH  67  68
ATOM     68  S   UNL A   1      40.752  35.744  37.657  1.00  0.00     0.124 S 
ATOM     69  O   UNL A   1      42.091  36.294  37.855  1.00  0.00    -0.237 OA
ATOM     70  O   UNL A   1      39.837  36.583  36.889  1.00  0.00    -0.237 OA
ATOM     71  O   UNL A   1      40.166  35.097  38.828  1.00  0.00    -0.744 OA
ENDBRANCH  67  68
ENDBRANCH  48  62
BRANCH  49  72
ATOM     72  C   UNL A   1      43.233  24.849  28.236  1.00  0.00    -0.014 A 
ATOM     73  C   UNL A   1      43.913  25.136  27.039  1.00  0.00     0.010 A 
ATOM     74  C   UNL A   1      42.818  23.528  28.484  1.00  0.00     0.010 A 
ATOM     75  C   UNL A   1      44.152  24.129  26.098  1.00  0.00     0.020 A 
ATOM     76  C   UNL A   1      43.080  22.512  27.559  1.00  0.00     0.020 A 
ATOM     77  C   UNL A   1      43.734  22.824  26.365  1.00  0.00     0.054 A 
BRANCH  77  78
ATOM     78  S   UNL A   1      44.092  21.523  25.150  1.00  0.00     0.124 S 
ATOM     79  O   UNL A   1      43.974  22.247  23.889  1.00  0.00    -0.237 OA
ATOM     80  O   UNL A   1      45.444  21.111  25.519  1.00  0.00    -0.237 OA
ATOM     81  O   UNL A   1      43.055  20.526  25.401  1.00  0.00    -0.744 OA
ENDBRANCH  77  78
ENDBRANCH  49  72
BRANCH  61  82
ATOM     82  C   UNL A   1      46.557  27.074  33.951  1.00  0.00    -0.014 A 
ATOM     83  C   UNL A   1      46.485  26.193  35.042  1.00  0.00     0.010 A 
ATOM     84  C   UNL A   1      47.818  27.475  33.472  1.00  0.00     0.010 A 
ATOM     85  C   UNL A   1      47.652  25.743  35.664  1.00  0.00     0.020 A 
ATOM     86  C   UNL A   1      48.988  27.006  34.073  1.00  0.00     0.020 A 
ATOM     87  C   UNL A   1      48.897  26.154  35.175  1.00  0.00     0.054 A 
BRANCH  87  88
ATOM     88  S   UNL A   1      50.399  25.522  35.972  1.00  0.00     0.124 S 
ATOM     89  O   UNL A   1      50.699  24.344  35.163  1.00  0.00    -0.237 OA
ATOM     90  O   UNL A   1      51.332  26.637  35.828  1.00  0.00    -0.237 OA
ATOM     91  O   UNL A   1      49.975  25.246  37.342  1.00  0.00    -0.744 OA
ENDBRANCH  87  88
ENDBRANCH  61  82
ENDBRANCH  35  36
ENDBRANCH  27  30
ENDBRANCH  25  26
ENDBRANCH  24  25
ENDBRANCH   1  24
TORSDOF 19
ENDMDL
MODEL 2
REMARK VINA RESULT:     -10.3      2.352      3.347
REMARK SMILES CC(C)(C)OC(=O)N[C@@H](CC(=O)NCCCCNC(=O)c1ccc(-c2c3nc(c(-c4ccc(S(=O)(=O)[O-])cc4)c4ccc([nH]4)c(-c4ccc(S(=O)(=O)[O-])cc4)c4nc(c(-c5ccc(S(=O)(=O)[O-])cc5)c5ccc2[nH]5)C=C4)C=C3)cc1)c1cccnc1
REMARK SMILES IDX 15 1 14 2 13 3 11 4 12 5 10 7 9 8 8 9 6 10 7 11 5 13 2 14
REMARK SMILES IDX 1 15 3 16 4 17 81 18 82 19 86 20 83 21 85 22 84 23 16 24
REMARK SMILES IDX 17 25 18 26 19 27 20 29 21 30 22 31 80 32 23 33 79 34 24 35
REMARK SMILES IDX 25 36 26 37 73 38 27 39 78 40 72 41 74 42 28 43 77 44 71 45
REMARK SMILES IDX 70 46 29 48 59 49 40 50 58 51 41 52 44 53 57 54 75 55 42 56
REMARK SMILES IDX 43 57 56 59 76 60 45 61 30 62 31 63 39 64 32 65 38 66 33 67
REMARK SMILES IDX 34 68 35 69 36 70 37 71 60 72 61 73 69 74 62 75 68 76 63 77
REMARK SMILES IDX 64 78 65 79 66 80 67 81 46 82 47 83 55 84 48 85 54 86 49 87
REMARK SMILES IDX 50 88 51 89 52 90 53 91
REMARK H PARENT 13 6 8 12 18 28 74 47 44 58
REMARK Flexibility Score: inf
ROOT
ATOM      1  C   UNL A   1      31.662  27.512  25.843  1.00  0.00     0.023 C 
ENDROOT
BRANCH   1   2
ATOM      2  C   UNL A   1      30.619  26.396  25.820  1.00  0.00     0.116 C 
BRANCH   2   3
ATOM      3  N   UNL A   1      30.914  25.375  26.806  1.00  0.00    -0.356 N 
ATOM      4  C   UNL A   1      31.093  24.037  26.644  1.00  0.00     0.222 C 
ATOM      5  O   UNL A   1      31.376  23.371  27.643  1.00  0.00    -0.275 OA
ATOM      6  H   UNL A   1      30.995  25.699  27.731  1.00  0.00     0.163 HD
BRANCH   4   7
ATOM      7  C   UNL A   1      30.970  23.370  25.287  1.00  0.00     0.130 C 
BRANCH   7   8
ATOM      8  C   UNL A   1      32.252  23.077  24.478  1.00  0.00     0.126 C 
BRANCH   8   9
ATOM      9  N   UNL A   1      33.365  22.635  25.300  1.00  0.00    -0.314 N 
ATOM     10  C   UNL A   1      33.559  21.492  25.999  1.00  0.00     0.408 C 
ATOM     11  O   UNL A   1      34.481  21.429  26.801  1.00  0.00    -0.225 OA
ATOM     12  H   UNL A   1      34.107  23.279  25.358  1.00  0.00     0.167 HD
BRANCH  10  13
ATOM     13  O   UNL A   1      32.706  20.489  25.693  1.00  0.00    -0.444 OA
BRANCH  13  14
ATOM     14  C   UNL A   1      33.177  19.431  24.808  1.00  0.00     0.106 C 
ATOM     15  C   UNL A   1      32.735  18.120  25.472  1.00  0.00     0.056 C 
ATOM     16  C   UNL A   1      34.707  19.460  24.723  1.00  0.00     0.056 C 
ATOM     17  C   UNL A   1      32.534  19.481  23.409  1.00  0.00     0.056 C 
ENDBRANCH  13  14
ENDBRANCH  10  13
ENDBRANCH   8   9
BRANCH   8  18
ATOM     18  C   UNL A   1      32.777  24.155  23.549  1.00  0.00    -0.007 A 
ATOM     19  C   UNL A   1      33.586  25.178  24.064  1.00  0.00     0.009 A 
ATOM     20  C   UNL A   1      32.358  24.310  22.228  1.00  0.00     0.116 A 
ATOM     21  C   UNL A   1      33.933  26.270  23.272  1.00  0.00     0.020 A 
ATOM     22  N   UNL A   1      32.683  25.359  21.435  1.00  0.00    -0.264 NA
ATOM     23  C   UNL A   1      33.459  26.317  21.974  1.00  0.00     0.111 A 
ENDBRANCH   8  18
ENDBRANCH   7   8
ENDBRANCH   4   7
ENDBRANCH   2   3
ENDBRANCH   1   2
BRANCH   1  24
ATOM     24  C   UNL A   1      32.069  28.025  27.214  1.00  0.00     0.023 C 
BRANCH  24  25
ATOM     25  C   UNL A   1      33.467  28.606  27.295  1.00  0.00     0.116 C 
BRANCH  25  26
ATOM     26  N   UNL A   1      33.503  30.028  27.614  1.00  0.00    -0.352 N 
ATOM     27  C   UNL A   1      34.553  30.766  28.113  1.00  0.00     0.251 C 
ATOM     28  H   UNL A   1      32.668  30.525  27.452  1.00  0.00     0.163 HD
ATOM     29  O   UNL A   1      34.407  31.950  28.396  1.00  0.00    -0.269 OA
BRANCH  27  30
ATOM     30  C   UNL A   1      35.845  30.091  28.353  1.00  0.00     0.039 A 
ATOM     31  C   UNL A   1      36.822  30.130  27.357  1.00  0.00     0.014 A 
ATOM     32  C   UNL A   1      36.119  29.514  29.595  1.00  0.00     0.014 A 
ATOM     33  C   UNL A   1      38.107  29.668  27.642  1.00  0.00     0.010 A 
ATOM     34  C   UNL A   1      37.423  29.157  29.909  1.00  0.00     0.010 A 
ATOM     35  C   UNL A   1      38.431  29.227  28.937  1.00  0.00    -0.014 A 
BRANCH  35  36
ATOM     36  C   UNL A   1      39.817  28.832  29.296  1.00  0.00     0.031 A 
ATOM     37  C   UNL A   1      40.714  29.812  30.003  1.00  0.00     0.074 A 
ATOM     38  C   UNL A   1      40.287  27.624  28.924  1.00  0.00     0.049 A 
ATOM     39  N   UNL A   1      41.968  29.677  30.350  1.00  0.00    -0.248 NA
ATOM     40  C   UNL A   1      40.141  31.128  30.331  1.00  0.00     0.031 C 
ATOM     41  C   UNL A   1      39.535  26.611  28.176  1.00  0.00     0.029 A 
ATOM     42  N   UNL A   1      41.515  27.044  29.118  1.00  0.00    -0.354 N 
ATOM     43  C   UNL A   1      42.336  30.893  30.914  1.00  0.00     0.074 A 
ATOM     44  C   UNL A   1      41.194  31.773  30.810  1.00  0.00     0.031 C 
ATOM     45  C   UNL A   1      40.305  25.523  28.010  1.00  0.00     0.029 A 
ATOM     46  C   UNL A   1      41.615  25.772  28.602  1.00  0.00     0.049 A 
ATOM     47  H   UNL A   1      42.255  27.495  29.584  1.00  0.00     0.167 HD
ATOM     48  C   UNL A   1      43.509  31.239  31.492  1.00  0.00     0.031 A 
ATOM     49  C   UNL A   1      42.646  24.905  28.605  1.00  0.00     0.031 A 
ATOM     50  C   UNL A   1      44.632  30.351  31.621  1.00  0.00     0.049 A 
ATOM     51  C   UNL A   1      43.933  25.305  29.273  1.00  0.00     0.074 A 
ATOM     52  C   UNL A   1      45.841  30.580  32.254  1.00  0.00     0.029 A 
ATOM     53  N   UNL A   1      44.682  29.062  31.112  1.00  0.00    -0.354 N 
ATOM     54  N   UNL A   1      44.234  26.433  29.871  1.00  0.00    -0.248 NA
ATOM     55  C   UNL A   1      45.014  24.309  29.281  1.00  0.00     0.031 C 
ATOM     56  C   UNL A   1      46.641  29.444  32.086  1.00  0.00     0.029 A 
ATOM     57  C   UNL A   1      45.910  28.490  31.398  1.00  0.00     0.049 A 
ATOM     58  H   UNL A   1      43.953  28.620  30.620  1.00  0.00     0.167 HD
ATOM     59  C   UNL A   1      45.530  26.273  30.350  1.00  0.00     0.074 A 
ATOM     60  C   UNL A   1      45.948  24.934  29.986  1.00  0.00     0.031 C 
ATOM     61  C   UNL A   1      46.305  27.154  31.029  1.00  0.00     0.031 A 
BRANCH  48  62
ATOM     62  C   UNL A   1      43.631  32.637  32.039  1.00  0.00    -0.014 A 
ATOM     63  C   UNL A   1      43.353  32.915  33.390  1.00  0.00     0.010 A 
ATOM     64  C   UNL A   1      44.066  33.680  31.201  1.00  0.00     0.010 A 
ATOM     65  C   UNL A   1      43.468  34.217  33.883  1.00  0.00     0.020 A 
ATOM     66  C   UNL A   1      44.211  34.979  31.698  1.00  0.00     0.020 A 
ATOM     67  C   UNL A   1      43.896  35.241  33.033  1.00  0.00     0.054 A 
BRANCH  67  68
ATOM     68  S   UNL A   1      44.067  36.915  33.709  1.00  0.00     0.124 S 
ATOM     69  O   UNL A   1      42.673  37.328  33.846  1.00  0.00    -0.237 OA
ATOM     70  O   UNL A   1      44.778  36.683  34.963  1.00  0.00    -0.237 OA
ATOM     71  O   UNL A   1      44.830  37.626  32.686  1.00  0.00    -0.744 OA
ENDBRANCH  67  68
ENDBRANCH  48  62
BRANCH  49  72
ATOM     72  C   UNL A   1      42.496  23.564  27.975  1.00  0.00    -0.014 A 
ATOM     73  C   UNL A   1      43.083  23.292  26.726  1.00  0.00     0.010 A 
ATOM     74  C   UNL A   1      41.769  22.548  28.622  1.00  0.00     0.010 A 
ATOM     75  C   UNL A   1      42.927  22.039  26.125  1.00  0.00     0.020 A 
ATOM     76  C   UNL A   1      41.634  21.284  28.037  1.00  0.00     0.020 A 
ATOM     77  C   UNL A   1      42.203  21.043  26.786  1.00  0.00     0.054 A 
BRANCH  77  78
ATOM     78  S   UNL A   1      42.048  19.410  26.008  1.00  0.00     0.124 S 
ATOM     79  O   UNL A   1      42.850  19.573  24.800  1.00  0.00    -0.237 OA
ATOM     80  O   UNL A   1      42.608  18.522  27.024  1.00  0.00    -0.237 OA
ATOM     81  O   UNL A   1      40.610  19.269  25.792  1.00  0.00    -0.744 OA
ENDBRANCH  77  78
ENDBRANCH  49  72
BRANCH  61  82
ATOM     82  C   UNL A   1      47.672  26.690  31.454  1.00  0.00    -0.014 A 
ATOM     83  C   UNL A   1      48.794  26.883  30.632  1.00  0.00     0.010 A 
ATOM     84  C   UNL A   1      47.839  26.105  32.722  1.00  0.00     0.010 A 
ATOM     85  C   UNL A   1      50.059  26.469  31.058  1.00  0.00     0.020 A 
ATOM     86  C   UNL A   1      49.106  25.717  33.164  1.00  0.00     0.020 A 
ATOM     87  C   UNL A   1      50.206  25.888  32.322  1.00  0.00     0.054 A 
BRANCH  87  88
ATOM     88  S   UNL A   1      51.865  25.400  32.871  1.00  0.00     0.124 S 
ATOM     89  O   UNL A   1      51.665  25.204  34.304  1.00  0.00    -0.237 OA
ATOM     90  O   UNL A   1      52.114  24.185  32.098  1.00  0.00    -0.237 OA
ATOM     91  O   UNL A   1      52.700  26.543  32.509  1.00  0.00    -0.744 OA
ENDBRANCH  87  88
ENDBRANCH  61  82
ENDBRANCH  35  36
ENDBRANCH  27  30
ENDBRANCH  25  26
ENDBRANCH  24  25
ENDBRANCH   1  24
TORSDOF 19
ENDMDL
MODEL 3
REMARK VINA RESULT:     -10.3      2.276      8.306
REMARK SMILES CC(C)(C)OC(=O)N[C@@H](CC(=O)NCCCCNC(=O)c1ccc(-c2c3nc(c(-c4ccc(S(=O)(=O)[O-])cc4)c4ccc([nH]4)c(-c4ccc(S(=O)(=O)[O-])cc4)c4nc(c(-c5ccc(S(=O)(=O)[O-])cc5)c5ccc2[nH]5)C=C4)C=C3)cc1)c1cccnc1
REMARK SMILES IDX 15 1 14 2 13 3 11 4 12 5 10 7 9 8 8 9 6 10 7 11 5 13 2 14
REMARK SMILES IDX 1 15 3 16 4 17 81 18 82 19 86 20 83 21 85 22 84 23 16 24
REMARK SMILES IDX 17 25 18 26 19 27 20 29 21 30 22 31 80 32 23 33 79 34 24 35
REMARK SMILES IDX 25 36 26 37 73 38 27 39 78 40 72 41 74 42 28 43 77 44 71 45
REMARK SMILES IDX 70 46 29 48 59 49 40 50 58 51 41 52 44 53 57 54 75 55 42 56
REMARK SMILES IDX 43 57 56 59 76 60 45 61 30 62 31 63 39 64 32 65 38 66 33 67
REMARK SMILES IDX 34 68 35 69 36 70 37 71 60 72 61 73 69 74 62 75 68 76 63 77
REMARK SMILES IDX 64 78 65 79 66 80 67 81 46 82 47 83 55 84 48 85 54 86 49 87
REMARK SMILES IDX 50 88 51 89 52 90 53 91
REMARK H PARENT 13 6 8 12 18 28 74 47 44 58
REMARK Flexibility Score: inf
ROOT
ATOM      1  C   UNL A   1      31.971  26.800  25.798  1.00  0.00     0.023 C 
ENDROOT
BRANCH   1   2
ATOM      2  C   UNL A   1      30.609  26.109  25.755  1.00  0.00     0.116 C 
BRANCH   2   3
ATOM      3  N   UNL A   1      30.536  25.023  26.711  1.00  0.00    -0.356 N 
ATOM      4  C   UNL A   1      30.706  23.686  26.522  1.00  0.00     0.222 C 
ATOM      5  O   UNL A   1      30.630  22.953  27.511  1.00  0.00    -0.275 OA
ATOM      6  H   UNL A   1      30.331  25.292  27.635  1.00  0.00     0.163 HD
BRANCH   4   7
ATOM      7  C   UNL A   1      30.995  23.100  25.153  1.00  0.00     0.130 C 
BRANCH   7   8
ATOM      8  C   UNL A   1      32.396  22.517  24.869  1.00  0.00     0.126 C 
BRANCH   8   9
ATOM      9  N   UNL A   1      33.105  23.210  23.808  1.00  0.00    -0.314 N 
ATOM     10  C   UNL A   1      34.247  23.938  23.825  1.00  0.00     0.408 C 
ATOM     11  O   UNL A   1      34.541  24.616  22.850  1.00  0.00    -0.225 OA
ATOM     12  H   UNL A   1      32.683  23.137  22.922  1.00  0.00     0.167 HD
BRANCH  10  13
ATOM     13  O   UNL A   1      34.990  23.799  24.945  1.00  0.00    -0.444 OA
BRANCH  13  14
ATOM     14  C   UNL A   1      36.235  23.047  24.856  1.00  0.00     0.106 C 
ATOM     15  C   UNL A   1      35.964  21.724  25.586  1.00  0.00     0.056 C 
ATOM     16  C   UNL A   1      37.357  23.800  25.580  1.00  0.00     0.056 C 
ATOM     17  C   UNL A   1      36.632  22.703  23.407  1.00  0.00     0.056 C 
ENDBRANCH  13  14
ENDBRANCH  10  13
ENDBRANCH   8   9
BRANCH   8  18
ATOM     18  C   UNL A   1      32.512  21.030  24.593  1.00  0.00    -0.007 A 
ATOM     19  C   UNL A   1      32.366  20.556  23.281  1.00  0.00     0.009 A 
ATOM     20  C   UNL A   1      32.573  20.060  25.593  1.00  0.00     0.116 A 
ATOM     21  C   UNL A   1      32.293  19.188  23.029  1.00  0.00     0.020 A 
ATOM     22  N   UNL A   1      32.509  18.724  25.375  1.00  0.00    -0.264 NA
ATOM     23  C   UNL A   1      32.366  18.318  24.101  1.00  0.00     0.111 A 
ENDBRANCH   8  18
ENDBRANCH   7   8
ENDBRANCH   4   7
ENDBRANCH   2   3
ENDBRANCH   1   2
BRANCH   1  24
ATOM     24  C   UNL A   1      32.305  27.551  27.076  1.00  0.00     0.023 C 
BRANCH  24  25
ATOM     25  C   UNL A   1      33.587  28.358  27.032  1.00  0.00     0.116 C 
BRANCH  25  26
ATOM     26  N   UNL A   1      33.426  29.754  27.421  1.00  0.00    -0.352 N 
ATOM     27  C   UNL A   1      34.357  30.599  27.981  1.00  0.00     0.251 C 
ATOM     28  H   UNL A   1      32.534  30.142  27.265  1.00  0.00     0.163 HD
ATOM     29  O   UNL A   1      34.048  31.737  28.317  1.00  0.00    -0.269 OA
BRANCH  27  30
ATOM     30  C   UNL A   1      35.725  30.091  28.217  1.00  0.00     0.039 A 
ATOM     31  C   UNL A   1      36.670  30.198  27.196  1.00  0.00     0.014 A 
ATOM     32  C   UNL A   1      36.089  29.609  29.476  1.00  0.00     0.014 A 
ATOM     33  C   UNL A   1      38.007  29.904  27.468  1.00  0.00     0.010 A 
ATOM     34  C   UNL A   1      37.433  29.423  29.772  1.00  0.00     0.010 A 
ATOM     35  C   UNL A   1      38.406  29.564  28.773  1.00  0.00    -0.014 A 
BRANCH  35  36
ATOM     36  C   UNL A   1      39.835  29.352  29.113  1.00  0.00     0.031 A 
ATOM     37  C   UNL A   1      40.491  28.033  28.801  1.00  0.00     0.074 A 
ATOM     38  C   UNL A   1      40.519  30.314  29.765  1.00  0.00     0.049 A 
ATOM     39  N   UNL A   1      41.707  27.635  29.069  1.00  0.00    -0.248 NA
ATOM     40  C   UNL A   1      39.662  27.016  28.132  1.00  0.00     0.031 C 
ATOM     41  C   UNL A   1      39.976  31.611  30.182  1.00  0.00     0.029 A 
ATOM     42  N   UNL A   1      41.821  30.350  30.198  1.00  0.00    -0.354 N 
ATOM     43  C   UNL A   1      41.780  26.321  28.624  1.00  0.00     0.074 A 
ATOM     44  C   UNL A   1      40.471  25.968  28.123  1.00  0.00     0.031 C 
ATOM     45  C   UNL A   1      40.946  32.326  30.774  1.00  0.00     0.029 A 
ATOM     46  C   UNL A   1      42.168  31.529  30.816  1.00  0.00     0.049 A 
ATOM     47  H   UNL A   1      42.449  29.601  30.076  1.00  0.00     0.167 HD
ATOM     48  C   UNL A   1      42.848  25.489  28.607  1.00  0.00     0.031 A 
ATOM     49  C   UNL A   1      43.337  31.923  31.356  1.00  0.00     0.031 A 
ATOM     50  C   UNL A   1      44.156  25.854  29.079  1.00  0.00     0.049 A 
ATOM     51  C   UNL A   1      44.515  30.989  31.306  1.00  0.00     0.074 A 
ATOM     52  C   UNL A   1      45.322  25.110  29.040  1.00  0.00     0.029 A 
ATOM     53  N   UNL A   1      44.471  27.067  29.670  1.00  0.00    -0.354 N 
ATOM     54  N   UNL A   1      44.584  29.777  30.808  1.00  0.00    -0.248 NA
ATOM     55  C   UNL A   1      45.777  31.481  31.876  1.00  0.00     0.031 C 
ATOM     56  C   UNL A   1      46.334  25.857  29.652  1.00  0.00     0.029 A 
ATOM     57  C   UNL A   1      45.811  27.086  30.021  1.00  0.00     0.049 A 
ATOM     58  H   UNL A   1      43.838  27.806  29.819  1.00  0.00     0.167 HD
ATOM     59  C   UNL A   1      45.903  29.372  30.981  1.00  0.00     0.074 A 
ATOM     60  C   UNL A   1      46.599  30.474  31.614  1.00  0.00     0.031 C 
ATOM     61  C   UNL A   1      46.486  28.195  30.647  1.00  0.00     0.031 A 
BRANCH  48  62
ATOM     62  C   UNL A   1      42.644  24.105  28.050  1.00  0.00    -0.014 A 
ATOM     63  C   UNL A   1      42.171  23.057  28.862  1.00  0.00     0.010 A 
ATOM     64  C   UNL A   1      42.892  23.855  26.688  1.00  0.00     0.010 A 
ATOM     65  C   UNL A   1      41.988  21.778  28.333  1.00  0.00     0.020 A 
ATOM     66  C   UNL A   1      42.682  22.583  26.148  1.00  0.00     0.020 A 
ATOM     67  C   UNL A   1      42.246  21.549  26.978  1.00  0.00     0.054 A 
BRANCH  67  68
ATOM     68  S   UNL A   1      41.969  19.885  26.312  1.00  0.00     0.124 S 
ATOM     69  O   UNL A   1      40.544  19.923  25.991  1.00  0.00    -0.237 OA
ATOM     70  O   UNL A   1      42.870  19.845  25.164  1.00  0.00    -0.237 OA
ATOM     71  O   UNL A   1      42.334  19.003  27.418  1.00  0.00    -0.744 OA
ENDBRANCH  67  68
ENDBRANCH  48  62
BRANCH  49  72
ATOM     72  C   UNL A   1      43.458  33.275  31.970  1.00  0.00    -0.014 A 
ATOM     73  C   UNL A   1      43.887  34.372  31.200  1.00  0.00     0.010 A 
ATOM     74  C   UNL A   1      43.141  33.476  33.326  1.00  0.00     0.010 A 
ATOM     75  C   UNL A   1      44.019  35.638  31.780  1.00  0.00     0.020 A 
ATOM     76  C   UNL A   1      43.245  34.746  33.902  1.00  0.00     0.020 A 
ATOM     77  C   UNL A   1      43.697  35.816  33.127  1.00  0.00     0.054 A 
BRANCH  77  78
ATOM     78  S   UNL A   1      43.834  37.476  33.849  1.00  0.00     0.124 S 
ATOM     79  O   UNL A   1      42.724  37.488  34.796  1.00  0.00    -0.237 OA
ATOM     80  O   UNL A   1      45.170  37.453  34.441  1.00  0.00    -0.237 OA
ATOM     81  O   UNL A   1      43.687  38.363  32.697  1.00  0.00    -0.744 OA
ENDBRANCH  77  78
ENDBRANCH  49  72
BRANCH  61  82
ATOM     82  C   UNL A   1      47.957  28.046  30.927  1.00  0.00    -0.014 A 
ATOM     83  C   UNL A   1      48.921  28.450  29.988  1.00  0.00     0.010 A 
ATOM     84  C   UNL A   1      48.377  27.547  32.173  1.00  0.00     0.010 A 
ATOM     85  C   UNL A   1      50.282  28.329  30.278  1.00  0.00     0.020 A 
ATOM     86  C   UNL A   1      49.736  27.452  32.479  1.00  0.00     0.020 A 
ATOM     87  C   UNL A   1      50.680  27.830  31.523  1.00  0.00     0.054 A 
BRANCH  87  88
ATOM     88  S   UNL A   1      52.453  27.724  31.894  1.00  0.00     0.124 S 
ATOM     89  O   UNL A   1      52.662  28.913  32.716  1.00  0.00    -0.237 OA
ATOM     90  O   UNL A   1      52.558  26.447  32.597  1.00  0.00    -0.237 OA
ATOM     91  O   UNL A   1      53.085  27.757  30.578  1.00  0.00    -0.744 OA
ENDBRANCH  87  88
ENDBRANCH  61  82
ENDBRANCH  35  36
ENDBRANCH  27  30
ENDBRANCH  25  26
ENDBRANCH  24  25
ENDBRANCH   1  24
TORSDOF 19
ENDMDL
