MODEL 1
REMARK VINA RESULT:     -12.1      0.000      0.000
REMARK SMILES C=CC[C@@]1(C(=O)NCCCCNC(=O)c2ccc(-c3c4nc(c(-c5ccc(S(=O)(=O)[O-])cc5)c5ccc([nH]5)c(-c5ccc(S(=O)(=O)[O-])cc5)c5nc(c(-c6ccc(S(=O)(=O)[O-])cc6)c6ccc3[nH]6)C=C5)C=C4)cc2)CCCN(C(=O)c2ccc3c(c2)OCO3)C1
REMARK SMILES IDX 10 1 9 2 8 3 7 4 5 5 6 6 4 8 75 9 90 10 76 11 78 12 77 13
REMARK SMILES IDX 3 14 2 15 1 16 79 17 80 18 81 19 82 20 86 21 83 22 85 23
REMARK SMILES IDX 84 24 87 25 89 26 88 27 11 28 12 29 13 30 14 32 15 33 16 34
REMARK SMILES IDX 74 35 17 36 73 37 18 38 19 39 20 40 67 41 21 42 72 43 66 44
REMARK SMILES IDX 68 45 22 46 71 47 65 48 64 49 23 51 53 52 34 53 52 54 35 55
REMARK SMILES IDX 38 56 51 57 69 58 36 59 37 60 50 62 70 63 39 64 24 65 25 66
REMARK SMILES IDX 33 67 26 68 32 69 27 70 28 71 29 72 30 73 31 74 54 75 55 76
REMARK SMILES IDX 63 77 56 78 62 79 57 80 58 81 59 82 60 83 61 84 40 85 41 86
REMARK SMILES IDX 49 87 42 88 48 89 43 90 44 91 45 92 46 93 47 94
REMARK H PARENT 7 7 12 31 68 50 38 61
REMARK Flexibility Score: inf
ROOT
ATOM      1  C   UNL A   1      34.889  30.397  27.507  1.00  0.00     0.023 C 
ENDROOT
BRANCH   1   2
ATOM      2  C   UNL A   1      33.585  31.179  27.461  1.00  0.00     0.023 C 
BRANCH   2   3
ATOM      3  C   UNL A   1      32.522  30.576  26.556  1.00  0.00     0.116 C 
BRANCH   3   4
ATOM      4  N   UNL A   1      31.903  29.421  27.159  1.00  0.00    -0.356 N 
ATOM      5  C   UNL A   1      31.787  28.121  26.811  1.00  0.00     0.228 C 
ATOM      6  O   UNL A   1      31.113  27.456  27.611  1.00  0.00    -0.274 OA
ATOM      7  H   UNL A   1      31.468  29.627  28.018  1.00  0.00     0.163 HD
BRANCH   5   8
ATOM      8  C   UNL A   1      32.368  27.452  25.525  1.00  0.00     0.070 C 
ATOM      9  C   UNL A   1      33.503  28.241  24.840  1.00  0.00     0.021 C 
ATOM     10  C   UNL A   1      31.204  27.086  24.585  1.00  0.00     0.137 C 
ATOM     11  C   UNL A   1      33.197  28.968  23.529  1.00  0.00     0.023 C 
ATOM     12  N   UNL A   1      30.810  28.126  23.643  1.00  0.00    -0.338 N 
ATOM     13  C   UNL A   1      31.871  28.703  22.833  1.00  0.00     0.120 C 
BRANCH   8  14
ATOM     14  C   UNL A   1      32.984  26.100  26.083  1.00  0.00     0.045 C 
BRANCH  14  15
ATOM     15  C   UNL A   1      32.198  24.823  25.890  1.00  0.00    -0.034 C 
ATOM     16  C   UNL A   1      32.407  23.713  26.608  1.00  0.00     0.004 C 
ENDBRANCH  14  15
ENDBRANCH   8  14
BRANCH  12  17
ATOM     17  C   UNL A   1      29.435  28.245  23.346  1.00  0.00     0.254 C 
ATOM     18  O   UNL A   1      28.637  27.318  23.447  1.00  0.00    -0.269 OA
BRANCH  17  19
ATOM     19  C   UNL A   1      28.883  29.572  22.977  1.00  0.00     0.043 A 
ATOM     20  C   UNL A   1      29.074  30.641  23.880  1.00  0.00     0.018 A 
ATOM     21  C   UNL A   1      28.267  29.784  21.741  1.00  0.00     0.064 A 
ATOM     22  C   UNL A   1      28.782  31.953  23.500  1.00  0.00     0.051 A 
ATOM     23  C   UNL A   1      28.016  31.091  21.385  1.00  0.00     0.166 A 
ATOM     24  C   UNL A   1      28.284  32.145  22.230  1.00  0.00     0.165 A 
ATOM     25  O   UNL A   1      27.553  31.505  20.174  1.00  0.00    -0.454 OA
ATOM     26  O   UNL A   1      28.019  33.347  21.654  1.00  0.00    -0.454 OA
ATOM     27  C   UNL A   1      27.703  32.935  20.310  1.00  0.00     0.468 C 
ENDBRANCH  17  19
ENDBRANCH  12  17
ENDBRANCH   5   8
ENDBRANCH   3   4
ENDBRANCH   2   3
ENDBRANCH   1   2
BRANCH   1  28
ATOM     28  C   UNL A   1      35.249  29.851  28.879  1.00  0.00     0.116 C 
BRANCH  28  29
ATOM     29  N   UNL A   1      35.602  30.873  29.857  1.00  0.00    -0.352 N 
ATOM     30  C   UNL A   1      36.843  31.166  30.391  1.00  0.00     0.251 C 
ATOM     31  H   UNL A   1      34.857  31.430  30.180  1.00  0.00     0.163 HD
ATOM     32  O   UNL A   1      36.964  32.037  31.239  1.00  0.00    -0.269 OA
BRANCH  30  33
ATOM     33  C   UNL A   1      38.008  30.361  29.960  1.00  0.00     0.039 A 
ATOM     34  C   UNL A   1      38.344  30.321  28.606  1.00  0.00     0.014 A 
ATOM     35  C   UNL A   1      38.833  29.758  30.910  1.00  0.00     0.014 A 
ATOM     36  C   UNL A   1      39.571  29.774  28.219  1.00  0.00     0.010 A 
ATOM     37  C   UNL A   1      40.102  29.335  30.536  1.00  0.00     0.010 A 
ATOM     38  C   UNL A   1      40.490  29.338  29.187  1.00  0.00    -0.014 A 
BRANCH  38  39
ATOM     39  C   UNL A   1      41.862  28.884  28.830  1.00  0.00     0.031 A 
ATOM     40  C   UNL A   1      42.992  29.881  28.789  1.00  0.00     0.074 A 
ATOM     41  C   UNL A   1      42.076  27.612  28.433  1.00  0.00     0.049 A 
ATOM     42  N   UNL A   1      44.220  29.725  28.364  1.00  0.00    -0.248 NA
ATOM     43  C   UNL A   1      42.685  31.253  29.233  1.00  0.00     0.031 C 
ATOM     44  C   UNL A   1      41.058  26.561  28.345  1.00  0.00     0.029 A 
ATOM     45  N   UNL A   1      43.226  26.989  28.011  1.00  0.00    -0.354 N 
ATOM     46  C   UNL A   1      44.808  30.982  28.439  1.00  0.00     0.074 A 
ATOM     47  C   UNL A   1      43.788  31.900  28.894  1.00  0.00     0.031 C 
ATOM     48  C   UNL A   1      41.634  25.419  27.934  1.00  0.00     0.029 A 
ATOM     49  C   UNL A   1      43.051  25.663  27.687  1.00  0.00     0.049 A 
ATOM     50  H   UNL A   1      44.094  27.448  27.948  1.00  0.00     0.167 HD
ATOM     51  C   UNL A   1      46.088  31.341  28.181  1.00  0.00     0.031 A 
ATOM     52  C   UNL A   1      43.929  24.746  27.237  1.00  0.00     0.031 A 
ATOM     53  C   UNL A   1      47.115  30.416  27.790  1.00  0.00     0.049 A 
ATOM     54  C   UNL A   1      45.365  25.146  27.032  1.00  0.00     0.074 A 
ATOM     55  C   UNL A   1      48.464  30.658  27.599  1.00  0.00     0.029 A 
ATOM     56  N   UNL A   1      46.911  29.066  27.546  1.00  0.00    -0.354 N 
ATOM     57  N   UNL A   1      45.919  26.325  27.181  1.00  0.00    -0.248 NA
ATOM     58  C   UNL A   1      46.295  24.088  26.614  1.00  0.00     0.031 C 
ATOM     59  C   UNL A   1      49.070  29.459  27.208  1.00  0.00     0.029 A 
ATOM     60  C   UNL A   1      48.106  28.463  27.198  1.00  0.00     0.049 A 
ATOM     61  H   UNL A   1      46.044  28.606  27.611  1.00  0.00     0.167 HD
ATOM     62  C   UNL A   1      47.267  26.147  26.896  1.00  0.00     0.074 A 
ATOM     63  C   UNL A   1      47.448  24.745  26.581  1.00  0.00     0.031 C 
ATOM     64  C   UNL A   1      48.266  27.065  26.894  1.00  0.00     0.031 A 
BRANCH  51  65
ATOM     65  C   UNL A   1      46.439  32.798  28.327  1.00  0.00    -0.014 A 
ATOM     66  C   UNL A   1      46.876  33.321  29.558  1.00  0.00     0.010 A 
ATOM     67  C   UNL A   1      46.325  33.659  27.221  1.00  0.00     0.010 A 
ATOM     68  C   UNL A   1      47.129  34.688  29.697  1.00  0.00     0.020 A 
ATOM     69  C   UNL A   1      46.609  35.022  27.348  1.00  0.00     0.020 A 
ATOM     70  C   UNL A   1      46.983  35.531  28.592  1.00  0.00     0.054 A 
BRANCH  70  71
ATOM     71  S   UNL A   1      47.308  37.304  28.802  1.00  0.00     0.124 S 
ATOM     72  O   UNL A   1      46.451  37.888  27.774  1.00  0.00    -0.237 OA
ATOM     73  O   UNL A   1      46.891  37.548  30.180  1.00  0.00    -0.237 OA
ATOM     74  O   UNL A   1      48.743  37.423  28.558  1.00  0.00    -0.744 OA
ENDBRANCH  70  71
ENDBRANCH  51  65
BRANCH  52  75
ATOM     75  C   UNL A   1      43.479  23.350  26.981  1.00  0.00    -0.014 A 
ATOM     76  C   UNL A   1      43.481  22.832  25.674  1.00  0.00     0.010 A 
ATOM     77  C   UNL A   1      43.075  22.521  28.044  1.00  0.00     0.010 A 
ATOM     78  C   UNL A   1      43.075  21.517  25.430  1.00  0.00     0.020 A 
ATOM     79  C   UNL A   1      42.692  21.198  27.807  1.00  0.00     0.020 A 
ATOM     80  C   UNL A   1      42.685  20.706  26.500  1.00  0.00     0.054 A 
BRANCH  80  81
ATOM     81  S   UNL A   1      42.224  18.982  26.167  1.00  0.00     0.124 S 
ATOM     82  O   UNL A   1      42.494  18.343  27.451  1.00  0.00    -0.237 OA
ATOM     83  O   UNL A   1      40.815  19.097  25.800  1.00  0.00    -0.237 OA
ATOM     84  O   UNL A   1      43.115  18.598  25.075  1.00  0.00    -0.744 OA
ENDBRANCH  80  81
ENDBRANCH  52  75
BRANCH  64  85
ATOM     85  C   UNL A   1      49.653  26.578  26.570  1.00  0.00    -0.014 A 
ATOM     86  C   UNL A   1      50.506  26.096  27.578  1.00  0.00     0.010 A 
ATOM     87  C   UNL A   1      50.078  26.542  25.230  1.00  0.00     0.010 A 
ATOM     88  C   UNL A   1      51.774  25.607  27.252  1.00  0.00     0.020 A 
ATOM     89  C   UNL A   1      51.335  26.032  24.899  1.00  0.00     0.020 A 
ATOM     90  C   UNL A   1      52.180  25.579  25.915  1.00  0.00     0.054 A 
BRANCH  90  91
ATOM     91  S   UNL A   1      53.809  24.891  25.510  1.00  0.00     0.124 S 
ATOM     92  O   UNL A   1      53.461  23.568  25.001  1.00  0.00    -0.237 OA
ATOM     93  O   UNL A   1      54.319  25.833  24.516  1.00  0.00    -0.237 OA
ATOM     94  O   UNL A   1      54.516  24.901  26.789  1.00  0.00    -0.744 OA
ENDBRANCH  90  91
ENDBRANCH  64  85
ENDBRANCH  38  39
ENDBRANCH  30  33
ENDBRANCH  28  29
ENDBRANCH   1  28
TORSDOF 18
ENDMDL
MODEL 2
REMARK VINA RESULT:     -12.1      3.257      9.036
REMARK SMILES C=CC[C@@]1(C(=O)NCCCCNC(=O)c2ccc(-c3c4nc(c(-c5ccc(S(=O)(=O)[O-])cc5)c5ccc([nH]5)c(-c5ccc(S(=O)(=O)[O-])cc5)c5nc(c(-c6ccc(S(=O)(=O)[O-])cc6)c6ccc3[nH]6)C=C5)C=C4)cc2)CCCN(C(=O)c2ccc3c(c2)OCO3)C1
REMARK SMILES IDX 10 1 9 2 8 3 7 4 5 5 6 6 4 8 75 9 90 10 76 11 78 12 77 13
REMARK SMILES IDX 3 14 2 15 1 16 79 17 80 18 81 19 82 20 86 21 83 22 85 23
REMARK SMILES IDX 84 24 87 25 89 26 88 27 11 28 12 29 13 30 14 32 15 33 16 34
REMARK SMILES IDX 74 35 17 36 73 37 18 38 19 39 20 40 67 41 21 42 72 43 66 44
REMARK SMILES IDX 68 45 22 46 71 47 65 48 64 49 23 51 53 52 34 53 52 54 35 55
REMARK SMILES IDX 38 56 51 57 69 58 36 59 37 60 50 62 70 63 39 64 24 65 25 66
REMARK SMILES IDX 33 67 26 68 32 69 27 70 28 71 29 72 30 73 31 74 54 75 55 76
REMARK SMILES IDX 63 77 56 78 62 79 57 80 58 81 59 82 60 83 61 84 40 85 41 86
REMARK SMILES IDX 49 87 42 88 48 89 43 90 44 91 45 92 46 93 47 94
REMARK H PARENT 7 7 12 31 68 50 38 61
REMARK Flexibility Score: inf
ROOT
ATOM      1  C   UNL A   1      33.014  28.349  25.815  1.00  0.00     0.023 C 
ENDROOT
BRANCH   1   2
ATOM      2  C   UNL A   1      33.896  27.507  24.906  1.00  0.00     0.023 C 
BRANCH   2   3
ATOM      3  C   UNL A   1      33.964  26.036  25.284  1.00  0.00     0.116 C 
BRANCH   3   4
ATOM      4  N   UNL A   1      34.349  25.216  24.161  1.00  0.00    -0.356 N 
ATOM      5  C   UNL A   1      34.704  23.921  24.013  1.00  0.00     0.228 C 
ATOM      6  O   UNL A   1      35.016  23.626  22.850  1.00  0.00    -0.274 OA
ATOM      7  H   UNL A   1      34.355  25.713  23.311  1.00  0.00     0.163 HD
BRANCH   5   8
ATOM      8  C   UNL A   1      34.788  22.849  25.146  1.00  0.00     0.070 C 
ATOM      9  C   UNL A   1      35.168  21.431  24.671  1.00  0.00     0.021 C 
ATOM     10  C   UNL A   1      33.493  22.903  25.979  1.00  0.00     0.137 C 
ATOM     11  C   UNL A   1      34.080  20.357  24.637  1.00  0.00     0.023 C 
ATOM     12  N   UNL A   1      32.409  22.052  25.506  1.00  0.00    -0.338 N 
ATOM     13  C   UNL A   1      32.734  20.652  25.282  1.00  0.00     0.120 C 
BRANCH   8  14
ATOM     14  C   UNL A   1      35.971  23.392  26.053  1.00  0.00     0.045 C 
BRANCH  14  15
ATOM     15  C   UNL A   1      37.391  23.110  25.619  1.00  0.00    -0.034 C 
ATOM     16  C   UNL A   1      38.465  23.463  26.337  1.00  0.00     0.004 C 
ENDBRANCH  14  15
ENDBRANCH   8  14
BRANCH  12  17
ATOM     17  C   UNL A   1      31.093  22.547  25.633  1.00  0.00     0.254 C 
ATOM     18  O   UNL A   1      30.221  21.993  26.297  1.00  0.00    -0.269 OA
BRANCH  17  19
ATOM     19  C   UNL A   1      30.744  23.851  25.017  1.00  0.00     0.043 A 
ATOM     20  C   UNL A   1      30.215  24.857  25.857  1.00  0.00     0.018 A 
ATOM     21  C   UNL A   1      31.005  24.111  23.670  1.00  0.00     0.064 A 
ATOM     22  C   UNL A   1      30.078  26.168  25.394  1.00  0.00     0.051 A 
ATOM     23  C   UNL A   1      30.885  25.418  23.253  1.00  0.00     0.166 A 
ATOM     24  C   UNL A   1      30.454  26.420  24.094  1.00  0.00     0.165 A 
ATOM     25  O   UNL A   1      31.227  25.889  22.022  1.00  0.00    -0.454 OA
ATOM     26  O   UNL A   1      30.471  27.639  23.494  1.00  0.00    -0.454 OA
ATOM     27  C   UNL A   1      31.102  27.311  22.241  1.00  0.00     0.468 C 
ENDBRANCH  17  19
ENDBRANCH  12  17
ENDBRANCH   5   8
ENDBRANCH   3   4
ENDBRANCH   2   3
ENDBRANCH   1   2
BRANCH   1  28
ATOM     28  C   UNL A   1      33.547  28.524  27.227  1.00  0.00     0.116 C 
BRANCH  28  29
ATOM     29  N   UNL A   1      33.513  29.897  27.716  1.00  0.00    -0.352 N 
ATOM     30  C   UNL A   1      34.543  30.651  28.245  1.00  0.00     0.251 C 
ATOM     31  H   UNL A   1      32.640  30.348  27.660  1.00  0.00     0.163 HD
ATOM     32  O   UNL A   1      34.338  31.786  28.648  1.00  0.00    -0.269 OA
BRANCH  30  33
ATOM     33  C   UNL A   1      35.883  30.033  28.370  1.00  0.00     0.039 A 
ATOM     34  C   UNL A   1      36.759  30.082  27.283  1.00  0.00     0.014 A 
ATOM     35  C   UNL A   1      36.310  29.526  29.597  1.00  0.00     0.014 A 
ATOM     36  C   UNL A   1      38.098  29.727  27.465  1.00  0.00     0.010 A 
ATOM     37  C   UNL A   1      37.664  29.299  29.804  1.00  0.00     0.010 A 
ATOM     38  C   UNL A   1      38.578  29.398  28.743  1.00  0.00    -0.014 A 
BRANCH  38  39
ATOM     39  C   UNL A   1      40.022  29.156  29.010  1.00  0.00     0.031 A 
ATOM     40  C   UNL A   1      40.641  27.834  28.632  1.00  0.00     0.074 A 
ATOM     41  C   UNL A   1      40.750  30.067  29.689  1.00  0.00     0.049 A 
ATOM     42  N   UNL A   1      41.833  27.370  28.906  1.00  0.00    -0.248 NA
ATOM     43  C   UNL A   1      39.786  26.886  27.895  1.00  0.00     0.031 C 
ATOM     44  C   UNL A   1      40.258  31.355  30.188  1.00  0.00     0.029 A 
ATOM     45  N   UNL A   1      42.063  30.041  30.092  1.00  0.00    -0.354 N 
ATOM     46  C   UNL A   1      41.849  26.065  28.426  1.00  0.00     0.074 A 
ATOM     47  C   UNL A   1      40.532  25.793  27.897  1.00  0.00     0.031 C 
ATOM     48  C   UNL A   1      41.262  32.008  30.795  1.00  0.00     0.029 A 
ATOM     49  C   UNL A   1      42.458  31.172  30.769  1.00  0.00     0.049 A 
ATOM     50  H   UNL A   1      42.667  29.285  29.911  1.00  0.00     0.167 HD
ATOM     51  C   UNL A   1      42.873  25.179  28.399  1.00  0.00     0.031 A 
ATOM     52  C   UNL A   1      43.646  31.500  31.314  1.00  0.00     0.031 A 
ATOM     53  C   UNL A   1      44.198  25.473  28.868  1.00  0.00     0.049 A 
ATOM     54  C   UNL A   1      44.793  30.534  31.204  1.00  0.00     0.074 A 
ATOM     55  C   UNL A   1      45.331  24.682  28.798  1.00  0.00     0.029 A 
ATOM     56  N   UNL A   1      44.574  26.660  29.480  1.00  0.00    -0.354 N 
ATOM     57  N   UNL A   1      44.808  29.332  30.678  1.00  0.00    -0.248 NA
ATOM     58  C   UNL A   1      46.086  30.973  31.747  1.00  0.00     0.031 C 
ATOM     59  C   UNL A   1      46.387  25.380  29.398  1.00  0.00     0.029 A 
ATOM     60  C   UNL A   1      45.919  26.620  29.801  1.00  0.00     0.049 A 
ATOM     61  H   UNL A   1      43.972  27.418  29.659  1.00  0.00     0.167 HD
ATOM     62  C   UNL A   1      46.116  28.880  30.808  1.00  0.00     0.074 A 
ATOM     63  C   UNL A   1      46.866  29.942  31.446  1.00  0.00     0.031 C 
ATOM     64  C   UNL A   1      46.648  27.690  30.432  1.00  0.00     0.031 A 
BRANCH  51  65
ATOM     65  C   UNL A   1      42.589  23.813  27.833  1.00  0.00    -0.014 A 
ATOM     66  C   UNL A   1      42.150  22.760  28.657  1.00  0.00     0.010 A 
ATOM     67  C   UNL A   1      42.766  23.575  26.458  1.00  0.00     0.010 A 
ATOM     68  C   UNL A   1      41.960  21.481  28.131  1.00  0.00     0.020 A 
ATOM     69  C   UNL A   1      42.545  22.304  25.921  1.00  0.00     0.020 A 
ATOM     70  C   UNL A   1      42.169  21.259  26.767  1.00  0.00     0.054 A 
BRANCH  70  71
ATOM     71  S   UNL A   1      41.924  19.586  26.109  1.00  0.00     0.124 S 
ATOM     72  O   UNL A   1      40.487  19.576  25.847  1.00  0.00    -0.237 OA
ATOM     73  O   UNL A   1      42.778  19.576  24.924  1.00  0.00    -0.237 OA
ATOM     74  O   UNL A   1      42.365  18.719  27.199  1.00  0.00    -0.744 OA
ENDBRANCH  70  71
ENDBRANCH  51  65
BRANCH  52  75
ATOM     75  C   UNL A   1      43.817  32.818  31.983  1.00  0.00    -0.014 A 
ATOM     76  C   UNL A   1      44.290  33.927  31.257  1.00  0.00     0.010 A 
ATOM     77  C   UNL A   1      43.482  32.983  33.339  1.00  0.00     0.010 A 
ATOM     78  C   UNL A   1      44.438  35.171  31.877  1.00  0.00     0.020 A 
ATOM     79  C   UNL A   1      43.605  34.232  33.956  1.00  0.00     0.020 A 
ATOM     80  C   UNL A   1      44.091  35.317  33.223  1.00  0.00     0.054 A 
BRANCH  80  81
ATOM     81  S   UNL A   1      44.229  36.957  33.989  1.00  0.00     0.124 S 
ATOM     82  O   UNL A   1      44.978  36.662  35.206  1.00  0.00    -0.237 OA
ATOM     83  O   UNL A   1      44.947  37.721  32.972  1.00  0.00    -0.237 OA
ATOM     84  O   UNL A   1      42.837  37.355  34.189  1.00  0.00    -0.744 OA
ENDBRANCH  80  81
ENDBRANCH  52  75
BRANCH  64  85
ATOM     85  C   UNL A   1      48.118  27.482  30.672  1.00  0.00    -0.014 A 
ATOM     86  C   UNL A   1      48.587  26.934  31.879  1.00  0.00     0.010 A 
ATOM     87  C   UNL A   1      49.035  27.779  29.648  1.00  0.00     0.010 A 
ATOM     88  C   UNL A   1      49.952  26.708  32.066  1.00  0.00     0.020 A 
ATOM     89  C   UNL A   1      50.399  27.534  29.823  1.00  0.00     0.020 A 
ATOM     90  C   UNL A   1      50.850  27.010  31.038  1.00  0.00     0.054 A 
BRANCH  90  91
ATOM     91  S   UNL A   1      52.612  26.659  31.283  1.00  0.00     0.124 S 
ATOM     92  O   UNL A   1      52.591  25.249  31.658  1.00  0.00    -0.237 OA
ATOM     93  O   UNL A   1      53.186  26.953  29.973  1.00  0.00    -0.237 OA
ATOM     94  O   UNL A   1      53.003  27.581  32.348  1.00  0.00    -0.744 OA
ENDBRANCH  90  91
ENDBRANCH  64  85
ENDBRANCH  38  39
ENDBRANCH  30  33
ENDBRANCH  28  29
ENDBRANCH   1  28
TORSDOF 18
ENDMDL
MODEL 3
REMARK VINA RESULT:     -12.1      4.320     10.546
REMARK SMILES C=CC[C@@]1(C(=O)NCCCCNC(=O)c2ccc(-c3c4nc(c(-c5ccc(S(=O)(=O)[O-])cc5)c5ccc([nH]5)c(-c5ccc(S(=O)(=O)[O-])cc5)c5nc(c(-c6ccc(S(=O)(=O)[O-])cc6)c6ccc3[nH]6)C=C5)C=C4)cc2)CCCN(C(=O)c2ccc3c(c2)OCO3)C1
REMARK SMILES IDX 10 1 9 2 8 3 7 4 5 5 6 6 4 8 75 9 90 10 76 11 78 12 77 13
REMARK SMILES IDX 3 14 2 15 1 16 79 17 80 18 81 19 82 20 86 21 83 22 85 23
REMARK SMILES IDX 84 24 87 25 89 26 88 27 11 28 12 29 13 30 14 32 15 33 16 34
REMARK SMILES IDX 74 35 17 36 73 37 18 38 19 39 20 40 67 41 21 42 72 43 66 44
REMARK SMILES IDX 68 45 22 46 71 47 65 48 64 49 23 51 53 52 34 53 52 54 35 55
REMARK SMILES IDX 38 56 51 57 69 58 36 59 37 60 50 62 70 63 39 64 24 65 25 66
REMARK SMILES IDX 33 67 26 68 32 69 27 70 28 71 29 72 30 73 31 74 54 75 55 76
REMARK SMILES IDX 63 77 56 78 62 79 57 80 58 81 59 82 60 83 61 84 40 85 41 86
REMARK SMILES IDX 49 87 42 88 48 89 43 90 44 91 45 92 46 93 47 94
REMARK H PARENT 7 7 12 31 68 50 38 61
REMARK Flexibility Score: inf
ROOT
ATOM      1  C   UNL A   1      36.714  23.176  23.839  1.00  0.00     0.023 C 
ENDROOT
BRANCH   1   2
ATOM      2  C   UNL A   1      35.218  23.178  23.562  1.00  0.00     0.023 C 
BRANCH   2   3
ATOM      3  C   UNL A   1      34.553  24.537  23.712  1.00  0.00     0.116 C 
BRANCH   3   4
ATOM      4  N   UNL A   1      33.640  24.803  22.627  1.00  0.00    -0.356 N 
ATOM      5  C   UNL A   1      32.623  25.673  22.439  1.00  0.00     0.228 C 
ATOM      6  O   UNL A   1      32.050  25.531  21.349  1.00  0.00    -0.274 OA
ATOM      7  H   UNL A   1      33.792  24.219  21.849  1.00  0.00     0.163 HD
BRANCH   5   8
ATOM      8  C   UNL A   1      32.124  26.746  23.457  1.00  0.00     0.070 C 
ATOM      9  C   UNL A   1      33.231  27.642  24.051  1.00  0.00     0.021 C 
ATOM     10  C   UNL A   1      31.243  26.055  24.516  1.00  0.00     0.137 C 
ATOM     11  C   UNL A   1      33.653  27.412  25.504  1.00  0.00     0.023 C 
ATOM     12  N   UNL A   1      31.951  25.544  25.683  1.00  0.00    -0.338 N 
ATOM     13  C   UNL A   1      32.823  26.481  26.373  1.00  0.00     0.120 C 
BRANCH   8  14
ATOM     14  C   UNL A   1      31.183  27.662  22.567  1.00  0.00     0.045 C 
BRANCH  14  15
ATOM     15  C   UNL A   1      29.776  27.927  23.052  1.00  0.00    -0.034 C 
ATOM     16  C   UNL A   1      29.164  29.111  22.926  1.00  0.00     0.004 C 
ENDBRANCH  14  15
ENDBRANCH   8  14
BRANCH  12  17
ATOM     17  C   UNL A   1      31.489  24.334  26.244  1.00  0.00     0.254 C 
ATOM     18  O   UNL A   1      30.488  24.252  26.950  1.00  0.00    -0.269 OA
BRANCH  17  19
ATOM     19  C   UNL A   1      32.178  23.064  25.903  1.00  0.00     0.043 A 
ATOM     20  C   UNL A   1      33.132  22.565  26.817  1.00  0.00     0.018 A 
ATOM     21  C   UNL A   1      31.837  22.339  24.759  1.00  0.00     0.064 A 
ATOM     22  C   UNL A   1      33.648  21.275  26.670  1.00  0.00     0.051 A 
ATOM     23  C   UNL A   1      32.342  21.061  24.658  1.00  0.00     0.166 A 
ATOM     24  C   UNL A   1      33.205  20.538  25.595  1.00  0.00     0.165 A 
ATOM     25  O   UNL A   1      32.015  20.157  23.695  1.00  0.00    -0.454 OA
ATOM     26  O   UNL A   1      33.526  19.244  25.333  1.00  0.00    -0.454 OA
ATOM     27  C   UNL A   1      32.653  18.972  24.219  1.00  0.00     0.468 C 
ENDBRANCH  17  19
ENDBRANCH  12  17
ENDBRANCH   5   8
ENDBRANCH   3   4
ENDBRANCH   2   3
ENDBRANCH   1   2
BRANCH   1  28
ATOM     28  C   UNL A   1      37.083  23.130  25.313  1.00  0.00     0.116 C 
BRANCH  28  29
ATOM     29  N   UNL A   1      38.294  22.374  25.605  1.00  0.00    -0.352 N 
ATOM     30  C   UNL A   1      39.424  22.782  26.287  1.00  0.00     0.251 C 
ATOM     31  H   UNL A   1      38.309  21.447  25.273  1.00  0.00     0.163 HD
ATOM     32  O   UNL A   1      40.379  22.030  26.414  1.00  0.00    -0.269 OA
BRANCH  30  33
ATOM     33  C   UNL A   1      39.478  24.168  26.806  1.00  0.00     0.039 A 
ATOM     34  C   UNL A   1      39.036  24.425  28.105  1.00  0.00     0.014 A 
ATOM     35  C   UNL A   1      40.081  25.175  26.053  1.00  0.00     0.014 A 
ATOM     36  C   UNL A   1      39.308  25.667  28.688  1.00  0.00     0.010 A 
ATOM     37  C   UNL A   1      40.461  26.356  26.678  1.00  0.00     0.010 A 
ATOM     38  C   UNL A   1      40.081  26.618  28.004  1.00  0.00    -0.014 A 
BRANCH  38  39
ATOM     39  C   UNL A   1      40.516  27.892  28.640  1.00  0.00     0.031 A 
ATOM     40  C   UNL A   1      41.896  27.996  29.237  1.00  0.00     0.074 A 
ATOM     41  C   UNL A   1      39.644  28.911  28.787  1.00  0.00     0.049 A 
ATOM     42  N   UNL A   1      42.416  28.955  29.959  1.00  0.00    -0.248 NA
ATOM     43  C   UNL A   1      42.794  26.844  29.041  1.00  0.00     0.031 C 
ATOM     44  C   UNL A   1      38.250  28.916  28.331  1.00  0.00     0.029 A 
ATOM     45  N   UNL A   1      39.798  30.141  29.379  1.00  0.00    -0.354 N 
ATOM     46  C   UNL A   1      43.671  28.499  30.346  1.00  0.00     0.074 A 
ATOM     47  C   UNL A   1      43.811  27.157  29.828  1.00  0.00     0.031 C 
ATOM     48  C   UNL A   1      37.692  30.101  28.627  1.00  0.00     0.029 A 
ATOM     49  C   UNL A   1      38.668  30.925  29.331  1.00  0.00     0.049 A 
ATOM     50  H   UNL A   1      40.639  30.435  29.797  1.00  0.00     0.167 HD
ATOM     51  C   UNL A   1      44.634  29.145  31.045  1.00  0.00     0.031 A 
ATOM     52  C   UNL A   1      38.440  32.166  29.803  1.00  0.00     0.031 A 
ATOM     53  C   UNL A   1      44.518  30.500  31.505  1.00  0.00     0.049 A 
ATOM     54  C   UNL A   1      39.549  32.897  30.507  1.00  0.00     0.074 A 
ATOM     55  C   UNL A   1      45.470  31.281  32.135  1.00  0.00     0.029 A 
ATOM     56  N   UNL A   1      43.382  31.285  31.368  1.00  0.00    -0.354 N 
ATOM     57  N   UNL A   1      40.757  32.475  30.798  1.00  0.00    -0.248 NA
ATOM     58  C   UNL A   1      39.271  34.275  30.935  1.00  0.00     0.031 C 
ATOM     59  C   UNL A   1      44.899  32.529  32.409  1.00  0.00     0.029 A 
ATOM     60  C   UNL A   1      43.606  32.538  31.910  1.00  0.00     0.049 A 
ATOM     61  H   UNL A   1      42.541  30.993  30.948  1.00  0.00     0.167 HD
ATOM     62  C   UNL A   1      41.390  33.543  31.423  1.00  0.00     0.074 A 
ATOM     63  C   UNL A   1      40.439  34.635  31.453  1.00  0.00     0.031 C 
ATOM     64  C   UNL A   1      42.648  33.613  31.926  1.00  0.00     0.031 A 
BRANCH  51  65
ATOM     65  C   UNL A   1      45.900  28.384  31.340  1.00  0.00    -0.014 A 
ATOM     66  C   UNL A   1      45.996  27.538  32.461  1.00  0.00     0.010 A 
ATOM     67  C   UNL A   1      47.012  28.518  30.489  1.00  0.00     0.010 A 
ATOM     68  C   UNL A   1      47.198  26.894  32.762  1.00  0.00     0.020 A 
ATOM     69  C   UNL A   1      48.207  27.850  30.769  1.00  0.00     0.020 A 
ATOM     70  C   UNL A   1      48.300  27.064  31.918  1.00  0.00     0.054 A 
BRANCH  70  71
ATOM     71  S   UNL A   1      49.853  26.225  32.337  1.00  0.00     0.124 S 
ATOM     72  O   UNL A   1      49.730  24.978  31.587  1.00  0.00    -0.237 OA
ATOM     73  O   UNL A   1      50.865  27.156  31.845  1.00  0.00    -0.237 OA
ATOM     74  O   UNL A   1      49.791  26.088  33.790  1.00  0.00    -0.744 OA
ENDBRANCH  70  71
ENDBRANCH  51  65
BRANCH  52  75
ATOM     75  C   UNL A   1      37.113  32.808  29.594  1.00  0.00    -0.014 A 
ATOM     76  C   UNL A   1      36.081  32.626  30.533  1.00  0.00     0.010 A 
ATOM     77  C   UNL A   1      36.881  33.626  28.473  1.00  0.00     0.010 A 
ATOM     78  C   UNL A   1      34.839  33.239  30.349  1.00  0.00     0.020 A 
ATOM     79  C   UNL A   1      35.647  34.260  28.299  1.00  0.00     0.020 A 
ATOM     80  C   UNL A   1      34.630  34.056  29.234  1.00  0.00     0.054 A 
BRANCH  80  81
ATOM     81  S   UNL A   1      33.030  34.894  29.051  1.00  0.00     0.124 S 
ATOM     82  O   UNL A   1      32.528  34.893  30.421  1.00  0.00    -0.237 OA
ATOM     83  O   UNL A   1      33.415  36.198  28.518  1.00  0.00    -0.237 OA
ATOM     84  O   UNL A   1      32.304  34.038  28.115  1.00  0.00    -0.744 OA
ENDBRANCH  80  81
ENDBRANCH  52  75
BRANCH  64  85
ATOM     85  C   UNL A   1      43.081  34.922  32.528  1.00  0.00    -0.014 A 
ATOM     86  C   UNL A   1      43.630  35.941  31.730  1.00  0.00     0.010 A 
ATOM     87  C   UNL A   1      42.872  35.156  33.899  1.00  0.00     0.010 A 
ATOM     88  C   UNL A   1      43.986  37.166  32.300  1.00  0.00     0.020 A 
ATOM     89  C   UNL A   1      43.205  36.387  34.467  1.00  0.00     0.020 A 
ATOM     90  C   UNL A   1      43.772  37.381  33.665  1.00  0.00     0.054 A 
BRANCH  90  91
ATOM     91  S   UNL A   1      44.192  38.997  34.372  1.00  0.00     0.124 S 
ATOM     92  O   UNL A   1      45.519  39.237  33.812  1.00  0.00    -0.237 OA
ATOM     93  O   UNL A   1      43.129  39.859  33.861  1.00  0.00    -0.237 OA
ATOM     94  O   UNL A   1      44.157  38.763  35.814  1.00  0.00    -0.744 OA
ENDBRANCH  90  91
ENDBRANCH  64  85
ENDBRANCH  38  39
ENDBRANCH  30  33
ENDBRANCH  28  29
ENDBRANCH   1  28
TORSDOF 18
ENDMDL
