MODEL 1
REMARK VINA RESULT:     -10.7      0.000      0.000
REMARK SMILES COc1ccccc1-c1ccc(O)c(C(=O)NCCCCNC(=O)c2ccc(-c3c4nc(c(-c5ccc(S(=O)(=O)[O-])cc5)c5ccc([nH]5)c(-c5ccc(S(=O)(=O)[O-])cc5)c5nc(c(-c6ccc(S(=O)(=O)[O-])cc6)c6ccc3[nH]6)C=C5)C=C4)cc2)c1
REMARK SMILES IDX 20 1 19 2 18 3 17 4 15 5 16 6 14 8 9 9 10 10 85 11 11 12
REMARK SMILES IDX 12 13 8 14 3 15 4 16 5 17 7 18 6 19 2 20 1 21 13 22 21 24
REMARK SMILES IDX 22 25 23 26 24 28 25 29 26 30 84 31 27 32 83 33 28 34 29 35
REMARK SMILES IDX 30 36 77 37 31 38 82 39 76 40 78 41 32 42 81 43 75 44 74 45
REMARK SMILES IDX 33 47 63 48 44 49 62 50 45 51 48 52 61 53 79 54 46 55 47 56
REMARK SMILES IDX 60 58 80 59 49 60 34 61 35 62 43 63 36 64 42 65 37 66 38 67
REMARK SMILES IDX 39 68 40 69 41 70 64 71 65 72 73 73 66 74 72 75 67 76 68 77
REMARK SMILES IDX 69 78 70 79 71 80 50 81 51 82 59 83 52 84 58 85 53 86 54 87
REMARK SMILES IDX 55 88 56 89 57 90
REMARK H PARENT 17 7 13 23 22 27 78 46 48 57
REMARK Flexibility Score: inf
ROOT
ATOM      1  C   UNL A   1      35.799  23.668  26.105  1.00  0.00     0.023 C 
ENDROOT
BRANCH   1   2
ATOM      2  C   UNL A   1      35.238  22.281  26.430  1.00  0.00     0.023 C 
BRANCH   2   3
ATOM      3  C   UNL A   1      34.115  22.284  27.472  1.00  0.00     0.116 C 
BRANCH   3   4
ATOM      4  N   UNL A   1      32.856  21.859  26.886  1.00  0.00    -0.352 N 
ATOM      5  C   UNL A   1      32.095  22.361  25.860  1.00  0.00     0.255 C 
ATOM      6  O   UNL A   1      31.098  21.720  25.517  1.00  0.00    -0.269 OA
ATOM      7  H   UNL A   1      32.473  21.055  27.308  1.00  0.00     0.163 HD
BRANCH   5   8
ATOM      8  C   UNL A   1      32.427  23.590  25.085  1.00  0.00     0.082 A 
ATOM      9  C   UNL A   1      32.752  26.015  24.904  1.00  0.00    -0.014 A 
ATOM     10  C   UNL A   1      33.240  25.849  23.604  1.00  0.00     0.013 A 
ATOM     11  C   UNL A   1      32.287  24.883  25.595  1.00  0.00     0.026 A 
ATOM     12  C   UNL A   1      33.307  24.577  23.036  1.00  0.00     0.047 A 
ATOM     13  C   UNL A   1      32.918  23.460  23.776  1.00  0.00     0.128 A 
BRANCH   9  14
ATOM     14  C   UNL A   1      32.803  27.314  25.593  1.00  0.00     0.024 A 
ATOM     15  C   UNL A   1      31.782  28.280  25.445  1.00  0.00     0.126 A 
ATOM     16  C   UNL A   1      31.887  29.538  26.043  1.00  0.00     0.047 A 
ATOM     17  C   UNL A   1      32.993  29.846  26.829  1.00  0.00     0.004 A 
ATOM     18  C   UNL A   1      33.908  27.648  26.393  1.00  0.00     0.012 A 
ATOM     19  C   UNL A   1      34.002  28.903  27.006  1.00  0.00     0.001 A 
BRANCH  15  20
ATOM     20  O   UNL A   1      30.680  28.101  24.641  1.00  0.00    -0.496 OA
ATOM     21  C   UNL A   1      30.722  28.907  23.463  1.00  0.00     0.278 C 
ENDBRANCH  15  20
ENDBRANCH   9  14
BRANCH  13  22
ATOM     22  O   UNL A   1      33.060  22.251  23.143  1.00  0.00    -0.507 OA
ATOM     23  H   UNL A   1      33.001  22.202  22.208  1.00  0.00     0.293 HD
ENDBRANCH  13  22
ENDBRANCH   5   8
ENDBRANCH   3   4
ENDBRANCH   2   3
ENDBRANCH   1   2
BRANCH   1  24
ATOM     24  C   UNL A   1      36.943  23.674  25.099  1.00  0.00     0.116 C 
BRANCH  24  25
ATOM     25  N   UNL A   1      37.989  22.710  25.406  1.00  0.00    -0.352 N 
ATOM     26  C   UNL A   1      39.135  22.913  26.140  1.00  0.00     0.251 C 
ATOM     27  H   UNL A   1      37.861  21.803  25.045  1.00  0.00     0.163 HD
ATOM     28  O   UNL A   1      39.981  22.035  26.239  1.00  0.00    -0.269 OA
BRANCH  26  29
ATOM     29  C   UNL A   1      39.344  24.235  26.767  1.00  0.00     0.039 A 
ATOM     30  C   UNL A   1      38.886  24.445  28.070  1.00  0.00     0.014 A 
ATOM     31  C   UNL A   1      40.057  25.229  26.094  1.00  0.00     0.014 A 
ATOM     32  C   UNL A   1      39.213  25.630  28.729  1.00  0.00     0.010 A 
ATOM     33  C   UNL A   1      40.431  26.384  26.773  1.00  0.00     0.010 A 
ATOM     34  C   UNL A   1      40.023  26.589  28.100  1.00  0.00    -0.014 A 
BRANCH  34  35
ATOM     35  C   UNL A   1      40.479  27.808  28.811  1.00  0.00     0.031 A 
ATOM     36  C   UNL A   1      41.819  27.822  29.492  1.00  0.00     0.074 A 
ATOM     37  C   UNL A   1      39.648  28.863  28.929  1.00  0.00     0.049 A 
ATOM     38  N   UNL A   1      42.340  28.737  30.267  1.00  0.00    -0.248 NA
ATOM     39  C   UNL A   1      42.672  26.639  29.297  1.00  0.00     0.031 C 
ATOM     40  C   UNL A   1      38.306  28.956  28.349  1.00  0.00     0.029 A 
ATOM     41  N   UNL A   1      39.804  30.054  29.592  1.00  0.00    -0.354 N 
ATOM     42  C   UNL A   1      43.567  28.230  30.675  1.00  0.00     0.074 A 
ATOM     43  C   UNL A   1      43.698  26.914  30.088  1.00  0.00     0.031 C 
ATOM     44  C   UNL A   1      37.766  30.143  28.673  1.00  0.00     0.029 A 
ATOM     45  C   UNL A   1      38.706  30.878  29.514  1.00  0.00     0.049 A 
ATOM     46  H   UNL A   1      40.624  30.295  30.080  1.00  0.00     0.167 HD
ATOM     47  C   UNL A   1      44.506  28.812  31.460  1.00  0.00     0.031 A 
ATOM     48  C   UNL A   1      38.476  32.085  30.066  1.00  0.00     0.031 A 
ATOM     49  C   UNL A   1      44.382  30.129  32.023  1.00  0.00     0.049 A 
ATOM     50  C   UNL A   1      39.538  32.717  30.921  1.00  0.00     0.074 A 
ATOM     51  C   UNL A   1      45.304  30.830  32.782  1.00  0.00     0.029 A 
ATOM     52  N   UNL A   1      43.270  30.946  31.886  1.00  0.00    -0.354 N 
ATOM     53  N   UNL A   1      40.715  32.245  31.252  1.00  0.00    -0.248 NA
ATOM     54  C   UNL A   1      39.245  34.049  31.470  1.00  0.00     0.031 C 
ATOM     55  C   UNL A   1      44.735  32.059  33.132  1.00  0.00     0.029 A 
ATOM     56  C   UNL A   1      43.477  32.139  32.556  1.00  0.00     0.049 A 
ATOM     57  H   UNL A   1      42.455  30.713  31.387  1.00  0.00     0.167 HD
ATOM     58  C   UNL A   1      41.313  33.230  32.029  1.00  0.00     0.074 A 
ATOM     59  C   UNL A   1      40.372  34.329  32.111  1.00  0.00     0.031 C 
ATOM     60  C   UNL A   1      42.532  33.225  32.620  1.00  0.00     0.031 A 
BRANCH  47  61
ATOM     61  C   UNL A   1      45.748  28.018  31.756  1.00  0.00    -0.014 A 
ATOM     62  C   UNL A   1      46.884  28.120  30.935  1.00  0.00     0.010 A 
ATOM     63  C   UNL A   1      45.789  27.181  32.886  1.00  0.00     0.010 A 
ATOM     64  C   UNL A   1      48.026  27.364  31.212  1.00  0.00     0.020 A 
ATOM     65  C   UNL A   1      46.939  26.442  33.180  1.00  0.00     0.020 A 
ATOM     66  C   UNL A   1      48.043  26.524  32.330  1.00  0.00     0.054 A 
BRANCH  66  67
ATOM     67  S   UNL A   1      49.542  25.563  32.676  1.00  0.00     0.124 S 
ATOM     68  O   UNL A   1      50.432  26.583  33.224  1.00  0.00    -0.237 OA
ATOM     69  O   UNL A   1      49.071  24.562  33.630  1.00  0.00    -0.237 OA
ATOM     70  O   UNL A   1      49.925  25.038  31.368  1.00  0.00    -0.744 OA
ENDBRANCH  66  67
ENDBRANCH  47  61
BRANCH  48  71
ATOM     71  C   UNL A   1      37.184  32.780  29.818  1.00  0.00    -0.014 A 
ATOM     72  C   UNL A   1      36.179  32.781  30.802  1.00  0.00     0.010 A 
ATOM     73  C   UNL A   1      36.957  33.457  28.607  1.00  0.00     0.010 A 
ATOM     74  C   UNL A   1      34.965  33.433  30.573  1.00  0.00     0.020 A 
ATOM     75  C   UNL A   1      35.752  34.128  28.383  1.00  0.00     0.020 A 
ATOM     76  C   UNL A   1      34.759  34.103  29.364  1.00  0.00     0.054 A 
BRANCH  76  77
ATOM     77  S   UNL A   1      33.196  34.990  29.106  1.00  0.00     0.124 S 
ATOM     78  O   UNL A   1      33.661  36.303  28.674  1.00  0.00    -0.237 OA
ATOM     79  O   UNL A   1      32.539  34.182  28.082  1.00  0.00    -0.237 OA
ATOM     80  O   UNL A   1      32.562  34.948  30.421  1.00  0.00    -0.744 OA
ENDBRANCH  76  77
ENDBRANCH  48  71
BRANCH  60  81
ATOM     81  C   UNL A   1      42.939  34.457  33.380  1.00  0.00    -0.014 A 
ATOM     82  C   UNL A   1      42.698  34.570  34.759  1.00  0.00     0.010 A 
ATOM     83  C   UNL A   1      43.637  35.481  32.715  1.00  0.00     0.010 A 
ATOM     84  C   UNL A   1      43.135  35.697  35.460  1.00  0.00     0.020 A 
ATOM     85  C   UNL A   1      44.094  36.600  33.417  1.00  0.00     0.020 A 
ATOM     86  C   UNL A   1      43.832  36.705  34.784  1.00  0.00     0.054 A 
BRANCH  86  87
ATOM     87  S   UNL A   1      44.446  38.128  35.726  1.00  0.00     0.124 S 
ATOM     88  O   UNL A   1      45.893  37.950  35.637  1.00  0.00    -0.237 OA
ATOM     89  O   UNL A   1      43.906  39.265  34.985  1.00  0.00    -0.237 OA
ATOM     90  O   UNL A   1      43.875  37.933  37.057  1.00  0.00    -0.744 OA
ENDBRANCH  86  87
ENDBRANCH  60  81
ENDBRANCH  34  35
ENDBRANCH  26  29
ENDBRANCH  24  25
ENDBRANCH   1  24
TORSDOF 17
ENDMDL
MODEL 2
REMARK VINA RESULT:     -10.6      2.810      9.142
REMARK SMILES COc1ccccc1-c1ccc(O)c(C(=O)NCCCCNC(=O)c2ccc(-c3c4nc(c(-c5ccc(S(=O)(=O)[O-])cc5)c5ccc([nH]5)c(-c5ccc(S(=O)(=O)[O-])cc5)c5nc(c(-c6ccc(S(=O)(=O)[O-])cc6)c6ccc3[nH]6)C=C5)C=C4)cc2)c1
REMARK SMILES IDX 20 1 19 2 18 3 17 4 15 5 16 6 14 8 9 9 10 10 85 11 11 12
REMARK SMILES IDX 12 13 8 14 3 15 4 16 5 17 7 18 6 19 2 20 1 21 13 22 21 24
REMARK SMILES IDX 22 25 23 26 24 28 25 29 26 30 84 31 27 32 83 33 28 34 29 35
REMARK SMILES IDX 30 36 77 37 31 38 82 39 76 40 78 41 32 42 81 43 75 44 74 45
REMARK SMILES IDX 33 47 63 48 44 49 62 50 45 51 48 52 61 53 79 54 46 55 47 56
REMARK SMILES IDX 60 58 80 59 49 60 34 61 35 62 43 63 36 64 42 65 37 66 38 67
REMARK SMILES IDX 39 68 40 69 41 70 64 71 65 72 73 73 66 74 72 75 67 76 68 77
REMARK SMILES IDX 69 78 70 79 71 80 50 81 51 82 59 83 52 84 58 85 53 86 54 87
REMARK SMILES IDX 55 88 56 89 57 90
REMARK H PARENT 17 7 13 23 22 27 78 46 48 57
REMARK Flexibility Score: inf
ROOT
ATOM      1  C   UNL A   1      33.410  27.615  26.529  1.00  0.00     0.023 C 
ENDROOT
BRANCH   1   2
ATOM      2  C   UNL A   1      31.880  27.598  26.495  1.00  0.00     0.023 C 
BRANCH   2   3
ATOM      3  C   UNL A   1      31.280  26.391  25.768  1.00  0.00     0.116 C 
BRANCH   3   4
ATOM      4  N   UNL A   1      31.282  25.213  26.618  1.00  0.00    -0.352 N 
ATOM      5  C   UNL A   1      32.049  24.075  26.621  1.00  0.00     0.255 C 
ATOM      6  O   UNL A   1      31.880  23.270  27.542  1.00  0.00    -0.269 OA
ATOM      7  H   UNL A   1      30.600  25.234  27.328  1.00  0.00     0.163 HD
BRANCH   5   8
ATOM      8  C   UNL A   1      33.121  23.776  25.629  1.00  0.00     0.082 A 
ATOM      9  C   UNL A   1      35.458  23.328  25.035  1.00  0.00    -0.014 A 
ATOM     10  C   UNL A   1      35.065  23.033  23.724  1.00  0.00     0.013 A 
ATOM     11  C   UNL A   1      34.481  23.764  25.946  1.00  0.00     0.026 A 
ATOM     12  C   UNL A   1      33.723  23.125  23.357  1.00  0.00     0.047 A 
ATOM     13  C   UNL A   1      32.762  23.477  24.304  1.00  0.00     0.128 A 
BRANCH   9  14
ATOM     14  C   UNL A   1      36.835  23.103  25.501  1.00  0.00     0.024 A 
ATOM     15  C   UNL A   1      37.454  21.835  25.423  1.00  0.00     0.126 A 
ATOM     16  C   UNL A   1      38.733  21.622  25.945  1.00  0.00     0.047 A 
ATOM     17  C   UNL A   1      39.434  22.677  26.523  1.00  0.00     0.004 A 
ATOM     18  C   UNL A   1      37.564  24.151  26.087  1.00  0.00     0.012 A 
ATOM     19  C   UNL A   1      38.851  23.940  26.593  1.00  0.00     0.001 A 
BRANCH  15  20
ATOM     20  O   UNL A   1      36.827  20.714  24.931  1.00  0.00    -0.496 OA
ATOM     21  C   UNL A   1      37.711  19.599  24.807  1.00  0.00     0.278 C 
ENDBRANCH  15  20
ENDBRANCH   9  14
BRANCH  13  22
ATOM     22  O   UNL A   1      31.466  23.500  23.854  1.00  0.00    -0.507 OA
ATOM     23  H   UNL A   1      30.887  22.791  24.059  1.00  0.00     0.293 HD
ENDBRANCH  13  22
ENDBRANCH   5   8
ENDBRANCH   3   4
ENDBRANCH   2   3
ENDBRANCH   1   2
BRANCH   1  24
ATOM     24  C   UNL A   1      34.053  28.785  25.795  1.00  0.00     0.116 C 
BRANCH  24  25
ATOM     25  N   UNL A   1      33.720  30.081  26.369  1.00  0.00    -0.352 N 
ATOM     26  C   UNL A   1      34.382  30.756  27.368  1.00  0.00     0.251 C 
ATOM     27  H   UNL A   1      32.925  30.528  25.996  1.00  0.00     0.163 HD
ATOM     28  O   UNL A   1      33.933  31.799  27.824  1.00  0.00    -0.269 OA
BRANCH  26  29
ATOM     29  C   UNL A   1      35.621  30.167  27.915  1.00  0.00     0.039 A 
ATOM     30  C   UNL A   1      36.835  30.433  27.276  1.00  0.00     0.014 A 
ATOM     31  C   UNL A   1      35.586  29.421  29.096  1.00  0.00     0.014 A 
ATOM     32  C   UNL A   1      38.027  30.015  27.867  1.00  0.00     0.010 A 
ATOM     33  C   UNL A   1      36.779  29.057  29.711  1.00  0.00     0.010 A 
ATOM     34  C   UNL A   1      38.010  29.361  29.109  1.00  0.00    -0.014 A 
BRANCH  34  35
ATOM     35  C   UNL A   1      39.263  29.001  29.816  1.00  0.00     0.031 A 
ATOM     36  C   UNL A   1      39.717  29.811  30.998  1.00  0.00     0.074 A 
ATOM     37  C   UNL A   1      40.041  28.011  29.334  1.00  0.00     0.049 A 
ATOM     38  N   UNL A   1      40.838  29.737  31.666  1.00  0.00    -0.248 NA
ATOM     39  C   UNL A   1      38.799  30.860  31.473  1.00  0.00     0.031 C 
ATOM     40  C   UNL A   1      39.732  27.179  28.169  1.00  0.00     0.029 A 
ATOM     41  N   UNL A   1      41.263  27.550  29.754  1.00  0.00    -0.354 N 
ATOM     42  C   UNL A   1      40.775  30.745  32.620  1.00  0.00     0.074 A 
ATOM     43  C   UNL A   1      39.519  31.437  32.423  1.00  0.00     0.031 C 
ATOM     44  C   UNL A   1      40.732  26.302  27.975  1.00  0.00     0.029 A 
ATOM     45  C   UNL A   1      41.768  26.535  28.976  1.00  0.00     0.049 A 
ATOM     46  H   UNL A   1      41.734  27.912  30.539  1.00  0.00     0.167 HD
ATOM     47  C   UNL A   1      41.676  31.060  33.581  1.00  0.00     0.031 A 
ATOM     48  C   UNL A   1      42.939  25.874  29.051  1.00  0.00     0.031 A 
ATOM     49  C   UNL A   1      42.913  30.357  33.788  1.00  0.00     0.049 A 
ATOM     50  C   UNL A   1      43.917  26.231  30.135  1.00  0.00     0.074 A 
ATOM     51  C   UNL A   1      43.864  30.563  34.772  1.00  0.00     0.029 A 
ATOM     52  N   UNL A   1      43.368  29.309  33.002  1.00  0.00    -0.354 N 
ATOM     53  N   UNL A   1      43.816  27.153  31.062  1.00  0.00    -0.248 NA
ATOM     54  C   UNL A   1      45.164  25.454  30.188  1.00  0.00     0.031 C 
ATOM     55  C   UNL A   1      44.912  29.660  34.560  1.00  0.00     0.029 A 
ATOM     56  C   UNL A   1      44.592  28.866  33.470  1.00  0.00     0.049 A 
ATOM     57  H   UNL A   1      42.891  28.937  32.226  1.00  0.00     0.167 HD
ATOM     58  C   UNL A   1      44.975  27.053  31.823  1.00  0.00     0.074 A 
ATOM     59  C   UNL A   1      45.758  25.974  31.255  1.00  0.00     0.031 C 
ATOM     60  C   UNL A   1      45.354  27.786  32.897  1.00  0.00     0.031 A 
BRANCH  47  61
ATOM     61  C   UNL A   1      41.353  32.224  34.476  1.00  0.00    -0.014 A 
ATOM     62  C   UNL A   1      40.641  32.040  35.674  1.00  0.00     0.010 A 
ATOM     63  C   UNL A   1      41.792  33.515  34.130  1.00  0.00     0.010 A 
ATOM     64  C   UNL A   1      40.332  33.131  36.489  1.00  0.00     0.020 A 
ATOM     65  C   UNL A   1      41.507  34.608  34.955  1.00  0.00     0.020 A 
ATOM     66  C   UNL A   1      40.762  34.411  36.120  1.00  0.00     0.054 A 
BRANCH  66  67
ATOM     67  S   UNL A   1      40.361  35.811  37.201  1.00  0.00     0.124 S 
ATOM     68  O   UNL A   1      41.671  36.149  37.752  1.00  0.00    -0.237 OA
ATOM     69  O   UNL A   1      39.801  36.787  36.271  1.00  0.00    -0.237 OA
ATOM     70  O   UNL A   1      39.410  35.248  38.156  1.00  0.00    -0.744 OA
ENDBRANCH  66  67
ENDBRANCH  47  61
BRANCH  48  71
ATOM     71  C   UNL A   1      43.247  24.797  28.072  1.00  0.00    -0.014 A 
ATOM     72  C   UNL A   1      44.037  25.071  26.942  1.00  0.00     0.010 A 
ATOM     73  C   UNL A   1      42.768  23.491  28.273  1.00  0.00     0.010 A 
ATOM     74  C   UNL A   1      44.329  24.061  26.020  1.00  0.00     0.020 A 
ATOM     75  C   UNL A   1      43.076  22.474  27.365  1.00  0.00     0.020 A 
ATOM     76  C   UNL A   1      43.846  22.768  26.238  1.00  0.00     0.054 A 
BRANCH  76  77
ATOM     77  S   UNL A   1      44.280  21.458  25.059  1.00  0.00     0.124 S 
ATOM     78  O   UNL A   1      43.291  20.432  25.369  1.00  0.00    -0.237 OA
ATOM     79  O   UNL A   1      44.116  22.126  23.769  1.00  0.00    -0.237 OA
ATOM     80  O   UNL A   1      45.659  21.130  25.410  1.00  0.00    -0.744 OA
ENDBRANCH  76  77
ENDBRANCH  48  71
BRANCH  60  81
ATOM     81  C   UNL A   1      46.658  27.429  33.555  1.00  0.00    -0.014 A 
ATOM     82  C   UNL A   1      46.711  26.489  34.597  1.00  0.00     0.010 A 
ATOM     83  C   UNL A   1      47.853  27.990  33.070  1.00  0.00     0.010 A 
ATOM     84  C   UNL A   1      47.939  26.127  35.157  1.00  0.00     0.020 A 
ATOM     85  C   UNL A   1      49.085  27.615  33.614  1.00  0.00     0.020 A 
ATOM     86  C   UNL A   1      49.118  26.692  34.661  1.00  0.00     0.054 A 
BRANCH  86  87
ATOM     87  S   UNL A   1      50.706  26.158  35.359  1.00  0.00     0.124 S 
ATOM     88  O   UNL A   1      50.515  24.716  35.480  1.00  0.00    -0.237 OA
ATOM     89  O   UNL A   1      51.665  26.582  34.342  1.00  0.00    -0.237 OA
ATOM     90  O   UNL A   1      50.788  26.885  36.624  1.00  0.00    -0.744 OA
ENDBRANCH  86  87
ENDBRANCH  60  81
ENDBRANCH  34  35
ENDBRANCH  26  29
ENDBRANCH  24  25
ENDBRANCH   1  24
TORSDOF 17
ENDMDL
MODEL 3
REMARK VINA RESULT:     -10.4      1.187      1.661
REMARK SMILES COc1ccccc1-c1ccc(O)c(C(=O)NCCCCNC(=O)c2ccc(-c3c4nc(c(-c5ccc(S(=O)(=O)[O-])cc5)c5ccc([nH]5)c(-c5ccc(S(=O)(=O)[O-])cc5)c5nc(c(-c6ccc(S(=O)(=O)[O-])cc6)c6ccc3[nH]6)C=C5)C=C4)cc2)c1
REMARK SMILES IDX 20 1 19 2 18 3 17 4 15 5 16 6 14 8 9 9 10 10 85 11 11 12
REMARK SMILES IDX 12 13 8 14 3 15 4 16 5 17 7 18 6 19 2 20 1 21 13 22 21 24
REMARK SMILES IDX 22 25 23 26 24 28 25 29 26 30 84 31 27 32 83 33 28 34 29 35
REMARK SMILES IDX 30 36 77 37 31 38 82 39 76 40 78 41 32 42 81 43 75 44 74 45
REMARK SMILES IDX 33 47 63 48 44 49 62 50 45 51 48 52 61 53 79 54 46 55 47 56
REMARK SMILES IDX 60 58 80 59 49 60 34 61 35 62 43 63 36 64 42 65 37 66 38 67
REMARK SMILES IDX 39 68 40 69 41 70 64 71 65 72 73 73 66 74 72 75 67 76 68 77
REMARK SMILES IDX 69 78 70 79 71 80 50 81 51 82 59 83 52 84 58 85 53 86 54 87
REMARK SMILES IDX 55 88 56 89 57 90
REMARK H PARENT 17 7 13 23 22 27 78 46 48 57
REMARK Flexibility Score: inf
ROOT
ATOM      1  C   UNL A   1      35.826  22.983  24.424  1.00  0.00     0.023 C 
ENDROOT
BRANCH   1   2
ATOM      2  C   UNL A   1      34.880  23.984  23.756  1.00  0.00     0.023 C 
BRANCH   2   3
ATOM      3  C   UNL A   1      33.812  23.342  22.865  1.00  0.00     0.116 C 
BRANCH   3   4
ATOM      4  N   UNL A   1      33.151  24.338  22.039  1.00  0.00    -0.352 N 
ATOM      5  C   UNL A   1      32.377  25.430  22.345  1.00  0.00     0.255 C 
ATOM      6  O   UNL A   1      32.023  26.161  21.416  1.00  0.00    -0.269 OA
ATOM      7  H   UNL A   1      33.283  24.204  21.072  1.00  0.00     0.163 HD
BRANCH   5   8
ATOM      8  C   UNL A   1      31.992  25.832  23.728  1.00  0.00     0.082 A 
ATOM      9  C   UNL A   1      32.206  27.267  25.705  1.00  0.00    -0.014 A 
ATOM     10  C   UNL A   1      31.088  26.647  26.273  1.00  0.00     0.013 A 
ATOM     11  C   UNL A   1      32.680  26.795  24.469  1.00  0.00     0.026 A 
ATOM     12  C   UNL A   1      30.436  25.618  25.593  1.00  0.00     0.047 A 
ATOM     13  C   UNL A   1      30.875  25.227  24.329  1.00  0.00     0.128 A 
BRANCH   9  14
ATOM     14  C   UNL A   1      32.832  28.449  26.317  1.00  0.00     0.024 A 
ATOM     15  C   UNL A   1      32.287  29.745  26.171  1.00  0.00     0.126 A 
ATOM     16  C   UNL A   1      32.940  30.865  26.692  1.00  0.00     0.047 A 
ATOM     17  C   UNL A   1      34.129  30.713  27.398  1.00  0.00     0.004 A 
ATOM     18  C   UNL A   1      34.033  28.322  27.036  1.00  0.00     0.012 A 
ATOM     19  C   UNL A   1      34.675  29.443  27.572  1.00  0.00     0.001 A 
BRANCH  15  20
ATOM     20  O   UNL A   1      31.154  30.013  25.440  1.00  0.00    -0.496 OA
ATOM     21  C   UNL A   1      30.801  31.396  25.458  1.00  0.00     0.278 C 
ENDBRANCH  15  20
ENDBRANCH   9  14
BRANCH  13  22
ATOM     22  O   UNL A   1      30.142  24.236  23.726  1.00  0.00    -0.507 OA
ATOM     23  H   UNL A   1      30.376  23.936  22.869  1.00  0.00     0.293 HD
ENDBRANCH  13  22
ENDBRANCH   5   8
ENDBRANCH   3   4
ENDBRANCH   2   3
ENDBRANCH   1   2
BRANCH   1  24
ATOM     24  C   UNL A   1      37.037  23.606  25.106  1.00  0.00     0.116 C 
BRANCH  24  25
ATOM     25  N   UNL A   1      38.100  22.651  25.383  1.00  0.00    -0.352 N 
ATOM     26  C   UNL A   1      39.259  22.861  26.094  1.00  0.00     0.251 C 
ATOM     27  H   UNL A   1      37.974  21.745  25.018  1.00  0.00     0.163 HD
ATOM     28  O   UNL A   1      40.116  21.991  26.167  1.00  0.00    -0.269 OA
BRANCH  26  29
ATOM     29  C   UNL A   1      39.469  24.180  26.726  1.00  0.00     0.039 A 
ATOM     30  C   UNL A   1      38.987  24.392  28.020  1.00  0.00     0.014 A 
ATOM     31  C   UNL A   1      40.203  25.169  26.067  1.00  0.00     0.014 A 
ATOM     32  C   UNL A   1      39.312  25.575  28.687  1.00  0.00     0.010 A 
ATOM     33  C   UNL A   1      40.574  26.319  26.755  1.00  0.00     0.010 A 
ATOM     34  C   UNL A   1      40.143  26.527  28.074  1.00  0.00    -0.014 A 
BRANCH  34  35
ATOM     35  C   UNL A   1      40.596  27.741  28.796  1.00  0.00     0.031 A 
ATOM     36  C   UNL A   1      41.935  27.752  29.478  1.00  0.00     0.074 A 
ATOM     37  C   UNL A   1      39.763  28.794  28.920  1.00  0.00     0.049 A 
ATOM     38  N   UNL A   1      42.453  28.662  30.260  1.00  0.00    -0.248 NA
ATOM     39  C   UNL A   1      42.791  26.571  29.274  1.00  0.00     0.031 C 
ATOM     40  C   UNL A   1      38.421  28.888  28.340  1.00  0.00     0.029 A 
ATOM     41  N   UNL A   1      39.916  29.979  29.593  1.00  0.00    -0.354 N 
ATOM     42  C   UNL A   1      43.681  28.154  30.666  1.00  0.00     0.074 A 
ATOM     43  C   UNL A   1      43.815  26.843  30.069  1.00  0.00     0.031 C 
ATOM     44  C   UNL A   1      37.880  30.072  28.673  1.00  0.00     0.029 A 
ATOM     45  C   UNL A   1      38.817  30.803  29.520  1.00  0.00     0.049 A 
ATOM     46  H   UNL A   1      40.736  30.218  30.084  1.00  0.00     0.167 HD
ATOM     47  C   UNL A   1      44.618  28.732  31.456  1.00  0.00     0.031 A 
ATOM     48  C   UNL A   1      38.584  32.005  30.081  1.00  0.00     0.031 A 
ATOM     49  C   UNL A   1      44.492  30.044  32.029  1.00  0.00     0.049 A 
ATOM     50  C   UNL A   1      39.644  32.632  30.942  1.00  0.00     0.074 A 
ATOM     51  C   UNL A   1      45.412  30.740  32.795  1.00  0.00     0.029 A 
ATOM     52  N   UNL A   1      43.379  30.860  31.897  1.00  0.00    -0.354 N 
ATOM     53  N   UNL A   1      40.822  32.159  31.271  1.00  0.00    -0.248 NA
ATOM     54  C   UNL A   1      39.348  33.959  31.501  1.00  0.00     0.031 C 
ATOM     55  C   UNL A   1      44.840  31.965  33.154  1.00  0.00     0.029 A 
ATOM     56  C   UNL A   1      43.583  32.048  32.577  1.00  0.00     0.049 A 
ATOM     57  H   UNL A   1      42.565  30.629  31.396  1.00  0.00     0.167 HD
ATOM     58  C   UNL A   1      41.418  33.139  32.056  1.00  0.00     0.074 A 
ATOM     59  C   UNL A   1      40.475  34.236  32.145  1.00  0.00     0.031 C 
ATOM     60  C   UNL A   1      42.636  33.132  32.648  1.00  0.00     0.031 A 
BRANCH  47  61
ATOM     61  C   UNL A   1      45.861  27.937  31.747  1.00  0.00    -0.014 A 
ATOM     62  C   UNL A   1      47.026  28.109  30.980  1.00  0.00     0.010 A 
ATOM     63  C   UNL A   1      45.873  27.028  32.820  1.00  0.00     0.010 A 
ATOM     64  C   UNL A   1      48.169  27.353  31.250  1.00  0.00     0.020 A 
ATOM     65  C   UNL A   1      47.024  26.287  33.110  1.00  0.00     0.020 A 
ATOM     66  C   UNL A   1      48.158  26.441  32.311  1.00  0.00     0.054 A 
BRANCH  66  67
ATOM     67  S   UNL A   1      49.658  25.480  32.651  1.00  0.00     0.124 S 
ATOM     68  O   UNL A   1      50.586  26.519  33.089  1.00  0.00    -0.237 OA
ATOM     69  O   UNL A   1      49.219  24.552  33.689  1.00  0.00    -0.237 OA
ATOM     70  O   UNL A   1      49.974  24.865  31.364  1.00  0.00    -0.744 OA
ENDBRANCH  66  67
ENDBRANCH  47  61
BRANCH  48  71
ATOM     71  C   UNL A   1      37.291  32.699  29.838  1.00  0.00    -0.014 A 
ATOM     72  C   UNL A   1      36.213  32.520  30.722  1.00  0.00     0.010 A 
ATOM     73  C   UNL A   1      37.137  33.554  28.733  1.00  0.00     0.010 A 
ATOM     74  C   UNL A   1      34.997  33.172  30.496  1.00  0.00     0.020 A 
ATOM     75  C   UNL A   1      35.930  34.224  28.516  1.00  0.00     0.020 A 
ATOM     76  C   UNL A   1      34.863  34.020  29.394  1.00  0.00     0.054 A 
BRANCH  76  77
ATOM     77  S   UNL A   1      33.294  34.899  29.147  1.00  0.00     0.124 S 
ATOM     78  O   UNL A   1      32.731  34.896  30.493  1.00  0.00    -0.237 OA
ATOM     79  O   UNL A   1      33.734  36.199  28.648  1.00  0.00    -0.237 OA
ATOM     80  O   UNL A   1      32.592  34.072  28.170  1.00  0.00    -0.744 OA
ENDBRANCH  76  77
ENDBRANCH  48  71
BRANCH  60  81
ATOM     81  C   UNL A   1      43.040  34.358  33.418  1.00  0.00    -0.014 A 
ATOM     82  C   UNL A   1      42.779  34.469  34.794  1.00  0.00     0.010 A 
ATOM     83  C   UNL A   1      43.756  35.379  32.768  1.00  0.00     0.010 A 
ATOM     84  C   UNL A   1      43.213  35.591  35.505  1.00  0.00     0.020 A 
ATOM     85  C   UNL A   1      44.209  36.493  33.480  1.00  0.00     0.020 A 
ATOM     86  C   UNL A   1      43.927  36.595  34.843  1.00  0.00     0.054 A 
BRANCH  86  87
ATOM     87  S   UNL A   1      44.537  38.011  35.799  1.00  0.00     0.124 S 
ATOM     88  O   UNL A   1      45.981  37.792  35.779  1.00  0.00    -0.237 OA
ATOM     89  O   UNL A   1      44.065  39.155  35.022  1.00  0.00    -0.237 OA
ATOM     90  O   UNL A   1      43.900  37.847  37.103  1.00  0.00    -0.744 OA
ENDBRANCH  86  87
ENDBRANCH  60  81
ENDBRANCH  34  35
ENDBRANCH  26  29
ENDBRANCH  24  25
ENDBRANCH   1  24
TORSDOF 17
ENDMDL
