MODEL 1
REMARK VINA RESULT:      -9.6      0.000      0.000
REMARK SMILES [NH3+][C@]1(C(=O)NCCCCNC(=O)c2ccc(-c3c4nc(c(-c5ccc(S(=O)(=O)[O-])cc5)c5ccc([nH]5)c(-c5ccc(S(=O)(=O)[O-])cc5)c5nc(c(-c6ccc(S(=O)(=O)[O-])cc6)c6ccc3[nH]6)C=C5)C=C4)cc2)CC[C@H](Oc2ccccc2[N+](=O)[O-])C1
REMARK SMILES IDX 7 1 6 2 5 3 3 4 4 5 2 7 73 8 86 9 74 10 75 11 1 12 76 16
REMARK SMILES IDX 77 17 78 18 82 19 79 20 81 21 80 22 83 23 84 24 85 25 8 26
REMARK SMILES IDX 9 27 10 28 11 29 12 31 13 32 14 33 72 34 15 35 71 36 16 37
REMARK SMILES IDX 17 38 18 39 65 40 19 41 70 42 64 43 66 44 20 45 69 46 63 47
REMARK SMILES IDX 62 48 21 50 51 51 32 52 50 53 33 54 36 55 49 56 67 57 34 58
REMARK SMILES IDX 35 59 48 61 68 62 37 63 22 64 23 65 31 66 24 67 30 68 25 69
REMARK SMILES IDX 26 70 27 71 28 72 29 73 52 74 53 75 61 76 54 77 60 78 55 79
REMARK SMILES IDX 56 80 57 81 58 82 59 83 38 84 39 85 47 86 40 87 46 88 41 89
REMARK SMILES IDX 42 90 43 91 44 92 45 93
REMARK H PARENT 5 6 1 13 1 14 1 15 10 30 66 49 36 60
REMARK Flexibility Score: inf
ROOT
ATOM      1  C   UNL A   1      33.267  34.693  29.285  1.00  0.00     0.023 C 
ENDROOT
BRANCH   1   2
ATOM      2  C   UNL A   1      34.466  34.593  30.225  1.00  0.00     0.116 C 
BRANCH   2   3
ATOM      3  N   UNL A   1      34.379  35.560  31.302  1.00  0.00    -0.351 N 
ATOM      4  C   UNL A   1      34.643  35.457  32.638  1.00  0.00     0.281 C 
ATOM      5  O   UNL A   1      34.362  36.436  33.336  1.00  0.00    -0.268 OA
ATOM      6  H   UNL A   1      34.074  36.453  31.019  1.00  0.00     0.163 HD
BRANCH   4   7
ATOM      7  C   UNL A   1      35.277  34.177  33.242  1.00  0.00     0.177 C 
ATOM      8  C   UNL A   1      34.808  32.913  32.518  1.00  0.00     0.083 C 
ATOM      9  C   UNL A   1      36.804  34.119  32.999  1.00  0.00     0.124 C 
ATOM     10  C   UNL A   1      35.850  31.872  32.879  1.00  0.00     0.052 C 
ATOM     11  C   UNL A   1      37.182  32.628  32.888  1.00  0.00     0.180 C 
BRANCH   7  12
ATOM     12  N   UNL A   1      35.049  34.101  34.701  1.00  0.00    -0.345 N 
ATOM     13  H   UNL A   1      34.068  33.887  34.881  1.00  0.00     0.345 HD
ATOM     14  H   UNL A   1      35.285  34.998  35.128  1.00  0.00     0.345 HD
ATOM     15  H   UNL A   1      35.636  33.370  35.100  1.00  0.00     0.345 HD
ENDBRANCH   7  12
BRANCH  11  16
ATOM     16  O   UNL A   1      38.011  32.276  33.997  1.00  0.00    -0.483 OA
BRANCH  16  17
ATOM     17  C   UNL A   1      39.060  31.418  33.826  1.00  0.00     0.197 A 
ATOM     18  C   UNL A   1      38.924  30.119  33.318  1.00  0.00     0.054 A 
ATOM     19  C   UNL A   1      40.343  31.839  34.214  1.00  0.00     0.310 A 
ATOM     20  C   UNL A   1      40.011  29.239  33.277  1.00  0.00     0.004 A 
ATOM     21  C   UNL A   1      41.439  30.956  34.170  1.00  0.00     0.090 A 
ATOM     22  C   UNL A   1      41.264  29.651  33.715  1.00  0.00     0.007 A 
BRANCH  19  23
ATOM     23  N   UNL A   1      40.599  33.208  34.677  1.00  0.00     0.066 N 
ATOM     24  O   UNL A   1      40.355  34.127  33.877  1.00  0.00    -0.258 OA
ATOM     25  O   UNL A   1      40.967  33.389  35.846  1.00  0.00    -0.258 OA
ENDBRANCH  19  23
ENDBRANCH  16  17
ENDBRANCH  11  16
ENDBRANCH   4   7
ENDBRANCH   2   3
ENDBRANCH   1   2
BRANCH   1  26
ATOM     26  C   UNL A   1      33.378  33.837  28.022  1.00  0.00     0.023 C 
BRANCH  26  27
ATOM     27  C   UNL A   1      34.338  32.656  28.121  1.00  0.00     0.116 C 
BRANCH  27  28
ATOM     28  N   UNL A   1      33.689  31.371  27.912  1.00  0.00    -0.352 N 
ATOM     29  C   UNL A   1      34.254  30.117  27.918  1.00  0.00     0.251 C 
ATOM     30  H   UNL A   1      32.720  31.404  27.744  1.00  0.00     0.163 HD
ATOM     31  O   UNL A   1      33.585  29.139  27.608  1.00  0.00    -0.269 OA
BRANCH  29  32
ATOM     32  C   UNL A   1      35.683  29.969  28.266  1.00  0.00     0.039 A 
ATOM     33  C   UNL A   1      36.029  29.684  29.590  1.00  0.00     0.014 A 
ATOM     34  C   UNL A   1      36.671  30.076  27.284  1.00  0.00     0.014 A 
ATOM     35  C   UNL A   1      37.364  29.438  29.916  1.00  0.00     0.010 A 
ATOM     36  C   UNL A   1      37.991  29.767  27.598  1.00  0.00     0.010 A 
ATOM     37  C   UNL A   1      38.350  29.441  28.916  1.00  0.00    -0.014 A 
BRANCH  37  38
ATOM     38  C   UNL A   1      39.761  29.099  29.221  1.00  0.00     0.031 A 
ATOM     39  C   UNL A   1      40.673  30.130  29.827  1.00  0.00     0.074 A 
ATOM     40  C   UNL A   1      40.242  27.885  28.882  1.00  0.00     0.049 A 
ATOM     41  N   UNL A   1      41.953  30.049  30.085  1.00  0.00    -0.248 NA
ATOM     42  C   UNL A   1      40.072  31.431  30.164  1.00  0.00     0.031 C 
ATOM     43  C   UNL A   1      39.470  26.810  28.255  1.00  0.00     0.029 A 
ATOM     44  N   UNL A   1      41.503  27.356  29.010  1.00  0.00    -0.354 N 
ATOM     45  C   UNL A   1      42.314  31.290  30.594  1.00  0.00     0.074 A 
ATOM     46  C   UNL A   1      41.129  32.120  30.569  1.00  0.00     0.031 C 
ATOM     47  C   UNL A   1      40.267  25.745  28.071  1.00  0.00     0.029 A 
ATOM     48  C   UNL A   1      41.613  26.072  28.530  1.00  0.00     0.049 A 
ATOM     49  H   UNL A   1      42.256  27.849  29.408  1.00  0.00     0.167 HD
ATOM     50  C   UNL A   1      43.519  31.698  31.059  1.00  0.00     0.031 A 
ATOM     51  C   UNL A   1      42.680  25.252  28.458  1.00  0.00     0.031 A 
ATOM     52  C   UNL A   1      44.694  30.868  31.097  1.00  0.00     0.049 A 
ATOM     53  C   UNL A   1      44.009  25.729  28.977  1.00  0.00     0.074 A 
ATOM     54  C   UNL A   1      45.948  31.174  31.595  1.00  0.00     0.029 A 
ATOM     55  N   UNL A   1      44.759  29.569  30.618  1.00  0.00    -0.354 N 
ATOM     56  N   UNL A   1      44.318  26.889  29.506  1.00  0.00    -0.248 NA
ATOM     57  C   UNL A   1      45.131  24.784  28.896  1.00  0.00     0.031 C 
ATOM     58  C   UNL A   1      46.783  30.072  31.380  1.00  0.00     0.029 A 
ATOM     59  C   UNL A   1      46.035  29.064  30.794  1.00  0.00     0.049 A 
ATOM     60  H   UNL A   1      44.007  29.077  30.214  1.00  0.00     0.167 HD
ATOM     61  C   UNL A   1      45.663  26.802  29.848  1.00  0.00     0.074 A 
ATOM     62  C   UNL A   1      46.105  25.474  29.474  1.00  0.00     0.031 C 
ATOM     63  C   UNL A   1      46.458  27.738  30.421  1.00  0.00     0.031 A 
BRANCH  50  64
ATOM     64  C   UNL A   1      43.624  33.113  31.563  1.00  0.00    -0.014 A 
ATOM     65  C   UNL A   1      43.728  33.387  32.939  1.00  0.00     0.010 A 
ATOM     66  C   UNL A   1      43.648  34.183  30.648  1.00  0.00     0.010 A 
ATOM     67  C   UNL A   1      43.806  34.705  33.395  1.00  0.00     0.020 A 
ATOM     68  C   UNL A   1      43.754  35.501  31.099  1.00  0.00     0.020 A 
ATOM     69  C   UNL A   1      43.812  35.755  32.471  1.00  0.00     0.054 A 
BRANCH  69  70
ATOM     70  S   UNL A   1      43.927  37.456  33.089  1.00  0.00     0.124 S 
ATOM     71  O   UNL A   1      43.857  38.229  31.852  1.00  0.00    -0.237 OA
ATOM     72  O   UNL A   1      42.760  37.561  33.961  1.00  0.00    -0.237 OA
ATOM     73  O   UNL A   1      45.217  37.490  33.773  1.00  0.00    -0.744 OA
ENDBRANCH  69  70
ENDBRANCH  50  64
BRANCH  51  74
ATOM     74  C   UNL A   1      42.530  23.887  27.888  1.00  0.00    -0.014 A 
ATOM     75  C   UNL A   1      42.655  23.678  26.503  1.00  0.00     0.010 A 
ATOM     76  C   UNL A   1      42.275  22.786  28.726  1.00  0.00     0.010 A 
ATOM     77  C   UNL A   1      42.511  22.395  25.965  1.00  0.00     0.020 A 
ATOM     78  C   UNL A   1      42.155  21.499  28.195  1.00  0.00     0.020 A 
ATOM     79  C   UNL A   1      42.262  21.314  26.814  1.00  0.00     0.054 A 
BRANCH  79  80
ATOM     80  S   UNL A   1      42.130  19.651  26.101  1.00  0.00     0.124 S 
ATOM     81  O   UNL A   1      42.540  18.809  27.219  1.00  0.00    -0.237 OA
ATOM     82  O   UNL A   1      40.717  19.575  25.735  1.00  0.00    -0.237 OA
ATOM     83  O   UNL A   1      43.055  19.690  24.971  1.00  0.00    -0.744 OA
ENDBRANCH  79  80
ENDBRANCH  51  74
BRANCH  63  84
ATOM     84  C   UNL A   1      47.882  27.351  30.715  1.00  0.00    -0.014 A 
ATOM     85  C   UNL A   1      48.220  26.655  31.889  1.00  0.00     0.010 A 
ATOM     86  C   UNL A   1      48.886  27.634  29.771  1.00  0.00     0.010 A 
ATOM     87  C   UNL A   1      49.543  26.269  32.123  1.00  0.00     0.020 A 
ATOM     88  C   UNL A   1      50.205  27.230  29.991  1.00  0.00     0.020 A 
ATOM     89  C   UNL A   1      50.526  26.560  31.172  1.00  0.00     0.054 A 
BRANCH  89  90
ATOM     90  S   UNL A   1      52.226  26.001  31.474  1.00  0.00     0.124 S 
ATOM     91  O   UNL A   1      52.015  24.655  32.001  1.00  0.00    -0.237 OA
ATOM     92  O   UNL A   1      52.827  26.069  30.144  1.00  0.00    -0.237 OA
ATOM     93  O   UNL A   1      52.744  26.973  32.434  1.00  0.00    -0.744 OA
ENDBRANCH  89  90
ENDBRANCH  63  84
ENDBRANCH  37  38
ENDBRANCH  29  32
ENDBRANCH  27  28
ENDBRANCH  26  27
ENDBRANCH   1  26
TORSDOF 18
ENDMDL
MODEL 2
REMARK VINA RESULT:      -9.4      3.729      6.974
REMARK SMILES [NH3+][C@]1(C(=O)NCCCCNC(=O)c2ccc(-c3c4nc(c(-c5ccc(S(=O)(=O)[O-])cc5)c5ccc([nH]5)c(-c5ccc(S(=O)(=O)[O-])cc5)c5nc(c(-c6ccc(S(=O)(=O)[O-])cc6)c6ccc3[nH]6)C=C5)C=C4)cc2)CC[C@H](Oc2ccccc2[N+](=O)[O-])C1
REMARK SMILES IDX 7 1 6 2 5 3 3 4 4 5 2 7 73 8 86 9 74 10 75 11 1 12 76 16
REMARK SMILES IDX 77 17 78 18 82 19 79 20 81 21 80 22 83 23 84 24 85 25 8 26
REMARK SMILES IDX 9 27 10 28 11 29 12 31 13 32 14 33 72 34 15 35 71 36 16 37
REMARK SMILES IDX 17 38 18 39 65 40 19 41 70 42 64 43 66 44 20 45 69 46 63 47
REMARK SMILES IDX 62 48 21 50 51 51 32 52 50 53 33 54 36 55 49 56 67 57 34 58
REMARK SMILES IDX 35 59 48 61 68 62 37 63 22 64 23 65 31 66 24 67 30 68 25 69
REMARK SMILES IDX 26 70 27 71 28 72 29 73 52 74 53 75 61 76 54 77 60 78 55 79
REMARK SMILES IDX 56 80 57 81 58 82 59 83 38 84 39 85 47 86 40 87 46 88 41 89
REMARK SMILES IDX 42 90 43 91 44 92 45 93
REMARK H PARENT 5 6 1 13 1 14 1 15 10 30 66 49 36 60
REMARK Flexibility Score: inf
ROOT
ATOM      1  C   UNL A   1      31.585  28.917  26.136  1.00  0.00     0.023 C 
ENDROOT
BRANCH   1   2
ATOM      2  C   UNL A   1      32.231  29.342  24.819  1.00  0.00     0.116 C 
BRANCH   2   3
ATOM      3  N   UNL A   1      31.352  29.092  23.693  1.00  0.00    -0.351 N 
ATOM      4  C   UNL A   1      31.145  27.977  22.933  1.00  0.00     0.281 C 
ATOM      5  O   UNL A   1      30.403  28.102  21.954  1.00  0.00    -0.268 OA
ATOM      6  H   UNL A   1      30.805  29.867  23.428  1.00  0.00     0.163 HD
BRANCH   4   7
ATOM      7  C   UNL A   1      31.801  26.617  23.294  1.00  0.00     0.177 C 
ATOM      8  C   UNL A   1      31.066  25.917  24.438  1.00  0.00     0.083 C 
ATOM      9  C   UNL A   1      31.647  25.582  22.153  1.00  0.00     0.124 C 
ATOM     10  C   UNL A   1      31.500  24.468  24.324  1.00  0.00     0.052 C 
ATOM     11  C   UNL A   1      31.577  24.193  22.819  1.00  0.00     0.180 C 
BRANCH   7  12
ATOM     12  N   UNL A   1      33.245  26.775  23.570  1.00  0.00    -0.345 N 
ATOM     13  H   UNL A   1      33.505  27.756  23.471  1.00  0.00     0.345 HD
ATOM     14  H   UNL A   1      33.780  26.212  22.909  1.00  0.00     0.345 HD
ATOM     15  H   UNL A   1      33.445  26.464  24.520  1.00  0.00     0.345 HD
ENDBRANCH   7  12
BRANCH  11  16
ATOM     16  O   UNL A   1      32.737  23.443  22.452  1.00  0.00    -0.483 OA
BRANCH  16  17
ATOM     17  C   UNL A   1      33.071  22.314  23.142  1.00  0.00     0.197 A 
ATOM     18  C   UNL A   1      32.257  21.175  23.206  1.00  0.00     0.054 A 
ATOM     19  C   UNL A   1      34.277  22.298  23.863  1.00  0.00     0.310 A 
ATOM     20  C   UNL A   1      32.589  20.091  24.026  1.00  0.00     0.004 A 
ATOM     21  C   UNL A   1      34.615  21.206  24.686  1.00  0.00     0.090 A 
ATOM     22  C   UNL A   1      33.759  20.111  24.776  1.00  0.00     0.007 A 
BRANCH  19  23
ATOM     23  N   UNL A   1      35.235  23.409  23.789  1.00  0.00     0.066 N 
ATOM     24  O   UNL A   1      36.123  23.328  22.925  1.00  0.00    -0.258 OA
ATOM     25  O   UNL A   1      35.073  24.392  24.525  1.00  0.00    -0.258 OA
ENDBRANCH  19  23
ENDBRANCH  16  17
ENDBRANCH  11  16
ENDBRANCH   4   7
ENDBRANCH   2   3
ENDBRANCH   1   2
BRANCH   1  26
ATOM     26  C   UNL A   1      32.508  28.129  27.069  1.00  0.00     0.023 C 
BRANCH  26  27
ATOM     27  C   UNL A   1      33.867  28.770  27.330  1.00  0.00     0.116 C 
BRANCH  27  28
ATOM     28  N   UNL A   1      33.771  30.135  27.823  1.00  0.00    -0.352 N 
ATOM     29  C   UNL A   1      34.721  30.871  28.493  1.00  0.00     0.251 C 
ATOM     30  H   UNL A   1      32.915  30.590  27.656  1.00  0.00     0.163 HD
ATOM     31  O   UNL A   1      34.439  31.974  28.945  1.00  0.00    -0.269 OA
BRANCH  29  32
ATOM     32  C   UNL A   1      36.069  30.301  28.693  1.00  0.00     0.039 A 
ATOM     33  C   UNL A   1      36.999  30.388  27.654  1.00  0.00     0.014 A 
ATOM     34  C   UNL A   1      36.423  29.715  29.911  1.00  0.00     0.014 A 
ATOM     35  C   UNL A   1      38.309  29.949  27.862  1.00  0.00     0.010 A 
ATOM     36  C   UNL A   1      37.743  29.339  30.137  1.00  0.00     0.010 A 
ATOM     37  C   UNL A   1      38.700  29.455  29.117  1.00  0.00    -0.014 A 
BRANCH  37  38
ATOM     38  C   UNL A   1      40.105  29.063  29.389  1.00  0.00     0.031 A 
ATOM     39  C   UNL A   1      41.062  30.056  29.989  1.00  0.00     0.074 A 
ATOM     40  C   UNL A   1      40.538  27.838  29.028  1.00  0.00     0.049 A 
ATOM     41  N   UNL A   1      42.344  29.929  30.220  1.00  0.00    -0.248 NA
ATOM     42  C   UNL A   1      40.512  31.372  30.353  1.00  0.00     0.031 C 
ATOM     43  C   UNL A   1      39.718  26.797  28.404  1.00  0.00     0.029 A 
ATOM     44  N   UNL A   1      41.782  27.265  29.124  1.00  0.00    -0.354 N 
ATOM     45  C   UNL A   1      42.756  31.151  30.736  1.00  0.00     0.074 A 
ATOM     46  C   UNL A   1      41.599  32.020  30.744  1.00  0.00     0.031 C 
ATOM     47  C   UNL A   1      40.474  25.708  28.192  1.00  0.00     0.029 A 
ATOM     48  C   UNL A   1      41.840  25.985  28.627  1.00  0.00     0.049 A 
ATOM     49  H   UNL A   1      42.559  27.728  29.512  1.00  0.00     0.167 HD
ATOM     50  C   UNL A   1      43.984  31.513  31.181  1.00  0.00     0.031 A 
ATOM     51  C   UNL A   1      42.877  25.131  28.525  1.00  0.00     0.031 A 
ATOM     52  C   UNL A   1      45.130  30.644  31.185  1.00  0.00     0.049 A 
ATOM     53  C   UNL A   1      44.232  25.557  29.022  1.00  0.00     0.074 A 
ATOM     54  C   UNL A   1      46.403  30.903  31.661  1.00  0.00     0.029 A 
ATOM     55  N   UNL A   1      45.142  29.349  30.691  1.00  0.00    -0.354 N 
ATOM     56  N   UNL A   1      44.589  26.699  29.558  1.00  0.00    -0.248 NA
ATOM     57  C   UNL A   1      45.320  24.576  28.908  1.00  0.00     0.031 C 
ATOM     58  C   UNL A   1      47.197  29.776  31.417  1.00  0.00     0.029 A 
ATOM     59  C   UNL A   1      46.403  28.800  30.835  1.00  0.00     0.049 A 
ATOM     60  H   UNL A   1      44.366  28.888  30.296  1.00  0.00     0.167 HD
ATOM     61  C   UNL A   1      45.937  26.564  29.871  1.00  0.00     0.074 A 
ATOM     62  C   UNL A   1      46.327  25.226  29.474  1.00  0.00     0.031 C 
ATOM     63  C   UNL A   1      46.775  27.465  30.438  1.00  0.00     0.031 A 
BRANCH  50  64
ATOM     64  C   UNL A   1      44.145  32.918  31.698  1.00  0.00    -0.014 A 
ATOM     65  C   UNL A   1      43.963  33.214  33.062  1.00  0.00     0.010 A 
ATOM     66  C   UNL A   1      44.513  33.952  30.817  1.00  0.00     0.010 A 
ATOM     67  C   UNL A   1      44.098  34.524  33.526  1.00  0.00     0.020 A 
ATOM     68  C   UNL A   1      44.676  35.259  31.283  1.00  0.00     0.020 A 
ATOM     69  C   UNL A   1      44.448  35.540  32.631  1.00  0.00     0.054 A 
BRANCH  69  70
ATOM     70  S   UNL A   1      44.628  37.230  33.263  1.00  0.00     0.124 S 
ATOM     71  O   UNL A   1      45.439  37.855  32.220  1.00  0.00    -0.237 OA
ATOM     72  O   UNL A   1      43.246  37.694  33.344  1.00  0.00    -0.237 OA
ATOM     73  O   UNL A   1      45.299  37.050  34.548  1.00  0.00    -0.744 OA
ENDBRANCH  69  70
ENDBRANCH  50  64
BRANCH  51  74
ATOM     74  C   UNL A   1      42.671  23.778  27.942  1.00  0.00    -0.014 A 
ATOM     75  C   UNL A   1      42.141  22.739  28.727  1.00  0.00     0.010 A 
ATOM     76  C   UNL A   1      42.989  23.524  26.595  1.00  0.00     0.010 A 
ATOM     77  C   UNL A   1      41.950  21.466  28.182  1.00  0.00     0.020 A 
ATOM     78  C   UNL A   1      42.776  22.259  26.039  1.00  0.00     0.020 A 
ATOM     79  C   UNL A   1      42.269  21.234  26.841  1.00  0.00     0.054 A 
BRANCH  79  80
ATOM     80  S   UNL A   1      41.964  19.589  26.139  1.00  0.00     0.124 S 
ATOM     81  O   UNL A   1      40.512  19.586  25.994  1.00  0.00    -0.237 OA
ATOM     82  O   UNL A   1      42.725  19.630  24.892  1.00  0.00    -0.237 OA
ATOM     83  O   UNL A   1      42.496  18.682  27.154  1.00  0.00    -0.744 OA
ENDBRANCH  79  80
ENDBRANCH  51  74
BRANCH  63  84
ATOM     84  C   UNL A   1      48.190  27.028  30.700  1.00  0.00    -0.014 A 
ATOM     85  C   UNL A   1      49.221  27.313  29.787  1.00  0.00     0.010 A 
ATOM     86  C   UNL A   1      48.502  26.377  31.907  1.00  0.00     0.010 A 
ATOM     87  C   UNL A   1      50.536  26.933  30.068  1.00  0.00     0.020 A 
ATOM     88  C   UNL A   1      49.819  26.017  32.203  1.00  0.00     0.020 A 
ATOM     89  C   UNL A   1      50.826  26.288  31.275  1.00  0.00     0.054 A 
BRANCH  89  90
ATOM     90  S   UNL A   1      52.549  25.854  31.642  1.00  0.00     0.124 S 
ATOM     91  O   UNL A   1      53.191  26.034  30.342  1.00  0.00    -0.237 OA
ATOM     92  O   UNL A   1      52.916  26.830  32.665  1.00  0.00    -0.237 OA
ATOM     93  O   UNL A   1      52.465  24.472  32.110  1.00  0.00    -0.744 OA
ENDBRANCH  89  90
ENDBRANCH  63  84
ENDBRANCH  37  38
ENDBRANCH  29  32
ENDBRANCH  27  28
ENDBRANCH  26  27
ENDBRANCH   1  26
TORSDOF 18
ENDMDL
MODEL 3
REMARK VINA RESULT:      -9.2      3.680      7.150
REMARK SMILES [NH3+][C@]1(C(=O)NCCCCNC(=O)c2ccc(-c3c4nc(c(-c5ccc(S(=O)(=O)[O-])cc5)c5ccc([nH]5)c(-c5ccc(S(=O)(=O)[O-])cc5)c5nc(c(-c6ccc(S(=O)(=O)[O-])cc6)c6ccc3[nH]6)C=C5)C=C4)cc2)CC[C@H](Oc2ccccc2[N+](=O)[O-])C1
REMARK SMILES IDX 7 1 6 2 5 3 3 4 4 5 2 7 73 8 86 9 74 10 75 11 1 12 76 16
REMARK SMILES IDX 77 17 78 18 82 19 79 20 81 21 80 22 83 23 84 24 85 25 8 26
REMARK SMILES IDX 9 27 10 28 11 29 12 31 13 32 14 33 72 34 15 35 71 36 16 37
REMARK SMILES IDX 17 38 18 39 65 40 19 41 70 42 64 43 66 44 20 45 69 46 63 47
REMARK SMILES IDX 62 48 21 50 51 51 32 52 50 53 33 54 36 55 49 56 67 57 34 58
REMARK SMILES IDX 35 59 48 61 68 62 37 63 22 64 23 65 31 66 24 67 30 68 25 69
REMARK SMILES IDX 26 70 27 71 28 72 29 73 52 74 53 75 61 76 54 77 60 78 55 79
REMARK SMILES IDX 56 80 57 81 58 82 59 83 38 84 39 85 47 86 40 87 46 88 41 89
REMARK SMILES IDX 42 90 43 91 44 92 45 93
REMARK H PARENT 5 6 1 13 1 14 1 15 10 30 66 49 36 60
REMARK Flexibility Score: inf
ROOT
ATOM      1  C   UNL A   1      33.342  28.757  24.197  1.00  0.00     0.023 C 
ENDROOT
BRANCH   1   2
ATOM      2  C   UNL A   1      32.369  28.258  23.131  1.00  0.00     0.116 C 
BRANCH   2   3
ATOM      3  N   UNL A   1      31.117  27.822  23.718  1.00  0.00    -0.351 N 
ATOM      4  C   UNL A   1      30.511  26.599  23.757  1.00  0.00     0.281 C 
ATOM      5  O   UNL A   1      29.375  26.559  24.239  1.00  0.00    -0.268 OA
ATOM      6  H   UNL A   1      30.612  28.537  24.170  1.00  0.00     0.163 HD
BRANCH   4   7
ATOM      7  C   UNL A   1      31.223  25.324  23.233  1.00  0.00     0.177 C 
ATOM      8  C   UNL A   1      31.967  25.586  21.922  1.00  0.00     0.083 C 
ATOM      9  C   UNL A   1      32.383  24.889  24.161  1.00  0.00     0.124 C 
ATOM     10  C   UNL A   1      32.962  24.446  21.828  1.00  0.00     0.052 C 
ATOM     11  C   UNL A   1      33.442  24.216  23.264  1.00  0.00     0.180 C 
BRANCH   7  12
ATOM     12  N   UNL A   1      30.281  24.189  23.123  1.00  0.00    -0.345 N 
ATOM     13  H   UNL A   1      29.326  24.528  23.236  1.00  0.00     0.345 HD
ATOM     14  H   UNL A   1      30.487  23.506  23.853  1.00  0.00     0.345 HD
ATOM     15  H   UNL A   1      30.382  23.751  22.209  1.00  0.00     0.345 HD
ENDBRANCH   7  12
BRANCH  11  16
ATOM     16  O   UNL A   1      33.526  22.830  23.605  1.00  0.00    -0.483 OA
BRANCH  16  17
ATOM     17  C   UNL A   1      34.701  22.305  24.059  1.00  0.00     0.197 A 
ATOM     18  C   UNL A   1      35.934  22.964  23.959  1.00  0.00     0.054 A 
ATOM     19  C   UNL A   1      34.690  21.018  24.623  1.00  0.00     0.310 A 
ATOM     20  C   UNL A   1      37.127  22.331  24.329  1.00  0.00     0.004 A 
ATOM     21  C   UNL A   1      35.888  20.381  24.999  1.00  0.00     0.090 A 
ATOM     22  C   UNL A   1      37.106  21.037  24.835  1.00  0.00     0.007 A 
BRANCH  19  23
ATOM     23  N   UNL A   1      33.437  20.286  24.848  1.00  0.00     0.066 N 
ATOM     24  O   UNL A   1      32.903  20.413  25.962  1.00  0.00    -0.258 OA
ATOM     25  O   UNL A   1      32.939  19.646  23.912  1.00  0.00    -0.258 OA
ENDBRANCH  19  23
ENDBRANCH  16  17
ENDBRANCH  11  16
ENDBRANCH   4   7
ENDBRANCH   2   3
ENDBRANCH   1   2
BRANCH   1  26
ATOM     26  C   UNL A   1      34.003  27.648  25.020  1.00  0.00     0.023 C 
BRANCH  26  27
ATOM     27  C   UNL A   1      34.100  27.922  26.517  1.00  0.00     0.116 C 
BRANCH  27  28
ATOM     28  N   UNL A   1      33.582  29.228  26.894  1.00  0.00    -0.352 N 
ATOM     29  C   UNL A   1      34.197  30.212  27.634  1.00  0.00     0.251 C 
ATOM     30  H   UNL A   1      32.673  29.435  26.579  1.00  0.00     0.163 HD
ATOM     31  O   UNL A   1      33.576  31.215  27.963  1.00  0.00    -0.269 OA
BRANCH  29  32
ATOM     32  C   UNL A   1      35.602  30.027  28.056  1.00  0.00     0.039 A 
ATOM     33  C   UNL A   1      35.864  29.616  29.366  1.00  0.00     0.014 A 
ATOM     34  C   UNL A   1      36.650  30.223  27.153  1.00  0.00     0.014 A 
ATOM     35  C   UNL A   1      37.177  29.335  29.750  1.00  0.00     0.010 A 
ATOM     36  C   UNL A   1      37.948  29.881  27.519  1.00  0.00     0.010 A 
ATOM     37  C   UNL A   1      38.224  29.430  28.819  1.00  0.00    -0.014 A 
BRANCH  37  38
ATOM     38  C   UNL A   1      39.614  29.055  29.179  1.00  0.00     0.031 A 
ATOM     39  C   UNL A   1      40.522  30.064  29.827  1.00  0.00     0.074 A 
ATOM     40  C   UNL A   1      40.082  27.833  28.853  1.00  0.00     0.049 A 
ATOM     41  N   UNL A   1      41.790  29.953  30.135  1.00  0.00    -0.248 NA
ATOM     42  C   UNL A   1      39.937  31.375  30.147  1.00  0.00     0.031 C 
ATOM     43  C   UNL A   1      39.312  26.779  28.189  1.00  0.00     0.029 A 
ATOM     44  N   UNL A   1      41.324  27.276  29.028  1.00  0.00    -0.354 N 
ATOM     45  C   UNL A   1      42.156  31.183  30.666  1.00  0.00     0.074 A 
ATOM     46  C   UNL A   1      40.992  32.039  30.599  1.00  0.00     0.031 C 
ATOM     47  C   UNL A   1      40.092  25.697  28.031  1.00  0.00     0.029 A 
ATOM     48  C   UNL A   1      41.426  25.992  28.545  1.00  0.00     0.049 A 
ATOM     49  H   UNL A   1      42.071  27.750  29.459  1.00  0.00     0.167 HD
ATOM     50  C   UNL A   1      43.351  31.562  31.182  1.00  0.00     0.031 A 
ATOM     51  C   UNL A   1      42.477  25.150  28.512  1.00  0.00     0.031 A 
ATOM     52  C   UNL A   1      44.504  30.707  31.261  1.00  0.00     0.049 A 
ATOM     53  C   UNL A   1      43.794  25.595  29.087  1.00  0.00     0.074 A 
ATOM     54  C   UNL A   1      45.744  30.983  31.811  1.00  0.00     0.029 A 
ATOM     55  N   UNL A   1      44.560  29.409  30.778  1.00  0.00    -0.354 N 
ATOM     56  N   UNL A   1      44.106  26.745  29.634  1.00  0.00    -0.248 NA
ATOM     57  C   UNL A   1      44.897  24.625  29.045  1.00  0.00     0.031 C 
ATOM     58  C   UNL A   1      46.563  29.864  31.624  1.00  0.00     0.029 A 
ATOM     59  C   UNL A   1      45.817  28.875  31.002  1.00  0.00     0.049 A 
ATOM     60  H   UNL A   1      43.815  28.936  30.341  1.00  0.00     0.167 HD
ATOM     61  C   UNL A   1      45.434  26.626  30.029  1.00  0.00     0.074 A 
ATOM     62  C   UNL A   1      45.862  25.291  29.666  1.00  0.00     0.031 C 
ATOM     63  C   UNL A   1      46.226  27.541  30.639  1.00  0.00     0.031 A 
BRANCH  50  64
ATOM     64  C   UNL A   1      43.466  32.973  31.697  1.00  0.00    -0.014 A 
ATOM     65  C   UNL A   1      43.802  34.033  30.835  1.00  0.00     0.010 A 
ATOM     66  C   UNL A   1      43.206  33.248  33.052  1.00  0.00     0.010 A 
ATOM     67  C   UNL A   1      43.923  35.335  31.328  1.00  0.00     0.020 A 
ATOM     68  C   UNL A   1      43.299  34.553  33.543  1.00  0.00     0.020 A 
ATOM     69  C   UNL A   1      43.677  35.585  32.682  1.00  0.00     0.054 A 
BRANCH  69  70
ATOM     70  S   UNL A   1      43.830  37.285  33.293  1.00  0.00     0.124 S 
ATOM     71  O   UNL A   1      42.624  37.421  34.106  1.00  0.00    -0.237 OA
ATOM     72  O   UNL A   1      45.087  37.249  34.037  1.00  0.00    -0.237 OA
ATOM     73  O   UNL A   1      43.854  38.091  32.074  1.00  0.00    -0.744 OA
ENDBRANCH  69  70
ENDBRANCH  50  64
BRANCH  51  74
ATOM     74  C   UNL A   1      42.320  23.790  27.928  1.00  0.00    -0.014 A 
ATOM     75  C   UNL A   1      41.925  22.710  28.737  1.00  0.00     0.010 A 
ATOM     76  C   UNL A   1      42.552  23.571  26.558  1.00  0.00     0.010 A 
ATOM     77  C   UNL A   1      41.782  21.431  28.190  1.00  0.00     0.020 A 
ATOM     78  C   UNL A   1      42.385  22.299  26.003  1.00  0.00     0.020 A 
ATOM     79  C   UNL A   1      42.013  21.234  26.826  1.00  0.00     0.054 A 
BRANCH  79  80
ATOM     80  S   UNL A   1      41.770  19.577  26.127  1.00  0.00     0.124 S 
ATOM     81  O   UNL A   1      40.351  19.597  25.788  1.00  0.00    -0.237 OA
ATOM     82  O   UNL A   1      42.692  19.574  24.993  1.00  0.00    -0.237 OA
ATOM     83  O   UNL A   1      42.142  18.687  27.224  1.00  0.00    -0.744 OA
ENDBRANCH  79  80
ENDBRANCH  51  74
BRANCH  63  84
ATOM     84  C   UNL A   1      47.628  27.122  30.988  1.00  0.00    -0.014 A 
ATOM     85  C   UNL A   1      48.700  27.363  30.111  1.00  0.00     0.010 A 
ATOM     86  C   UNL A   1      47.883  26.535  32.241  1.00  0.00     0.010 A 
ATOM     87  C   UNL A   1      50.001  27.002  30.472  1.00  0.00     0.020 A 
ATOM     88  C   UNL A   1      49.185  26.195  32.615  1.00  0.00     0.020 A 
ATOM     89  C   UNL A   1      50.235  26.420  31.723  1.00  0.00     0.054 A 
BRANCH  89  90
ATOM     90  S   UNL A   1      51.938  26.010  32.191  1.00  0.00     0.124 S 
ATOM     91  O   UNL A   1      52.031  26.583  33.532  1.00  0.00    -0.237 OA
ATOM     92  O   UNL A   1      51.947  24.551  32.130  1.00  0.00    -0.237 OA
ATOM     93  O   UNL A   1      52.747  26.674  31.172  1.00  0.00    -0.744 OA
ENDBRANCH  89  90
ENDBRANCH  63  84
ENDBRANCH  37  38
ENDBRANCH  29  32
ENDBRANCH  27  28
ENDBRANCH  26  27
ENDBRANCH   1  26
TORSDOF 18
ENDMDL
