MODEL 1
REMARK VINA RESULT:     -11.3      0.000      0.000
REMARK SMILES CCOC(=O)C1=NN(c2ccc(F)cc2F)[C@@H](C(=O)NCCCCNC(=O)c2ccc(-c3c4nc(c(-c5ccc(S(=O)(=O)[O-])cc5)c5ccc([nH]5)c(-c5ccc(S(=O)(=O)[O-])cc5)c5nc(c(-c6ccc(S(=O)(=O)[O-])cc6)c6ccc3[nH]6)C=C5)C=C4)cc2)C1
REMARK SMILES IDX 22 1 21 2 20 3 18 4 19 5 17 7 6 8 7 9 88 10 8 11 4 12 5 13
REMARK SMILES IDX 3 14 2 15 1 16 9 17 10 18 15 19 11 20 14 21 16 22 12 23
REMARK SMILES IDX 13 24 23 25 24 26 25 27 26 28 27 30 28 31 29 32 87 33 30 34
REMARK SMILES IDX 86 35 31 36 32 37 33 38 80 39 34 40 85 41 79 42 81 43 35 44
REMARK SMILES IDX 84 45 78 46 77 47 36 49 66 50 47 51 65 52 48 53 51 54 64 55
REMARK SMILES IDX 82 56 49 57 50 58 63 60 83 61 52 62 37 63 38 64 46 65 39 66
REMARK SMILES IDX 45 67 40 68 41 69 42 70 43 71 44 72 67 73 68 74 76 75 69 76
REMARK SMILES IDX 75 77 70 78 71 79 72 80 73 81 74 82 53 83 54 84 62 85 55 86
REMARK SMILES IDX 61 87 56 88 57 89 58 90 59 91 60 92
REMARK H PARENT 20 6 25 29 81 48 51 59
REMARK Flexibility Score: inf
ROOT
ATOM      1  C   UNL A   1      31.825  26.615  26.490  1.00  0.00     0.023 C 
ENDROOT
BRANCH   1   2
ATOM      2  C   UNL A   1      30.470  26.244  25.898  1.00  0.00     0.116 C 
BRANCH   2   3
ATOM      3  N   UNL A   1      29.939  24.988  26.387  1.00  0.00    -0.354 N 
ATOM      4  C   UNL A   1      30.502  23.765  26.551  1.00  0.00     0.245 C 
ATOM      5  O   UNL A   1      29.824  22.954  27.202  1.00  0.00    -0.273 OA
ATOM      6  H   UNL A   1      28.990  25.030  26.649  1.00  0.00     0.163 HD
BRANCH   4   7
ATOM      7  C   UNL A   1      31.825  23.265  25.958  1.00  0.00     0.203 C 
ATOM      8  C   UNL A   1      32.395  21.220  25.061  1.00  0.00     0.148 C 
ATOM      9  N   UNL A   1      32.367  22.007  24.035  1.00  0.00    -0.169 NA
ATOM     10  C   UNL A   1      31.994  21.799  26.365  1.00  0.00     0.103 C 
ATOM     11  N   UNL A   1      31.993  23.246  24.498  1.00  0.00    -0.249 N 
BRANCH   8  12
ATOM     12  C   UNL A   1      32.859  19.791  25.006  1.00  0.00     0.354 C 
ATOM     13  O   UNL A   1      32.096  18.854  25.154  1.00  0.00    -0.245 OA
BRANCH  12  14
ATOM     14  O   UNL A   1      34.164  19.761  24.672  1.00  0.00    -0.461 OA
BRANCH  14  15
ATOM     15  C   UNL A   1      34.975  20.772  25.287  1.00  0.00     0.230 C 
ATOM     16  C   UNL A   1      36.447  20.525  25.011  1.00  0.00     0.049 C 
ENDBRANCH  14  15
ENDBRANCH  12  14
ENDBRANCH   8  12
BRANCH  11  17
ATOM     17  C   UNL A   1      32.317  24.356  23.708  1.00  0.00     0.096 A 
ATOM     18  C   UNL A   1      31.422  24.883  22.757  1.00  0.00     0.034 A 
ATOM     19  C   UNL A   1      33.589  24.971  23.786  1.00  0.00     0.151 A 
ATOM     20  C   UNL A   1      31.777  25.966  21.943  1.00  0.00     0.041 A 
ATOM     21  C   UNL A   1      33.952  26.044  22.974  1.00  0.00     0.080 A 
ATOM     22  F   UNL A   1      34.532  24.491  24.613  1.00  0.00    -0.205 F 
ATOM     23  C   UNL A   1      33.038  26.534  22.060  1.00  0.00     0.126 A 
ATOM     24  F   UNL A   1      33.375  27.560  21.269  1.00  0.00    -0.207 F 
ENDBRANCH  11  17
ENDBRANCH   4   7
ENDBRANCH   2   3
ENDBRANCH   1   2
BRANCH   1  25
ATOM     25  C   UNL A   1      31.867  27.973  27.202  1.00  0.00     0.023 C 
BRANCH  25  26
ATOM     26  C   UNL A   1      33.259  28.559  27.454  1.00  0.00     0.116 C 
BRANCH  26  27
ATOM     27  N   UNL A   1      33.268  30.002  27.640  1.00  0.00    -0.352 N 
ATOM     28  C   UNL A   1      34.311  30.798  28.052  1.00  0.00     0.251 C 
ATOM     29  H   UNL A   1      32.422  30.467  27.447  1.00  0.00     0.163 HD
ATOM     30  O   UNL A   1      34.137  31.997  28.251  1.00  0.00    -0.269 OA
BRANCH  28  31
ATOM     31  C   UNL A   1      35.634  30.189  28.310  1.00  0.00     0.039 A 
ATOM     32  C   UNL A   1      36.562  30.140  27.265  1.00  0.00     0.014 A 
ATOM     33  C   UNL A   1      35.967  29.694  29.573  1.00  0.00     0.014 A 
ATOM     34  C   UNL A   1      37.859  29.681  27.510  1.00  0.00     0.010 A 
ATOM     35  C   UNL A   1      37.269  29.265  29.825  1.00  0.00     0.010 A 
ATOM     36  C   UNL A   1      38.231  29.282  28.803  1.00  0.00    -0.014 A 
BRANCH  36  37
ATOM     37  C   UNL A   1      39.641  28.956  29.130  1.00  0.00     0.031 A 
ATOM     38  C   UNL A   1      40.552  29.991  29.720  1.00  0.00     0.074 A 
ATOM     39  C   UNL A   1      40.124  27.743  28.802  1.00  0.00     0.049 A 
ATOM     40  N   UNL A   1      41.841  29.926  29.930  1.00  0.00    -0.248 NA
ATOM     41  C   UNL A   1      39.937  31.269  30.106  1.00  0.00     0.031 C 
ATOM     42  C   UNL A   1      39.349  26.658  28.193  1.00  0.00     0.029 A 
ATOM     43  N   UNL A   1      41.389  27.226  28.915  1.00  0.00    -0.354 N 
ATOM     44  C   UNL A   1      42.203  31.165  30.439  1.00  0.00     0.074 A 
ATOM     45  C   UNL A   1      40.994  31.961  30.511  1.00  0.00     0.031 C 
ATOM     46  C   UNL A   1      40.155  25.603  27.991  1.00  0.00     0.029 A 
ATOM     47  C   UNL A   1      41.505  25.947  28.426  1.00  0.00     0.049 A 
ATOM     48  H   UNL A   1      42.142  27.724  29.307  1.00  0.00     0.167 HD
ATOM     49  C   UNL A   1      43.431  31.604  30.805  1.00  0.00     0.031 A 
ATOM     50  C   UNL A   1      42.580  25.143  28.325  1.00  0.00     0.031 A 
ATOM     51  C   UNL A   1      44.632  30.815  30.753  1.00  0.00     0.049 A 
ATOM     52  C   UNL A   1      43.920  25.632  28.787  1.00  0.00     0.074 A 
ATOM     53  C   UNL A   1      45.917  31.172  31.123  1.00  0.00     0.029 A 
ATOM     54  N   UNL A   1      44.693  29.502  30.312  1.00  0.00    -0.354 N 
ATOM     55  N   UNL A   1      44.241  26.807  29.269  1.00  0.00    -0.248 NA
ATOM     56  C   UNL A   1      45.041  24.687  28.689  1.00  0.00     0.031 C 
ATOM     57  C   UNL A   1      46.759  30.075  30.898  1.00  0.00     0.029 A 
ATOM     58  C   UNL A   1      45.993  29.033  30.402  1.00  0.00     0.049 A 
ATOM     59  H   UNL A   1      43.926  28.981  29.983  1.00  0.00     0.167 HD
ATOM     60  C   UNL A   1      45.601  26.743  29.538  1.00  0.00     0.074 A 
ATOM     61  C   UNL A   1      46.042  25.411  29.174  1.00  0.00     0.031 C 
ATOM     62  C   UNL A   1      46.413  27.705  30.040  1.00  0.00     0.031 A 
BRANCH  49  63
ATOM     63  C   UNL A   1      43.528  33.028  31.271  1.00  0.00    -0.014 A 
ATOM     64  C   UNL A   1      43.696  34.077  30.351  1.00  0.00     0.010 A 
ATOM     65  C   UNL A   1      43.461  33.316  32.645  1.00  0.00     0.010 A 
ATOM     66  C   UNL A   1      43.840  35.391  30.801  1.00  0.00     0.020 A 
ATOM     67  C   UNL A   1      43.593  34.632  33.098  1.00  0.00     0.020 A 
ATOM     68  C   UNL A   1      43.805  35.658  32.173  1.00  0.00     0.054 A 
BRANCH  68  69
ATOM     69  S   UNL A   1      44.014  37.363  32.757  1.00  0.00     0.124 S 
ATOM     70  O   UNL A   1      42.969  37.460  33.772  1.00  0.00    -0.237 OA
ATOM     71  O   UNL A   1      45.384  37.376  33.265  1.00  0.00    -0.237 OA
ATOM     72  O   UNL A   1      43.793  38.162  31.554  1.00  0.00    -0.744 OA
ENDBRANCH  68  69
ENDBRANCH  49  63
BRANCH  50  73
ATOM     73  C   UNL A   1      42.419  23.782  27.759  1.00  0.00    -0.014 A 
ATOM     74  C   UNL A   1      42.708  23.543  26.405  1.00  0.00     0.010 A 
ATOM     75  C   UNL A   1      42.028  22.712  28.582  1.00  0.00     0.010 A 
ATOM     76  C   UNL A   1      42.608  22.253  25.880  1.00  0.00     0.020 A 
ATOM     77  C   UNL A   1      41.937  21.419  28.062  1.00  0.00     0.020 A 
ATOM     78  C   UNL A   1      42.223  21.198  26.712  1.00  0.00     0.054 A 
BRANCH  78  79
ATOM     79  S   UNL A   1      42.176  19.509  26.049  1.00  0.00     0.124 S 
ATOM     80  O   UNL A   1      40.763  19.356  25.714  1.00  0.00    -0.237 OA
ATOM     81  O   UNL A   1      43.092  19.578  24.913  1.00  0.00    -0.237 OA
ATOM     82  O   UNL A   1      42.649  18.701  27.170  1.00  0.00    -0.744 OA
ENDBRANCH  78  79
ENDBRANCH  50  73
BRANCH  62  83
ATOM     83  C   UNL A   1      47.855  27.345  30.238  1.00  0.00    -0.014 A 
ATOM     84  C   UNL A   1      48.810  27.648  29.252  1.00  0.00     0.010 A 
ATOM     85  C   UNL A   1      48.266  26.734  31.435  1.00  0.00     0.010 A 
ATOM     86  C   UNL A   1      50.156  27.332  29.455  1.00  0.00     0.020 A 
ATOM     87  C   UNL A   1      49.612  26.424  31.644  1.00  0.00     0.020 A 
ATOM     88  C   UNL A   1      50.547  26.715  30.648  1.00  0.00     0.054 A 
BRANCH  88  89
ATOM     89  S   UNL A   1      52.303  26.349  30.924  1.00  0.00     0.124 S 
ATOM     90  O   UNL A   1      52.804  26.219  29.560  1.00  0.00    -0.237 OA
ATOM     91  O   UNL A   1      52.774  27.523  31.656  1.00  0.00    -0.237 OA
ATOM     92  O   UNL A   1      52.272  25.112  31.702  1.00  0.00    -0.744 OA
ENDBRANCH  88  89
ENDBRANCH  62  83
ENDBRANCH  36  37
ENDBRANCH  28  31
ENDBRANCH  26  27
ENDBRANCH  25  26
ENDBRANCH   1  25
TORSDOF 18
ENDMDL
MODEL 2
REMARK VINA RESULT:     -11.3      2.025      2.868
REMARK SMILES CCOC(=O)C1=NN(c2ccc(F)cc2F)[C@@H](C(=O)NCCCCNC(=O)c2ccc(-c3c4nc(c(-c5ccc(S(=O)(=O)[O-])cc5)c5ccc([nH]5)c(-c5ccc(S(=O)(=O)[O-])cc5)c5nc(c(-c6ccc(S(=O)(=O)[O-])cc6)c6ccc3[nH]6)C=C5)C=C4)cc2)C1
REMARK SMILES IDX 22 1 21 2 20 3 18 4 19 5 17 7 6 8 7 9 88 10 8 11 4 12 5 13
REMARK SMILES IDX 3 14 2 15 1 16 9 17 10 18 15 19 11 20 14 21 16 22 12 23
REMARK SMILES IDX 13 24 23 25 24 26 25 27 26 28 27 30 28 31 29 32 87 33 30 34
REMARK SMILES IDX 86 35 31 36 32 37 33 38 80 39 34 40 85 41 79 42 81 43 35 44
REMARK SMILES IDX 84 45 78 46 77 47 36 49 66 50 47 51 65 52 48 53 51 54 64 55
REMARK SMILES IDX 82 56 49 57 50 58 63 60 83 61 52 62 37 63 38 64 46 65 39 66
REMARK SMILES IDX 45 67 40 68 41 69 42 70 43 71 44 72 67 73 68 74 76 75 69 76
REMARK SMILES IDX 75 77 70 78 71 79 72 80 73 81 74 82 53 83 54 84 62 85 55 86
REMARK SMILES IDX 61 87 56 88 57 89 58 90 59 91 60 92
REMARK H PARENT 20 6 25 29 81 48 51 59
REMARK Flexibility Score: inf
ROOT
ATOM      1  C   UNL A   1      33.952  28.025  24.532  1.00  0.00     0.023 C 
ENDROOT
BRANCH   1   2
ATOM      2  C   UNL A   1      33.594  28.468  23.117  1.00  0.00     0.116 C 
BRANCH   2   3
ATOM      3  N   UNL A   1      33.656  27.405  22.136  1.00  0.00    -0.354 N 
ATOM      4  C   UNL A   1      32.758  26.461  21.760  1.00  0.00     0.245 C 
ATOM      5  O   UNL A   1      33.051  25.833  20.729  1.00  0.00    -0.273 OA
ATOM      6  H   UNL A   1      34.512  27.359  21.649  1.00  0.00     0.163 HD
BRANCH   4   7
ATOM      7  C   UNL A   1      31.487  26.039  22.508  1.00  0.00     0.203 C 
ATOM      8  C   UNL A   1      31.179  25.363  24.690  1.00  0.00     0.148 C 
ATOM      9  N   UNL A   1      30.628  26.533  24.651  1.00  0.00    -0.169 NA
ATOM     10  C   UNL A   1      31.863  24.899  23.459  1.00  0.00     0.103 C 
ATOM     11  N   UNL A   1      30.811  27.013  23.376  1.00  0.00    -0.249 N 
BRANCH   8  12
ATOM     12  C   UNL A   1      31.113  24.447  25.880  1.00  0.00     0.354 C 
ATOM     13  O   UNL A   1      30.229  24.527  26.713  1.00  0.00    -0.245 OA
BRANCH  12  14
ATOM     14  O   UNL A   1      32.086  23.521  25.781  1.00  0.00    -0.461 OA
BRANCH  14  15
ATOM     15  C   UNL A   1      33.200  23.709  26.665  1.00  0.00     0.230 C 
ATOM     16  C   UNL A   1      34.294  22.697  26.379  1.00  0.00     0.049 C 
ENDBRANCH  14  15
ENDBRANCH  12  14
ENDBRANCH   8  12
BRANCH  11  17
ATOM     17  C   UNL A   1      29.947  28.024  22.936  1.00  0.00     0.096 A 
ATOM     18  C   UNL A   1      30.423  29.201  22.328  1.00  0.00     0.034 A 
ATOM     19  C   UNL A   1      28.549  27.936  23.134  1.00  0.00     0.151 A 
ATOM     20  C   UNL A   1      29.550  30.222  21.934  1.00  0.00     0.041 A 
ATOM     21  C   UNL A   1      27.674  28.952  22.751  1.00  0.00     0.080 A 
ATOM     22  F   UNL A   1      28.011  26.882  23.769  1.00  0.00    -0.205 F 
ATOM     23  C   UNL A   1      28.186  30.087  22.150  1.00  0.00     0.126 A 
ATOM     24  F   UNL A   1      27.358  31.073  21.782  1.00  0.00    -0.207 F 
ENDBRANCH  11  17
ENDBRANCH   4   7
ENDBRANCH   2   3
ENDBRANCH   1   2
BRANCH   1  25
ATOM     25  C   UNL A   1      33.103  28.661  25.640  1.00  0.00     0.023 C 
BRANCH  25  26
ATOM     26  C   UNL A   1      33.760  28.760  27.019  1.00  0.00     0.116 C 
BRANCH  26  27
ATOM     27  N   UNL A   1      33.635  30.069  27.642  1.00  0.00    -0.352 N 
ATOM     28  C   UNL A   1      34.577  30.757  28.371  1.00  0.00     0.251 C 
ATOM     29  H   UNL A   1      32.767  30.519  27.526  1.00  0.00     0.163 HD
ATOM     30  O   UNL A   1      34.289  31.819  28.913  1.00  0.00    -0.269 OA
BRANCH  28  31
ATOM     31  C   UNL A   1      35.927  30.177  28.545  1.00  0.00     0.039 A 
ATOM     32  C   UNL A   1      36.785  30.139  27.441  1.00  0.00     0.014 A 
ATOM     33  C   UNL A   1      36.353  29.700  29.787  1.00  0.00     0.014 A 
ATOM     34  C   UNL A   1      38.104  29.710  27.604  1.00  0.00     0.010 A 
ATOM     35  C   UNL A   1      37.678  29.300  29.955  1.00  0.00     0.010 A 
ATOM     36  C   UNL A   1      38.570  29.330  28.872  1.00  0.00    -0.014 A 
BRANCH  36  37
ATOM     37  C   UNL A   1      40.004  29.036  29.107  1.00  0.00     0.031 A 
ATOM     38  C   UNL A   1      40.941  30.109  29.578  1.00  0.00     0.074 A 
ATOM     39  C   UNL A   1      40.480  27.814  28.801  1.00  0.00     0.049 A 
ATOM     40  N   UNL A   1      42.242  30.068  29.693  1.00  0.00    -0.248 NA
ATOM     41  C   UNL A   1      40.337  31.397  29.948  1.00  0.00     0.031 C 
ATOM     42  C   UNL A   1      39.679  26.692  28.304  1.00  0.00     0.029 A 
ATOM     43  N   UNL A   1      41.758  27.318  28.843  1.00  0.00    -0.354 N 
ATOM     44  C   UNL A   1      42.623  31.335  30.115  1.00  0.00     0.074 A 
ATOM     45  C   UNL A   1      41.411  32.119  30.240  1.00  0.00     0.031 C 
ATOM     46  C   UNL A   1      40.483  25.639  28.091  1.00  0.00     0.029 A 
ATOM     47  C   UNL A   1      41.857  26.019  28.408  1.00  0.00     0.049 A 
ATOM     48  H   UNL A   1      42.530  27.843  29.154  1.00  0.00     0.167 HD
ATOM     49  C   UNL A   1      43.868  31.805  30.367  1.00  0.00     0.031 A 
ATOM     50  C   UNL A   1      42.933  25.223  28.264  1.00  0.00     0.031 A 
ATOM     51  C   UNL A   1      45.073  31.028  30.263  1.00  0.00     0.049 A 
ATOM     52  C   UNL A   1      44.297  25.750  28.601  1.00  0.00     0.074 A 
ATOM     53  C   UNL A   1      46.377  31.419  30.518  1.00  0.00     0.029 A 
ATOM     54  N   UNL A   1      45.122  29.697  29.881  1.00  0.00    -0.354 N 
ATOM     55  N   UNL A   1      44.634  26.950  29.002  1.00  0.00    -0.248 NA
ATOM     56  C   UNL A   1      45.421  24.814  28.464  1.00  0.00     0.031 C 
ATOM     57  C   UNL A   1      47.216  30.322  30.282  1.00  0.00     0.029 A 
ATOM     58  C   UNL A   1      46.432  29.248  29.894  1.00  0.00     0.049 A 
ATOM     59  H   UNL A   1      44.340  29.152  29.635  1.00  0.00     0.167 HD
ATOM     60  C   UNL A   1      46.011  26.915  29.171  1.00  0.00     0.074 A 
ATOM     61  C   UNL A   1      46.444  25.572  28.838  1.00  0.00     0.031 C 
ATOM     62  C   UNL A   1      46.844  27.909  29.565  1.00  0.00     0.031 A 
BRANCH  49  63
ATOM     63  C   UNL A   1      43.977  33.251  30.757  1.00  0.00    -0.014 A 
ATOM     64  C   UNL A   1      44.016  34.260  29.779  1.00  0.00     0.010 A 
ATOM     65  C   UNL A   1      44.053  33.601  32.116  1.00  0.00     0.010 A 
ATOM     66  C   UNL A   1      44.174  35.596  30.153  1.00  0.00     0.020 A 
ATOM     67  C   UNL A   1      44.199  34.939  32.494  1.00  0.00     0.020 A 
ATOM     68  C   UNL A   1      44.282  35.925  31.508  1.00  0.00     0.054 A 
BRANCH  68  69
ATOM     69  S   UNL A   1      44.508  37.660  31.990  1.00  0.00     0.124 S 
ATOM     70  O   UNL A   1      43.399  37.857  32.920  1.00  0.00    -0.237 OA
ATOM     71  O   UNL A   1      45.840  37.667  32.592  1.00  0.00    -0.237 OA
ATOM     72  O   UNL A   1      44.398  38.380  30.724  1.00  0.00    -0.744 OA
ENDBRANCH  68  69
ENDBRANCH  49  63
BRANCH  50  73
ATOM     73  C   UNL A   1      42.752  23.835  27.777  1.00  0.00    -0.014 A 
ATOM     74  C   UNL A   1      42.308  22.832  28.656  1.00  0.00     0.010 A 
ATOM     75  C   UNL A   1      42.973  23.522  26.425  1.00  0.00     0.010 A 
ATOM     76  C   UNL A   1      42.086  21.535  28.189  1.00  0.00     0.020 A 
ATOM     77  C   UNL A   1      42.742  22.228  25.954  1.00  0.00     0.020 A 
ATOM     78  C   UNL A   1      42.304  21.240  26.840  1.00  0.00     0.054 A 
BRANCH  78  79
ATOM     79  S   UNL A   1      41.934  19.576  26.219  1.00  0.00     0.124 S 
ATOM     80  O   UNL A   1      42.380  18.734  27.325  1.00  0.00    -0.237 OA
ATOM     81  O   UNL A   1      40.490  19.621  26.000  1.00  0.00    -0.237 OA
ATOM     82  O   UNL A   1      42.736  19.492  25.000  1.00  0.00    -0.744 OA
ENDBRANCH  78  79
ENDBRANCH  50  73
BRANCH  62  83
ATOM     83  C   UNL A   1      48.302  27.576  29.671  1.00  0.00    -0.014 A 
ATOM     84  C   UNL A   1      49.171  27.815  28.592  1.00  0.00     0.010 A 
ATOM     85  C   UNL A   1      48.815  27.056  30.871  1.00  0.00     0.010 A 
ATOM     86  C   UNL A   1      50.533  27.525  28.708  1.00  0.00     0.020 A 
ATOM     87  C   UNL A   1      50.178  26.772  30.993  1.00  0.00     0.020 A 
ATOM     88  C   UNL A   1      51.026  26.999  29.906  1.00  0.00     0.054 A 
BRANCH  88  89
ATOM     89  S   UNL A   1      52.804  26.668  30.066  1.00  0.00     0.124 S 
ATOM     90  O   UNL A   1      53.169  26.310  28.698  1.00  0.00    -0.237 OA
ATOM     91  O   UNL A   1      53.335  27.942  30.544  1.00  0.00    -0.237 OA
ATOM     92  O   UNL A   1      52.859  25.576  31.036  1.00  0.00    -0.744 OA
ENDBRANCH  88  89
ENDBRANCH  62  83
ENDBRANCH  36  37
ENDBRANCH  28  31
ENDBRANCH  26  27
ENDBRANCH  25  26
ENDBRANCH   1  25
TORSDOF 18
ENDMDL
MODEL 3
REMARK VINA RESULT:     -11.2      4.687      6.508
REMARK SMILES CCOC(=O)C1=NN(c2ccc(F)cc2F)[C@@H](C(=O)NCCCCNC(=O)c2ccc(-c3c4nc(c(-c5ccc(S(=O)(=O)[O-])cc5)c5ccc([nH]5)c(-c5ccc(S(=O)(=O)[O-])cc5)c5nc(c(-c6ccc(S(=O)(=O)[O-])cc6)c6ccc3[nH]6)C=C5)C=C4)cc2)C1
REMARK SMILES IDX 22 1 21 2 20 3 18 4 19 5 17 7 6 8 7 9 88 10 8 11 4 12 5 13
REMARK SMILES IDX 3 14 2 15 1 16 9 17 10 18 15 19 11 20 14 21 16 22 12 23
REMARK SMILES IDX 13 24 23 25 24 26 25 27 26 28 27 30 28 31 29 32 87 33 30 34
REMARK SMILES IDX 86 35 31 36 32 37 33 38 80 39 34 40 85 41 79 42 81 43 35 44
REMARK SMILES IDX 84 45 78 46 77 47 36 49 66 50 47 51 65 52 48 53 51 54 64 55
REMARK SMILES IDX 82 56 49 57 50 58 63 60 83 61 52 62 37 63 38 64 46 65 39 66
REMARK SMILES IDX 45 67 40 68 41 69 42 70 43 71 44 72 67 73 68 74 76 75 69 76
REMARK SMILES IDX 75 77 70 78 71 79 72 80 73 81 74 82 53 83 54 84 62 85 55 86
REMARK SMILES IDX 61 87 56 88 57 89 58 90 59 91 60 92
REMARK H PARENT 20 6 25 29 81 48 51 59
REMARK Flexibility Score: inf
ROOT
ATOM      1  C   UNL A   1      32.135  29.717  27.102  1.00  0.00     0.023 C 
ENDROOT
BRANCH   1   2
ATOM      2  C   UNL A   1      33.358  28.951  26.608  1.00  0.00     0.116 C 
BRANCH   2   3
ATOM      3  N   UNL A   1      33.607  29.096  25.189  1.00  0.00    -0.354 N 
ATOM      4  C   UNL A   1      32.803  28.959  24.106  1.00  0.00     0.245 C 
ATOM      5  O   UNL A   1      33.283  29.368  23.036  1.00  0.00    -0.273 OA
ATOM      6  H   UNL A   1      34.536  29.339  24.969  1.00  0.00     0.163 HD
BRANCH   4   7
ATOM      7  C   UNL A   1      31.425  28.287  24.052  1.00  0.00     0.203 C 
ATOM      8  C   UNL A   1      29.548  28.801  22.817  1.00  0.00     0.148 C 
ATOM      9  N   UNL A   1      29.974  27.702  22.284  1.00  0.00    -0.169 NA
ATOM     10  C   UNL A   1      30.375  29.392  23.896  1.00  0.00     0.103 C 
ATOM     11  N   UNL A   1      31.123  27.358  22.955  1.00  0.00    -0.249 N 
BRANCH   8  12
ATOM     12  C   UNL A   1      28.252  29.465  22.442  1.00  0.00     0.354 C 
ATOM     13  O   UNL A   1      27.281  29.453  23.175  1.00  0.00    -0.245 OA
BRANCH  12  14
ATOM     14  O   UNL A   1      28.411  30.119  21.275  1.00  0.00    -0.461 OA
BRANCH  14  15
ATOM     15  C   UNL A   1      28.660  31.527  21.394  1.00  0.00     0.230 C 
ATOM     16  C   UNL A   1      27.903  32.301  20.330  1.00  0.00     0.049 C 
ENDBRANCH  14  15
ENDBRANCH  12  14
ENDBRANCH   8  12
BRANCH  11  17
ATOM     17  C   UNL A   1      31.529  26.019  22.897  1.00  0.00     0.096 A 
ATOM     18  C   UNL A   1      30.764  24.981  23.463  1.00  0.00     0.034 A 
ATOM     19  C   UNL A   1      32.763  25.647  22.313  1.00  0.00     0.151 A 
ATOM     20  C   UNL A   1      31.205  23.652  23.436  1.00  0.00     0.041 A 
ATOM     21  C   UNL A   1      33.212  24.328  22.289  1.00  0.00     0.080 A 
ATOM     22  F   UNL A   1      33.591  26.578  21.812  1.00  0.00    -0.205 F 
ATOM     23  C   UNL A   1      32.424  23.340  22.850  1.00  0.00     0.126 A 
ATOM     24  F   UNL A   1      32.845  22.069  22.840  1.00  0.00    -0.207 F 
ENDBRANCH  11  17
ENDBRANCH   4   7
ENDBRANCH   2   3
ENDBRANCH   1   2
BRANCH   1  25
ATOM     25  C   UNL A   1      32.117  31.206  26.735  1.00  0.00     0.023 C 
BRANCH  25  26
ATOM     26  C   UNL A   1      33.191  32.077  27.392  1.00  0.00     0.116 C 
BRANCH  26  27
ATOM     27  N   UNL A   1      32.796  33.463  27.581  1.00  0.00    -0.352 N 
ATOM     28  C   UNL A   1      33.297  34.375  28.481  1.00  0.00     0.251 C 
ATOM     29  H   UNL A   1      32.079  33.791  26.990  1.00  0.00     0.163 HD
ATOM     30  O   UNL A   1      32.793  35.489  28.583  1.00  0.00    -0.269 OA
BRANCH  28  31
ATOM     31  C   UNL A   1      34.414  33.982  29.368  1.00  0.00     0.039 A 
ATOM     32  C   UNL A   1      34.120  33.273  30.537  1.00  0.00     0.014 A 
ATOM     33  C   UNL A   1      35.737  34.286  29.041  1.00  0.00     0.014 A 
ATOM     34  C   UNL A   1      35.160  32.785  31.332  1.00  0.00     0.010 A 
ATOM     35  C   UNL A   1      36.775  33.773  29.817  1.00  0.00     0.010 A 
ATOM     36  C   UNL A   1      36.494  32.996  30.952  1.00  0.00    -0.014 A 
BRANCH  36  37
ATOM     37  C   UNL A   1      37.612  32.345  31.678  1.00  0.00     0.031 A 
ATOM     38  C   UNL A   1      38.072  32.867  33.006  1.00  0.00     0.074 A 
ATOM     39  C   UNL A   1      38.276  31.335  31.085  1.00  0.00     0.049 A 
ATOM     40  N   UNL A   1      39.119  32.517  33.707  1.00  0.00    -0.248 NA
ATOM     41  C   UNL A   1      37.260  33.930  33.615  1.00  0.00     0.031 C 
ATOM     42  C   UNL A   1      37.949  30.756  29.779  1.00  0.00     0.029 A 
ATOM     43  N   UNL A   1      39.379  30.630  31.495  1.00  0.00    -0.354 N 
ATOM     44  C   UNL A   1      39.117  33.341  34.825  1.00  0.00     0.074 A 
ATOM     45  C   UNL A   1      37.959  34.204  34.710  1.00  0.00     0.031 C 
ATOM     46  C   UNL A   1      38.829  29.782  29.498  1.00  0.00     0.029 A 
ATOM     47  C   UNL A   1      39.797  29.688  30.587  1.00  0.00     0.049 A 
ATOM     48  H   UNL A   1      39.828  30.784  32.357  1.00  0.00     0.167 HD
ATOM     49  C   UNL A   1      40.003  33.380  35.849  1.00  0.00     0.031 A 
ATOM     50  C   UNL A   1      40.851  28.850  30.616  1.00  0.00     0.031 A 
ATOM     51  C   UNL A   1      41.143  32.514  35.979  1.00  0.00     0.049 A 
ATOM     52  C   UNL A   1      41.788  28.876  31.787  1.00  0.00     0.074 A 
ATOM     53  C   UNL A   1      42.083  32.472  36.995  1.00  0.00     0.029 A 
ATOM     54  N   UNL A   1      41.494  31.531  35.068  1.00  0.00    -0.354 N 
ATOM     55  N   UNL A   1      41.765  29.660  32.836  1.00  0.00    -0.248 NA
ATOM     56  C   UNL A   1      42.890  27.905  31.775  1.00  0.00     0.031 C 
ATOM     57  C   UNL A   1      43.009  31.464  36.692  1.00  0.00     0.029 A 
ATOM     58  C   UNL A   1      42.634  30.873  35.497  1.00  0.00     0.049 A 
ATOM     59  H   UNL A   1      41.004  31.330  34.238  1.00  0.00     0.167 HD
ATOM     60  C   UNL A   1      42.848  29.275  33.615  1.00  0.00     0.074 A 
ATOM     61  C   UNL A   1      43.500  28.182  32.921  1.00  0.00     0.031 C 
ATOM     62  C   UNL A   1      43.267  29.785  34.798  1.00  0.00     0.031 A 
BRANCH  49  63
ATOM     63  C   UNL A   1      39.773  34.428  36.900  1.00  0.00    -0.014 A 
ATOM     64  C   UNL A   1      40.267  35.733  36.736  1.00  0.00     0.010 A 
ATOM     65  C   UNL A   1      39.063  34.097  38.067  1.00  0.00     0.010 A 
ATOM     66  C   UNL A   1      40.095  36.682  37.746  1.00  0.00     0.020 A 
ATOM     67  C   UNL A   1      38.878  35.048  39.075  1.00  0.00     0.020 A 
ATOM     68  C   UNL A   1      39.416  36.329  38.916  1.00  0.00     0.054 A 
BRANCH  68  69
ATOM     69  S   UNL A   1      39.211  37.558  40.235  1.00  0.00     0.124 S 
ATOM     70  O   UNL A   1      40.567  38.086  40.362  1.00  0.00    -0.237 OA
ATOM     71  O   UNL A   1      38.228  38.484  39.678  1.00  0.00    -0.237 OA
ATOM     72  O   UNL A   1      38.740  36.765  41.367  1.00  0.00    -0.744 OA
ENDBRANCH  68  69
ENDBRANCH  49  63
BRANCH  50  73
ATOM     73  C   UNL A   1      41.066  27.912  29.489  1.00  0.00    -0.014 A 
ATOM     74  C   UNL A   1      42.037  28.194  28.513  1.00  0.00     0.010 A 
ATOM     75  C   UNL A   1      40.338  26.712  29.414  1.00  0.00     0.010 A 
ATOM     76  C   UNL A   1      42.279  27.288  27.478  1.00  0.00     0.020 A 
ATOM     77  C   UNL A   1      40.586  25.800  28.386  1.00  0.00     0.020 A 
ATOM     78  C   UNL A   1      41.552  26.096  27.420  1.00  0.00     0.054 A 
BRANCH  78  79
ATOM     79  S   UNL A   1      41.927  24.883  26.124  1.00  0.00     0.124 S 
ATOM     80  O   UNL A   1      42.064  25.734  24.945  1.00  0.00    -0.237 OA
ATOM     81  O   UNL A   1      43.160  24.262  26.603  1.00  0.00    -0.237 OA
ATOM     82  O   UNL A   1      40.756  24.010  26.139  1.00  0.00    -0.744 OA
ENDBRANCH  78  79
ENDBRANCH  50  73
BRANCH  62  83
ATOM     83  C   UNL A   1      44.475  29.155  35.423  1.00  0.00    -0.014 A 
ATOM     84  C   UNL A   1      44.340  28.062  36.297  1.00  0.00     0.010 A 
ATOM     85  C   UNL A   1      45.757  29.632  35.104  1.00  0.00     0.010 A 
ATOM     86  C   UNL A   1      45.473  27.464  36.856  1.00  0.00     0.020 A 
ATOM     87  C   UNL A   1      46.892  29.031  35.654  1.00  0.00     0.020 A 
ATOM     88  C   UNL A   1      46.741  27.957  36.536  1.00  0.00     0.054 A 
BRANCH  88  89
ATOM     89  S   UNL A   1      48.210  27.146  37.228  1.00  0.00     0.124 S 
ATOM     90  O   UNL A   1      47.623  26.259  38.227  1.00  0.00    -0.237 OA
ATOM     91  O   UNL A   1      48.799  26.482  36.067  1.00  0.00    -0.237 OA
ATOM     92  O   UNL A   1      48.992  28.260  37.761  1.00  0.00    -0.744 OA
ENDBRANCH  88  89
ENDBRANCH  62  83
ENDBRANCH  36  37
ENDBRANCH  28  31
ENDBRANCH  26  27
ENDBRANCH  25  26
ENDBRANCH   1  25
TORSDOF 18
ENDMDL
