MODEL 1
REMARK VINA RESULT:     -12.1      0.000      0.000
REMARK SMILES CCC(=O)N1CCC[C@](C[C@H]2CC(c3ccc(C)cc3)=NO2)(C(=O)NCCCCNC(=O)c2ccc(-c3c4nc(c(-c5ccc(S(=O)(=O)[O-])cc5)c5ccc([nH]5)c(-c5ccc(S(=O)(=O)[O-])cc5)c5nc(c(-c6ccc(S(=O)(=O)[O-])cc6)c6ccc3[nH]6)C=C5)C=C4)cc2)C1
REMARK SMILES IDX 27 1 26 2 25 3 23 4 24 5 9 7 5 8 6 9 93 10 7 11 8 12 3 13
REMARK SMILES IDX 4 14 2 15 1 16 10 17 11 18 12 19 22 20 13 21 21 22 14 23
REMARK SMILES IDX 15 24 20 25 16 26 19 27 17 28 18 29 28 30 29 31 30 32 31 33
REMARK SMILES IDX 32 35 33 36 34 37 92 38 35 39 91 40 36 41 37 42 38 43 85 44
REMARK SMILES IDX 39 45 90 46 84 47 86 48 40 49 89 50 83 51 82 52 41 54 71 55
REMARK SMILES IDX 52 56 70 57 53 58 56 59 69 60 87 61 54 62 55 63 68 65 88 66
REMARK SMILES IDX 57 67 42 68 43 69 51 70 44 71 50 72 45 73 46 74 47 75 48 76
REMARK SMILES IDX 49 77 72 78 73 79 81 80 74 81 80 82 75 83 76 84 77 85 78 86
REMARK SMILES IDX 79 87 58 88 59 89 67 90 60 91 66 92 61 93 62 94 63 95 64 96
REMARK SMILES IDX 65 97
REMARK H PARENT 25 6 30 34 86 53 56 64
REMARK Flexibility Score: inf
ROOT
ATOM      1  C   UNL A   1      38.574  22.518  26.104  1.00  0.00     0.023 C 
ENDROOT
BRANCH   1   2
ATOM      2  C   UNL A   1      37.208  21.938  25.715  1.00  0.00     0.116 C 
BRANCH   2   3
ATOM      3  N   UNL A   1      36.833  22.118  24.319  1.00  0.00    -0.356 N 
ATOM      4  C   UNL A   1      35.897  22.816  23.632  1.00  0.00     0.228 C 
ATOM      5  O   UNL A   1      36.214  22.966  22.438  1.00  0.00    -0.274 OA
ATOM      6  H   UNL A   1      37.411  21.595  23.717  1.00  0.00     0.163 HD
BRANCH   4   7
ATOM      7  C   UNL A   1      34.469  23.289  24.108  1.00  0.00     0.070 C 
ATOM      8  N   UNL A   1      32.917  21.333  23.850  1.00  0.00    -0.342 N 
ATOM      9  C   UNL A   1      32.137  22.007  22.812  1.00  0.00     0.119 C 
ATOM     10  C   UNL A   1      33.606  22.210  24.765  1.00  0.00     0.136 C 
ATOM     11  C   UNL A   1      32.985  22.982  22.014  1.00  0.00     0.023 C 
ATOM     12  C   UNL A   1      33.763  23.940  22.901  1.00  0.00     0.021 C 
BRANCH   8  13
ATOM     13  C   UNL A   1      32.730  19.978  24.015  1.00  0.00     0.222 C 
ATOM     14  O   UNL A   1      32.177  19.339  23.114  1.00  0.00    -0.275 OA
BRANCH  13  15
ATOM     15  C   UNL A   1      33.154  19.201  25.255  1.00  0.00     0.097 C 
ATOM     16  C   UNL A   1      32.739  17.779  25.576  1.00  0.00     0.014 C 
ENDBRANCH  13  15
ENDBRANCH   8  13
BRANCH   7  17
ATOM     17  C   UNL A   1      34.777  24.404  25.208  1.00  0.00     0.067 C 
BRANCH  17  18
ATOM     18  C   UNL A   1      33.722  25.241  25.969  1.00  0.00     0.211 C 
ATOM     19  C   UNL A   1      33.185  26.505  25.341  1.00  0.00     0.108 C 
ATOM     20  O   UNL A   1      32.584  24.475  26.383  1.00  0.00    -0.392 OA
ATOM     21  C   UNL A   1      31.756  26.125  25.204  1.00  0.00     0.091 C 
ATOM     22  N   UNL A   1      31.410  25.055  25.840  1.00  0.00    -0.090 NA
BRANCH  21  23
ATOM     23  C   UNL A   1      30.800  26.996  24.496  1.00  0.00    -0.001 A 
ATOM     24  C   UNL A   1      29.506  26.557  24.208  1.00  0.00     0.010 A 
ATOM     25  C   UNL A   1      31.217  28.264  24.085  1.00  0.00     0.010 A 
ATOM     26  C   UNL A   1      28.643  27.374  23.472  1.00  0.00     0.004 A 
ATOM     27  C   UNL A   1      30.357  29.070  23.334  1.00  0.00     0.004 A 
ATOM     28  C   UNL A   1      29.067  28.628  23.014  1.00  0.00    -0.051 A 
ATOM     29  C   UNL A   1      28.172  29.483  22.168  1.00  0.00     0.044 C 
ENDBRANCH  21  23
ENDBRANCH  17  18
ENDBRANCH   7  17
ENDBRANCH   4   7
ENDBRANCH   2   3
ENDBRANCH   1   2
BRANCH   1  30
ATOM     30  C   UNL A   1      38.552  23.987  26.528  1.00  0.00     0.023 C 
BRANCH  30  31
ATOM     31  C   UNL A   1      39.924  24.632  26.689  1.00  0.00     0.116 C 
BRANCH  31  32
ATOM     32  N   UNL A   1      41.064  23.829  26.295  1.00  0.00    -0.352 N 
ATOM     33  C   UNL A   1      42.355  24.314  26.058  1.00  0.00     0.251 C 
ATOM     34  H   UNL A   1      40.919  22.861  26.185  1.00  0.00     0.163 HD
ATOM     35  O   UNL A   1      43.102  23.824  25.247  1.00  0.00    -0.269 OA
BRANCH  33  36
ATOM     36  C   UNL A   1      42.828  25.400  26.960  1.00  0.00     0.039 A 
ATOM     37  C   UNL A   1      42.471  25.346  28.314  1.00  0.00     0.014 A 
ATOM     38  C   UNL A   1      43.444  26.532  26.440  1.00  0.00     0.014 A 
ATOM     39  C   UNL A   1      42.593  26.490  29.105  1.00  0.00     0.010 A 
ATOM     40  C   UNL A   1      43.437  27.694  27.176  1.00  0.00     0.010 A 
ATOM     41  C   UNL A   1      42.997  27.681  28.501  1.00  0.00    -0.014 A 
BRANCH  41  42
ATOM     42  C   UNL A   1      42.947  28.994  29.126  1.00  0.00     0.031 A 
ATOM     43  C   UNL A   1      41.652  29.678  29.311  1.00  0.00     0.074 A 
ATOM     44  C   UNL A   1      44.064  29.474  29.712  1.00  0.00     0.049 A 
ATOM     45  N   UNL A   1      41.525  30.943  29.518  1.00  0.00    -0.248 NA
ATOM     46  C   UNL A   1      40.375  28.974  29.242  1.00  0.00     0.031 C 
ATOM     47  C   UNL A   1      44.169  30.543  30.699  1.00  0.00     0.029 A 
ATOM     48  N   UNL A   1      45.383  29.189  29.385  1.00  0.00    -0.354 N 
ATOM     49  C   UNL A   1      40.219  31.170  29.891  1.00  0.00     0.074 A 
ATOM     50  C   UNL A   1      39.527  29.930  29.630  1.00  0.00     0.031 C 
ATOM     51  C   UNL A   1      45.429  31.011  30.691  1.00  0.00     0.029 A 
ATOM     52  C   UNL A   1      46.122  30.358  29.587  1.00  0.00     0.049 A 
ATOM     53  H   UNL A   1      45.733  28.325  29.067  1.00  0.00     0.167 HD
ATOM     54  C   UNL A   1      39.889  32.334  30.519  1.00  0.00     0.031 A 
ATOM     55  C   UNL A   1      46.815  30.987  28.596  1.00  0.00     0.031 A 
ATOM     56  C   UNL A   1      41.054  33.206  30.668  1.00  0.00     0.049 A 
ATOM     57  C   UNL A   1      46.284  32.388  28.387  1.00  0.00     0.074 A 
ATOM     58  C   UNL A   1      41.909  33.444  31.732  1.00  0.00     0.029 A 
ATOM     59  N   UNL A   1      41.679  33.722  29.536  1.00  0.00    -0.354 N 
ATOM     60  N   UNL A   1      45.103  32.777  28.786  1.00  0.00    -0.248 NA
ATOM     61  C   UNL A   1      47.027  33.455  27.724  1.00  0.00     0.031 C 
ATOM     62  C   UNL A   1      43.098  34.022  31.216  1.00  0.00     0.029 A 
ATOM     63  C   UNL A   1      42.947  34.173  29.848  1.00  0.00     0.049 A 
ATOM     64  H   UNL A   1      41.272  33.761  28.641  1.00  0.00     0.167 HD
ATOM     65  C   UNL A   1      44.928  34.097  28.487  1.00  0.00     0.074 A 
ATOM     66  C   UNL A   1      46.154  34.477  27.806  1.00  0.00     0.031 C 
ATOM     67  C   UNL A   1      43.794  34.776  28.826  1.00  0.00     0.031 A 
BRANCH  54  68
ATOM     68  C   UNL A   1      38.585  32.537  31.259  1.00  0.00    -0.014 A 
ATOM     69  C   UNL A   1      37.450  33.002  30.562  1.00  0.00     0.010 A 
ATOM     70  C   UNL A   1      38.418  32.327  32.642  1.00  0.00     0.010 A 
ATOM     71  C   UNL A   1      36.255  33.332  31.219  1.00  0.00     0.020 A 
ATOM     72  C   UNL A   1      37.243  32.690  33.319  1.00  0.00     0.020 A 
ATOM     73  C   UNL A   1      36.167  33.199  32.602  1.00  0.00     0.054 A 
BRANCH  73  74
ATOM     74  S   UNL A   1      34.639  33.692  33.442  1.00  0.00     0.124 S 
ATOM     75  O   UNL A   1      34.406  35.035  32.914  1.00  0.00    -0.237 OA
ATOM     76  O   UNL A   1      33.695  32.670  33.001  1.00  0.00    -0.237 OA
ATOM     77  O   UNL A   1      34.990  33.643  34.860  1.00  0.00    -0.744 OA
ENDBRANCH  73  74
ENDBRANCH  54  68
BRANCH  55  78
ATOM     78  C   UNL A   1      47.324  30.076  27.525  1.00  0.00    -0.014 A 
ATOM     79  C   UNL A   1      48.262  29.088  27.896  1.00  0.00     0.010 A 
ATOM     80  C   UNL A   1      46.583  29.883  26.346  1.00  0.00     0.010 A 
ATOM     81  C   UNL A   1      48.325  27.863  27.216  1.00  0.00     0.020 A 
ATOM     82  C   UNL A   1      46.640  28.652  25.669  1.00  0.00     0.020 A 
ATOM     83  C   UNL A   1      47.451  27.623  26.158  1.00  0.00     0.054 A 
BRANCH  83  84
ATOM     84  S   UNL A   1      47.296  25.930  25.498  1.00  0.00     0.124 S 
ATOM     85  O   UNL A   1      48.661  25.607  25.092  1.00  0.00    -0.237 OA
ATOM     86  O   UNL A   1      46.777  25.181  26.643  1.00  0.00    -0.237 OA
ATOM     87  O   UNL A   1      46.348  26.096  24.398  1.00  0.00    -0.744 OA
ENDBRANCH  83  84
ENDBRANCH  55  78
BRANCH  67  88
ATOM     88  C   UNL A   1      43.406  36.128  28.289  1.00  0.00    -0.014 A 
ATOM     89  C   UNL A   1      42.602  36.304  27.154  1.00  0.00     0.010 A 
ATOM     90  C   UNL A   1      43.720  37.280  29.047  1.00  0.00     0.010 A 
ATOM     91  C   UNL A   1      42.170  37.578  26.763  1.00  0.00     0.020 A 
ATOM     92  C   UNL A   1      43.255  38.548  28.694  1.00  0.00     0.020 A 
ATOM     93  C   UNL A   1      42.498  38.691  27.537  1.00  0.00     0.054 A 
BRANCH  93  94
ATOM     94  S   UNL A   1      41.858  40.319  27.076  1.00  0.00     0.124 S 
ATOM     95  O   UNL A   1      41.255  40.770  28.327  1.00  0.00    -0.237 OA
ATOM     96  O   UNL A   1      43.061  41.040  26.665  1.00  0.00    -0.237 OA
ATOM     97  O   UNL A   1      40.919  40.024  25.996  1.00  0.00    -0.744 OA
ENDBRANCH  93  94
ENDBRANCH  67  88
ENDBRANCH  41  42
ENDBRANCH  33  36
ENDBRANCH  31  32
ENDBRANCH  30  31
ENDBRANCH   1  30
TORSDOF 19
ENDMDL
MODEL 2
REMARK VINA RESULT:     -11.9      1.959      2.978
REMARK SMILES CCC(=O)N1CCC[C@](C[C@H]2CC(c3ccc(C)cc3)=NO2)(C(=O)NCCCCNC(=O)c2ccc(-c3c4nc(c(-c5ccc(S(=O)(=O)[O-])cc5)c5ccc([nH]5)c(-c5ccc(S(=O)(=O)[O-])cc5)c5nc(c(-c6ccc(S(=O)(=O)[O-])cc6)c6ccc3[nH]6)C=C5)C=C4)cc2)C1
REMARK SMILES IDX 27 1 26 2 25 3 23 4 24 5 9 7 5 8 6 9 93 10 7 11 8 12 3 13
REMARK SMILES IDX 4 14 2 15 1 16 10 17 11 18 12 19 22 20 13 21 21 22 14 23
REMARK SMILES IDX 15 24 20 25 16 26 19 27 17 28 18 29 28 30 29 31 30 32 31 33
REMARK SMILES IDX 32 35 33 36 34 37 92 38 35 39 91 40 36 41 37 42 38 43 85 44
REMARK SMILES IDX 39 45 90 46 84 47 86 48 40 49 89 50 83 51 82 52 41 54 71 55
REMARK SMILES IDX 52 56 70 57 53 58 56 59 69 60 87 61 54 62 55 63 68 65 88 66
REMARK SMILES IDX 57 67 42 68 43 69 51 70 44 71 50 72 45 73 46 74 47 75 48 76
REMARK SMILES IDX 49 77 72 78 73 79 81 80 74 81 80 82 75 83 76 84 77 85 78 86
REMARK SMILES IDX 79 87 58 88 59 89 67 90 60 91 66 92 61 93 62 94 63 95 64 96
REMARK SMILES IDX 65 97
REMARK H PARENT 25 6 30 34 86 53 56 64
REMARK Flexibility Score: inf
ROOT
ATOM      1  C   UNL A   1      37.593  22.912  25.599  1.00  0.00     0.023 C 
ENDROOT
BRANCH   1   2
ATOM      2  C   UNL A   1      36.504  23.033  24.525  1.00  0.00     0.116 C 
BRANCH   2   3
ATOM      3  N   UNL A   1      35.640  24.200  24.646  1.00  0.00    -0.356 N 
ATOM      4  C   UNL A   1      34.307  24.445  24.636  1.00  0.00     0.228 C 
ATOM      5  O   UNL A   1      34.032  25.537  25.167  1.00  0.00    -0.274 OA
ATOM      6  H   UNL A   1      36.161  25.027  24.768  1.00  0.00     0.163 HD
BRANCH   4   7
ATOM      7  C   UNL A   1      33.157  23.630  23.927  1.00  0.00     0.070 C 
ATOM      8  N   UNL A   1      31.173  23.661  25.464  1.00  0.00    -0.342 N 
ATOM      9  C   UNL A   1      31.242  22.218  25.688  1.00  0.00     0.119 C 
ATOM     10  C   UNL A   1      31.735  24.116  24.216  1.00  0.00     0.136 C 
ATOM     11  C   UNL A   1      32.665  21.698  25.572  1.00  0.00     0.023 C 
ATOM     12  C   UNL A   1      33.345  22.142  24.288  1.00  0.00     0.021 C 
BRANCH   8  13
ATOM     13  C   UNL A   1      30.381  24.404  26.312  1.00  0.00     0.222 C 
ATOM     14  O   UNL A   1      29.800  23.832  27.241  1.00  0.00    -0.275 OA
BRANCH  13  15
ATOM     15  C   UNL A   1      30.157  25.905  26.177  1.00  0.00     0.097 C 
ATOM     16  C   UNL A   1      31.244  26.959  26.258  1.00  0.00     0.014 C 
ENDBRANCH  13  15
ENDBRANCH   8  13
BRANCH   7  17
ATOM     17  C   UNL A   1      33.437  23.839  22.369  1.00  0.00     0.067 C 
BRANCH  17  18
ATOM     18  C   UNL A   1      33.220  25.150  21.579  1.00  0.00     0.211 C 
ATOM     19  C   UNL A   1      31.823  25.698  21.421  1.00  0.00     0.108 C 
ATOM     20  O   UNL A   1      34.033  26.234  22.047  1.00  0.00    -0.392 OA
ATOM     21  C   UNL A   1      31.979  26.987  22.143  1.00  0.00     0.091 C 
ATOM     22  N   UNL A   1      33.198  27.318  22.416  1.00  0.00    -0.090 NA
BRANCH  21  23
ATOM     23  C   UNL A   1      30.822  27.864  22.398  1.00  0.00    -0.001 A 
ATOM     24  C   UNL A   1      30.885  29.233  22.129  1.00  0.00     0.010 A 
ATOM     25  C   UNL A   1      29.662  27.311  22.948  1.00  0.00     0.010 A 
ATOM     26  C   UNL A   1      29.800  30.055  22.449  1.00  0.00     0.004 A 
ATOM     27  C   UNL A   1      28.587  28.139  23.281  1.00  0.00     0.004 A 
ATOM     28  C   UNL A   1      28.652  29.518  23.043  1.00  0.00    -0.051 A 
ATOM     29  C   UNL A   1      27.509  30.401  23.449  1.00  0.00     0.044 C 
ENDBRANCH  21  23
ENDBRANCH  17  18
ENDBRANCH   7  17
ENDBRANCH   4   7
ENDBRANCH   2   3
ENDBRANCH   1   2
BRANCH   1  30
ATOM     30  C   UNL A   1      37.850  24.189  26.400  1.00  0.00     0.023 C 
BRANCH  30  31
ATOM     31  C   UNL A   1      39.098  24.159  27.276  1.00  0.00     0.116 C 
BRANCH  31  32
ATOM     32  N   UNL A   1      39.823  22.906  27.322  1.00  0.00    -0.352 N 
ATOM     33  C   UNL A   1      41.190  22.748  27.067  1.00  0.00     0.251 C 
ATOM     34  H   UNL A   1      39.312  22.096  27.554  1.00  0.00     0.163 HD
ATOM     35  O   UNL A   1      41.655  21.752  26.572  1.00  0.00    -0.269 OA
BRANCH  33  36
ATOM     36  C   UNL A   1      42.083  23.832  27.562  1.00  0.00     0.039 A 
ATOM     37  C   UNL A   1      42.559  23.756  28.878  1.00  0.00     0.014 A 
ATOM     38  C   UNL A   1      42.285  24.981  26.807  1.00  0.00     0.014 A 
ATOM     39  C   UNL A   1      43.099  24.893  29.482  1.00  0.00     0.010 A 
ATOM     40  C   UNL A   1      42.688  26.134  27.439  1.00  0.00     0.010 A 
ATOM     41  C   UNL A   1      43.079  26.098  28.780  1.00  0.00    -0.014 A 
BRANCH  41  42
ATOM     42  C   UNL A   1      43.382  27.402  29.348  1.00  0.00     0.031 A 
ATOM     43  C   UNL A   1      42.301  28.233  29.915  1.00  0.00     0.074 A 
ATOM     44  C   UNL A   1      44.675  27.742  29.534  1.00  0.00     0.049 A 
ATOM     45  N   UNL A   1      42.394  29.502  30.114  1.00  0.00    -0.248 NA
ATOM     46  C   UNL A   1      40.997  27.686  30.276  1.00  0.00     0.031 C 
ATOM     47  C   UNL A   1      45.212  28.782  30.404  1.00  0.00     0.029 A 
ATOM     48  N   UNL A   1      45.779  27.305  28.813  1.00  0.00    -0.354 N 
ATOM     49  C   UNL A   1      41.310  29.879  30.876  1.00  0.00     0.074 A 
ATOM     50  C   UNL A   1      40.434  28.732  30.886  1.00  0.00     0.031 C 
ATOM     51  C   UNL A   1      46.448  29.097  29.982  1.00  0.00     0.029 A 
ATOM     52  C   UNL A   1      46.672  28.376  28.735  1.00  0.00     0.049 A 
ATOM     53  H   UNL A   1      45.907  26.409  28.427  1.00  0.00     0.167 HD
ATOM     54  C   UNL A   1      41.334  31.068  31.541  1.00  0.00     0.031 A 
ATOM     55  C   UNL A   1      47.080  28.928  27.556  1.00  0.00     0.031 A 
ATOM     56  C   UNL A   1      42.578  31.795  31.286  1.00  0.00     0.049 A 
ATOM     57  C   UNL A   1      46.676  30.383  27.486  1.00  0.00     0.074 A 
ATOM     58  C   UNL A   1      43.748  31.922  32.015  1.00  0.00     0.029 A 
ATOM     59  N   UNL A   1      42.863  32.243  29.999  1.00  0.00    -0.354 N 
ATOM     60  N   UNL A   1      45.736  30.906  28.227  1.00  0.00    -0.248 NA
ATOM     61  C   UNL A   1      47.284  31.360  26.589  1.00  0.00     0.031 C 
ATOM     62  C   UNL A   1      44.769  32.359  31.130  1.00  0.00     0.029 A 
ATOM     63  C   UNL A   1      44.208  32.539  29.877  1.00  0.00     0.049 A 
ATOM     64  H   UNL A   1      42.199  32.338  29.279  1.00  0.00     0.167 HD
ATOM     65  C   UNL A   1      45.627  32.240  27.960  1.00  0.00     0.074 A 
ATOM     66  C   UNL A   1      46.607  32.478  26.914  1.00  0.00     0.031 C 
ATOM     67  C   UNL A   1      44.747  33.046  28.622  1.00  0.00     0.031 A 
BRANCH  54  68
ATOM     68  C   UNL A   1      40.366  31.419  32.651  1.00  0.00    -0.014 A 
ATOM     69  C   UNL A   1      39.104  31.959  32.333  1.00  0.00     0.010 A 
ATOM     70  C   UNL A   1      40.651  31.277  34.023  1.00  0.00     0.010 A 
ATOM     71  C   UNL A   1      38.220  32.422  33.321  1.00  0.00     0.020 A 
ATOM     72  C   UNL A   1      39.796  31.772  35.022  1.00  0.00     0.020 A 
ATOM     73  C   UNL A   1      38.585  32.350  34.662  1.00  0.00     0.054 A 
BRANCH  73  74
ATOM     74  S   UNL A   1      37.462  33.012  35.920  1.00  0.00     0.124 S 
ATOM     75  O   UNL A   1      36.244  33.270  35.154  1.00  0.00    -0.237 OA
ATOM     76  O   UNL A   1      37.382  31.915  36.878  1.00  0.00    -0.237 OA
ATOM     77  O   UNL A   1      38.147  34.210  36.403  1.00  0.00    -0.744 OA
ENDBRANCH  73  74
ENDBRANCH  54  68
BRANCH  55  78
ATOM     78  C   UNL A   1      47.112  27.971  26.407  1.00  0.00    -0.014 A 
ATOM     79  C   UNL A   1      48.105  26.968  26.417  1.00  0.00     0.010 A 
ATOM     80  C   UNL A   1      45.964  27.766  25.622  1.00  0.00     0.010 A 
ATOM     81  C   UNL A   1      47.876  25.723  25.814  1.00  0.00     0.020 A 
ATOM     82  C   UNL A   1      45.732  26.515  25.025  1.00  0.00     0.020 A 
ATOM     83  C   UNL A   1      46.653  25.477  25.194  1.00  0.00     0.054 A 
BRANCH  83  84
ATOM     84  S   UNL A   1      46.225  23.771  24.713  1.00  0.00     0.124 S 
ATOM     85  O   UNL A   1      44.807  23.869  24.377  1.00  0.00    -0.237 OA
ATOM     86  O   UNL A   1      47.129  23.514  23.593  1.00  0.00    -0.237 OA
ATOM     87  O   UNL A   1      46.521  23.009  25.924  1.00  0.00    -0.744 OA
ENDBRANCH  83  84
ENDBRANCH  55  78
BRANCH  67  88
ATOM     88  C   UNL A   1      44.366  34.438  28.196  1.00  0.00    -0.014 A 
ATOM     89  C   UNL A   1      43.546  34.709  27.090  1.00  0.00     0.010 A 
ATOM     90  C   UNL A   1      44.704  35.526  29.035  1.00  0.00     0.010 A 
ATOM     91  C   UNL A   1      43.123  36.012  26.805  1.00  0.00     0.020 A 
ATOM     92  C   UNL A   1      44.247  36.822  28.787  1.00  0.00     0.020 A 
ATOM     93  C   UNL A   1      43.474  37.060  27.657  1.00  0.00     0.054 A 
BRANCH  93  94
ATOM     94  S   UNL A   1      42.845  38.724  27.331  1.00  0.00     0.124 S 
ATOM     95  O   UNL A   1      42.720  39.267  28.681  1.00  0.00    -0.237 OA
ATOM     96  O   UNL A   1      43.900  39.320  26.512  1.00  0.00    -0.237 OA
ATOM     97  O   UNL A   1      41.586  38.483  26.631  1.00  0.00    -0.744 OA
ENDBRANCH  93  94
ENDBRANCH  67  88
ENDBRANCH  41  42
ENDBRANCH  33  36
ENDBRANCH  31  32
ENDBRANCH  30  31
ENDBRANCH   1  30
TORSDOF 19
ENDMDL
MODEL 3
REMARK VINA RESULT:     -11.3      6.777     10.451
REMARK SMILES CCC(=O)N1CCC[C@](C[C@H]2CC(c3ccc(C)cc3)=NO2)(C(=O)NCCCCNC(=O)c2ccc(-c3c4nc(c(-c5ccc(S(=O)(=O)[O-])cc5)c5ccc([nH]5)c(-c5ccc(S(=O)(=O)[O-])cc5)c5nc(c(-c6ccc(S(=O)(=O)[O-])cc6)c6ccc3[nH]6)C=C5)C=C4)cc2)C1
REMARK SMILES IDX 27 1 26 2 25 3 23 4 24 5 9 7 5 8 6 9 93 10 7 11 8 12 3 13
REMARK SMILES IDX 4 14 2 15 1 16 10 17 11 18 12 19 22 20 13 21 21 22 14 23
REMARK SMILES IDX 15 24 20 25 16 26 19 27 17 28 18 29 28 30 29 31 30 32 31 33
REMARK SMILES IDX 32 35 33 36 34 37 92 38 35 39 91 40 36 41 37 42 38 43 85 44
REMARK SMILES IDX 39 45 90 46 84 47 86 48 40 49 89 50 83 51 82 52 41 54 71 55
REMARK SMILES IDX 52 56 70 57 53 58 56 59 69 60 87 61 54 62 55 63 68 65 88 66
REMARK SMILES IDX 57 67 42 68 43 69 51 70 44 71 50 72 45 73 46 74 47 75 48 76
REMARK SMILES IDX 49 77 72 78 73 79 81 80 74 81 80 82 75 83 76 84 77 85 78 86
REMARK SMILES IDX 79 87 58 88 59 89 67 90 60 91 66 92 61 93 62 94 63 95 64 96
REMARK SMILES IDX 65 97
REMARK H PARENT 25 6 30 34 86 53 56 64
REMARK Flexibility Score: inf
ROOT
ATOM      1  C   UNL A   1      44.826  29.507  27.438  1.00  0.00     0.023 C 
ENDROOT
BRANCH   1   2
ATOM      2  C   UNL A   1      43.471  30.118  27.822  1.00  0.00     0.116 C 
BRANCH   2   3
ATOM      3  N   UNL A   1      42.331  29.625  27.060  1.00  0.00    -0.356 N 
ATOM      4  C   UNL A   1      41.414  28.635  27.188  1.00  0.00     0.228 C 
ATOM      5  O   UNL A   1      40.403  28.849  26.495  1.00  0.00    -0.274 OA
ATOM      6  H   UNL A   1      42.192  30.146  26.236  1.00  0.00     0.163 HD
BRANCH   4   7
ATOM      7  C   UNL A   1      41.546  27.256  27.943  1.00  0.00     0.070 C 
ATOM      8  N   UNL A   1      42.849  25.717  26.449  1.00  0.00    -0.342 N 
ATOM      9  C   UNL A   1      41.706  24.825  26.262  1.00  0.00     0.119 C 
ATOM     10  C   UNL A   1      42.837  26.482  27.672  1.00  0.00     0.136 C 
ATOM     11  C   UNL A   1      40.387  25.573  26.361  1.00  0.00     0.023 C 
ATOM     12  C   UNL A   1      40.290  26.421  27.617  1.00  0.00     0.021 C 
BRANCH   8  13
ATOM     13  C   UNL A   1      43.924  25.569  25.599  1.00  0.00     0.222 C 
ATOM     14  O   UNL A   1      44.623  26.555  25.344  1.00  0.00    -0.275 OA
BRANCH  13  15
ATOM     15  C   UNL A   1      44.311  24.255  24.932  1.00  0.00     0.097 C 
ATOM     16  C   UNL A   1      44.983  23.088  25.630  1.00  0.00     0.014 C 
ENDBRANCH  13  15
ENDBRANCH   8  13
BRANCH   7  17
ATOM     17  C   UNL A   1      41.532  27.657  29.488  1.00  0.00     0.067 C 
BRANCH  17  18
ATOM     18  C   UNL A   1      40.302  28.156  30.282  1.00  0.00     0.211 C 
ATOM     19  C   UNL A   1      39.883  29.602  30.168  1.00  0.00     0.108 C 
ATOM     20  O   UNL A   1      39.125  27.371  30.056  1.00  0.00    -0.392 OA
ATOM     21  C   UNL A   1      38.538  29.422  29.564  1.00  0.00     0.091 C 
ATOM     22  N   UNL A   1      38.090  28.210  29.575  1.00  0.00    -0.090 NA
BRANCH  21  23
ATOM     23  C   UNL A   1      37.742  30.580  29.116  1.00  0.00    -0.001 A 
ATOM     24  C   UNL A   1      38.107  31.881  29.465  1.00  0.00     0.010 A 
ATOM     25  C   UNL A   1      36.590  30.355  28.358  1.00  0.00     0.010 A 
ATOM     26  C   UNL A   1      37.295  32.955  29.090  1.00  0.00     0.004 A 
ATOM     27  C   UNL A   1      35.772  31.430  28.000  1.00  0.00     0.004 A 
ATOM     28  C   UNL A   1      36.113  32.737  28.371  1.00  0.00    -0.051 A 
ATOM     29  C   UNL A   1      35.202  33.876  28.020  1.00  0.00     0.044 C 
ENDBRANCH  21  23
ENDBRANCH  17  18
ENDBRANCH   7  17
ENDBRANCH   4   7
ENDBRANCH   2   3
ENDBRANCH   1   2
BRANCH   1  30
ATOM     30  C   UNL A   1      45.502  28.697  28.545  1.00  0.00     0.023 C 
BRANCH  30  31
ATOM     31  C   UNL A   1      46.880  28.149  28.191  1.00  0.00     0.116 C 
BRANCH  31  32
ATOM     32  N   UNL A   1      46.912  27.016  27.288  1.00  0.00    -0.352 N 
ATOM     33  C   UNL A   1      47.184  25.694  27.654  1.00  0.00     0.251 C 
ATOM     34  H   UNL A   1      46.725  27.192  26.337  1.00  0.00     0.163 HD
ATOM     35  O   UNL A   1      47.740  24.911  26.924  1.00  0.00    -0.269 OA
BRANCH  33  36
ATOM     36  C   UNL A   1      46.631  25.244  28.961  1.00  0.00     0.039 A 
ATOM     37  C   UNL A   1      45.374  24.625  28.977  1.00  0.00     0.014 A 
ATOM     38  C   UNL A   1      47.256  25.597  30.152  1.00  0.00     0.014 A 
ATOM     39  C   UNL A   1      44.681  24.505  30.183  1.00  0.00     0.010 A 
ATOM     40  C   UNL A   1      46.522  25.605  31.314  1.00  0.00     0.010 A 
ATOM     41  C   UNL A   1      45.229  25.077  31.330  1.00  0.00    -0.014 A 
BRANCH  41  42
ATOM     42  C   UNL A   1      44.532  25.243  32.596  1.00  0.00     0.031 A 
ATOM     43  C   UNL A   1      43.952  26.551  32.957  1.00  0.00     0.074 A 
ATOM     44  C   UNL A   1      44.249  24.144  33.328  1.00  0.00     0.049 A 
ATOM     45  N   UNL A   1      43.637  26.897  34.158  1.00  0.00    -0.248 NA
ATOM     46  C   UNL A   1      43.709  27.601  31.973  1.00  0.00     0.031 C 
ATOM     47  C   UNL A   1      43.263  24.007  34.395  1.00  0.00     0.029 A 
ATOM     48  N   UNL A   1      44.947  22.944  33.360  1.00  0.00    -0.354 N 
ATOM     49  C   UNL A   1      42.902  28.059  34.072  1.00  0.00     0.074 A 
ATOM     50  C   UNL A   1      43.040  28.496  32.704  1.00  0.00     0.031 C 
ATOM     51  C   UNL A   1      43.590  22.941  35.145  1.00  0.00     0.029 A 
ATOM     52  C   UNL A   1      44.882  22.462  34.670  1.00  0.00     0.049 A 
ATOM     53  H   UNL A   1      45.403  22.513  32.602  1.00  0.00     0.167 HD
ATOM     54  C   UNL A   1      42.135  28.451  35.128  1.00  0.00     0.031 A 
ATOM     55  C   UNL A   1      45.984  22.241  35.442  1.00  0.00     0.031 A 
ATOM     56  C   UNL A   1      42.258  27.520  36.250  1.00  0.00     0.049 A 
ATOM     57  C   UNL A   1      45.947  23.112  36.679  1.00  0.00     0.074 A 
ATOM     58  C   UNL A   1      41.460  26.476  36.685  1.00  0.00     0.029 A 
ATOM     59  N   UNL A   1      43.484  27.377  36.895  1.00  0.00    -0.354 N 
ATOM     60  N   UNL A   1      45.213  24.187  36.780  1.00  0.00    -0.248 NA
ATOM     61  C   UNL A   1      46.721  22.851  37.888  1.00  0.00     0.031 C 
ATOM     62  C   UNL A   1      42.248  25.645  37.525  1.00  0.00     0.029 A 
ATOM     63  C   UNL A   1      43.508  26.209  37.633  1.00  0.00     0.049 A 
ATOM     64  H   UNL A   1      44.227  28.019  36.835  1.00  0.00     0.167 HD
ATOM     65  C   UNL A   1      45.366  24.734  38.021  1.00  0.00     0.074 A 
ATOM     66  C   UNL A   1      46.335  23.871  38.676  1.00  0.00     0.031 C 
ATOM     67  C   UNL A   1      44.683  25.847  38.415  1.00  0.00     0.031 A 
BRANCH  54  68
ATOM     68  C   UNL A   1      41.050  29.501  35.021  1.00  0.00    -0.014 A 
ATOM     69  C   UNL A   1      40.092  29.415  33.990  1.00  0.00     0.010 A 
ATOM     70  C   UNL A   1      40.941  30.616  35.875  1.00  0.00     0.010 A 
ATOM     71  C   UNL A   1      39.146  30.426  33.765  1.00  0.00     0.020 A 
ATOM     72  C   UNL A   1      40.028  31.656  35.638  1.00  0.00     0.020 A 
ATOM     73  C   UNL A   1      39.137  31.558  34.576  1.00  0.00     0.054 A 
BRANCH  73  74
ATOM     74  S   UNL A   1      37.953  32.885  34.230  1.00  0.00     0.124 S 
ATOM     75  O   UNL A   1      37.001  32.754  35.331  1.00  0.00    -0.237 OA
ATOM     76  O   UNL A   1      38.797  34.075  34.265  1.00  0.00    -0.237 OA
ATOM     77  O   UNL A   1      37.419  32.540  32.914  1.00  0.00    -0.744 OA
ENDBRANCH  73  74
ENDBRANCH  54  68
BRANCH  55  78
ATOM     78  C   UNL A   1      47.210  21.865  34.673  1.00  0.00    -0.014 A 
ATOM     79  C   UNL A   1      48.320  22.736  34.740  1.00  0.00     0.010 A 
ATOM     80  C   UNL A   1      47.434  20.527  34.303  1.00  0.00     0.010 A 
ATOM     81  C   UNL A   1      49.628  22.245  34.626  1.00  0.00     0.020 A 
ATOM     82  C   UNL A   1      48.746  20.034  34.197  1.00  0.00     0.020 A 
ATOM     83  C   UNL A   1      49.833  20.879  34.440  1.00  0.00     0.054 A 
BRANCH  83  84
ATOM     84  S   UNL A   1      51.513  20.196  34.628  1.00  0.00     0.124 S 
ATOM     85  O   UNL A   1      52.062  20.292  33.279  1.00  0.00    -0.237 OA
ATOM     86  O   UNL A   1      52.113  21.082  35.626  1.00  0.00    -0.237 OA
ATOM     87  O   UNL A   1      51.259  18.835  35.095  1.00  0.00    -0.744 OA
ENDBRANCH  83  84
ENDBRANCH  55  78
BRANCH  67  88
ATOM     88  C   UNL A   1      45.004  26.667  39.636  1.00  0.00    -0.014 A 
ATOM     89  C   UNL A   1      45.753  27.852  39.593  1.00  0.00     0.010 A 
ATOM     90  C   UNL A   1      44.389  26.332  40.865  1.00  0.00     0.010 A 
ATOM     91  C   UNL A   1      45.924  28.642  40.737  1.00  0.00     0.020 A 
ATOM     92  C   UNL A   1      44.512  27.138  41.998  1.00  0.00     0.020 A 
ATOM     93  C   UNL A   1      45.301  28.281  41.931  1.00  0.00     0.054 A 
BRANCH  93  94
ATOM     94  S   UNL A   1      45.451  29.357  43.378  1.00  0.00     0.124 S 
ATOM     95  O   UNL A   1      44.593  28.679  44.346  1.00  0.00    -0.237 OA
ATOM     96  O   UNL A   1      46.882  29.314  43.672  1.00  0.00    -0.237 OA
ATOM     97  O   UNL A   1      44.960  30.646  42.897  1.00  0.00    -0.744 OA
ENDBRANCH  93  94
ENDBRANCH  67  88
ENDBRANCH  41  42
ENDBRANCH  33  36
ENDBRANCH  31  32
ENDBRANCH  30  31
ENDBRANCH   1  30
TORSDOF 19
ENDMDL
