MODEL 1
REMARK VINA RESULT:     -10.4      0.000      0.000
REMARK SMILES CC[C@H](C)[C@@H](NC(=O)/C=C/c1csc(C)n1)C(=O)NCCCCNC(=O)c1ccc(-c2c3nc(c(-c4ccc(S(=O)(=O)[O-])cc4)c4ccc([nH]4)c(-c4ccc(S(=O)(=O)[O-])cc4)c4nc(c(-c5ccc(S(=O)(=O)[O-])cc5)c5ccc2[nH]5)C=C4)C=C3)cc1
REMARK SMILES IDX 21 1 20 2 19 3 17 4 18 5 5 7 3 8 4 9 2 10 1 11 6 12 7 13
REMARK SMILES IDX 8 15 9 16 10 17 11 18 12 19 16 20 13 21 14 22 15 23 22 24
REMARK SMILES IDX 23 25 24 26 25 27 26 29 27 30 28 31 86 32 29 33 85 34 30 35
REMARK SMILES IDX 31 36 32 37 79 38 33 39 84 40 78 41 80 42 34 43 83 44 77 45
REMARK SMILES IDX 76 46 35 48 65 49 46 50 64 51 47 52 50 53 63 54 81 55 48 56
REMARK SMILES IDX 49 57 62 59 82 60 51 61 36 62 37 63 45 64 38 65 44 66 39 67
REMARK SMILES IDX 40 68 41 69 42 70 43 71 66 72 67 73 75 74 68 75 74 76 69 77
REMARK SMILES IDX 70 78 71 79 72 80 73 81 52 82 53 83 61 84 54 85 60 86 55 87
REMARK SMILES IDX 56 88 57 89 58 90 59 91
REMARK H PARENT 19 6 6 14 24 28 80 47 50 58
REMARK Flexibility Score: inf
ROOT
ATOM      1  C   UNL A   1      33.726  27.620  24.998  1.00  0.00     0.023 C 
ENDROOT
BRANCH   1   2
ATOM      2  C   UNL A   1      33.919  26.117  24.906  1.00  0.00     0.116 C 
BRANCH   2   3
ATOM      3  N   UNL A   1      33.790  25.670  23.534  1.00  0.00    -0.354 N 
ATOM      4  C   UNL A   1      33.968  24.429  23.009  1.00  0.00     0.242 C 
ATOM      5  O   UNL A   1      33.814  24.275  21.793  1.00  0.00    -0.273 OA
ATOM      6  H   UNL A   1      33.539  26.368  22.887  1.00  0.00     0.163 HD
BRANCH   4   7
ATOM      7  C   UNL A   1      34.450  23.257  23.880  1.00  0.00     0.174 C 
BRANCH   7   8
ATOM      8  C   UNL A   1      35.985  23.450  24.146  1.00  0.00     0.018 C 
ATOM      9  C   UNL A   1      36.292  23.866  25.589  1.00  0.00     0.010 C 
BRANCH   8  10
ATOM     10  C   UNL A   1      36.837  22.198  23.790  1.00  0.00     0.002 C 
ATOM     11  C   UNL A   1      36.987  21.258  24.982  1.00  0.00     0.004 C 
ENDBRANCH   8  10
ENDBRANCH   7   8
BRANCH   7  12
ATOM     12  N   UNL A   1      33.679  23.074  25.138  1.00  0.00    -0.340 N 
ATOM     13  C   UNL A   1      33.448  21.961  25.906  1.00  0.00     0.244 C 
ATOM     14  H   UNL A   1      33.260  23.897  25.481  1.00  0.00     0.164 HD
ATOM     15  O   UNL A   1      33.182  22.094  27.097  1.00  0.00    -0.270 OA
BRANCH  13  16
ATOM     16  C   UNL A   1      33.264  20.649  25.253  1.00  0.00     0.073 C 
ATOM     17  C   UNL A   1      33.080  19.505  25.923  1.00  0.00     0.035 C 
BRANCH  17  18
ATOM     18  C   UNL A   1      33.275  18.205  25.353  1.00  0.00     0.074 A 
ATOM     19  C   UNL A   1      33.807  18.008  24.096  1.00  0.00     0.095 A 
ATOM     20  N   UNL A   1      32.746  17.077  25.959  1.00  0.00    -0.242 NA
ATOM     21  S   UNL A   1      33.685  16.356  23.664  1.00  0.00    -0.127 S 
ATOM     22  C   UNL A   1      32.921  16.030  25.172  1.00  0.00     0.090 A 
ATOM     23  C   UNL A   1      32.493  14.636  25.481  1.00  0.00     0.079 C 
ENDBRANCH  17  18
ENDBRANCH  13  16
ENDBRANCH   7  12
ENDBRANCH   4   7
ENDBRANCH   2   3
ENDBRANCH   1   2
BRANCH   1  24
ATOM     24  C   UNL A   1      32.713  28.028  26.069  1.00  0.00     0.023 C 
BRANCH  24  25
ATOM     25  C   UNL A   1      33.344  28.460  27.387  1.00  0.00     0.116 C 
BRANCH  25  26
ATOM     26  N   UNL A   1      33.298  29.905  27.561  1.00  0.00    -0.352 N 
ATOM     27  C   UNL A   1      34.251  30.734  28.105  1.00  0.00     0.251 C 
ATOM     28  H   UNL A   1      32.476  30.347  27.248  1.00  0.00     0.163 HD
ATOM     29  O   UNL A   1      33.979  31.886  28.402  1.00  0.00    -0.269 OA
BRANCH  27  30
ATOM     30  C   UNL A   1      35.604  30.191  28.340  1.00  0.00     0.039 A 
ATOM     31  C   UNL A   1      36.531  30.202  27.297  1.00  0.00     0.014 A 
ATOM     32  C   UNL A   1      35.960  29.719  29.607  1.00  0.00     0.014 A 
ATOM     33  C   UNL A   1      37.843  29.796  27.547  1.00  0.00     0.010 A 
ATOM     34  C   UNL A   1      37.285  29.397  29.873  1.00  0.00     0.010 A 
ATOM     35  C   UNL A   1      38.239  29.427  28.845  1.00  0.00    -0.014 A 
BRANCH  35  36
ATOM     36  C   UNL A   1      39.648  29.075  29.146  1.00  0.00     0.031 A 
ATOM     37  C   UNL A   1      40.561  30.094  29.773  1.00  0.00     0.074 A 
ATOM     38  C   UNL A   1      40.119  27.860  28.802  1.00  0.00     0.049 A 
ATOM     39  N   UNL A   1      41.831  29.987  30.071  1.00  0.00    -0.248 NA
ATOM     40  C   UNL A   1      39.983  31.412  30.080  1.00  0.00     0.031 C 
ATOM     41  C   UNL A   1      39.343  26.803  28.146  1.00  0.00     0.029 A 
ATOM     42  N   UNL A   1      41.366  27.307  28.954  1.00  0.00    -0.354 N 
ATOM     43  C   UNL A   1      42.203  31.222  30.587  1.00  0.00     0.074 A 
ATOM     44  C   UNL A   1      41.042  32.081  30.510  1.00  0.00     0.031 C 
ATOM     45  C   UNL A   1      40.122  25.721  27.984  1.00  0.00     0.029 A 
ATOM     46  C   UNL A   1      41.460  26.019  28.482  1.00  0.00     0.049 A 
ATOM     47  H   UNL A   1      42.122  27.788  29.361  1.00  0.00     0.167 HD
ATOM     48  C   UNL A   1      43.396  31.601  31.102  1.00  0.00     0.031 A 
ATOM     49  C   UNL A   1      42.509  25.173  28.450  1.00  0.00     0.031 A 
ATOM     50  C   UNL A   1      44.545  30.740  31.187  1.00  0.00     0.049 A 
ATOM     51  C   UNL A   1      43.828  25.622  29.018  1.00  0.00     0.074 A 
ATOM     52  C   UNL A   1      45.784  31.011  31.741  1.00  0.00     0.029 A 
ATOM     53  N   UNL A   1      44.599  29.441  30.705  1.00  0.00    -0.354 N 
ATOM     54  N   UNL A   1      44.139  26.772  29.566  1.00  0.00    -0.248 NA
ATOM     55  C   UNL A   1      44.932  24.654  28.974  1.00  0.00     0.031 C 
ATOM     56  C   UNL A   1      46.604  29.896  31.543  1.00  0.00     0.029 A 
ATOM     57  C   UNL A   1      45.857  28.907  30.925  1.00  0.00     0.049 A 
ATOM     58  H   UNL A   1      43.853  28.968  30.271  1.00  0.00     0.167 HD
ATOM     59  C   UNL A   1      45.469  26.656  29.957  1.00  0.00     0.074 A 
ATOM     60  C   UNL A   1      45.895  25.319  29.599  1.00  0.00     0.031 C 
ATOM     61  C   UNL A   1      46.266  27.573  30.559  1.00  0.00     0.031 A 
BRANCH  48  62
ATOM     62  C   UNL A   1      43.520  33.013  31.611  1.00  0.00    -0.014 A 
ATOM     63  C   UNL A   1      43.179  33.340  32.937  1.00  0.00     0.010 A 
ATOM     64  C   UNL A   1      44.028  34.019  30.770  1.00  0.00     0.010 A 
ATOM     65  C   UNL A   1      43.307  34.653  33.399  1.00  0.00     0.020 A 
ATOM     66  C   UNL A   1      44.188  35.327  31.237  1.00  0.00     0.020 A 
ATOM     67  C   UNL A   1      43.811  35.638  32.545  1.00  0.00     0.054 A 
BRANCH  67  68
ATOM     68  S   UNL A   1      43.999  37.325  33.183  1.00  0.00     0.124 S 
ATOM     69  O   UNL A   1      45.342  37.281  33.757  1.00  0.00    -0.237 OA
ATOM     70  O   UNL A   1      43.858  38.140  31.980  1.00  0.00    -0.237 OA
ATOM     71  O   UNL A   1      42.913  37.455  34.152  1.00  0.00    -0.744 OA
ENDBRANCH  67  68
ENDBRANCH  48  62
BRANCH  49  72
ATOM     72  C   UNL A   1      42.350  23.810  27.869  1.00  0.00    -0.014 A 
ATOM     73  C   UNL A   1      42.543  23.592  26.494  1.00  0.00     0.010 A 
ATOM     74  C   UNL A   1      42.009  22.722  28.692  1.00  0.00     0.010 A 
ATOM     75  C   UNL A   1      42.374  22.316  25.949  1.00  0.00     0.020 A 
ATOM     76  C   UNL A   1      41.869  21.439  28.156  1.00  0.00     0.020 A 
ATOM     77  C   UNL A   1      42.039  21.247  26.783  1.00  0.00     0.054 A 
BRANCH  77  78
ATOM     78  S   UNL A   1      41.866  19.591  26.060  1.00  0.00     0.124 S 
ATOM     79  O   UNL A   1      42.288  18.733  27.161  1.00  0.00    -0.237 OA
ATOM     80  O   UNL A   1      40.445  19.542  25.725  1.00  0.00    -0.237 OA
ATOM     81  O   UNL A   1      42.767  19.626  24.910  1.00  0.00    -0.744 OA
ENDBRANCH  77  78
ENDBRANCH  49  72
BRANCH  61  82
ATOM     82  C   UNL A   1      47.671  27.153  30.901  1.00  0.00    -0.014 A 
ATOM     83  C   UNL A   1      47.955  26.448  32.084  1.00  0.00     0.010 A 
ATOM     84  C   UNL A   1      48.713  27.421  29.994  1.00  0.00     0.010 A 
ATOM     85  C   UNL A   1      49.264  26.053  32.373  1.00  0.00     0.020 A 
ATOM     86  C   UNL A   1      50.018  27.000  30.265  1.00  0.00     0.020 A 
ATOM     87  C   UNL A   1      50.287  26.332  31.460  1.00  0.00     0.054 A 
BRANCH  87  88
ATOM     88  S   UNL A   1      51.970  25.772  31.840  1.00  0.00     0.124 S 
ATOM     89  O   UNL A   1      51.736  24.416  32.328  1.00  0.00    -0.237 OA
ATOM     90  O   UNL A   1      52.638  25.868  30.544  1.00  0.00    -0.237 OA
ATOM     91  O   UNL A   1      52.433  26.725  32.845  1.00  0.00    -0.744 OA
ENDBRANCH  87  88
ENDBRANCH  61  82
ENDBRANCH  35  36
ENDBRANCH  27  30
ENDBRANCH  25  26
ENDBRANCH  24  25
ENDBRANCH   1  24
TORSDOF 19
ENDMDL
MODEL 2
REMARK VINA RESULT:     -10.2      2.430      8.859
REMARK SMILES CC[C@H](C)[C@@H](NC(=O)/C=C/c1csc(C)n1)C(=O)NCCCCNC(=O)c1ccc(-c2c3nc(c(-c4ccc(S(=O)(=O)[O-])cc4)c4ccc([nH]4)c(-c4ccc(S(=O)(=O)[O-])cc4)c4nc(c(-c5ccc(S(=O)(=O)[O-])cc5)c5ccc2[nH]5)C=C4)C=C3)cc1
REMARK SMILES IDX 21 1 20 2 19 3 17 4 18 5 5 7 3 8 4 9 2 10 1 11 6 12 7 13
REMARK SMILES IDX 8 15 9 16 10 17 11 18 12 19 16 20 13 21 14 22 15 23 22 24
REMARK SMILES IDX 23 25 24 26 25 27 26 29 27 30 28 31 86 32 29 33 85 34 30 35
REMARK SMILES IDX 31 36 32 37 79 38 33 39 84 40 78 41 80 42 34 43 83 44 77 45
REMARK SMILES IDX 76 46 35 48 65 49 46 50 64 51 47 52 50 53 63 54 81 55 48 56
REMARK SMILES IDX 49 57 62 59 82 60 51 61 36 62 37 63 45 64 38 65 44 66 39 67
REMARK SMILES IDX 40 68 41 69 42 70 43 71 66 72 67 73 75 74 68 75 74 76 69 77
REMARK SMILES IDX 70 78 71 79 72 80 73 81 52 82 53 83 61 84 54 85 60 86 55 87
REMARK SMILES IDX 56 88 57 89 58 90 59 91
REMARK H PARENT 19 6 6 14 24 28 80 47 50 58
REMARK Flexibility Score: inf
ROOT
ATOM      1  C   UNL A   1      35.025  23.990  23.844  1.00  0.00     0.023 C 
ENDROOT
BRANCH   1   2
ATOM      2  C   UNL A   1      33.959  23.285  23.024  1.00  0.00     0.116 C 
BRANCH   2   3
ATOM      3  N   UNL A   1      32.958  24.229  22.569  1.00  0.00    -0.354 N 
ATOM      4  C   UNL A   1      32.085  24.977  23.291  1.00  0.00     0.242 C 
ATOM      5  O   UNL A   1      31.302  25.718  22.687  1.00  0.00    -0.273 OA
ATOM      6  H   UNL A   1      32.903  24.343  21.592  1.00  0.00     0.163 HD
BRANCH   4   7
ATOM      7  C   UNL A   1      31.992  24.840  24.820  1.00  0.00     0.174 C 
BRANCH   7   8
ATOM      8  C   UNL A   1      31.912  26.284  25.433  1.00  0.00     0.018 C 
ATOM      9  C   UNL A   1      30.774  26.437  26.449  1.00  0.00     0.010 C 
BRANCH   8  10
ATOM     10  C   UNL A   1      33.241  26.751  26.090  1.00  0.00     0.002 C 
ATOM     11  C   UNL A   1      33.068  28.065  26.846  1.00  0.00     0.004 C 
ENDBRANCH   8  10
ENDBRANCH   7   8
BRANCH   7  12
ATOM     12  N   UNL A   1      30.883  23.967  25.288  1.00  0.00    -0.340 N 
ATOM     13  C   UNL A   1      30.886  22.829  26.054  1.00  0.00     0.244 C 
ATOM     14  H   UNL A   1      29.988  24.257  24.996  1.00  0.00     0.164 HD
ATOM     15  O   UNL A   1      29.878  22.524  26.685  1.00  0.00    -0.270 OA
BRANCH  13  16
ATOM     16  C   UNL A   1      31.988  21.856  25.911  1.00  0.00     0.073 C 
ATOM     17  C   UNL A   1      32.026  20.912  24.963  1.00  0.00     0.035 C 
BRANCH  17  18
ATOM     18  C   UNL A   1      32.860  19.749  25.027  1.00  0.00     0.074 A 
ATOM     19  C   UNL A   1      34.184  19.751  24.643  1.00  0.00     0.095 A 
ATOM     20  N   UNL A   1      32.318  18.500  25.289  1.00  0.00    -0.242 NA
ATOM     21  S   UNL A   1      34.795  18.152  24.646  1.00  0.00    -0.127 S 
ATOM     22  C   UNL A   1      33.250  17.576  25.142  1.00  0.00     0.090 A 
ATOM     23  C   UNL A   1      33.054  16.112  25.343  1.00  0.00     0.079 C 
ENDBRANCH  17  18
ENDBRANCH  13  16
ENDBRANCH   7  12
ENDBRANCH   4   7
ENDBRANCH   2   3
ENDBRANCH   1   2
BRANCH   1  24
ATOM     24  C   UNL A   1      35.992  23.022  24.525  1.00  0.00     0.023 C 
BRANCH  24  25
ATOM     25  C   UNL A   1      37.204  23.697  25.158  1.00  0.00     0.116 C 
BRANCH  25  26
ATOM     26  N   UNL A   1      38.241  22.736  25.501  1.00  0.00    -0.352 N 
ATOM     27  C   UNL A   1      39.445  22.959  26.126  1.00  0.00     0.251 C 
ATOM     28  H   UNL A   1      38.058  21.801  25.251  1.00  0.00     0.163 HD
ATOM     29  O   UNL A   1      40.313  22.102  26.134  1.00  0.00    -0.269 OA
BRANCH  27  30
ATOM     30  C   UNL A   1      39.670  24.269  26.771  1.00  0.00     0.039 A 
ATOM     31  C   UNL A   1      39.203  24.477  28.069  1.00  0.00     0.014 A 
ATOM     32  C   UNL A   1      40.386  25.266  26.101  1.00  0.00     0.014 A 
ATOM     33  C   UNL A   1      39.513  25.671  28.722  1.00  0.00     0.010 A 
ATOM     34  C   UNL A   1      40.764  26.416  26.784  1.00  0.00     0.010 A 
ATOM     35  C   UNL A   1      40.327  26.632  28.098  1.00  0.00    -0.014 A 
BRANCH  35  36
ATOM     36  C   UNL A   1      40.736  27.869  28.810  1.00  0.00     0.031 A 
ATOM     37  C   UNL A   1      42.098  27.956  29.445  1.00  0.00     0.074 A 
ATOM     38  C   UNL A   1      39.862  28.887  28.933  1.00  0.00     0.049 A 
ATOM     39  N   UNL A   1      42.619  28.933  30.142  1.00  0.00    -0.248 NA
ATOM     40  C   UNL A   1      42.979  26.785  29.302  1.00  0.00     0.031 C 
ATOM     41  C   UNL A   1      38.496  28.902  28.400  1.00  0.00     0.029 A 
ATOM     42  N   UNL A   1      39.990  30.107  29.547  1.00  0.00    -0.354 N 
ATOM     43  C   UNL A   1      43.878  28.491  30.530  1.00  0.00     0.074 A 
ATOM     44  C   UNL A   1      44.022  27.138  30.039  1.00  0.00     0.031 C 
ATOM     45  C   UNL A   1      37.927  30.085  28.682  1.00  0.00     0.029 A 
ATOM     46  C   UNL A   1      38.866  30.895  29.450  1.00  0.00     0.049 A 
ATOM     47  H   UNL A   1      40.809  30.392  30.014  1.00  0.00     0.167 HD
ATOM     48  C   UNL A   1      44.838  29.159  31.211  1.00  0.00     0.031 A 
ATOM     49  C   UNL A   1      38.619  32.129  29.930  1.00  0.00     0.031 A 
ATOM     50  C   UNL A   1      44.694  30.509  31.687  1.00  0.00     0.049 A 
ATOM     51  C   UNL A   1      39.699  32.846  30.694  1.00  0.00     0.074 A 
ATOM     52  C   UNL A   1      45.628  31.293  32.341  1.00  0.00     0.029 A 
ATOM     53  N   UNL A   1      43.545  31.274  31.564  1.00  0.00    -0.354 N 
ATOM     54  N   UNL A   1      40.909  32.437  30.989  1.00  0.00    -0.248 NA
ATOM     55  C   UNL A   1      39.382  34.196  31.179  1.00  0.00     0.031 C 
ATOM     56  C   UNL A   1      45.025  32.513  32.663  1.00  0.00     0.029 A 
ATOM     57  C   UNL A   1      43.737  32.512  32.152  1.00  0.00     0.049 A 
ATOM     58  H   UNL A   1      42.715  30.981  31.123  1.00  0.00     0.167 HD
ATOM     59  C   UNL A   1      41.509  33.490  31.671  1.00  0.00     0.074 A 
ATOM     60  C   UNL A   1      40.533  34.560  31.728  1.00  0.00     0.031 C 
ATOM     61  C   UNL A   1      42.754  33.566  32.202  1.00  0.00     0.031 A 
BRANCH  48  62
ATOM     62  C   UNL A   1      46.131  28.436  31.486  1.00  0.00    -0.014 A 
ATOM     63  C   UNL A   1      47.223  28.541  30.605  1.00  0.00     0.010 A 
ATOM     64  C   UNL A   1      46.273  27.679  32.662  1.00  0.00     0.010 A 
ATOM     65  C   UNL A   1      48.419  27.872  30.876  1.00  0.00     0.020 A 
ATOM     66  C   UNL A   1      47.478  27.033  32.954  1.00  0.00     0.020 A 
ATOM     67  C   UNL A   1      48.539  27.122  32.049  1.00  0.00     0.054 A 
BRANCH  67  68
ATOM     68  S   UNL A   1      50.116  26.294  32.392  1.00  0.00     0.124 S 
ATOM     69  O   UNL A   1      49.674  24.953  32.771  1.00  0.00    -0.237 OA
ATOM     70  O   UNL A   1      50.812  26.387  31.112  1.00  0.00    -0.237 OA
ATOM     71  O   UNL A   1      50.697  27.085  33.474  1.00  0.00    -0.744 OA
ENDBRANCH  67  68
ENDBRANCH  48  62
BRANCH  49  72
ATOM     72  C   UNL A   1      37.296  32.771  29.690  1.00  0.00    -0.014 A 
ATOM     73  C   UNL A   1      36.285  32.712  30.666  1.00  0.00     0.010 A 
ATOM     74  C   UNL A   1      37.042  33.449  28.485  1.00  0.00     0.010 A 
ATOM     75  C   UNL A   1      35.038  33.298  30.431  1.00  0.00     0.020 A 
ATOM     76  C   UNL A   1      35.807  34.063  28.258  1.00  0.00     0.020 A 
ATOM     77  C   UNL A   1      34.807  33.971  29.228  1.00  0.00     0.054 A 
BRANCH  77  78
ATOM     78  S   UNL A   1      33.195  34.760  28.961  1.00  0.00     0.124 S 
ATOM     79  O   UNL A   1      32.543  33.821  28.055  1.00  0.00    -0.237 OA
ATOM     80  O   UNL A   1      32.647  34.821  30.314  1.00  0.00    -0.237 OA
ATOM     81  O   UNL A   1      33.542  36.055  28.380  1.00  0.00    -0.744 OA
ENDBRANCH  77  78
ENDBRANCH  49  72
BRANCH  61  82
ATOM     82  C   UNL A   1      43.148  34.861  32.862  1.00  0.00    -0.014 A 
ATOM     83  C   UNL A   1      43.040  35.034  34.254  1.00  0.00     0.010 A 
ATOM     84  C   UNL A   1      43.684  35.902  32.081  1.00  0.00     0.010 A 
ATOM     85  C   UNL A   1      43.427  36.238  34.847  1.00  0.00     0.020 A 
ATOM     86  C   UNL A   1      44.101  37.095  32.675  1.00  0.00     0.020 A 
ATOM     87  C   UNL A   1      43.955  37.261  34.053  1.00  0.00     0.054 A 
BRANCH  87  88
ATOM     88  S   UNL A   1      44.488  38.800  34.853  1.00  0.00     0.124 S 
ATOM     89  O   UNL A   1      43.578  39.779  34.264  1.00  0.00    -0.237 OA
ATOM     90  O   UNL A   1      44.273  38.514  36.270  1.00  0.00    -0.237 OA
ATOM     91  O   UNL A   1      45.887  38.931  34.455  1.00  0.00    -0.744 OA
ENDBRANCH  87  88
ENDBRANCH  61  82
ENDBRANCH  35  36
ENDBRANCH  27  30
ENDBRANCH  25  26
ENDBRANCH  24  25
ENDBRANCH   1  24
TORSDOF 19
ENDMDL
MODEL 3
REMARK VINA RESULT:     -10.1      3.345      9.557
REMARK SMILES CC[C@H](C)[C@@H](NC(=O)/C=C/c1csc(C)n1)C(=O)NCCCCNC(=O)c1ccc(-c2c3nc(c(-c4ccc(S(=O)(=O)[O-])cc4)c4ccc([nH]4)c(-c4ccc(S(=O)(=O)[O-])cc4)c4nc(c(-c5ccc(S(=O)(=O)[O-])cc5)c5ccc2[nH]5)C=C4)C=C3)cc1
REMARK SMILES IDX 21 1 20 2 19 3 17 4 18 5 5 7 3 8 4 9 2 10 1 11 6 12 7 13
REMARK SMILES IDX 8 15 9 16 10 17 11 18 12 19 16 20 13 21 14 22 15 23 22 24
REMARK SMILES IDX 23 25 24 26 25 27 26 29 27 30 28 31 86 32 29 33 85 34 30 35
REMARK SMILES IDX 31 36 32 37 79 38 33 39 84 40 78 41 80 42 34 43 83 44 77 45
REMARK SMILES IDX 76 46 35 48 65 49 46 50 64 51 47 52 50 53 63 54 81 55 48 56
REMARK SMILES IDX 49 57 62 59 82 60 51 61 36 62 37 63 45 64 38 65 44 66 39 67
REMARK SMILES IDX 40 68 41 69 42 70 43 71 66 72 67 73 75 74 68 75 74 76 69 77
REMARK SMILES IDX 70 78 71 79 72 80 73 81 52 82 53 83 61 84 54 85 60 86 55 87
REMARK SMILES IDX 56 88 57 89 58 90 59 91
REMARK H PARENT 19 6 6 14 24 28 80 47 50 58
REMARK Flexibility Score: inf
ROOT
ATOM      1  C   UNL A   1      34.731  21.771  26.206  1.00  0.00     0.023 C 
ENDROOT
BRANCH   1   2
ATOM      2  C   UNL A   1      33.788  22.571  27.087  1.00  0.00     0.116 C 
BRANCH   2   3
ATOM      3  N   UNL A   1      32.422  22.121  26.912  1.00  0.00    -0.354 N 
ATOM      4  C   UNL A   1      31.430  22.646  26.147  1.00  0.00     0.242 C 
ATOM      5  O   UNL A   1      30.323  22.097  26.156  1.00  0.00    -0.273 OA
ATOM      6  H   UNL A   1      32.177  21.316  27.425  1.00  0.00     0.163 HD
BRANCH   4   7
ATOM      7  C   UNL A   1      31.636  23.952  25.361  1.00  0.00     0.174 C 
BRANCH   7   8
ATOM      8  C   UNL A   1      32.347  23.596  24.006  1.00  0.00     0.018 C 
ATOM      9  C   UNL A   1      31.520  22.646  23.132  1.00  0.00     0.010 C 
BRANCH   8  10
ATOM     10  C   UNL A   1      32.737  24.845  23.166  1.00  0.00     0.002 C 
ATOM     11  C   UNL A   1      33.955  25.558  23.744  1.00  0.00     0.004 C 
ENDBRANCH   8  10
ENDBRANCH   7   8
BRANCH   7  12
ATOM     12  N   UNL A   1      30.394  24.742  25.155  1.00  0.00    -0.340 N 
ATOM     13  C   UNL A   1      30.188  26.094  25.039  1.00  0.00     0.244 C 
ATOM     14  H   UNL A   1      29.574  24.200  25.091  1.00  0.00     0.164 HD
ATOM     15  O   UNL A   1      29.196  26.504  24.443  1.00  0.00    -0.270 OA
BRANCH  13  16
ATOM     16  C   UNL A   1      31.003  27.027  25.842  1.00  0.00     0.073 C 
ATOM     17  C   UNL A   1      31.656  28.077  25.327  1.00  0.00     0.035 C 
BRANCH  17  18
ATOM     18  C   UNL A   1      32.728  28.755  25.990  1.00  0.00     0.074 A 
ATOM     19  C   UNL A   1      33.882  28.119  26.397  1.00  0.00     0.095 A 
ATOM     20  N   UNL A   1      32.573  30.056  26.445  1.00  0.00    -0.242 NA
ATOM     21  S   UNL A   1      34.832  29.184  27.343  1.00  0.00    -0.127 S 
ATOM     22  C   UNL A   1      33.632  30.403  27.154  1.00  0.00     0.090 A 
ATOM     23  C   UNL A   1      33.838  31.729  27.804  1.00  0.00     0.079 C 
ENDBRANCH  17  18
ENDBRANCH  13  16
ENDBRANCH   7  12
ENDBRANCH   4   7
ENDBRANCH   2   3
ENDBRANCH   1   2
BRANCH   1  24
ATOM     24  C   UNL A   1      35.591  22.651  25.299  1.00  0.00     0.023 C 
BRANCH  24  25
ATOM     25  C   UNL A   1      36.828  23.223  25.980  1.00  0.00     0.116 C 
BRANCH  25  26
ATOM     26  N   UNL A   1      37.904  22.247  26.058  1.00  0.00    -0.352 N 
ATOM     27  C   UNL A   1      39.242  22.460  26.296  1.00  0.00     0.251 C 
ATOM     28  H   UNL A   1      37.640  21.308  25.921  1.00  0.00     0.163 HD
ATOM     29  O   UNL A   1      40.060  21.577  26.098  1.00  0.00    -0.269 OA
BRANCH  27  30
ATOM     30  C   UNL A   1      39.666  23.790  26.779  1.00  0.00     0.039 A 
ATOM     31  C   UNL A   1      39.861  23.986  28.146  1.00  0.00     0.014 A 
ATOM     32  C   UNL A   1      39.915  24.820  25.867  1.00  0.00     0.014 A 
ATOM     33  C   UNL A   1      40.371  25.206  28.594  1.00  0.00     0.010 A 
ATOM     34  C   UNL A   1      40.502  26.000  26.307  1.00  0.00     0.010 A 
ATOM     35  C   UNL A   1      40.731  26.207  27.675  1.00  0.00    -0.014 A 
BRANCH  35  36
ATOM     36  C   UNL A   1      41.353  27.476  28.127  1.00  0.00     0.031 A 
ATOM     37  C   UNL A   1      42.848  27.640  28.078  1.00  0.00     0.074 A 
ATOM     38  C   UNL A   1      40.578  28.454  28.636  1.00  0.00     0.049 A 
ATOM     39  N   UNL A   1      43.577  28.655  28.467  1.00  0.00    -0.248 NA
ATOM     40  C   UNL A   1      43.629  26.509  27.549  1.00  0.00     0.031 C 
ATOM     41  C   UNL A   1      39.120  28.394  28.779  1.00  0.00     0.029 A 
ATOM     42  N   UNL A   1      40.906  29.692  29.128  1.00  0.00    -0.354 N 
ATOM     43  C   UNL A   1      44.896  28.281  28.242  1.00  0.00     0.074 A 
ATOM     44  C   UNL A   1      44.872  26.926  27.736  1.00  0.00     0.031 C 
ATOM     45  C   UNL A   1      38.679  29.555  29.290  1.00  0.00     0.029 A 
ATOM     46  C   UNL A   1      39.822  30.424  29.552  1.00  0.00     0.049 A 
ATOM     47  H   UNL A   1      41.832  30.024  29.175  1.00  0.00     0.167 HD
ATOM     48  C   UNL A   1      46.025  29.007  28.417  1.00  0.00     0.031 A 
ATOM     49  C   UNL A   1      39.755  31.655  30.095  1.00  0.00     0.031 A 
ATOM     50  C   UNL A   1      46.043  30.359  28.910  1.00  0.00     0.049 A 
ATOM     51  C   UNL A   1      41.025  32.438  30.290  1.00  0.00     0.074 A 
ATOM     52  C   UNL A   1      47.130  31.200  29.072  1.00  0.00     0.029 A 
ATOM     53  N   UNL A   1      44.924  31.067  29.322  1.00  0.00    -0.354 N 
ATOM     54  N   UNL A   1      42.257  32.092  30.005  1.00  0.00    -0.248 NA
ATOM     55  C   UNL A   1      40.893  33.781  30.869  1.00  0.00     0.031 C 
ATOM     56  C   UNL A   1      46.675  32.396  29.635  1.00  0.00     0.029 A 
ATOM     57  C   UNL A   1      45.297  32.325  29.762  1.00  0.00     0.049 A 
ATOM     58  H   UNL A   1      44.001  30.725  29.303  1.00  0.00     0.167 HD
ATOM     59  C   UNL A   1      43.045  33.187  30.344  1.00  0.00     0.074 A 
ATOM     60  C   UNL A   1      42.147  34.210  30.839  1.00  0.00     0.031 C 
ATOM     61  C   UNL A   1      44.390  33.332  30.254  1.00  0.00     0.031 A 
BRANCH  48  62
ATOM     62  C   UNL A   1      47.337  28.351  28.075  1.00  0.00    -0.014 A 
ATOM     63  C   UNL A   1      48.049  27.608  29.034  1.00  0.00     0.010 A 
ATOM     64  C   UNL A   1      47.843  28.439  26.766  1.00  0.00     0.010 A 
ATOM     65  C   UNL A   1      49.261  26.996  28.701  1.00  0.00     0.020 A 
ATOM     66  C   UNL A   1      49.040  27.804  26.419  1.00  0.00     0.020 A 
ATOM     67  C   UNL A   1      49.748  27.099  27.395  1.00  0.00     0.054 A 
BRANCH  67  68
ATOM     68  S   UNL A   1      51.306  26.266  26.983  1.00  0.00     0.124 S 
ATOM     69  O   UNL A   1      52.197  26.761  28.029  1.00  0.00    -0.237 OA
ATOM     70  O   UNL A   1      50.949  24.853  27.079  1.00  0.00    -0.237 OA
ATOM     71  O   UNL A   1      51.607  26.740  25.634  1.00  0.00    -0.744 OA
ENDBRANCH  67  68
ENDBRANCH  48  62
BRANCH  49  72
ATOM     72  C   UNL A   1      38.435  32.229  30.481  1.00  0.00    -0.014 A 
ATOM     73  C   UNL A   1      37.934  32.055  31.783  1.00  0.00     0.010 A 
ATOM     74  C   UNL A   1      37.676  32.957  29.548  1.00  0.00     0.010 A 
ATOM     75  C   UNL A   1      36.686  32.578  32.137  1.00  0.00     0.020 A 
ATOM     76  C   UNL A   1      36.442  33.507  29.907  1.00  0.00     0.020 A 
ATOM     77  C   UNL A   1      35.949  33.302  31.197  1.00  0.00     0.054 A 
BRANCH  77  78
ATOM     78  S   UNL A   1      34.351  34.006  31.691  1.00  0.00     0.124 S 
ATOM     79  O   UNL A   1      33.772  32.923  32.478  1.00  0.00    -0.237 OA
ATOM     80  O   UNL A   1      34.750  35.194  32.443  1.00  0.00    -0.237 OA
ATOM     81  O   UNL A   1      33.690  34.280  30.417  1.00  0.00    -0.744 OA
ENDBRANCH  77  78
ENDBRANCH  49  72
BRANCH  61  82
ATOM     82  C   UNL A   1      44.973  34.657  30.668  1.00  0.00    -0.014 A 
ATOM     83  C   UNL A   1      45.415  34.882  31.984  1.00  0.00     0.010 A 
ATOM     84  C   UNL A   1      45.128  35.676  29.709  1.00  0.00     0.010 A 
ATOM     85  C   UNL A   1      45.968  36.114  32.342  1.00  0.00     0.020 A 
ATOM     86  C   UNL A   1      45.709  36.897  30.056  1.00  0.00     0.020 A 
ATOM     87  C   UNL A   1      46.111  37.114  31.374  1.00  0.00     0.054 A 
BRANCH  87  88
ATOM     88  S   UNL A   1      46.869  38.691  31.855  1.00  0.00     0.124 S 
ATOM     89  O   UNL A   1      47.281  38.422  33.231  1.00  0.00    -0.237 OA
ATOM     90  O   UNL A   1      47.956  38.831  30.890  1.00  0.00    -0.237 OA
ATOM     91  O   UNL A   1      45.783  39.656  31.708  1.00  0.00    -0.744 OA
ENDBRANCH  87  88
ENDBRANCH  61  82
ENDBRANCH  35  36
ENDBRANCH  27  30
ENDBRANCH  25  26
ENDBRANCH  24  25
ENDBRANCH   1  24
TORSDOF 19
ENDMDL
