MODEL 1
REMARK VINA RESULT:     -10.0      0.000      0.000
REMARK SMILES O=C(NCCCCNC(=O)[C@H](CO)NC(=O)[C@H](Cc1ccc(O)cc1)NC(=O)c1ccc(F)cc1)c1ccc(-c2c3nc(c(-c4ccc(S(=O)(=O)[O-])cc4)c4ccc([nH]4)c(-c4ccc(S(=O)(=O)[O-])cc4)c4nc(c(-c5ccc(S(=O)(=O)[O-])cc5)c5ccc2[nH]5)C=C4)C=C3)cc1
REMARK SMILES IDX 6 1 5 2 4 3 3 4 1 5 2 6 36 8 37 9 95 10 38 11 94 12 39 13
REMARK SMILES IDX 40 14 41 15 88 16 42 17 93 18 87 19 89 20 43 21 92 22 86 23
REMARK SMILES IDX 85 24 44 26 74 27 55 28 73 29 56 30 59 31 72 32 90 33 57 34
REMARK SMILES IDX 58 35 71 37 91 38 60 39 45 40 46 41 54 42 47 43 53 44 48 45
REMARK SMILES IDX 49 46 50 47 51 48 52 49 75 50 76 51 84 52 77 53 83 54 78 55
REMARK SMILES IDX 79 56 80 57 81 58 82 59 61 60 62 61 70 62 63 63 69 64 64 65
REMARK SMILES IDX 65 66 66 67 67 68 68 69 7 70 8 71 9 72 10 74 11 75 14 76
REMARK SMILES IDX 15 77 16 79 17 80 26 81 27 82 28 84 29 85 30 86 35 87 31 88
REMARK SMILES IDX 34 89 32 90 33 91 18 92 19 93 20 94 25 95 21 96 24 97 22 98
REMARK SMILES IDX 23 99 12 101 13 102
REMARK H PARENT 3 7 89 25 59 36 8 73 14 78 26 83 23 100 13 103
REMARK Flexibility Score: inf
ROOT
ATOM      1  C   UNL A   1      46.475  39.829  26.570  1.00  0.00     0.023 C 
ENDROOT
BRANCH   1   2
ATOM      2  C   UNL A   1      46.517  38.323  26.839  1.00  0.00     0.023 C 
BRANCH   2   3
ATOM      3  C   UNL A   1      46.276  37.909  28.287  1.00  0.00     0.116 C 
BRANCH   3   4
ATOM      4  N   UNL A   1      47.492  37.910  29.083  1.00  0.00    -0.352 N 
ATOM      5  O   UNL A   1      49.108  37.037  30.392  1.00  0.00    -0.269 OA
ATOM      6  C   UNL A   1      48.151  36.848  29.654  1.00  0.00     0.251 C 
ATOM      7  H   UNL A   1      47.901  38.794  29.232  1.00  0.00     0.163 HD
BRANCH   6   8
ATOM      8  C   UNL A   1      47.676  35.474  29.385  1.00  0.00     0.039 A 
ATOM      9  C   UNL A   1      47.461  34.581  30.438  1.00  0.00     0.014 A 
ATOM     10  C   UNL A   1      47.449  35.079  28.064  1.00  0.00     0.014 A 
ATOM     11  C   UNL A   1      47.123  33.260  30.162  1.00  0.00     0.010 A 
ATOM     12  C   UNL A   1      47.051  33.768  27.793  1.00  0.00     0.010 A 
ATOM     13  C   UNL A   1      46.904  32.843  28.838  1.00  0.00    -0.014 A 
BRANCH  13  14
ATOM     14  C   UNL A   1      46.434  31.460  28.578  1.00  0.00     0.031 A 
ATOM     15  C   UNL A   1      47.378  30.386  28.110  1.00  0.00     0.074 A 
ATOM     16  C   UNL A   1      45.132  31.180  28.782  1.00  0.00     0.049 A 
ATOM     17  N   UNL A   1      47.122  29.127  27.858  1.00  0.00    -0.248 NA
ATOM     18  C   UNL A   1      48.781  30.768  27.891  1.00  0.00     0.031 C 
ATOM     19  C   UNL A   1      44.122  32.149  29.221  1.00  0.00     0.029 A 
ATOM     20  N   UNL A   1      44.434  30.007  28.659  1.00  0.00    -0.354 N 
ATOM     21  C   UNL A   1      48.324  28.569  27.437  1.00  0.00     0.074 A 
ATOM     22  C   UNL A   1      49.308  29.630  27.454  1.00  0.00     0.031 C 
ATOM     23  C   UNL A   1      42.943  31.524  29.356  1.00  0.00     0.029 A 
ATOM     24  C   UNL A   1      43.099  30.129  28.964  1.00  0.00     0.049 A 
ATOM     25  H   UNL A   1      44.849  29.159  28.378  1.00  0.00     0.167 HD
ATOM     26  C   UNL A   1      48.577  27.289  27.074  1.00  0.00     0.031 A 
ATOM     27  C   UNL A   1      42.103  29.225  28.914  1.00  0.00     0.031 A 
ATOM     28  C   UNL A   1      47.592  26.237  27.066  1.00  0.00     0.049 A 
ATOM     29  C   UNL A   1      42.413  27.821  28.481  1.00  0.00     0.074 A 
ATOM     30  C   UNL A   1      47.771  24.896  26.768  1.00  0.00     0.029 A 
ATOM     31  N   UNL A   1      46.248  26.405  27.357  1.00  0.00    -0.354 N 
ATOM     32  N   UNL A   1      43.570  27.301  28.149  1.00  0.00    -0.248 NA
ATOM     33  C   UNL A   1      41.284  26.884  28.415  1.00  0.00     0.031 C 
ATOM     34  C   UNL A   1      46.524  24.265  26.825  1.00  0.00     0.029 A 
ATOM     35  C   UNL A   1      45.578  25.202  27.210  1.00  0.00     0.049 A 
ATOM     36  H   UNL A   1      45.830  27.254  27.629  1.00  0.00     0.167 HD
ATOM     37  C   UNL A   1      43.310  25.972  27.843  1.00  0.00     0.074 A 
ATOM     38  C   UNL A   1      41.892  25.761  28.057  1.00  0.00     0.031 C 
ATOM     39  C   UNL A   1      44.166  25.012  27.416  1.00  0.00     0.031 A 
BRANCH  26  40
ATOM     40  C   UNL A   1      49.973  26.935  26.631  1.00  0.00    -0.014 A 
ATOM     41  C   UNL A   1      50.964  26.580  27.563  1.00  0.00     0.010 A 
ATOM     42  C   UNL A   1      50.264  26.850  25.256  1.00  0.00     0.010 A 
ATOM     43  C   UNL A   1      52.223  26.156  27.127  1.00  0.00     0.020 A 
ATOM     44  C   UNL A   1      51.516  26.408  24.817  1.00  0.00     0.020 A 
ATOM     45  C   UNL A   1      52.490  26.069  25.757  1.00  0.00     0.054 A 
BRANCH  45  46
ATOM     46  S   UNL A   1      54.111  25.452  25.222  1.00  0.00     0.124 S 
ATOM     47  O   UNL A   1      53.741  24.266  24.451  1.00  0.00    -0.237 OA
ATOM     48  O   UNL A   1      54.638  26.568  24.441  1.00  0.00    -0.237 OA
ATOM     49  O   UNL A   1      54.812  25.184  26.475  1.00  0.00    -0.744 OA
ENDBRANCH  45  46
ENDBRANCH  26  40
BRANCH  27  50
ATOM     50  C   UNL A   1      40.712  29.636  29.243  1.00  0.00    -0.014 A 
ATOM     51  C   UNL A   1      40.351  29.965  30.561  1.00  0.00     0.010 A 
ATOM     52  C   UNL A   1      39.739  29.698  28.229  1.00  0.00     0.010 A 
ATOM     53  C   UNL A   1      39.034  30.324  30.863  1.00  0.00     0.020 A 
ATOM     54  C   UNL A   1      38.429  30.085  28.521  1.00  0.00     0.020 A 
ATOM     55  C   UNL A   1      38.081  30.378  29.841  1.00  0.00     0.054 A 
BRANCH  55  56
ATOM     56  S   UNL A   1      36.384  30.874  30.244  1.00  0.00     0.124 S 
ATOM     57  O   UNL A   1      35.696  30.653  28.976  1.00  0.00    -0.237 OA
ATOM     58  O   UNL A   1      36.032  29.956  31.325  1.00  0.00    -0.237 OA
ATOM     59  O   UNL A   1      36.525  32.271  30.648  1.00  0.00    -0.744 OA
ENDBRANCH  55  56
ENDBRANCH  27  50
BRANCH  39  60
ATOM     60  C   UNL A   1      43.590  23.646  27.163  1.00  0.00    -0.014 A 
ATOM     61  C   UNL A   1      43.222  22.808  28.230  1.00  0.00     0.010 A 
ATOM     62  C   UNL A   1      43.385  23.208  25.841  1.00  0.00     0.010 A 
ATOM     63  C   UNL A   1      42.691  21.540  27.981  1.00  0.00     0.020 A 
ATOM     64  C   UNL A   1      42.830  21.951  25.590  1.00  0.00     0.020 A 
ATOM     65  C   UNL A   1      42.500  21.119  26.662  1.00  0.00     0.054 A 
BRANCH  65  66
ATOM     66  S   UNL A   1      41.777  19.482  26.363  1.00  0.00     0.124 S 
ATOM     67  O   UNL A   1      42.476  19.059  25.152  1.00  0.00    -0.237 OA
ATOM     68  O   UNL A   1      42.126  18.750  27.578  1.00  0.00    -0.237 OA
ATOM     69  O   UNL A   1      40.352  19.759  26.197  1.00  0.00    -0.744 OA
ENDBRANCH  65  66
ENDBRANCH  39  60
ENDBRANCH  13  14
ENDBRANCH   6   8
ENDBRANCH   3   4
ENDBRANCH   2   3
ENDBRANCH   1   2
BRANCH   1  70
ATOM     70  C   UNL A   1      45.577  40.260  25.411  1.00  0.00     0.116 C 
BRANCH  70  71
ATOM     71  N   UNL A   1      44.247  40.634  25.865  1.00  0.00    -0.354 N 
ATOM     72  C   UNL A   1      43.360  41.513  25.316  1.00  0.00     0.244 C 
ATOM     73  H   UNL A   1      43.943  40.188  26.688  1.00  0.00     0.163 HD
ATOM     74  O   UNL A   1      42.239  41.599  25.827  1.00  0.00    -0.273 OA
BRANCH  72  75
ATOM     75  C   UNL A   1      43.773  42.424  24.144  1.00  0.00     0.197 C 
BRANCH  75  76
ATOM     76  N   UNL A   1      42.548  42.692  23.363  1.00  0.00    -0.340 N 
ATOM     77  C   UNL A   1      42.253  42.931  22.063  1.00  0.00     0.243 C 
ATOM     78  H   UNL A   1      41.745  42.699  23.930  1.00  0.00     0.164 HD
ATOM     79  O   UNL A   1      41.046  43.008  21.796  1.00  0.00    -0.273 OA
BRANCH  77  80
ATOM     80  C   UNL A   1      43.272  43.021  20.905  1.00  0.00     0.176 C 
BRANCH  80  81
ATOM     81  N   UNL A   1      44.374  42.065  20.910  1.00  0.00    -0.340 N 
ATOM     82  C   UNL A   1      45.732  42.233  20.938  1.00  0.00     0.251 C 
ATOM     83  H   UNL A   1      44.088  41.123  20.891  1.00  0.00     0.164 HD
ATOM     84  O   UNL A   1      46.456  41.242  20.997  1.00  0.00    -0.269 OA
BRANCH  82  85
ATOM     85  C   UNL A   1      46.356  43.565  20.765  1.00  0.00     0.040 A 
ATOM     86  C   UNL A   1      46.210  44.614  21.679  1.00  0.00     0.017 A 
ATOM     87  C   UNL A   1      47.148  43.742  19.620  1.00  0.00     0.017 A 
ATOM     88  C   UNL A   1      46.786  45.858  21.401  1.00  0.00     0.040 A 
ATOM     89  C   UNL A   1      47.736  44.979  19.354  1.00  0.00     0.040 A 
ATOM     90  C   UNL A   1      47.535  46.030  20.239  1.00  0.00     0.123 A 
ATOM     91  F   UNL A   1      48.077  47.226  19.975  1.00  0.00    -0.207 F 
ENDBRANCH  82  85
ENDBRANCH  80  81
BRANCH  80  92
ATOM     92  C   UNL A   1      42.555  43.120  19.535  1.00  0.00     0.070 C 
BRANCH  92  93
ATOM     93  C   UNL A   1      42.704  44.432  18.802  1.00  0.00    -0.045 A 
ATOM     94  C   UNL A   1      43.936  45.105  18.810  1.00  0.00     0.007 A 
ATOM     95  C   UNL A   1      41.628  45.007  18.119  1.00  0.00     0.007 A 
ATOM     96  C   UNL A   1      44.110  46.281  18.075  1.00  0.00     0.046 A 
ATOM     97  C   UNL A   1      41.806  46.169  17.368  1.00  0.00     0.046 A 
ATOM     98  C   UNL A   1      43.050  46.784  17.331  1.00  0.00     0.115 A 
BRANCH  98  99
ATOM     99  O   UNL A   1      43.189  47.886  16.542  1.00  0.00    -0.508 OA
ATOM    100  H   UNL A   1      44.042  48.233  16.368  1.00  0.00     0.293 HD
ENDBRANCH  98  99
ENDBRANCH  92  93
ENDBRANCH  80  92
ENDBRANCH  77  80
ENDBRANCH  75  76
BRANCH  75 101
ATOM    101  C   UNL A   1      44.311  43.735  24.742  1.00  0.00     0.191 C 
BRANCH 101 102
ATOM    102  O   UNL A   1      44.568  43.639  26.140  1.00  0.00    -0.394 OA
ATOM    103  H   UNL A   1      44.639  42.706  26.392  1.00  0.00     0.210 HD
ENDBRANCH 101 102
ENDBRANCH  75 101
ENDBRANCH  72  75
ENDBRANCH  70  71
ENDBRANCH   1  70
TORSDOF 23
ENDMDL
MODEL 2
REMARK VINA RESULT:      -9.5      3.483      8.979
REMARK SMILES O=C(NCCCCNC(=O)[C@H](CO)NC(=O)[C@H](Cc1ccc(O)cc1)NC(=O)c1ccc(F)cc1)c1ccc(-c2c3nc(c(-c4ccc(S(=O)(=O)[O-])cc4)c4ccc([nH]4)c(-c4ccc(S(=O)(=O)[O-])cc4)c4nc(c(-c5ccc(S(=O)(=O)[O-])cc5)c5ccc2[nH]5)C=C4)C=C3)cc1
REMARK SMILES IDX 6 1 5 2 4 3 3 4 1 5 2 6 36 8 37 9 95 10 38 11 94 12 39 13
REMARK SMILES IDX 40 14 41 15 88 16 42 17 93 18 87 19 89 20 43 21 92 22 86 23
REMARK SMILES IDX 85 24 44 26 74 27 55 28 73 29 56 30 59 31 72 32 90 33 57 34
REMARK SMILES IDX 58 35 71 37 91 38 60 39 45 40 46 41 54 42 47 43 53 44 48 45
REMARK SMILES IDX 49 46 50 47 51 48 52 49 75 50 76 51 84 52 77 53 83 54 78 55
REMARK SMILES IDX 79 56 80 57 81 58 82 59 61 60 62 61 70 62 63 63 69 64 64 65
REMARK SMILES IDX 65 66 66 67 67 68 68 69 7 70 8 71 9 72 10 74 11 75 14 76
REMARK SMILES IDX 15 77 16 79 17 80 26 81 27 82 28 84 29 85 30 86 35 87 31 88
REMARK SMILES IDX 34 89 32 90 33 91 18 92 19 93 20 94 25 95 21 96 24 97 22 98
REMARK SMILES IDX 23 99 12 101 13 102
REMARK H PARENT 3 7 89 25 59 36 8 73 14 78 26 83 23 100 13 103
REMARK Flexibility Score: inf
ROOT
ATOM      1  C   UNL A   1      42.487  40.269  26.354  1.00  0.00     0.023 C 
ENDROOT
BRANCH   1   2
ATOM      2  C   UNL A   1      43.500  39.157  26.640  1.00  0.00     0.023 C 
BRANCH   2   3
ATOM      3  C   UNL A   1      43.254  38.359  27.916  1.00  0.00     0.116 C 
BRANCH   3   4
ATOM      4  N   UNL A   1      42.020  37.593  27.872  1.00  0.00    -0.352 N 
ATOM      5  O   UNL A   1      40.713  35.799  27.475  1.00  0.00    -0.269 OA
ATOM      6  C   UNL A   1      41.839  36.263  27.577  1.00  0.00     0.251 C 
ATOM      7  H   UNL A   1      41.200  38.097  28.083  1.00  0.00     0.163 HD
BRANCH   6   8
ATOM      8  C   UNL A   1      43.023  35.404  27.363  1.00  0.00     0.039 A 
ATOM      9  C   UNL A   1      43.467  35.121  26.069  1.00  0.00     0.014 A 
ATOM     10  C   UNL A   1      43.690  34.876  28.472  1.00  0.00     0.014 A 
ATOM     11  C   UNL A   1      44.511  34.222  25.880  1.00  0.00     0.010 A 
ATOM     12  C   UNL A   1      44.778  34.020  28.282  1.00  0.00     0.010 A 
ATOM     13  C   UNL A   1      45.184  33.671  26.984  1.00  0.00    -0.014 A 
BRANCH  13  14
ATOM     14  C   UNL A   1      46.367  32.804  26.758  1.00  0.00     0.031 A 
ATOM     15  C   UNL A   1      46.235  31.309  26.655  1.00  0.00     0.074 A 
ATOM     16  C   UNL A   1      47.573  33.391  26.636  1.00  0.00     0.049 A 
ATOM     17  N   UNL A   1      47.171  30.419  26.440  1.00  0.00    -0.248 NA
ATOM     18  C   UNL A   1      44.890  30.736  26.815  1.00  0.00     0.031 C 
ATOM     19  C   UNL A   1      47.821  34.833  26.737  1.00  0.00     0.029 A 
ATOM     20  N   UNL A   1      48.813  32.858  26.395  1.00  0.00    -0.354 N 
ATOM     21  C   UNL A   1      46.536  29.183  26.455  1.00  0.00     0.074 A 
ATOM     22  C   UNL A   1      45.134  29.435  26.713  1.00  0.00     0.031 C 
ATOM     23  C   UNL A   1      49.125  35.070  26.530  1.00  0.00     0.029 A 
ATOM     24  C   UNL A   1      49.813  33.799  26.339  1.00  0.00     0.049 A 
ATOM     25  H   UNL A   1      48.972  31.894  26.275  1.00  0.00     0.167 HD
ATOM     26  C   UNL A   1      47.076  27.955  26.268  1.00  0.00     0.031 A 
ATOM     27  C   UNL A   1      51.141  33.658  26.172  1.00  0.00     0.031 A 
ATOM     28  C   UNL A   1      48.473  27.714  26.004  1.00  0.00     0.049 A 
ATOM     29  C   UNL A   1      51.711  32.280  25.994  1.00  0.00     0.074 A 
ATOM     30  C   UNL A   1      49.101  26.508  25.744  1.00  0.00     0.029 A 
ATOM     31  N   UNL A   1      49.457  28.690  25.979  1.00  0.00    -0.354 N 
ATOM     32  N   UNL A   1      51.082  31.132  25.947  1.00  0.00    -0.248 NA
ATOM     33  C   UNL A   1      53.169  32.181  25.847  1.00  0.00     0.031 C 
ATOM     34  C   UNL A   1      50.473  26.747  25.616  1.00  0.00     0.029 A 
ATOM     35  C   UNL A   1      50.692  28.110  25.744  1.00  0.00     0.049 A 
ATOM     36  H   UNL A   1      49.301  29.654  26.108  1.00  0.00     0.167 HD
ATOM     37  C   UNL A   1      52.067  30.171  25.756  1.00  0.00     0.074 A 
ATOM     38  C   UNL A   1      53.329  30.877  25.667  1.00  0.00     0.031 C 
ATOM     39  C   UNL A   1      51.940  28.825  25.670  1.00  0.00     0.031 A 
BRANCH  26  40
ATOM     40  C   UNL A   1      46.170  26.755  26.355  1.00  0.00    -0.014 A 
ATOM     41  C   UNL A   1      45.531  26.241  25.213  1.00  0.00     0.010 A 
ATOM     42  C   UNL A   1      46.045  26.068  27.577  1.00  0.00     0.010 A 
ATOM     43  C   UNL A   1      44.777  25.067  25.294  1.00  0.00     0.020 A 
ATOM     44  C   UNL A   1      45.307  24.883  27.657  1.00  0.00     0.020 A 
ATOM     45  C   UNL A   1      44.672  24.393  26.515  1.00  0.00     0.054 A 
BRANCH  45  46
ATOM     46  S   UNL A   1      43.741  22.836  26.575  1.00  0.00     0.124 S 
ATOM     47  O   UNL A   1      44.661  21.911  25.918  1.00  0.00    -0.237 OA
ATOM     48  O   UNL A   1      43.557  22.626  28.008  1.00  0.00    -0.237 OA
ATOM     49  O   UNL A   1      42.519  23.133  25.829  1.00  0.00    -0.744 OA
ENDBRANCH  45  46
ENDBRANCH  26  40
BRANCH  27  50
ATOM     50  C   UNL A   1      52.024  34.854  26.209  1.00  0.00    -0.014 A 
ATOM     51  C   UNL A   1      52.263  35.610  25.050  1.00  0.00     0.010 A 
ATOM     52  C   UNL A   1      52.634  35.240  27.418  1.00  0.00     0.010 A 
ATOM     53  C   UNL A   1      53.117  36.717  25.092  1.00  0.00     0.020 A 
ATOM     54  C   UNL A   1      53.464  36.361  27.471  1.00  0.00     0.020 A 
ATOM     55  C   UNL A   1      53.713  37.083  26.302  1.00  0.00     0.054 A 
BRANCH  55  56
ATOM     56  S   UNL A   1      54.795  38.539  26.347  1.00  0.00     0.124 S 
ATOM     57  O   UNL A   1      55.949  38.079  25.580  1.00  0.00    -0.237 OA
ATOM     58  O   UNL A   1      53.975  39.564  25.706  1.00  0.00    -0.237 OA
ATOM     59  O   UNL A   1      55.029  38.744  27.774  1.00  0.00    -0.744 OA
ENDBRANCH  55  56
ENDBRANCH  27  50
BRANCH  39  60
ATOM     60  C   UNL A   1      53.200  28.031  25.458  1.00  0.00    -0.014 A 
ATOM     61  C   UNL A   1      53.667  27.751  24.162  1.00  0.00     0.010 A 
ATOM     62  C   UNL A   1      53.941  27.589  26.569  1.00  0.00     0.010 A 
ATOM     63  C   UNL A   1      54.838  27.011  23.979  1.00  0.00     0.020 A 
ATOM     64  C   UNL A   1      55.126  26.871  26.388  1.00  0.00     0.020 A 
ATOM     65  C   UNL A   1      55.559  26.573  25.094  1.00  0.00     0.054 A 
BRANCH  65  66
ATOM     66  S   UNL A   1      57.093  25.643  24.832  1.00  0.00     0.124 S 
ATOM     67  O   UNL A   1      57.512  26.112  23.514  1.00  0.00    -0.237 OA
ATOM     68  O   UNL A   1      57.929  26.079  25.948  1.00  0.00    -0.237 OA
ATOM     69  O   UNL A   1      56.665  24.247  24.890  1.00  0.00    -0.744 OA
ENDBRANCH  65  66
ENDBRANCH  39  60
ENDBRANCH  13  14
ENDBRANCH   6   8
ENDBRANCH   3   4
ENDBRANCH   2   3
ENDBRANCH   1   2
BRANCH   1  70
ATOM     70  C   UNL A   1      42.908  41.275  25.283  1.00  0.00     0.116 C 
BRANCH  70  71
ATOM     71  N   UNL A   1      41.761  41.898  24.641  1.00  0.00    -0.354 N 
ATOM     72  C   UNL A   1      41.639  42.390  23.376  1.00  0.00     0.244 C 
ATOM     73  H   UNL A   1      40.957  41.976  25.203  1.00  0.00     0.163 HD
ATOM     74  O   UNL A   1      40.528  42.790  23.015  1.00  0.00    -0.273 OA
BRANCH  72  75
ATOM     75  C   UNL A   1      42.867  42.513  22.454  1.00  0.00     0.197 C 
BRANCH  75  76
ATOM     76  N   UNL A   1      42.352  42.697  21.082  1.00  0.00    -0.340 N 
ATOM     77  C   UNL A   1      42.861  43.104  19.895  1.00  0.00     0.243 C 
ATOM     78  H   UNL A   1      41.399  42.466  21.014  1.00  0.00     0.164 HD
ATOM     79  O   UNL A   1      42.093  43.016  18.927  1.00  0.00    -0.273 OA
BRANCH  77  80
ATOM     80  C   UNL A   1      44.314  43.569  19.644  1.00  0.00     0.176 C 
BRANCH  80  81
ATOM     81  N   UNL A   1      45.378  42.606  19.912  1.00  0.00    -0.340 N 
ATOM     82  C   UNL A   1      46.656  42.761  20.376  1.00  0.00     0.251 C 
ATOM     83  H   UNL A   1      45.130  41.672  19.726  1.00  0.00     0.164 HD
ATOM     84  O   UNL A   1      47.344  41.762  20.574  1.00  0.00    -0.269 OA
BRANCH  82  85
ATOM     85  C   UNL A   1      47.277  44.098  20.519  1.00  0.00     0.040 A 
ATOM     86  C   UNL A   1      48.011  44.723  19.506  1.00  0.00     0.017 A 
ATOM     87  C   UNL A   1      47.081  44.752  21.745  1.00  0.00     0.017 A 
ATOM     88  C   UNL A   1      48.616  45.960  19.753  1.00  0.00     0.040 A 
ATOM     89  C   UNL A   1      47.671  45.993  21.983  1.00  0.00     0.040 A 
ATOM     90  C   UNL A   1      48.446  46.578  20.990  1.00  0.00     0.123 A 
ATOM     91  F   UNL A   1      49.034  47.758  21.224  1.00  0.00    -0.207 F 
ENDBRANCH  82  85
ENDBRANCH  80  81
BRANCH  80  92
ATOM     92  C   UNL A   1      44.449  44.260  18.264  1.00  0.00     0.070 C 
BRANCH  92  93
ATOM     93  C   UNL A   1      44.737  45.743  18.292  1.00  0.00    -0.045 A 
ATOM     94  C   UNL A   1      44.785  46.427  19.518  1.00  0.00     0.007 A 
ATOM     95  C   UNL A   1      44.948  46.463  17.112  1.00  0.00     0.007 A 
ATOM     96  C   UNL A   1      45.124  47.781  19.566  1.00  0.00     0.046 A 
ATOM     97  C   UNL A   1      45.307  47.810  17.160  1.00  0.00     0.046 A 
ATOM     98  C   UNL A   1      45.417  48.453  18.386  1.00  0.00     0.115 A 
BRANCH  98  99
ATOM     99  O   UNL A   1      45.822  49.754  18.384  1.00  0.00    -0.508 OA
ATOM    100  H   UNL A   1      46.698  49.972  18.636  1.00  0.00     0.293 HD
ENDBRANCH  98  99
ENDBRANCH  92  93
ENDBRANCH  80  92
ENDBRANCH  77  80
ENDBRANCH  75  76
BRANCH  75 101
ATOM    101  C   UNL A   1      43.653  43.761  22.891  1.00  0.00     0.191 C 
BRANCH 101 102
ATOM    102  O   UNL A   1      42.877  44.650  23.689  1.00  0.00    -0.394 OA
ATOM    103  H   UNL A   1      43.210  44.640  24.599  1.00  0.00     0.210 HD
ENDBRANCH 101 102
ENDBRANCH  75 101
ENDBRANCH  72  75
ENDBRANCH  70  71
ENDBRANCH   1  70
TORSDOF 23
ENDMDL
MODEL 3
REMARK VINA RESULT:      -9.5      3.483      8.882
REMARK SMILES O=C(NCCCCNC(=O)[C@H](CO)NC(=O)[C@H](Cc1ccc(O)cc1)NC(=O)c1ccc(F)cc1)c1ccc(-c2c3nc(c(-c4ccc(S(=O)(=O)[O-])cc4)c4ccc([nH]4)c(-c4ccc(S(=O)(=O)[O-])cc4)c4nc(c(-c5ccc(S(=O)(=O)[O-])cc5)c5ccc2[nH]5)C=C4)C=C3)cc1
REMARK SMILES IDX 6 1 5 2 4 3 3 4 1 5 2 6 36 8 37 9 95 10 38 11 94 12 39 13
REMARK SMILES IDX 40 14 41 15 88 16 42 17 93 18 87 19 89 20 43 21 92 22 86 23
REMARK SMILES IDX 85 24 44 26 74 27 55 28 73 29 56 30 59 31 72 32 90 33 57 34
REMARK SMILES IDX 58 35 71 37 91 38 60 39 45 40 46 41 54 42 47 43 53 44 48 45
REMARK SMILES IDX 49 46 50 47 51 48 52 49 75 50 76 51 84 52 77 53 83 54 78 55
REMARK SMILES IDX 79 56 80 57 81 58 82 59 61 60 62 61 70 62 63 63 69 64 64 65
REMARK SMILES IDX 65 66 66 67 67 68 68 69 7 70 8 71 9 72 10 74 11 75 14 76
REMARK SMILES IDX 15 77 16 79 17 80 26 81 27 82 28 84 29 85 30 86 35 87 31 88
REMARK SMILES IDX 34 89 32 90 33 91 18 92 19 93 20 94 25 95 21 96 24 97 22 98
REMARK SMILES IDX 23 99 12 101 13 102
REMARK H PARENT 3 7 89 25 59 36 8 73 14 78 26 83 23 100 13 103
REMARK Flexibility Score: inf
ROOT
ATOM      1  C   UNL A   1      43.089  40.284  26.424  1.00  0.00     0.023 C 
ENDROOT
BRANCH   1   2
ATOM      2  C   UNL A   1      44.203  39.235  26.477  1.00  0.00     0.023 C 
BRANCH   2   3
ATOM      3  C   UNL A   1      44.007  38.124  27.504  1.00  0.00     0.116 C 
BRANCH   3   4
ATOM      4  N   UNL A   1      42.691  37.512  27.426  1.00  0.00    -0.352 N 
ATOM      5  O   UNL A   1      41.195  35.867  27.051  1.00  0.00    -0.269 OA
ATOM      6  C   UNL A   1      42.363  36.197  27.196  1.00  0.00     0.251 C 
ATOM      7  H   UNL A   1      41.930  38.123  27.557  1.00  0.00     0.163 HD
BRANCH   6   8
ATOM      8  C   UNL A   1      43.441  35.189  27.105  1.00  0.00     0.039 A 
ATOM      9  C   UNL A   1      44.024  34.670  28.264  1.00  0.00     0.014 A 
ATOM     10  C   UNL A   1      43.871  34.765  25.845  1.00  0.00     0.014 A 
ATOM     11  C   UNL A   1      45.111  33.809  28.162  1.00  0.00     0.010 A 
ATOM     12  C   UNL A   1      44.924  33.852  25.745  1.00  0.00     0.010 A 
ATOM     13  C   UNL A   1      45.565  33.382  26.902  1.00  0.00    -0.014 A 
BRANCH  13  14
ATOM     14  C   UNL A   1      46.652  32.376  26.821  1.00  0.00     0.031 A 
ATOM     15  C   UNL A   1      46.354  30.906  26.713  1.00  0.00     0.074 A 
ATOM     16  C   UNL A   1      47.927  32.812  26.838  1.00  0.00     0.049 A 
ATOM     17  N   UNL A   1      47.194  29.906  26.615  1.00  0.00    -0.248 NA
ATOM     18  C   UNL A   1      44.940  30.500  26.717  1.00  0.00     0.031 C 
ATOM     19  C   UNL A   1      48.334  34.216  26.958  1.00  0.00     0.029 A 
ATOM     20  N   UNL A   1      49.112  32.130  26.747  1.00  0.00    -0.354 N 
ATOM     21  C   UNL A   1      46.417  28.755  26.563  1.00  0.00     0.074 A 
ATOM     22  C   UNL A   1      45.035  29.178  26.653  1.00  0.00     0.031 C 
ATOM     23  C   UNL A   1      49.672  34.292  26.904  1.00  0.00     0.029 A 
ATOM     24  C   UNL A   1      50.219  32.944  26.802  1.00  0.00     0.049 A 
ATOM     25  H   UNL A   1      49.166  31.151  26.653  1.00  0.00     0.167 HD
ATOM     26  C   UNL A   1      46.822  27.468  26.448  1.00  0.00     0.031 A 
ATOM     27  C   UNL A   1      51.530  32.642  26.794  1.00  0.00     0.031 A 
ATOM     28  C   UNL A   1      48.200  27.057  26.352  1.00  0.00     0.049 A 
ATOM     29  C   UNL A   1      51.946  31.203  26.692  1.00  0.00     0.074 A 
ATOM     30  C   UNL A   1      48.704  25.779  26.174  1.00  0.00     0.029 A 
ATOM     31  N   UNL A   1      49.291  27.908  26.436  1.00  0.00    -0.354 N 
ATOM     32  N   UNL A   1      51.192  30.137  26.579  1.00  0.00    -0.248 NA
ATOM     33  C   UNL A   1      53.388  30.927  26.717  1.00  0.00     0.031 C 
ATOM     34  C   UNL A   1      50.101  25.850  26.207  1.00  0.00     0.029 A 
ATOM     35  C   UNL A   1      50.466  27.179  26.351  1.00  0.00     0.049 A 
ATOM     36  H   UNL A   1      49.239  28.885  26.540  1.00  0.00     0.167 HD
ATOM     37  C   UNL A   1      52.070  29.062  26.511  1.00  0.00     0.074 A 
ATOM     38  C   UNL A   1      53.410  29.610  26.566  1.00  0.00     0.031 C 
ATOM     39  C   UNL A   1      51.792  27.739  26.419  1.00  0.00     0.031 A 
BRANCH  26  40
ATOM     40  C   UNL A   1      45.773  26.387  26.436  1.00  0.00    -0.014 A 
ATOM     41  C   UNL A   1      45.300  25.819  27.632  1.00  0.00     0.010 A 
ATOM     42  C   UNL A   1      45.176  26.015  25.217  1.00  0.00     0.010 A 
ATOM     43  C   UNL A   1      44.254  24.891  27.608  1.00  0.00     0.020 A 
ATOM     44  C   UNL A   1      44.116  25.101  25.191  1.00  0.00     0.020 A 
ATOM     45  C   UNL A   1      43.667  24.540  26.387  1.00  0.00     0.054 A 
BRANCH  45  46
ATOM     46  S   UNL A   1      42.268  23.384  26.394  1.00  0.00     0.124 S 
ATOM     47  O   UNL A   1      41.125  24.295  26.390  1.00  0.00    -0.237 OA
ATOM     48  O   UNL A   1      42.470  22.627  25.162  1.00  0.00    -0.237 OA
ATOM     49  O   UNL A   1      42.451  22.623  27.628  1.00  0.00    -0.744 OA
ENDBRANCH  45  46
ENDBRANCH  26  40
BRANCH  27  50
ATOM     50  C   UNL A   1      52.541  33.724  26.927  1.00  0.00    -0.014 A 
ATOM     51  C   UNL A   1      53.073  34.063  28.182  1.00  0.00     0.010 A 
ATOM     52  C   UNL A   1      52.976  34.424  25.786  1.00  0.00     0.010 A 
ATOM     53  C   UNL A   1      54.003  35.100  28.298  1.00  0.00     0.020 A 
ATOM     54  C   UNL A   1      53.927  35.441  25.893  1.00  0.00     0.020 A 
ATOM     55  C   UNL A   1      54.421  35.784  27.153  1.00  0.00     0.054 A 
BRANCH  55  56
ATOM     56  S   UNL A   1      55.651  37.108  27.316  1.00  0.00     0.124 S 
ATOM     57  O   UNL A   1      54.869  38.290  26.965  1.00  0.00    -0.237 OA
ATOM     58  O   UNL A   1      56.047  37.003  28.718  1.00  0.00    -0.237 OA
ATOM     59  O   UNL A   1      56.686  36.731  26.356  1.00  0.00    -0.744 OA
ENDBRANCH  55  56
ENDBRANCH  27  50
BRANCH  39  60
ATOM     60  C   UNL A   1      52.962  26.796  26.361  1.00  0.00    -0.014 A 
ATOM     61  C   UNL A   1      53.390  26.251  25.138  1.00  0.00     0.010 A 
ATOM     62  C   UNL A   1      53.662  26.479  27.540  1.00  0.00     0.010 A 
ATOM     63  C   UNL A   1      54.478  25.375  25.099  1.00  0.00     0.020 A 
ATOM     64  C   UNL A   1      54.765  25.624  27.500  1.00  0.00     0.020 A 
ATOM     65  C   UNL A   1      55.157  25.065  26.281  1.00  0.00     0.054 A 
BRANCH  65  66
ATOM     66  S   UNL A   1      56.587  23.952  26.201  1.00  0.00     0.124 S 
ATOM     67  O   UNL A   1      57.442  24.480  27.261  1.00  0.00    -0.237 OA
ATOM     68  O   UNL A   1      55.992  22.645  26.466  1.00  0.00    -0.237 OA
ATOM     69  O   UNL A   1      57.093  24.136  24.842  1.00  0.00    -0.744 OA
ENDBRANCH  65  66
ENDBRANCH  39  60
ENDBRANCH  13  14
ENDBRANCH   6   8
ENDBRANCH   3   4
ENDBRANCH   2   3
ENDBRANCH   1   2
BRANCH   1  70
ATOM     70  C   UNL A   1      43.310  41.419  25.423  1.00  0.00     0.116 C 
BRANCH  70  71
ATOM     71  N   UNL A   1      42.079  41.788  24.741  1.00  0.00    -0.354 N 
ATOM     72  C   UNL A   1      41.907  42.352  23.512  1.00  0.00     0.244 C 
ATOM     73  H   UNL A   1      41.251  41.605  25.240  1.00  0.00     0.163 HD
ATOM     74  O   UNL A   1      40.752  42.490  23.095  1.00  0.00    -0.273 OA
BRANCH  72  75
ATOM     75  C   UNL A   1      43.112  42.871  22.704  1.00  0.00     0.197 C 
BRANCH  75  76
ATOM     76  N   UNL A   1      42.712  42.848  21.283  1.00  0.00    -0.340 N 
ATOM     77  C   UNL A   1      43.308  43.122  20.098  1.00  0.00     0.243 C 
ATOM     78  H   UNL A   1      41.778  42.563  21.168  1.00  0.00     0.164 HD
ATOM     79  O   UNL A   1      42.631  42.870  19.091  1.00  0.00    -0.273 OA
BRANCH  77  80
ATOM     80  C   UNL A   1      44.757  43.622  19.906  1.00  0.00     0.176 C 
BRANCH  80  81
ATOM     81  N   UNL A   1      45.817  42.619  19.923  1.00  0.00    -0.340 N 
ATOM     82  C   UNL A   1      46.712  42.250  20.890  1.00  0.00     0.251 C 
ATOM     83  H   UNL A   1      45.904  42.113  19.084  1.00  0.00     0.164 HD
ATOM     84  O   UNL A   1      47.479  41.316  20.669  1.00  0.00    -0.269 OA
BRANCH  82  85
ATOM     85  C   UNL A   1      46.873  43.026  22.141  1.00  0.00     0.040 A 
ATOM     86  C   UNL A   1      47.292  44.360  22.177  1.00  0.00     0.017 A 
ATOM     87  C   UNL A   1      46.558  42.360  23.337  1.00  0.00     0.017 A 
ATOM     88  C   UNL A   1      47.477  44.993  23.410  1.00  0.00     0.040 A 
ATOM     89  C   UNL A   1      46.726  43.001  24.564  1.00  0.00     0.040 A 
ATOM     90  C   UNL A   1      47.200  44.306  24.590  1.00  0.00     0.123 A 
ATOM     91  F   UNL A   1      47.386  44.915  25.768  1.00  0.00    -0.207 F 
ENDBRANCH  82  85
ENDBRANCH  80  81
BRANCH  80  92
ATOM     92  C   UNL A   1      44.858  44.597  18.707  1.00  0.00     0.070 C 
BRANCH  92  93
ATOM     93  C   UNL A   1      44.819  46.069  19.045  1.00  0.00    -0.045 A 
ATOM     94  C   UNL A   1      44.148  46.967  18.199  1.00  0.00     0.007 A 
ATOM     95  C   UNL A   1      45.454  46.568  20.186  1.00  0.00     0.007 A 
ATOM     96  C   UNL A   1      44.039  48.318  18.537  1.00  0.00     0.046 A 
ATOM     97  C   UNL A   1      45.328  47.912  20.535  1.00  0.00     0.046 A 
ATOM     98  C   UNL A   1      44.602  48.773  19.723  1.00  0.00     0.115 A 
BRANCH  98  99
ATOM     99  O   UNL A   1      44.462  50.064  20.132  1.00  0.00    -0.508 OA
ATOM    100  H   UNL A   1      44.851  50.345  20.938  1.00  0.00     0.293 HD
ENDBRANCH  98  99
ENDBRANCH  92  93
ENDBRANCH  80  92
ENDBRANCH  77  80
ENDBRANCH  75  76
BRANCH  75 101
ATOM    101  C   UNL A   1      43.382  44.318  23.150  1.00  0.00     0.191 C 
BRANCH 101 102
ATOM    102  O   UNL A   1      42.210  44.977  23.623  1.00  0.00    -0.394 OA
ATOM    103  H   UNL A   1      41.884  45.584  22.941  1.00  0.00     0.210 HD
ENDBRANCH 101 102
ENDBRANCH  75 101
ENDBRANCH  72  75
ENDBRANCH  70  71
ENDBRANCH   1  70
TORSDOF 23
ENDMDL
