MODEL 1
REMARK VINA RESULT:     -10.5      0.000      0.000
REMARK SMILES O=CN1CCC[C@@H](C(=O)NCCCCNC(=O)c2ccc(-c3c4nc(c(-c5ccc(S(=O)(=O)[O-])cc5)c5ccc([nH]5)c(-c5ccc(S(=O)(=O)[O-])cc5)c5nc(c(-c6ccc(S(=O)(=O)[O-])cc6)c6ccc3[nH]6)C=C5)C=C4)cc2)C1
REMARK SMILES IDX 13 1 12 2 11 3 10 4 8 5 9 6 7 8 3 9 4 10 78 11 5 12 6 13
REMARK SMILES IDX 2 14 1 15 14 16 15 17 16 18 17 20 18 21 19 22 77 23 20 24
REMARK SMILES IDX 76 25 21 26 22 27 23 28 70 29 24 30 75 31 69 32 71 33 25 34
REMARK SMILES IDX 74 35 68 36 67 37 26 39 56 40 37 41 55 42 38 43 41 44 54 45
REMARK SMILES IDX 72 46 39 47 40 48 53 50 73 51 42 52 27 53 28 54 36 55 29 56
REMARK SMILES IDX 35 57 30 58 31 59 32 60 33 61 34 62 57 63 58 64 66 65 59 66
REMARK SMILES IDX 65 67 60 68 61 69 62 70 63 71 64 72 43 73 44 74 52 75 45 76
REMARK SMILES IDX 51 77 46 78 47 79 48 80 49 81 50 82
REMARK H PARENT 10 7 15 19 71 38 41 49
REMARK Flexibility Score: inf
ROOT
ATOM      1  C   UNL A   1      41.164  21.648  28.016  1.00  0.00     0.023 C 
ENDROOT
BRANCH   1   2
ATOM      2  C   UNL A   1      40.260  21.424  26.794  1.00  0.00     0.023 C 
BRANCH   2   3
ATOM      3  C   UNL A   1      40.533  20.140  26.002  1.00  0.00     0.116 C 
BRANCH   3   4
ATOM      4  N   UNL A   1      41.419  19.266  26.745  1.00  0.00    -0.356 N 
ATOM      5  C   UNL A   1      42.669  18.826  26.468  1.00  0.00     0.224 C 
ATOM      6  O   UNL A   1      43.121  17.929  27.181  1.00  0.00    -0.275 OA
ATOM      7  H   UNL A   1      41.048  18.935  27.595  1.00  0.00     0.163 HD
BRANCH   5   8
ATOM      8  C   UNL A   1      43.465  19.412  25.316  1.00  0.00     0.098 C 
ATOM      9  N   UNL A   1      44.756  21.477  24.816  1.00  0.00    -0.344 N 
ATOM     10  C   UNL A   1      46.007  20.761  24.652  1.00  0.00     0.119 C 
ATOM     11  C   UNL A   1      43.771  20.869  25.697  1.00  0.00     0.132 C 
ATOM     12  C   UNL A   1      45.742  19.340  24.171  1.00  0.00     0.022 C 
ATOM     13  C   UNL A   1      44.756  18.608  25.089  1.00  0.00     0.017 C 
BRANCH   9  14
ATOM     14  C   UNL A   1      44.568  22.751  24.328  1.00  0.00     0.339 C 
ATOM     15  O   UNL A   1      45.414  23.437  23.766  1.00  0.00    -0.279 OA
ENDBRANCH   9  14
ENDBRANCH   5   8
ENDBRANCH   3   4
ENDBRANCH   2   3
ENDBRANCH   1   2
BRANCH   1  16
ATOM     16  C   UNL A   1      41.905  22.982  28.040  1.00  0.00     0.116 C 
BRANCH  16  17
ATOM     17  N   UNL A   1      41.857  23.654  26.754  1.00  0.00    -0.352 N 
ATOM     18  C   UNL A   1      41.505  24.949  26.455  1.00  0.00     0.251 C 
ATOM     19  H   UNL A   1      42.113  23.100  25.981  1.00  0.00     0.163 HD
ATOM     20  O   UNL A   1      41.341  25.266  25.279  1.00  0.00    -0.269 OA
BRANCH  18  21
ATOM     21  C   UNL A   1      41.300  25.952  27.528  1.00  0.00     0.039 A 
ATOM     22  C   UNL A   1      40.180  25.827  28.356  1.00  0.00     0.014 A 
ATOM     23  C   UNL A   1      42.174  27.029  27.705  1.00  0.00     0.014 A 
ATOM     24  C   UNL A   1      39.965  26.749  29.386  1.00  0.00     0.010 A 
ATOM     25  C   UNL A   1      41.999  27.903  28.780  1.00  0.00     0.010 A 
ATOM     26  C   UNL A   1      40.889  27.779  29.628  1.00  0.00    -0.014 A 
BRANCH  26  27
ATOM     27  C   UNL A   1      40.702  28.725  30.763  1.00  0.00     0.031 A 
ATOM     28  C   UNL A   1      41.542  28.607  32.008  1.00  0.00     0.074 A 
ATOM     29  C   UNL A   1      39.745  29.673  30.691  1.00  0.00     0.049 A 
ATOM     30  N   UNL A   1      41.511  29.334  33.097  1.00  0.00    -0.248 NA
ATOM     31  C   UNL A   1      42.534  27.521  32.045  1.00  0.00     0.031 C 
ATOM     32  C   UNL A   1      38.834  29.872  29.560  1.00  0.00     0.029 A 
ATOM     33  N   UNL A   1      39.376  30.648  31.586  1.00  0.00    -0.354 N 
ATOM     34  C   UNL A   1      42.465  28.788  33.950  1.00  0.00     0.074 A 
ATOM     35  C   UNL A   1      43.021  27.637  33.272  1.00  0.00     0.031 C 
ATOM     36  C   UNL A   1      38.038  30.923  29.815  1.00  0.00     0.029 A 
ATOM     37  C   UNL A   1      38.349  31.447  31.141  1.00  0.00     0.049 A 
ATOM     38  H   UNL A   1      39.807  30.763  32.463  1.00  0.00     0.167 HD
ATOM     39  C   UNL A   1      42.857  29.214  35.174  1.00  0.00     0.031 A 
ATOM     40  C   UNL A   1      37.722  32.484  31.732  1.00  0.00     0.031 A 
ATOM     41  C   UNL A   1      42.304  30.361  35.848  1.00  0.00     0.049 A 
ATOM     42  C   UNL A   1      38.166  32.930  33.098  1.00  0.00     0.074 A 
ATOM     43  C   UNL A   1      42.669  30.901  37.070  1.00  0.00     0.029 A 
ATOM     44  N   UNL A   1      41.265  31.142  35.363  1.00  0.00    -0.354 N 
ATOM     45  N   UNL A   1      39.116  32.439  33.859  1.00  0.00    -0.248 NA
ATOM     46  C   UNL A   1      37.465  34.084  33.679  1.00  0.00     0.031 C 
ATOM     47  C   UNL A   1      41.814  31.970  37.351  1.00  0.00     0.029 A 
ATOM     48  C   UNL A   1      40.962  32.144  36.272  1.00  0.00     0.049 A 
ATOM     49  H   UNL A   1      40.811  31.006  34.501  1.00  0.00     0.167 HD
ATOM     50  C   UNL A   1      39.148  33.245  34.993  1.00  0.00     0.074 A 
ATOM     51  C   UNL A   1      38.134  34.264  34.809  1.00  0.00     0.031 C 
ATOM     52  C   UNL A   1      39.949  33.153  36.083  1.00  0.00     0.031 A 
BRANCH  39  53
ATOM     53  C   UNL A   1      43.938  28.429  35.874  1.00  0.00    -0.014 A 
ATOM     54  C   UNL A   1      45.294  28.781  35.745  1.00  0.00     0.010 A 
ATOM     55  C   UNL A   1      43.591  27.352  36.711  1.00  0.00     0.010 A 
ATOM     56  C   UNL A   1      46.285  28.045  36.403  1.00  0.00     0.020 A 
ATOM     57  C   UNL A   1      44.576  26.633  37.396  1.00  0.00     0.020 A 
ATOM     58  C   UNL A   1      45.919  26.973  37.223  1.00  0.00     0.054 A 
BRANCH  58  59
ATOM     59  S   UNL A   1      47.223  26.052  38.081  1.00  0.00     0.124 S 
ATOM     60  O   UNL A   1      46.486  25.445  39.187  1.00  0.00    -0.237 OA
ATOM     61  O   UNL A   1      47.689  25.123  37.054  1.00  0.00    -0.237 OA
ATOM     62  O   UNL A   1      48.183  27.083  38.467  1.00  0.00    -0.744 OA
ENDBRANCH  58  59
ENDBRANCH  39  53
BRANCH  40  63
ATOM     63  C   UNL A   1      36.616  33.186  31.022  1.00  0.00    -0.014 A 
ATOM     64  C   UNL A   1      36.877  33.966  29.881  1.00  0.00     0.010 A 
ATOM     65  C   UNL A   1      35.291  33.073  31.482  1.00  0.00     0.010 A 
ATOM     66  C   UNL A   1      35.839  34.636  29.227  1.00  0.00     0.020 A 
ATOM     67  C   UNL A   1      34.246  33.715  30.811  1.00  0.00     0.020 A 
ATOM     68  C   UNL A   1      34.529  34.504  29.695  1.00  0.00     0.054 A 
BRANCH  68  69
ATOM     69  S   UNL A   1      33.191  35.343  28.800  1.00  0.00     0.124 S 
ATOM     70  O   UNL A   1      32.448  35.973  29.886  1.00  0.00    -0.237 OA
ATOM     71  O   UNL A   1      33.923  36.251  27.921  1.00  0.00    -0.237 OA
ATOM     72  O   UNL A   1      32.500  34.251  28.118  1.00  0.00    -0.744 OA
ENDBRANCH  68  69
ENDBRANCH  40  63
BRANCH  52  73
ATOM     73  C   UNL A   1      39.797  34.211  37.147  1.00  0.00    -0.014 A 
ATOM     74  C   UNL A   1      40.347  35.496  36.993  1.00  0.00     0.010 A 
ATOM     75  C   UNL A   1      39.061  33.918  38.311  1.00  0.00     0.010 A 
ATOM     76  C   UNL A   1      40.204  36.452  38.003  1.00  0.00     0.020 A 
ATOM     77  C   UNL A   1      38.888  34.880  39.308  1.00  0.00     0.020 A 
ATOM     78  C   UNL A   1      39.479  36.136  39.156  1.00  0.00     0.054 A 
BRANCH  78  79
ATOM     79  S   UNL A   1      39.291  37.399  40.444  1.00  0.00     0.124 S 
ATOM     80  O   UNL A   1      38.858  36.603  41.589  1.00  0.00    -0.237 OA
ATOM     81  O   UNL A   1      40.636  37.961  40.541  1.00  0.00    -0.237 OA
ATOM     82  O   UNL A   1      38.282  38.305  39.898  1.00  0.00    -0.744 OA
ENDBRANCH  78  79
ENDBRANCH  52  73
ENDBRANCH  26  27
ENDBRANCH  18  21
ENDBRANCH  16  17
ENDBRANCH   1  16
TORSDOF 15
ENDMDL
MODEL 2
REMARK VINA RESULT:     -10.4      3.006      4.482
REMARK SMILES O=CN1CCC[C@@H](C(=O)NCCCCNC(=O)c2ccc(-c3c4nc(c(-c5ccc(S(=O)(=O)[O-])cc5)c5ccc([nH]5)c(-c5ccc(S(=O)(=O)[O-])cc5)c5nc(c(-c6ccc(S(=O)(=O)[O-])cc6)c6ccc3[nH]6)C=C5)C=C4)cc2)C1
REMARK SMILES IDX 13 1 12 2 11 3 10 4 8 5 9 6 7 8 3 9 4 10 78 11 5 12 6 13
REMARK SMILES IDX 2 14 1 15 14 16 15 17 16 18 17 20 18 21 19 22 77 23 20 24
REMARK SMILES IDX 76 25 21 26 22 27 23 28 70 29 24 30 75 31 69 32 71 33 25 34
REMARK SMILES IDX 74 35 68 36 67 37 26 39 56 40 37 41 55 42 38 43 41 44 54 45
REMARK SMILES IDX 72 46 39 47 40 48 53 50 73 51 42 52 27 53 28 54 36 55 29 56
REMARK SMILES IDX 35 57 30 58 31 59 32 60 33 61 34 62 57 63 58 64 66 65 59 66
REMARK SMILES IDX 65 67 60 68 61 69 62 70 63 71 64 72 43 73 44 74 52 75 45 76
REMARK SMILES IDX 51 77 46 78 47 79 48 80 49 81 50 82
REMARK H PARENT 10 7 15 19 71 38 41 49
REMARK Flexibility Score: inf
ROOT
ATOM      1  C   UNL A   1      39.143  22.541  26.376  1.00  0.00     0.023 C 
ENDROOT
BRANCH   1   2
ATOM      2  C   UNL A   1      37.809  23.255  26.108  1.00  0.00     0.023 C 
BRANCH   2   3
ATOM      3  C   UNL A   1      36.736  22.405  25.418  1.00  0.00     0.116 C 
BRANCH   3   4
ATOM      4  N   UNL A   1      35.753  21.952  26.381  1.00  0.00    -0.356 N 
ATOM      5  C   UNL A   1      34.602  21.258  26.215  1.00  0.00     0.224 C 
ATOM      6  O   UNL A   1      33.850  21.172  27.188  1.00  0.00    -0.275 OA
ATOM      7  H   UNL A   1      35.956  22.188  27.316  1.00  0.00     0.163 HD
BRANCH   5   8
ATOM      8  C   UNL A   1      34.256  20.628  24.879  1.00  0.00     0.098 C 
ATOM      9  N   UNL A   1      33.658  18.386  23.985  1.00  0.00    -0.344 N 
ATOM     10  C   UNL A   1      32.341  18.813  23.551  1.00  0.00     0.119 C 
ATOM     11  C   UNL A   1      34.238  19.108  25.107  1.00  0.00     0.132 C 
ATOM     12  C   UNL A   1      32.353  20.300  23.215  1.00  0.00     0.022 C 
ATOM     13  C   UNL A   1      32.895  21.138  24.379  1.00  0.00     0.017 C 
BRANCH   9  14
ATOM     14  C   UNL A   1      34.257  17.245  23.501  1.00  0.00     0.339 C 
ATOM     15  O   UNL A   1      33.882  16.096  23.702  1.00  0.00    -0.279 OA
ENDBRANCH   9  14
ENDBRANCH   5   8
ENDBRANCH   3   4
ENDBRANCH   2   3
ENDBRANCH   1   2
BRANCH   1  16
ATOM     16  C   UNL A   1      40.232  23.409  26.998  1.00  0.00     0.116 C 
BRANCH  16  17
ATOM     17  N   UNL A   1      40.954  24.175  25.996  1.00  0.00    -0.352 N 
ATOM     18  C   UNL A   1      41.302  25.505  25.994  1.00  0.00     0.251 C 
ATOM     19  H   UNL A   1      41.234  23.667  25.201  1.00  0.00     0.163 HD
ATOM     20  O   UNL A   1      41.741  26.005  24.961  1.00  0.00    -0.269 OA
BRANCH  18  21
ATOM     21  C   UNL A   1      41.133  26.341  27.208  1.00  0.00     0.039 A 
ATOM     22  C   UNL A   1      42.062  27.357  27.455  1.00  0.00     0.014 A 
ATOM     23  C   UNL A   1      40.097  26.115  28.119  1.00  0.00     0.014 A 
ATOM     24  C   UNL A   1      41.923  28.172  28.584  1.00  0.00     0.010 A 
ATOM     25  C   UNL A   1      39.917  26.977  29.202  1.00  0.00     0.010 A 
ATOM     26  C   UNL A   1      40.831  28.010  29.453  1.00  0.00    -0.014 A 
BRANCH  26  27
ATOM     27  C   UNL A   1      40.641  28.915  30.620  1.00  0.00     0.031 A 
ATOM     28  C   UNL A   1      41.487  28.762  31.858  1.00  0.00     0.074 A 
ATOM     29  C   UNL A   1      39.676  29.858  30.583  1.00  0.00     0.049 A 
ATOM     30  N   UNL A   1      41.453  29.451  32.971  1.00  0.00    -0.248 NA
ATOM     31  C   UNL A   1      42.487  27.683  31.854  1.00  0.00     0.031 C 
ATOM     32  C   UNL A   1      38.760  30.088  29.463  1.00  0.00     0.029 A 
ATOM     33  N   UNL A   1      39.304  30.799  31.512  1.00  0.00    -0.354 N 
ATOM     34  C   UNL A   1      42.415  28.884  33.801  1.00  0.00     0.074 A 
ATOM     35  C   UNL A   1      42.978  27.761  33.083  1.00  0.00     0.031 C 
ATOM     36  C   UNL A   1      37.957  31.124  29.756  1.00  0.00     0.029 A 
ATOM     37  C   UNL A   1      38.269  31.605  31.098  1.00  0.00     0.049 A 
ATOM     38  H   UNL A   1      39.737  30.888  32.391  1.00  0.00     0.167 HD
ATOM     39  C   UNL A   1      42.809  29.272  35.038  1.00  0.00     0.031 A 
ATOM     40  C   UNL A   1      37.636  32.617  31.726  1.00  0.00     0.031 A 
ATOM     41  C   UNL A   1      42.249  30.390  35.752  1.00  0.00     0.049 A 
ATOM     42  C   UNL A   1      38.082  33.019  33.105  1.00  0.00     0.074 A 
ATOM     43  C   UNL A   1      42.614  30.891  36.991  1.00  0.00     0.029 A 
ATOM     44  N   UNL A   1      41.202  31.180  35.298  1.00  0.00    -0.354 N 
ATOM     45  N   UNL A   1      39.038  32.510  33.846  1.00  0.00    -0.248 NA
ATOM     46  C   UNL A   1      37.373  34.147  33.727  1.00  0.00     0.031 C 
ATOM     47  C   UNL A   1      41.752  31.944  37.311  1.00  0.00     0.029 A 
ATOM     48  C   UNL A   1      40.895  32.147  36.241  1.00  0.00     0.049 A 
ATOM     49  H   UNL A   1      40.747  31.069  34.432  1.00  0.00     0.167 HD
ATOM     50  C   UNL A   1      39.068  33.277  35.006  1.00  0.00     0.074 A 
ATOM     51  C   UNL A   1      38.045  34.294  34.860  1.00  0.00     0.031 C 
ATOM     52  C   UNL A   1      39.873  33.154  36.090  1.00  0.00     0.031 A 
BRANCH  39  53
ATOM     53  C   UNL A   1      43.898  28.471  35.708  1.00  0.00    -0.014 A 
ATOM     54  C   UNL A   1      43.593  27.365  36.523  1.00  0.00     0.010 A 
ATOM     55  C   UNL A   1      45.248  28.799  35.482  1.00  0.00     0.010 A 
ATOM     56  C   UNL A   1      44.614  26.631  37.134  1.00  0.00     0.020 A 
ATOM     57  C   UNL A   1      46.273  28.047  36.065  1.00  0.00     0.020 A 
ATOM     58  C   UNL A   1      45.948  26.979  36.902  1.00  0.00     0.054 A 
BRANCH  58  59
ATOM     59  S   UNL A   1      47.251  25.994  37.690  1.00  0.00     0.124 S 
ATOM     60  O   UNL A   1      48.255  25.919  36.632  1.00  0.00    -0.237 OA
ATOM     61  O   UNL A   1      47.617  26.811  38.845  1.00  0.00    -0.237 OA
ATOM     62  O   UNL A   1      46.589  24.731  38.008  1.00  0.00    -0.744 OA
ENDBRANCH  58  59
ENDBRANCH  39  53
BRANCH  40  63
ATOM     63  C   UNL A   1      36.522  33.334  31.044  1.00  0.00    -0.014 A 
ATOM     64  C   UNL A   1      35.245  33.396  31.630  1.00  0.00     0.010 A 
ATOM     65  C   UNL A   1      36.735  33.965  29.805  1.00  0.00     0.010 A 
ATOM     66  C   UNL A   1      34.198  34.057  30.980  1.00  0.00     0.020 A 
ATOM     67  C   UNL A   1      35.700  34.655  29.168  1.00  0.00     0.020 A 
ATOM     68  C   UNL A   1      34.433  34.684  29.754  1.00  0.00     0.054 A 
BRANCH  68  69
ATOM     69  S   UNL A   1      33.071  35.578  28.953  1.00  0.00     0.124 S 
ATOM     70  O   UNL A   1      33.786  36.566  28.151  1.00  0.00    -0.237 OA
ATOM     71  O   UNL A   1      32.398  34.520  28.205  1.00  0.00    -0.237 OA
ATOM     72  O   UNL A   1      32.309  36.117  30.078  1.00  0.00    -0.744 OA
ENDBRANCH  68  69
ENDBRANCH  40  63
BRANCH  52  73
ATOM     73  C   UNL A   1      39.718  34.174  37.189  1.00  0.00    -0.014 A 
ATOM     74  C   UNL A   1      38.973  33.900  38.351  1.00  0.00     0.010 A 
ATOM     75  C   UNL A   1      40.359  35.422  37.068  1.00  0.00     0.010 A 
ATOM     76  C   UNL A   1      38.833  34.872  39.346  1.00  0.00     0.020 A 
ATOM     77  C   UNL A   1      40.249  36.383  38.075  1.00  0.00     0.020 A 
ATOM     78  C   UNL A   1      39.469  36.108  39.200  1.00  0.00     0.054 A 
BRANCH  78  79
ATOM     79  S   UNL A   1      39.289  37.345  40.515  1.00  0.00     0.124 S 
ATOM     80  O   UNL A   1      40.642  37.888  40.608  1.00  0.00    -0.237 OA
ATOM     81  O   UNL A   1      38.285  38.252  39.966  1.00  0.00    -0.237 OA
ATOM     82  O   UNL A   1      38.851  36.564  41.669  1.00  0.00    -0.744 OA
ENDBRANCH  78  79
ENDBRANCH  52  73
ENDBRANCH  26  27
ENDBRANCH  18  21
ENDBRANCH  16  17
ENDBRANCH   1  16
TORSDOF 15
ENDMDL
MODEL 3
REMARK VINA RESULT:     -10.1      7.060     13.919
REMARK SMILES O=CN1CCC[C@@H](C(=O)NCCCCNC(=O)c2ccc(-c3c4nc(c(-c5ccc(S(=O)(=O)[O-])cc5)c5ccc([nH]5)c(-c5ccc(S(=O)(=O)[O-])cc5)c5nc(c(-c6ccc(S(=O)(=O)[O-])cc6)c6ccc3[nH]6)C=C5)C=C4)cc2)C1
REMARK SMILES IDX 13 1 12 2 11 3 10 4 8 5 9 6 7 8 3 9 4 10 78 11 5 12 6 13
REMARK SMILES IDX 2 14 1 15 14 16 15 17 16 18 17 20 18 21 19 22 77 23 20 24
REMARK SMILES IDX 76 25 21 26 22 27 23 28 70 29 24 30 75 31 69 32 71 33 25 34
REMARK SMILES IDX 74 35 68 36 67 37 26 39 56 40 37 41 55 42 38 43 41 44 54 45
REMARK SMILES IDX 72 46 39 47 40 48 53 50 73 51 42 52 27 53 28 54 36 55 29 56
REMARK SMILES IDX 35 57 30 58 31 59 32 60 33 61 34 62 57 63 58 64 66 65 59 66
REMARK SMILES IDX 65 67 60 68 61 69 62 70 63 71 64 72 43 73 44 74 52 75 45 76
REMARK SMILES IDX 51 77 46 78 47 79 48 80 49 81 50 82
REMARK H PARENT 10 7 15 19 71 38 41 49
REMARK Flexibility Score: inf
ROOT
ATOM      1  C   UNL A   1      34.452  31.411  27.848  1.00  0.00     0.023 C 
ENDROOT
BRANCH   1   2
ATOM      2  C   UNL A   1      34.348  30.061  27.122  1.00  0.00     0.023 C 
BRANCH   2   3
ATOM      3  C   UNL A   1      32.984  29.758  26.492  1.00  0.00     0.116 C 
BRANCH   3   4
ATOM      4  N   UNL A   1      33.094  29.703  25.048  1.00  0.00    -0.356 N 
ATOM      5  C   UNL A   1      32.307  29.111  24.119  1.00  0.00     0.224 C 
ATOM      6  O   UNL A   1      32.740  29.054  22.967  1.00  0.00    -0.275 OA
ATOM      7  H   UNL A   1      33.874  30.178  24.679  1.00  0.00     0.163 HD
BRANCH   5   8
ATOM      8  C   UNL A   1      30.956  28.530  24.496  1.00  0.00     0.098 C 
ATOM      9  N   UNL A   1      28.764  28.082  23.412  1.00  0.00    -0.344 N 
ATOM     10  C   UNL A   1      28.866  26.646  23.601  1.00  0.00     0.119 C 
ATOM     11  C   UNL A   1      30.018  28.813  23.312  1.00  0.00     0.132 C 
ATOM     12  C   UNL A   1      29.706  26.335  24.833  1.00  0.00     0.022 C 
ATOM     13  C   UNL A   1      31.075  27.023  24.772  1.00  0.00     0.017 C 
BRANCH   9  14
ATOM     14  C   UNL A   1      27.566  28.705  23.149  1.00  0.00     0.339 C 
ATOM     15  O   UNL A   1      27.373  29.915  23.134  1.00  0.00    -0.279 OA
ENDBRANCH   9  14
ENDBRANCH   5   8
ENDBRANCH   3   4
ENDBRANCH   2   3
ENDBRANCH   1   2
BRANCH   1  16
ATOM     16  C   UNL A   1      35.744  31.632  28.628  1.00  0.00     0.116 C 
BRANCH  16  17
ATOM     17  N   UNL A   1      35.641  31.152  29.996  1.00  0.00    -0.352 N 
ATOM     18  C   UNL A   1      36.516  30.377  30.720  1.00  0.00     0.251 C 
ATOM     19  H   UNL A   1      34.825  31.422  30.475  1.00  0.00     0.163 HD
ATOM     20  O   UNL A   1      36.151  29.917  31.800  1.00  0.00    -0.269 OA
BRANCH  18  21
ATOM     21  C   UNL A   1      37.873  30.072  30.205  1.00  0.00     0.039 A 
ATOM     22  C   UNL A   1      38.895  29.814  31.124  1.00  0.00     0.014 A 
ATOM     23  C   UNL A   1      38.159  30.073  28.836  1.00  0.00     0.014 A 
ATOM     24  C   UNL A   1      40.183  29.510  30.671  1.00  0.00     0.010 A 
ATOM     25  C   UNL A   1      39.425  29.695  28.385  1.00  0.00     0.010 A 
ATOM     26  C   UNL A   1      40.454  29.417  29.296  1.00  0.00    -0.014 A 
BRANCH  26  27
ATOM     27  C   UNL A   1      41.806  29.030  28.806  1.00  0.00     0.031 A 
ATOM     28  C   UNL A   1      42.914  30.048  28.723  1.00  0.00     0.074 A 
ATOM     29  C   UNL A   1      42.031  27.764  28.397  1.00  0.00     0.049 A 
ATOM     30  N   UNL A   1      44.148  29.894  28.312  1.00  0.00    -0.248 NA
ATOM     31  C   UNL A   1      42.591  31.423  29.136  1.00  0.00     0.031 C 
ATOM     32  C   UNL A   1      41.036  26.688  28.387  1.00  0.00     0.029 A 
ATOM     33  N   UNL A   1      43.168  27.166  27.911  1.00  0.00    -0.354 N 
ATOM     34  C   UNL A   1      44.742  31.148  28.405  1.00  0.00     0.074 A 
ATOM     35  C   UNL A   1      43.718  32.063  28.862  1.00  0.00     0.031 C 
ATOM     36  C   UNL A   1      41.614  25.557  27.952  1.00  0.00     0.029 A 
ATOM     37  C   UNL A   1      43.006  25.833  27.611  1.00  0.00     0.049 A 
ATOM     38  H   UNL A   1      44.018  27.646  27.789  1.00  0.00     0.167 HD
ATOM     39  C   UNL A   1      46.025  31.504  28.155  1.00  0.00     0.031 A 
ATOM     40  C   UNL A   1      43.876  24.931  27.114  1.00  0.00     0.031 A 
ATOM     41  C   UNL A   1      47.044  30.593  27.701  1.00  0.00     0.049 A 
ATOM     42  C   UNL A   1      45.291  25.354  26.829  1.00  0.00     0.074 A 
ATOM     43  C   UNL A   1      48.384  30.849  27.465  1.00  0.00     0.029 A 
ATOM     44  N   UNL A   1      46.838  29.253  27.409  1.00  0.00    -0.354 N 
ATOM     45  N   UNL A   1      45.849  26.532  26.987  1.00  0.00    -0.248 NA
ATOM     46  C   UNL A   1      46.201  24.320  26.316  1.00  0.00     0.031 C 
ATOM     47  C   UNL A   1      48.975  29.680  26.975  1.00  0.00     0.029 A 
ATOM     48  C   UNL A   1      48.020  28.676  26.974  1.00  0.00     0.049 A 
ATOM     49  H   UNL A   1      45.979  28.781  27.499  1.00  0.00     0.167 HD
ATOM     50  C   UNL A   1      47.182  26.371  26.625  1.00  0.00     0.074 A 
ATOM     51  C   UNL A   1      47.350  24.979  26.256  1.00  0.00     0.031 C 
ATOM     52  C   UNL A   1      48.178  27.290  26.605  1.00  0.00     0.031 A 
BRANCH  39  53
ATOM     53  C   UNL A   1      46.401  32.951  28.358  1.00  0.00    -0.014 A 
ATOM     54  C   UNL A   1      46.277  33.889  27.316  1.00  0.00     0.010 A 
ATOM     55  C   UNL A   1      46.839  33.391  29.621  1.00  0.00     0.010 A 
ATOM     56  C   UNL A   1      46.627  35.227  27.520  1.00  0.00     0.020 A 
ATOM     57  C   UNL A   1      47.159  34.735  29.839  1.00  0.00     0.020 A 
ATOM     58  C   UNL A   1      47.068  35.641  28.781  1.00  0.00     0.054 A 
BRANCH  58  59
ATOM     59  S   UNL A   1      47.492  37.388  29.022  1.00  0.00     0.124 S 
ATOM     60  O   UNL A   1      48.400  37.635  27.904  1.00  0.00    -0.237 OA
ATOM     61  O   UNL A   1      46.192  38.048  28.931  1.00  0.00    -0.237 OA
ATOM     62  O   UNL A   1      48.112  37.417  30.344  1.00  0.00    -0.744 OA
ENDBRANCH  58  59
ENDBRANCH  39  53
BRANCH  40  63
ATOM     63  C   UNL A   1      43.435  23.529  26.871  1.00  0.00    -0.014 A 
ATOM     64  C   UNL A   1      43.237  23.056  25.562  1.00  0.00     0.010 A 
ATOM     65  C   UNL A   1      43.217  22.654  27.952  1.00  0.00     0.010 A 
ATOM     66  C   UNL A   1      42.809  21.744  25.338  1.00  0.00     0.020 A 
ATOM     67  C   UNL A   1      42.820  21.333  27.731  1.00  0.00     0.020 A 
ATOM     68  C   UNL A   1      42.606  20.889  26.425  1.00  0.00     0.054 A 
BRANCH  68  69
ATOM     69  S   UNL A   1      42.098  19.176  26.108  1.00  0.00     0.124 S 
ATOM     70  O   UNL A   1      42.475  18.512  27.352  1.00  0.00    -0.237 OA
ATOM     71  O   UNL A   1      40.663  19.312  25.871  1.00  0.00    -0.237 OA
ATOM     72  O   UNL A   1      42.883  18.799  24.934  1.00  0.00    -0.744 OA
ENDBRANCH  68  69
ENDBRANCH  40  63
BRANCH  52  73
ATOM     73  C   UNL A   1      49.555  26.814  26.218  1.00  0.00    -0.014 A 
ATOM     74  C   UNL A   1      50.421  26.219  27.153  1.00  0.00     0.010 A 
ATOM     75  C   UNL A   1      49.977  26.938  24.880  1.00  0.00     0.010 A 
ATOM     76  C   UNL A   1      51.699  25.802  26.768  1.00  0.00     0.020 A 
ATOM     77  C   UNL A   1      51.239  26.491  24.484  1.00  0.00     0.020 A 
ATOM     78  C   UNL A   1      52.101  25.944  25.437  1.00  0.00     0.054 A 
BRANCH  78  79
ATOM     79  S   UNL A   1      53.755  25.377  24.957  1.00  0.00     0.124 S 
ATOM     80  O   UNL A   1      53.984  26.118  23.719  1.00  0.00    -0.237 OA
ATOM     81  O   UNL A   1      54.576  25.785  26.095  1.00  0.00    -0.237 OA
ATOM     82  O   UNL A   1      53.596  23.933  24.798  1.00  0.00    -0.744 OA
ENDBRANCH  78  79
ENDBRANCH  52  73
ENDBRANCH  26  27
ENDBRANCH  18  21
ENDBRANCH  16  17
ENDBRANCH   1  16
TORSDOF 15
ENDMDL
