MODEL 1
REMARK VINA RESULT:     -12.3      0.000      0.000
REMARK SMILES COc1ccc2c(c1)c(CC(=O)NCCCCNC(=O)c1ccc(-c3c4nc(c(-c5ccc(S(=O)(=O)[O-])cc5)c5ccc([nH]5)c(-c5ccc(S(=O)(=O)[O-])cc5)c5nc(c(-c6ccc(S(=O)(=O)[O-])cc6)c6ccc3[nH]6)C=C5)C=C4)cc1)c(C(F)(F)F)n2C(=O)c1ccc(Cl)cc1
REMARK SMILES IDX 15 1 14 2 13 3 11 4 12 5 10 7 9 8 3 9 4 10 8 11 5 12 7 13
REMARK SMILES IDX 6 14 86 15 81 16 2 17 1 18 87 19 88 20 89 21 90 22 95 23
REMARK SMILES IDX 91 24 94 25 92 26 93 27 82 28 83 29 84 30 85 31 16 32 17 33
REMARK SMILES IDX 18 34 19 35 20 37 21 38 22 39 80 40 23 41 79 42 24 43 25 44
REMARK SMILES IDX 26 45 73 46 27 47 78 48 72 49 74 50 28 51 77 52 71 53 70 54
REMARK SMILES IDX 29 56 59 57 40 58 58 59 41 60 44 61 57 62 75 63 42 64 43 65
REMARK SMILES IDX 56 67 76 68 45 69 30 70 31 71 39 72 32 73 38 74 33 75 34 76
REMARK SMILES IDX 35 77 36 78 37 79 60 80 61 81 69 82 62 83 68 84 63 85 64 86
REMARK SMILES IDX 65 87 66 88 67 89 46 90 47 91 55 92 48 93 54 94 49 95 50 96
REMARK SMILES IDX 51 97 52 98 53 99
REMARK H PARENT 13 6 18 36 74 55 44 66
REMARK Flexibility Score: inf
ROOT
ATOM      1  C   UNL A   1      32.281  29.730  27.113  1.00  0.00     0.023 C 
ENDROOT
BRANCH   1   2
ATOM      2  C   UNL A   1      31.836  28.502  26.325  1.00  0.00     0.116 C 
BRANCH   2   3
ATOM      3  N   UNL A   1      32.688  28.246  25.180  1.00  0.00    -0.356 N 
ATOM      4  C   UNL A   1      33.318  27.086  24.828  1.00  0.00     0.224 C 
ATOM      5  O   UNL A   1      33.951  27.054  23.771  1.00  0.00    -0.275 OA
ATOM      6  H   UNL A   1      32.832  29.010  24.576  1.00  0.00     0.163 HD
BRANCH   4   7
ATOM      7  C   UNL A   1      33.175  25.849  25.703  1.00  0.00     0.138 C 
BRANCH   7   8
ATOM      8  C   UNL A   1      33.527  24.570  24.994  1.00  0.00     0.000 A 
ATOM      9  C   UNL A   1      37.105  23.352  25.547  1.00  0.00     0.119 A 
ATOM     10  C   UNL A   1      37.019  22.255  24.703  1.00  0.00     0.048 A 
ATOM     11  C   UNL A   1      35.986  24.168  25.732  1.00  0.00     0.057 A 
ATOM     12  C   UNL A   1      35.828  21.959  24.030  1.00  0.00     0.031 A 
ATOM     13  C   UNL A   1      34.775  23.892  25.060  1.00  0.00     0.008 A 
ATOM     14  C   UNL A   1      34.692  22.763  24.239  1.00  0.00     0.057 A 
ATOM     15  N   UNL A   1      33.358  22.645  23.825  1.00  0.00    -0.271 N 
ATOM     16  C   UNL A   1      32.737  23.867  24.088  1.00  0.00     0.135 A 
BRANCH   9  17
ATOM     17  O   UNL A   1      38.215  23.728  26.251  1.00  0.00    -0.497 OA
ATOM     18  C   UNL A   1      39.237  22.744  26.372  1.00  0.00     0.278 C 
ENDBRANCH   9  17
BRANCH  15  19
ATOM     19  C   UNL A   1      32.730  21.499  23.268  1.00  0.00     0.262 C 
ATOM     20  O   UNL A   1      32.119  21.635  22.210  1.00  0.00    -0.268 OA
BRANCH  19  21
ATOM     21  C   UNL A   1      32.750  20.151  23.857  1.00  0.00     0.040 A 
ATOM     22  C   UNL A   1      32.609  19.011  23.056  1.00  0.00     0.015 A 
ATOM     23  C   UNL A   1      32.857  20.042  25.249  1.00  0.00     0.015 A 
ATOM     24  C   UNL A   1      32.496  17.757  23.665  1.00  0.00     0.021 A 
ATOM     25  C   UNL A   1      32.754  18.787  25.847  1.00  0.00     0.021 A 
ATOM     26  C   UNL A   1      32.557  17.653  25.055  1.00  0.00     0.041 A 
ATOM     27  Cl  UNL A   1      32.364  16.123  25.817  1.00  0.00    -0.084 Cl
ENDBRANCH  19  21
ENDBRANCH  15  19
BRANCH  16  28
ATOM     28  C   UNL A   1      31.424  24.247  23.492  1.00  0.00     0.432 C 
ATOM     29  F   UNL A   1      30.494  23.273  23.624  1.00  0.00    -0.165 F 
ATOM     30  F   UNL A   1      30.914  25.338  24.136  1.00  0.00    -0.165 F 
ATOM     31  F   UNL A   1      31.496  24.617  22.191  1.00  0.00    -0.165 F 
ENDBRANCH  16  28
ENDBRANCH   7   8
ENDBRANCH   4   7
ENDBRANCH   2   3
ENDBRANCH   1   2
BRANCH   1  32
ATOM     32  C   UNL A   1      33.790  29.805  27.376  1.00  0.00     0.023 C 
BRANCH  32  33
ATOM     33  C   UNL A   1      34.364  31.222  27.463  1.00  0.00     0.116 C 
BRANCH  33  34
ATOM     34  N   UNL A   1      34.297  31.807  28.789  1.00  0.00    -0.352 N 
ATOM     35  C   UNL A   1      35.187  31.938  29.821  1.00  0.00     0.251 C 
ATOM     36  H   UNL A   1      33.415  32.195  28.991  1.00  0.00     0.163 HD
ATOM     37  O   UNL A   1      34.835  32.677  30.746  1.00  0.00    -0.269 OA
BRANCH  35  38
ATOM     38  C   UNL A   1      36.495  31.231  29.924  1.00  0.00     0.039 A 
ATOM     39  C   UNL A   1      37.744  31.836  29.817  1.00  0.00     0.014 A 
ATOM     40  C   UNL A   1      36.445  29.830  30.067  1.00  0.00     0.014 A 
ATOM     41  C   UNL A   1      38.900  31.068  29.769  1.00  0.00     0.010 A 
ATOM     42  C   UNL A   1      37.605  29.054  30.040  1.00  0.00     0.010 A 
ATOM     43  C   UNL A   1      38.833  29.674  29.850  1.00  0.00    -0.014 A 
BRANCH  43  44
ATOM     44  C   UNL A   1      40.103  28.955  29.786  1.00  0.00     0.031 A 
ATOM     45  C   UNL A   1      40.813  28.789  31.086  1.00  0.00     0.074 A 
ATOM     46  C   UNL A   1      40.641  28.435  28.667  1.00  0.00     0.049 A 
ATOM     47  N   UNL A   1      41.951  29.291  31.442  1.00  0.00    -0.248 NA
ATOM     48  C   UNL A   1      40.118  28.051  32.149  1.00  0.00     0.031 C 
ATOM     49  C   UNL A   1      40.010  28.243  27.359  1.00  0.00     0.029 A 
ATOM     50  N   UNL A   1      41.879  27.886  28.502  1.00  0.00    -0.354 N 
ATOM     51  C   UNL A   1      42.195  28.818  32.729  1.00  0.00     0.074 A 
ATOM     52  C   UNL A   1      40.991  28.147  33.152  1.00  0.00     0.031 C 
ATOM     53  C   UNL A   1      40.787  27.428  26.608  1.00  0.00     0.029 A 
ATOM     54  C   UNL A   1      42.031  27.185  27.318  1.00  0.00     0.049 A 
ATOM     55  H   UNL A   1      42.600  27.980  29.166  1.00  0.00     0.167 HD
ATOM     56  C   UNL A   1      43.423  28.879  33.316  1.00  0.00     0.031 A 
ATOM     57  C   UNL A   1      43.091  26.421  26.965  1.00  0.00     0.031 A 
ATOM     58  C   UNL A   1      44.310  29.778  32.634  1.00  0.00     0.049 A 
ATOM     59  C   UNL A   1      44.265  26.881  27.738  1.00  0.00     0.074 A 
ATOM     60  C   UNL A   1      44.383  31.145  32.475  1.00  0.00     0.029 A 
ATOM     61  N   UNL A   1      45.139  29.223  31.692  1.00  0.00    -0.354 N 
ATOM     62  N   UNL A   1      44.819  28.051  27.585  1.00  0.00    -0.248 NA
ATOM     63  C   UNL A   1      44.672  26.153  28.930  1.00  0.00     0.031 C 
ATOM     64  C   UNL A   1      44.967  31.347  31.192  1.00  0.00     0.029 A 
ATOM     65  C   UNL A   1      45.249  30.096  30.636  1.00  0.00     0.049 A 
ATOM     66  H   UNL A   1      45.581  28.346  31.760  1.00  0.00     0.167 HD
ATOM     67  C   UNL A   1      45.309  28.378  28.836  1.00  0.00     0.074 A 
ATOM     68  C   UNL A   1      45.335  27.119  29.570  1.00  0.00     0.031 C 
ATOM     69  C   UNL A   1      45.382  29.677  29.250  1.00  0.00     0.031 A 
BRANCH  56  70
ATOM     70  C   UNL A   1      43.910  27.899  34.352  1.00  0.00    -0.014 A 
ATOM     71  C   UNL A   1      43.595  26.526  34.295  1.00  0.00     0.010 A 
ATOM     72  C   UNL A   1      44.896  28.289  35.281  1.00  0.00     0.010 A 
ATOM     73  C   UNL A   1      44.190  25.592  35.145  1.00  0.00     0.020 A 
ATOM     74  C   UNL A   1      45.533  27.352  36.111  1.00  0.00     0.020 A 
ATOM     75  C   UNL A   1      45.165  26.009  36.043  1.00  0.00     0.054 A 
BRANCH  75  76
ATOM     76  S   UNL A   1      45.989  24.748  37.048  1.00  0.00     0.124 S 
ATOM     77  O   UNL A   1      46.336  23.744  36.045  1.00  0.00    -0.237 OA
ATOM     78  O   UNL A   1      47.114  25.486  37.616  1.00  0.00    -0.237 OA
ATOM     79  O   UNL A   1      44.963  24.346  38.005  1.00  0.00    -0.744 OA
ENDBRANCH  75  76
ENDBRANCH  56  70
BRANCH  57  80
ATOM     80  C   UNL A   1      43.047  25.093  26.307  1.00  0.00    -0.014 A 
ATOM     81  C   UNL A   1      42.734  23.950  27.070  1.00  0.00     0.010 A 
ATOM     82  C   UNL A   1      43.622  24.905  25.037  1.00  0.00     0.010 A 
ATOM     83  C   UNL A   1      43.065  22.668  26.624  1.00  0.00     0.020 A 
ATOM     84  C   UNL A   1      43.959  23.621  24.583  1.00  0.00     0.020 A 
ATOM     85  C   UNL A   1      43.715  22.516  25.400  1.00  0.00     0.054 A 
BRANCH  85  86
ATOM     86  S   UNL A   1      44.319  20.863  24.952  1.00  0.00     0.124 S 
ATOM     87  O   UNL A   1      44.488  20.986  23.507  1.00  0.00    -0.237 OA
ATOM     88  O   UNL A   1      45.557  20.762  25.722  1.00  0.00    -0.237 OA
ATOM     89  O   UNL A   1      43.246  19.973  25.383  1.00  0.00    -0.744 OA
ENDBRANCH  85  86
ENDBRANCH  57  80
BRANCH  69  90
ATOM     90  C   UNL A   1      45.317  30.773  28.206  1.00  0.00    -0.014 A 
ATOM     91  C   UNL A   1      46.528  31.363  27.797  1.00  0.00     0.010 A 
ATOM     92  C   UNL A   1      44.111  31.339  27.745  1.00  0.00     0.010 A 
ATOM     93  C   UNL A   1      46.539  32.506  26.993  1.00  0.00     0.020 A 
ATOM     94  C   UNL A   1      44.115  32.469  26.914  1.00  0.00     0.020 A 
ATOM     95  C   UNL A   1      45.331  33.062  26.567  1.00  0.00     0.054 A 
BRANCH  95  96
ATOM     96  S   UNL A   1      45.383  34.589  25.588  1.00  0.00     0.124 S 
ATOM     97  O   UNL A   1      44.916  34.136  24.280  1.00  0.00    -0.237 OA
ATOM     98  O   UNL A   1      44.463  35.467  26.307  1.00  0.00    -0.237 OA
ATOM     99  O   UNL A   1      46.787  34.995  25.632  1.00  0.00    -0.744 OA
ENDBRANCH  95  96
ENDBRANCH  69  90
ENDBRANCH  43  44
ENDBRANCH  35  38
ENDBRANCH  33  34
ENDBRANCH  32  33
ENDBRANCH   1  32
TORSDOF 19
ENDMDL
MODEL 2
REMARK VINA RESULT:     -12.1      1.841      2.956
REMARK SMILES COc1ccc2c(c1)c(CC(=O)NCCCCNC(=O)c1ccc(-c3c4nc(c(-c5ccc(S(=O)(=O)[O-])cc5)c5ccc([nH]5)c(-c5ccc(S(=O)(=O)[O-])cc5)c5nc(c(-c6ccc(S(=O)(=O)[O-])cc6)c6ccc3[nH]6)C=C5)C=C4)cc1)c(C(F)(F)F)n2C(=O)c1ccc(Cl)cc1
REMARK SMILES IDX 15 1 14 2 13 3 11 4 12 5 10 7 9 8 3 9 4 10 8 11 5 12 7 13
REMARK SMILES IDX 6 14 86 15 81 16 2 17 1 18 87 19 88 20 89 21 90 22 95 23
REMARK SMILES IDX 91 24 94 25 92 26 93 27 82 28 83 29 84 30 85 31 16 32 17 33
REMARK SMILES IDX 18 34 19 35 20 37 21 38 22 39 80 40 23 41 79 42 24 43 25 44
REMARK SMILES IDX 26 45 73 46 27 47 78 48 72 49 74 50 28 51 77 52 71 53 70 54
REMARK SMILES IDX 29 56 59 57 40 58 58 59 41 60 44 61 57 62 75 63 42 64 43 65
REMARK SMILES IDX 56 67 76 68 45 69 30 70 31 71 39 72 32 73 38 74 33 75 34 76
REMARK SMILES IDX 35 77 36 78 37 79 60 80 61 81 69 82 62 83 68 84 63 85 64 86
REMARK SMILES IDX 65 87 66 88 67 89 46 90 47 91 55 92 48 93 54 94 49 95 50 96
REMARK SMILES IDX 51 97 52 98 53 99
REMARK H PARENT 13 6 18 36 74 55 44 66
REMARK Flexibility Score: inf
ROOT
ATOM      1  C   UNL A   1      32.565  30.934  26.950  1.00  0.00     0.023 C 
ENDROOT
BRANCH   1   2
ATOM      2  C   UNL A   1      32.033  30.153  25.753  1.00  0.00     0.116 C 
BRANCH   2   3
ATOM      3  N   UNL A   1      33.098  29.667  24.897  1.00  0.00    -0.356 N 
ATOM      4  C   UNL A   1      33.122  28.544  24.121  1.00  0.00     0.224 C 
ATOM      5  O   UNL A   1      34.106  28.339  23.408  1.00  0.00    -0.275 OA
ATOM      6  H   UNL A   1      33.912  30.221  24.873  1.00  0.00     0.163 HD
BRANCH   4   7
ATOM      7  C   UNL A   1      31.920  27.610  24.099  1.00  0.00     0.138 C 
BRANCH   7   8
ATOM      8  C   UNL A   1      32.290  26.163  23.929  1.00  0.00     0.000 A 
ATOM      9  C   UNL A   1      32.901  25.068  20.320  1.00  0.00     0.119 A 
ATOM     10  C   UNL A   1      33.128  23.731  20.609  1.00  0.00     0.048 A 
ATOM     11  C   UNL A   1      32.642  25.963  21.361  1.00  0.00     0.057 A 
ATOM     12  C   UNL A   1      33.095  23.265  21.928  1.00  0.00     0.031 A 
ATOM     13  C   UNL A   1      32.598  25.516  22.700  1.00  0.00     0.008 A 
ATOM     14  C   UNL A   1      32.862  24.171  22.980  1.00  0.00     0.057 A 
ATOM     15  N   UNL A   1      32.903  24.035  24.374  1.00  0.00    -0.271 N 
ATOM     16  C   UNL A   1      32.318  25.181  24.916  1.00  0.00     0.135 A 
BRANCH   9  17
ATOM     17  O   UNL A   1      32.913  25.625  19.072  1.00  0.00    -0.497 OA
ATOM     18  C   UNL A   1      31.785  25.337  18.252  1.00  0.00     0.278 C 
ENDBRANCH   9  17
BRANCH  15  19
ATOM     19  C   UNL A   1      33.455  22.957  25.116  1.00  0.00     0.262 C 
ATOM     20  O   UNL A   1      32.687  22.092  25.533  1.00  0.00    -0.268 OA
BRANCH  19  21
ATOM     21  C   UNL A   1      34.883  22.786  25.429  1.00  0.00     0.040 A 
ATOM     22  C   UNL A   1      35.671  23.876  25.818  1.00  0.00     0.015 A 
ATOM     23  C   UNL A   1      35.443  21.513  25.273  1.00  0.00     0.015 A 
ATOM     24  C   UNL A   1      37.050  23.701  25.975  1.00  0.00     0.021 A 
ATOM     25  C   UNL A   1      36.817  21.346  25.442  1.00  0.00     0.021 A 
ATOM     26  C   UNL A   1      37.616  22.441  25.774  1.00  0.00     0.041 A 
ATOM     27  Cl  UNL A   1      39.318  22.227  25.910  1.00  0.00    -0.084 Cl
ENDBRANCH  19  21
ENDBRANCH  15  19
BRANCH  16  28
ATOM     28  C   UNL A   1      31.875  25.263  26.337  1.00  0.00     0.432 C 
ATOM     29  F   UNL A   1      31.917  26.527  26.820  1.00  0.00    -0.165 F 
ATOM     30  F   UNL A   1      30.573  24.868  26.447  1.00  0.00    -0.165 F 
ATOM     31  F   UNL A   1      32.556  24.446  27.175  1.00  0.00    -0.165 F 
ENDBRANCH  16  28
ENDBRANCH   7   8
ENDBRANCH   4   7
ENDBRANCH   2   3
ENDBRANCH   1   2
BRANCH   1  32
ATOM     32  C   UNL A   1      34.008  30.593  27.342  1.00  0.00     0.023 C 
BRANCH  32  33
ATOM     33  C   UNL A   1      34.812  31.754  27.934  1.00  0.00     0.116 C 
BRANCH  33  34
ATOM     34  N   UNL A   1      34.608  31.950  29.357  1.00  0.00    -0.352 N 
ATOM     35  C   UNL A   1      35.394  31.785  30.466  1.00  0.00     0.251 C 
ATOM     36  H   UNL A   1      33.703  32.272  29.572  1.00  0.00     0.163 HD
ATOM     37  O   UNL A   1      34.941  32.242  31.520  1.00  0.00    -0.269 OA
BRANCH  35  38
ATOM     38  C   UNL A   1      36.701  31.070  30.496  1.00  0.00     0.039 A 
ATOM     39  C   UNL A   1      37.950  31.678  30.409  1.00  0.00     0.014 A 
ATOM     40  C   UNL A   1      36.648  29.662  30.541  1.00  0.00     0.014 A 
ATOM     41  C   UNL A   1      39.102  30.913  30.286  1.00  0.00     0.010 A 
ATOM     42  C   UNL A   1      37.805  28.888  30.438  1.00  0.00     0.010 A 
ATOM     43  C   UNL A   1      39.032  29.517  30.270  1.00  0.00    -0.014 A 
BRANCH  43  44
ATOM     44  C   UNL A   1      40.298  28.801  30.134  1.00  0.00     0.031 A 
ATOM     45  C   UNL A   1      41.106  28.681  31.380  1.00  0.00     0.074 A 
ATOM     46  C   UNL A   1      40.752  28.246  28.994  1.00  0.00     0.049 A 
ATOM     47  N   UNL A   1      42.264  29.199  31.632  1.00  0.00    -0.248 NA
ATOM     48  C   UNL A   1      40.499  27.976  32.517  1.00  0.00     0.031 C 
ATOM     49  C   UNL A   1      40.025  28.008  27.745  1.00  0.00     0.029 A 
ATOM     50  N   UNL A   1      41.977  27.697  28.754  1.00  0.00    -0.354 N 
ATOM     51  C   UNL A   1      42.609  28.771  32.911  1.00  0.00     0.074 A 
ATOM     52  C   UNL A   1      41.445  28.110  33.446  1.00  0.00     0.031 C 
ATOM     53  C   UNL A   1      40.747  27.172  26.965  1.00  0.00     0.029 A 
ATOM     54  C   UNL A   1      42.044  26.958  27.585  1.00  0.00     0.049 A 
ATOM     55  H   UNL A   1      42.747  27.816  29.357  1.00  0.00     0.167 HD
ATOM     56  C   UNL A   1      43.878  28.856  33.400  1.00  0.00     0.031 A 
ATOM     57  C   UNL A   1      43.078  26.186  27.177  1.00  0.00     0.031 A 
ATOM     58  C   UNL A   1      44.705  29.736  32.623  1.00  0.00     0.049 A 
ATOM     59  C   UNL A   1      44.305  26.677  27.843  1.00  0.00     0.074 A 
ATOM     60  C   UNL A   1      44.756  31.097  32.414  1.00  0.00     0.029 A 
ATOM     61  N   UNL A   1      45.463  29.152  31.639  1.00  0.00    -0.354 N 
ATOM     62  N   UNL A   1      44.838  27.843  27.609  1.00  0.00    -0.248 NA
ATOM     63  C   UNL A   1      44.806  25.990  29.024  1.00  0.00     0.031 C 
ATOM     64  C   UNL A   1      45.239  31.258  31.084  1.00  0.00     0.029 A 
ATOM     65  C   UNL A   1      45.486  29.990  30.550  1.00  0.00     0.049 A 
ATOM     66  H   UNL A   1      45.914  28.280  31.702  1.00  0.00     0.167 HD
ATOM     67  C   UNL A   1      45.420  28.213  28.808  1.00  0.00     0.074 A 
ATOM     68  C   UNL A   1      45.510  26.980  29.579  1.00  0.00     0.031 C 
ATOM     69  C   UNL A   1      45.516  29.526  29.172  1.00  0.00     0.031 A 
BRANCH  56  70
ATOM     70  C   UNL A   1      44.449  27.914  34.427  1.00  0.00    -0.014 A 
ATOM     71  C   UNL A   1      44.812  28.341  35.721  1.00  0.00     0.010 A 
ATOM     72  C   UNL A   1      44.414  26.522  34.202  1.00  0.00     0.010 A 
ATOM     73  C   UNL A   1      45.168  27.442  36.728  1.00  0.00     0.020 A 
ATOM     74  C   UNL A   1      44.729  25.607  35.220  1.00  0.00     0.020 A 
ATOM     75  C   UNL A   1      45.115  26.077  36.475  1.00  0.00     0.054 A 
BRANCH  75  76
ATOM     76  S   UNL A   1      45.478  24.945  37.840  1.00  0.00     0.124 S 
ATOM     77  O   UNL A   1      44.500  25.360  38.843  1.00  0.00    -0.237 OA
ATOM     78  O   UNL A   1      45.243  23.637  37.235  1.00  0.00    -0.237 OA
ATOM     79  O   UNL A   1      46.871  25.236  38.168  1.00  0.00    -0.744 OA
ENDBRANCH  75  76
ENDBRANCH  56  70
BRANCH  57  80
ATOM     80  C   UNL A   1      42.994  24.837  26.569  1.00  0.00    -0.014 A 
ATOM     81  C   UNL A   1      43.035  23.697  27.398  1.00  0.00     0.010 A 
ATOM     82  C   UNL A   1      43.201  24.661  25.189  1.00  0.00     0.010 A 
ATOM     83  C   UNL A   1      43.362  22.440  26.885  1.00  0.00     0.020 A 
ATOM     84  C   UNL A   1      43.532  23.401  24.667  1.00  0.00     0.020 A 
ATOM     85  C   UNL A   1      43.650  22.308  25.527  1.00  0.00     0.054 A 
BRANCH  85  86
ATOM     86  S   UNL A   1      44.278  20.710  24.937  1.00  0.00     0.124 S 
ATOM     87  O   UNL A   1      44.481  20.973  23.515  1.00  0.00    -0.237 OA
ATOM     88  O   UNL A   1      45.497  20.541  25.724  1.00  0.00    -0.237 OA
ATOM     89  O   UNL A   1      43.201  19.777  25.253  1.00  0.00    -0.744 OA
ENDBRANCH  85  86
ENDBRANCH  57  80
BRANCH  69  90
ATOM     90  C   UNL A   1      45.364  30.586  28.101  1.00  0.00    -0.014 A 
ATOM     91  C   UNL A   1      46.536  31.166  27.580  1.00  0.00     0.010 A 
ATOM     92  C   UNL A   1      44.123  31.132  27.716  1.00  0.00     0.010 A 
ATOM     93  C   UNL A   1      46.479  32.281  26.741  1.00  0.00     0.020 A 
ATOM     94  C   UNL A   1      44.057  32.234  26.849  1.00  0.00     0.020 A 
ATOM     95  C   UNL A   1      45.238  32.820  26.390  1.00  0.00     0.054 A 
BRANCH  95  96
ATOM     96  S   UNL A   1      45.206  34.312  25.360  1.00  0.00     0.124 S 
ATOM     97  O   UNL A   1      46.628  34.592  25.174  1.00  0.00    -0.237 OA
ATOM     98  O   UNL A   1      44.498  33.865  24.163  1.00  0.00    -0.237 OA
ATOM     99  O   UNL A   1      44.488  35.293  26.173  1.00  0.00    -0.744 OA
ENDBRANCH  95  96
ENDBRANCH  69  90
ENDBRANCH  43  44
ENDBRANCH  35  38
ENDBRANCH  33  34
ENDBRANCH  32  33
ENDBRANCH   1  32
TORSDOF 19
ENDMDL
MODEL 3
REMARK VINA RESULT:     -12.1      3.202      9.443
REMARK SMILES COc1ccc2c(c1)c(CC(=O)NCCCCNC(=O)c1ccc(-c3c4nc(c(-c5ccc(S(=O)(=O)[O-])cc5)c5ccc([nH]5)c(-c5ccc(S(=O)(=O)[O-])cc5)c5nc(c(-c6ccc(S(=O)(=O)[O-])cc6)c6ccc3[nH]6)C=C5)C=C4)cc1)c(C(F)(F)F)n2C(=O)c1ccc(Cl)cc1
REMARK SMILES IDX 15 1 14 2 13 3 11 4 12 5 10 7 9 8 3 9 4 10 8 11 5 12 7 13
REMARK SMILES IDX 6 14 86 15 81 16 2 17 1 18 87 19 88 20 89 21 90 22 95 23
REMARK SMILES IDX 91 24 94 25 92 26 93 27 82 28 83 29 84 30 85 31 16 32 17 33
REMARK SMILES IDX 18 34 19 35 20 37 21 38 22 39 80 40 23 41 79 42 24 43 25 44
REMARK SMILES IDX 26 45 73 46 27 47 78 48 72 49 74 50 28 51 77 52 71 53 70 54
REMARK SMILES IDX 29 56 59 57 40 58 58 59 41 60 44 61 57 62 75 63 42 64 43 65
REMARK SMILES IDX 56 67 76 68 45 69 30 70 31 71 39 72 32 73 38 74 33 75 34 76
REMARK SMILES IDX 35 77 36 78 37 79 60 80 61 81 69 82 62 83 68 84 63 85 64 86
REMARK SMILES IDX 65 87 66 88 67 89 46 90 47 91 55 92 48 93 54 94 49 95 50 96
REMARK SMILES IDX 51 97 52 98 53 99
REMARK H PARENT 13 6 18 36 74 55 44 66
REMARK Flexibility Score: inf
ROOT
ATOM      1  C   UNL A   1      40.440  20.221  26.196  1.00  0.00     0.023 C 
ENDROOT
BRANCH   1   2
ATOM      2  C   UNL A   1      39.366  21.293  26.353  1.00  0.00     0.116 C 
BRANCH   2   3
ATOM      3  N   UNL A   1      38.725  21.615  25.093  1.00  0.00    -0.356 N 
ATOM      4  C   UNL A   1      37.392  21.756  24.826  1.00  0.00     0.224 C 
ATOM      5  O   UNL A   1      37.050  22.101  23.693  1.00  0.00    -0.275 OA
ATOM      6  H   UNL A   1      39.330  21.752  24.329  1.00  0.00     0.163 HD
BRANCH   4   7
ATOM      7  C   UNL A   1      36.370  21.550  25.935  1.00  0.00     0.138 C 
BRANCH   7   8
ATOM      8  C   UNL A   1      34.947  21.568  25.448  1.00  0.00     0.000 A 
ATOM      9  C   UNL A   1      33.698  18.264  23.994  1.00  0.00     0.119 A 
ATOM     10  C   UNL A   1      32.446  18.729  23.626  1.00  0.00     0.048 A 
ATOM     11  C   UNL A   1      34.593  19.126  24.633  1.00  0.00     0.057 A 
ATOM     12  C   UNL A   1      32.067  20.052  23.881  1.00  0.00     0.031 A 
ATOM     13  C   UNL A   1      34.236  20.467  24.896  1.00  0.00     0.008 A 
ATOM     14  C   UNL A   1      32.957  20.913  24.551  1.00  0.00     0.057 A 
ATOM     15  N   UNL A   1      32.819  22.214  25.054  1.00  0.00    -0.271 N 
ATOM     16  C   UNL A   1      34.100  22.671  25.369  1.00  0.00     0.135 A 
BRANCH   9  17
ATOM     17  O   UNL A   1      34.166  16.994  23.794  1.00  0.00    -0.497 OA
ATOM     18  C   UNL A   1      33.480  15.963  24.497  1.00  0.00     0.278 C 
ENDBRANCH   9  17
BRANCH  15  19
ATOM     19  C   UNL A   1      31.611  22.938  25.243  1.00  0.00     0.262 C 
ATOM     20  O   UNL A   1      30.830  22.537  26.104  1.00  0.00    -0.268 OA
BRANCH  19  21
ATOM     21  C   UNL A   1      31.213  24.136  24.488  1.00  0.00     0.040 A 
ATOM     22  C   UNL A   1      31.533  24.273  23.132  1.00  0.00     0.015 A 
ATOM     23  C   UNL A   1      30.556  25.160  25.179  1.00  0.00     0.015 A 
ATOM     24  C   UNL A   1      31.259  25.482  22.483  1.00  0.00     0.021 A 
ATOM     25  C   UNL A   1      30.277  26.359  24.522  1.00  0.00     0.021 A 
ATOM     26  C   UNL A   1      30.645  26.521  23.185  1.00  0.00     0.041 A 
ATOM     27  Cl  UNL A   1      30.354  28.031  22.413  1.00  0.00    -0.084 Cl
ENDBRANCH  19  21
ENDBRANCH  15  19
BRANCH  16  28
ATOM     28  C   UNL A   1      34.404  24.110  25.612  1.00  0.00     0.432 C 
ATOM     29  F   UNL A   1      33.647  24.638  26.603  1.00  0.00    -0.165 F 
ATOM     30  F   UNL A   1      35.700  24.255  26.018  1.00  0.00    -0.165 F 
ATOM     31  F   UNL A   1      34.298  24.889  24.510  1.00  0.00    -0.165 F 
ENDBRANCH  16  28
ENDBRANCH   7   8
ENDBRANCH   4   7
ENDBRANCH   2   3
ENDBRANCH   1   2
BRANCH   1  32
ATOM     32  C   UNL A   1      41.862  20.767  26.021  1.00  0.00     0.023 C 
BRANCH  32  33
ATOM     33  C   UNL A   1      41.946  22.197  25.476  1.00  0.00     0.116 C 
BRANCH  33  34
ATOM     34  N   UNL A   1      43.300  22.689  25.315  1.00  0.00    -0.352 N 
ATOM     35  C   UNL A   1      43.978  23.789  25.771  1.00  0.00     0.251 C 
ATOM     36  H   UNL A   1      43.856  22.103  24.752  1.00  0.00     0.163 HD
ATOM     37  O   UNL A   1      45.198  23.784  25.589  1.00  0.00    -0.269 OA
BRANCH  35  38
ATOM     38  C   UNL A   1      43.352  24.979  26.414  1.00  0.00     0.039 A 
ATOM     39  C   UNL A   1      42.613  25.953  25.750  1.00  0.00     0.014 A 
ATOM     40  C   UNL A   1      43.600  25.154  27.791  1.00  0.00     0.014 A 
ATOM     41  C   UNL A   1      42.206  27.105  26.412  1.00  0.00     0.010 A 
ATOM     42  C   UNL A   1      43.177  26.300  28.465  1.00  0.00     0.010 A 
ATOM     43  C   UNL A   1      42.512  27.297  27.762  1.00  0.00    -0.014 A 
BRANCH  43  44
ATOM     44  C   UNL A   1      42.043  28.542  28.367  1.00  0.00     0.031 A 
ATOM     45  C   UNL A   1      43.006  29.678  28.325  1.00  0.00     0.074 A 
ATOM     46  C   UNL A   1      40.830  28.721  28.923  1.00  0.00     0.049 A 
ATOM     47  N   UNL A   1      43.588  30.266  29.320  1.00  0.00    -0.248 NA
ATOM     48  C   UNL A   1      43.444  30.149  27.004  1.00  0.00     0.031 C 
ATOM     49  C   UNL A   1      39.653  27.854  28.838  1.00  0.00     0.029 A 
ATOM     50  N   UNL A   1      40.379  29.795  29.632  1.00  0.00    -0.354 N 
ATOM     51  C   UNL A   1      44.362  31.283  28.767  1.00  0.00     0.074 A 
ATOM     52  C   UNL A   1      44.317  31.099  27.338  1.00  0.00     0.031 C 
ATOM     53  C   UNL A   1      38.570  28.534  29.279  1.00  0.00     0.029 A 
ATOM     54  C   UNL A   1      39.008  29.807  29.825  1.00  0.00     0.049 A 
ATOM     55  H   UNL A   1      40.975  30.499  29.978  1.00  0.00     0.167 HD
ATOM     56  C   UNL A   1      44.877  32.304  29.508  1.00  0.00     0.031 A 
ATOM     57  C   UNL A   1      38.277  30.815  30.356  1.00  0.00     0.031 A 
ATOM     58  C   UNL A   1      44.844  32.027  30.917  1.00  0.00     0.049 A 
ATOM     59  C   UNL A   1      39.175  31.636  31.198  1.00  0.00     0.074 A 
ATOM     60  C   UNL A   1      45.507  31.160  31.757  1.00  0.00     0.029 A 
ATOM     61  N   UNL A   1      43.754  32.496  31.607  1.00  0.00    -0.354 N 
ATOM     62  N   UNL A   1      39.729  31.207  32.297  1.00  0.00    -0.248 NA
ATOM     63  C   UNL A   1      39.724  32.875  30.669  1.00  0.00     0.031 C 
ATOM     64  C   UNL A   1      44.579  30.852  32.792  1.00  0.00     0.029 A 
ATOM     65  C   UNL A   1      43.401  31.565  32.553  1.00  0.00     0.049 A 
ATOM     66  H   UNL A   1      43.302  33.356  31.451  1.00  0.00     0.167 HD
ATOM     67  C   UNL A   1      40.938  31.874  32.368  1.00  0.00     0.074 A 
ATOM     68  C   UNL A   1      40.806  32.991  31.443  1.00  0.00     0.031 C 
ATOM     69  C   UNL A   1      42.029  31.301  32.957  1.00  0.00     0.031 A 
BRANCH  56  70
ATOM     70  C   UNL A   1      45.152  33.682  28.965  1.00  0.00    -0.014 A 
ATOM     71  C   UNL A   1      44.373  34.802  29.324  1.00  0.00     0.010 A 
ATOM     72  C   UNL A   1      46.349  33.937  28.265  1.00  0.00     0.010 A 
ATOM     73  C   UNL A   1      44.735  36.102  28.969  1.00  0.00     0.020 A 
ATOM     74  C   UNL A   1      46.745  35.244  27.939  1.00  0.00     0.020 A 
ATOM     75  C   UNL A   1      45.926  36.319  28.286  1.00  0.00     0.054 A 
BRANCH  75  76
ATOM     76  S   UNL A   1      46.409  38.029  27.942  1.00  0.00     0.124 S 
ATOM     77  O   UNL A   1      46.110  38.687  29.212  1.00  0.00    -0.237 OA
ATOM     78  O   UNL A   1      47.828  37.895  27.621  1.00  0.00    -0.237 OA
ATOM     79  O   UNL A   1      45.552  38.411  26.823  1.00  0.00    -0.744 OA
ENDBRANCH  75  76
ENDBRANCH  56  70
BRANCH  57  80
ATOM     80  C   UNL A   1      36.971  31.317  29.868  1.00  0.00    -0.014 A 
ATOM     81  C   UNL A   1      36.855  31.771  28.537  1.00  0.00     0.010 A 
ATOM     82  C   UNL A   1      35.950  31.654  30.775  1.00  0.00     0.010 A 
ATOM     83  C   UNL A   1      35.806  32.607  28.147  1.00  0.00     0.020 A 
ATOM     84  C   UNL A   1      34.895  32.495  30.389  1.00  0.00     0.020 A 
ATOM     85  C   UNL A   1      34.855  32.998  29.088  1.00  0.00     0.054 A 
BRANCH  85  86
ATOM     86  S   UNL A   1      33.635  34.251  28.601  1.00  0.00     0.124 S 
ATOM     87  O   UNL A   1      33.042  34.611  29.886  1.00  0.00    -0.237 OA
ATOM     88  O   UNL A   1      34.469  35.280  27.985  1.00  0.00    -0.237 OA
ATOM     89  O   UNL A   1      32.752  33.536  27.683  1.00  0.00    -0.744 OA
ENDBRANCH  85  86
ENDBRANCH  57  80
BRANCH  69  90
ATOM     90  C   UNL A   1      41.814  30.122  33.884  1.00  0.00    -0.014 A 
ATOM     91  C   UNL A   1      42.155  30.284  35.240  1.00  0.00     0.010 A 
ATOM     92  C   UNL A   1      41.448  28.836  33.437  1.00  0.00     0.010 A 
ATOM     93  C   UNL A   1      42.175  29.193  36.114  1.00  0.00     0.020 A 
ATOM     94  C   UNL A   1      41.438  27.743  34.316  1.00  0.00     0.020 A 
ATOM     95  C   UNL A   1      41.830  27.924  35.644  1.00  0.00     0.054 A 
BRANCH  95  96
ATOM     96  S   UNL A   1      41.941  26.522  36.789  1.00  0.00     0.124 S 
ATOM     97  O   UNL A   1      42.281  25.417  35.896  1.00  0.00    -0.237 OA
ATOM     98  O   UNL A   1      43.005  26.933  37.704  1.00  0.00    -0.237 OA
ATOM     99  O   UNL A   1      40.609  26.441  37.387  1.00  0.00    -0.744 OA
ENDBRANCH  95  96
ENDBRANCH  69  90
ENDBRANCH  43  44
ENDBRANCH  35  38
ENDBRANCH  33  34
ENDBRANCH  32  33
ENDBRANCH   1  32
TORSDOF 19
ENDMDL
