MODEL 1
REMARK VINA RESULT:      -8.8      0.000      0.000
REMARK SMILES Cc1noc(C)c1[C@H](C)NC(=O)NC[C@@](C)(O)C(=O)NCCCCNC(=O)c1ccc(-c2c3nc(c(-c4ccc(S(=O)(=O)[O-])cc4)c4ccc([nH]4)c(-c4ccc(S(=O)(=O)[O-])cc4)c4nc(c(-c5ccc(S(=O)(=O)[O-])cc5)c5ccc2[nH]5)C=C4)C=C3)cc1
REMARK SMILES IDX 22 1 21 2 20 3 18 4 19 5 15 7 16 8 14 9 13 10 10 11 11 12
REMARK SMILES IDX 12 14 8 16 9 17 7 18 1 19 2 20 3 21 4 22 5 23 6 24 17 25
REMARK SMILES IDX 23 27 24 28 25 29 26 30 27 32 28 33 29 34 87 35 30 36 86 37
REMARK SMILES IDX 31 38 32 39 33 40 80 41 34 42 85 43 79 44 81 45 35 46 84 47
REMARK SMILES IDX 78 48 77 49 36 51 66 52 47 53 65 54 48 55 51 56 64 57 82 58
REMARK SMILES IDX 49 59 50 60 63 62 83 63 52 64 37 65 38 66 46 67 39 68 45 69
REMARK SMILES IDX 40 70 41 71 42 72 43 73 44 74 67 75 68 76 76 77 69 78 75 79
REMARK SMILES IDX 70 80 71 81 72 82 73 83 74 84 53 85 54 86 62 87 55 88 61 89
REMARK SMILES IDX 56 90 57 91 58 92 59 93 60 94
REMARK H PARENT 20 6 10 13 13 15 17 26 25 31 81 50 51 61
REMARK Flexibility Score: inf
ROOT
ATOM      1  C   UNL A   1      42.938  22.724  28.440  1.00  0.00     0.023 C 
ENDROOT
BRANCH   1   2
ATOM      2  C   UNL A   1      43.561  23.693  27.438  1.00  0.00     0.116 C 
BRANCH   2   3
ATOM      3  N   UNL A   1      44.614  23.091  26.643  1.00  0.00    -0.354 N 
ATOM      4  C   UNL A   1      45.817  23.582  26.215  1.00  0.00     0.253 C 
ATOM      5  O   UNL A   1      46.557  22.760  25.675  1.00  0.00    -0.272 OA
ATOM      6  H   UNL A   1      44.431  22.166  26.363  1.00  0.00     0.163 HD
BRANCH   4   7
ATOM      7  C   UNL A   1      46.250  25.050  26.512  1.00  0.00     0.157 C 
ATOM      8  C   UNL A   1      47.678  25.209  25.961  1.00  0.00     0.055 C 
BRANCH   7   9
ATOM      9  C   UNL A   1      45.344  26.173  25.910  1.00  0.00     0.162 C 
BRANCH   9  10
ATOM     10  N   UNL A   1      45.823  26.949  24.785  1.00  0.00    -0.335 N 
ATOM     11  N   UNL A   1      46.539  29.046  25.630  1.00  0.00    -0.331 N 
ATOM     12  C   UNL A   1      46.317  28.185  24.631  1.00  0.00     0.315 C 
ATOM     13  H   UNL A   1      46.779  29.948  25.315  1.00  0.00     0.165 HD
ATOM     14  O   UNL A   1      46.605  28.543  23.486  1.00  0.00    -0.249 OA
ATOM     15  H   UNL A   1      45.774  26.452  23.936  1.00  0.00     0.165 HD
BRANCH  11  16
ATOM     16  C   UNL A   1      46.504  28.941  27.078  1.00  0.00     0.116 C 
ATOM     17  C   UNL A   1      47.939  28.924  27.604  1.00  0.00     0.036 C 
BRANCH  16  18
ATOM     18  C   UNL A   1      45.641  30.047  27.623  1.00  0.00     0.040 A 
ATOM     19  C   UNL A   1      43.314  29.287  26.675  1.00  0.00     0.071 C 
ATOM     20  C   UNL A   1      44.227  30.174  27.432  1.00  0.00     0.086 A 
ATOM     21  N   UNL A   1      43.733  31.239  28.068  1.00  0.00    -0.085 NA
ATOM     22  O   UNL A   1      44.801  31.825  28.700  1.00  0.00    -0.361 OA
ATOM     23  C   UNL A   1      45.933  31.117  28.451  1.00  0.00     0.139 A 
ATOM     24  C   UNL A   1      47.139  31.642  29.122  1.00  0.00     0.091 C 
ENDBRANCH  16  18
ENDBRANCH  11  16
ENDBRANCH   9  10
ENDBRANCH   7   9
BRANCH   7  25
ATOM     25  O   UNL A   1      46.269  25.289  27.931  1.00  0.00    -0.378 OA
ATOM     26  H   UNL A   1      45.503  24.859  28.342  1.00  0.00     0.212 HD
ENDBRANCH   7  25
ENDBRANCH   4   7
ENDBRANCH   2   3
ENDBRANCH   1   2
BRANCH   1  27
ATOM     27  C   UNL A   1      41.724  21.933  27.945  1.00  0.00     0.023 C 
BRANCH  27  28
ATOM     28  C   UNL A   1      41.501  21.897  26.434  1.00  0.00     0.116 C 
BRANCH  28  29
ATOM     29  N   UNL A   1      40.101  21.813  26.051  1.00  0.00    -0.352 N 
ATOM     30  C   UNL A   1      39.092  22.736  26.194  1.00  0.00     0.251 C 
ATOM     31  H   UNL A   1      39.836  20.967  25.622  1.00  0.00     0.163 HD
ATOM     32  O   UNL A   1      37.949  22.434  25.856  1.00  0.00    -0.269 OA
BRANCH  30  33
ATOM     33  C   UNL A   1      39.360  24.065  26.791  1.00  0.00     0.039 A 
ATOM     34  C   UNL A   1      38.902  24.317  28.088  1.00  0.00     0.014 A 
ATOM     35  C   UNL A   1      40.059  25.054  26.095  1.00  0.00     0.014 A 
ATOM     36  C   UNL A   1      39.217  25.525  28.716  1.00  0.00     0.010 A 
ATOM     37  C   UNL A   1      40.433  26.228  26.748  1.00  0.00     0.010 A 
ATOM     38  C   UNL A   1      40.025  26.473  28.068  1.00  0.00    -0.014 A 
BRANCH  38  39
ATOM     39  C   UNL A   1      40.483  27.703  28.768  1.00  0.00     0.031 A 
ATOM     40  C   UNL A   1      41.831  27.752  29.433  1.00  0.00     0.074 A 
ATOM     41  C   UNL A   1      39.647  28.755  28.876  1.00  0.00     0.049 A 
ATOM     42  N   UNL A   1      42.370  28.715  30.135  1.00  0.00    -0.248 NA
ATOM     43  C   UNL A   1      42.671  26.550  29.316  1.00  0.00     0.031 C 
ATOM     44  C   UNL A   1      38.291  28.817  28.326  1.00  0.00     0.029 A 
ATOM     45  N   UNL A   1      39.807  29.968  29.498  1.00  0.00    -0.354 N 
ATOM     46  C   UNL A   1      43.603  28.234  30.557  1.00  0.00     0.074 A 
ATOM     47  C   UNL A   1      43.708  26.873  30.073  1.00  0.00     0.031 C 
ATOM     48  C   UNL A   1      37.749  30.008  28.624  1.00  0.00     0.029 A 
ATOM     49  C   UNL A   1      38.701  30.780  29.416  1.00  0.00     0.049 A 
ATOM     50  H   UNL A   1      40.637  30.232  29.959  1.00  0.00     0.167 HD
ATOM     51  C   UNL A   1      44.568  28.868  31.268  1.00  0.00     0.031 A 
ATOM     52  C   UNL A   1      38.467  32.005  29.929  1.00  0.00     0.031 A 
ATOM     53  C   UNL A   1      44.458  30.217  31.756  1.00  0.00     0.049 A 
ATOM     54  C   UNL A   1      39.547  32.693  30.715  1.00  0.00     0.074 A 
ATOM     55  C   UNL A   1      45.403  30.968  32.433  1.00  0.00     0.029 A 
ATOM     56  N   UNL A   1      43.330  31.015  31.631  1.00  0.00    -0.354 N 
ATOM     57  N   UNL A   1      40.742  32.251  31.032  1.00  0.00    -0.248 NA
ATOM     58  C   UNL A   1      39.255  34.048  31.199  1.00  0.00     0.031 C 
ATOM     59  C   UNL A   1      44.828  32.201  32.764  1.00  0.00     0.029 A 
ATOM     60  C   UNL A   1      43.544  32.241  32.242  1.00  0.00     0.049 A 
ATOM     61  H   UNL A   1      42.499  30.751  31.175  1.00  0.00     0.167 HD
ATOM     62  C   UNL A   1      41.349  33.281  31.742  1.00  0.00     0.074 A 
ATOM     63  C   UNL A   1      40.397  34.373  31.791  1.00  0.00     0.031 C 
ATOM     64  C   UNL A   1      42.584  33.315  32.302  1.00  0.00     0.031 A 
BRANCH  51  65
ATOM     65  C   UNL A   1      45.820  28.085  31.573  1.00  0.00    -0.014 A 
ATOM     66  C   UNL A   1      47.057  28.439  31.001  1.00  0.00     0.010 A 
ATOM     67  C   UNL A   1      45.761  26.976  32.436  1.00  0.00     0.010 A 
ATOM     68  C   UNL A   1      48.193  27.657  31.227  1.00  0.00     0.020 A 
ATOM     69  C   UNL A   1      46.902  26.210  32.692  1.00  0.00     0.020 A 
ATOM     70  C   UNL A   1      48.104  26.538  32.061  1.00  0.00     0.054 A 
BRANCH  70  71
ATOM     71  S   UNL A   1      49.585  25.523  32.314  1.00  0.00     0.124 S 
ATOM     72  O   UNL A   1      49.782  24.945  30.987  1.00  0.00    -0.237 OA
ATOM     73  O   UNL A   1      50.585  26.505  32.724  1.00  0.00    -0.237 OA
ATOM     74  O   UNL A   1      49.184  24.577  33.352  1.00  0.00    -0.744 OA
ENDBRANCH  70  71
ENDBRANCH  51  65
BRANCH  52  75
ATOM     75  C   UNL A   1      37.148  32.650  29.693  1.00  0.00    -0.014 A 
ATOM     76  C   UNL A   1      36.191  32.714  30.720  1.00  0.00     0.010 A 
ATOM     77  C   UNL A   1      36.871  33.266  28.459  1.00  0.00     0.010 A 
ATOM     78  C   UNL A   1      34.983  33.391  30.520  1.00  0.00     0.020 A 
ATOM     79  C   UNL A   1      35.677  33.964  28.263  1.00  0.00     0.020 A 
ATOM     80  C   UNL A   1      34.738  34.021  29.296  1.00  0.00     0.054 A 
BRANCH  80  81
ATOM     81  S   UNL A   1      33.210  34.979  29.096  1.00  0.00     0.124 S 
ATOM     82  O   UNL A   1      33.718  36.273  28.652  1.00  0.00    -0.237 OA
ATOM     83  O   UNL A   1      32.482  34.206  28.092  1.00  0.00    -0.237 OA
ATOM     84  O   UNL A   1      32.617  34.961  30.432  1.00  0.00    -0.744 OA
ENDBRANCH  80  81
ENDBRANCH  52  75
BRANCH  64  85
ATOM     85  C   UNL A   1      42.988  34.583  33.009  1.00  0.00    -0.014 A 
ATOM     86  C   UNL A   1      42.836  34.720  34.401  1.00  0.00     0.010 A 
ATOM     87  C   UNL A   1      43.579  35.630  32.278  1.00  0.00     0.010 A 
ATOM     88  C   UNL A   1      43.241  35.892  35.043  1.00  0.00     0.020 A 
ATOM     89  C   UNL A   1      44.009  36.793  32.921  1.00  0.00     0.020 A 
ATOM     90  C   UNL A   1      43.825  36.923  34.299  1.00  0.00     0.054 A 
BRANCH  90  91
ATOM     91  S   UNL A   1      44.386  38.416  35.163  1.00  0.00     0.124 S 
ATOM     92  O   UNL A   1      45.838  38.297  35.064  1.00  0.00    -0.237 OA
ATOM     93  O   UNL A   1      43.788  39.489  34.373  1.00  0.00    -0.237 OA
ATOM     94  O   UNL A   1      43.839  38.263  36.510  1.00  0.00    -0.744 OA
ENDBRANCH  90  91
ENDBRANCH  64  85
ENDBRANCH  38  39
ENDBRANCH  30  33
ENDBRANCH  28  29
ENDBRANCH  27  28
ENDBRANCH   1  27
TORSDOF 19
ENDMDL
MODEL 2
REMARK VINA RESULT:      -8.7      4.678     11.952
REMARK SMILES Cc1noc(C)c1[C@H](C)NC(=O)NC[C@@](C)(O)C(=O)NCCCCNC(=O)c1ccc(-c2c3nc(c(-c4ccc(S(=O)(=O)[O-])cc4)c4ccc([nH]4)c(-c4ccc(S(=O)(=O)[O-])cc4)c4nc(c(-c5ccc(S(=O)(=O)[O-])cc5)c5ccc2[nH]5)C=C4)C=C3)cc1
REMARK SMILES IDX 22 1 21 2 20 3 18 4 19 5 15 7 16 8 14 9 13 10 10 11 11 12
REMARK SMILES IDX 12 14 8 16 9 17 7 18 1 19 2 20 3 21 4 22 5 23 6 24 17 25
REMARK SMILES IDX 23 27 24 28 25 29 26 30 27 32 28 33 29 34 87 35 30 36 86 37
REMARK SMILES IDX 31 38 32 39 33 40 80 41 34 42 85 43 79 44 81 45 35 46 84 47
REMARK SMILES IDX 78 48 77 49 36 51 66 52 47 53 65 54 48 55 51 56 64 57 82 58
REMARK SMILES IDX 49 59 50 60 63 62 83 63 52 64 37 65 38 66 46 67 39 68 45 69
REMARK SMILES IDX 40 70 41 71 42 72 43 73 44 74 67 75 68 76 76 77 69 78 75 79
REMARK SMILES IDX 70 80 71 81 72 82 73 83 74 84 53 85 54 86 62 87 55 88 61 89
REMARK SMILES IDX 56 90 57 91 58 92 59 93 60 94
REMARK H PARENT 20 6 10 13 13 15 17 26 25 31 81 50 51 61
REMARK Flexibility Score: inf
ROOT
ATOM      1  C   UNL A   1      33.206  29.092  24.692  1.00  0.00     0.023 C 
ENDROOT
BRANCH   1   2
ATOM      2  C   UNL A   1      32.532  28.201  23.651  1.00  0.00     0.116 C 
BRANCH   2   3
ATOM      3  N   UNL A   1      31.222  27.736  24.063  1.00  0.00    -0.354 N 
ATOM      4  C   UNL A   1      30.684  26.480  24.116  1.00  0.00     0.253 C 
ATOM      5  O   UNL A   1      29.580  26.404  24.658  1.00  0.00    -0.272 OA
ATOM      6  H   UNL A   1      30.613  28.451  24.357  1.00  0.00     0.163 HD
BRANCH   4   7
ATOM      7  C   UNL A   1      31.480  25.230  23.632  1.00  0.00     0.157 C 
ATOM      8  C   UNL A   1      32.842  25.269  24.348  1.00  0.00     0.055 C 
BRANCH   7   9
ATOM      9  C   UNL A   1      30.809  23.841  23.890  1.00  0.00     0.162 C 
BRANCH   9  10
ATOM     10  N   UNL A   1      30.358  23.505  25.224  1.00  0.00    -0.335 N 
ATOM     11  N   UNL A   1      31.771  21.779  26.030  1.00  0.00    -0.331 N 
ATOM     12  C   UNL A   1      30.733  22.614  26.153  1.00  0.00     0.315 C 
ATOM     13  H   UNL A   1      31.814  21.111  26.752  1.00  0.00     0.165 HD
ATOM     14  O   UNL A   1      30.085  22.580  27.202  1.00  0.00    -0.249 OA
ATOM     15  H   UNL A   1      29.598  24.059  25.517  1.00  0.00     0.165 HD
BRANCH  11  16
ATOM     16  C   UNL A   1      32.848  21.644  25.066  1.00  0.00     0.116 C 
ATOM     17  C   UNL A   1      34.180  21.644  25.815  1.00  0.00     0.036 C 
BRANCH  16  18
ATOM     18  C   UNL A   1      32.593  20.423  24.224  1.00  0.00     0.040 A 
ATOM     19  C   UNL A   1      32.882  18.565  26.055  1.00  0.00     0.071 C 
ATOM     20  C   UNL A   1      32.610  19.068  24.689  1.00  0.00     0.086 A 
ATOM     21  N   UNL A   1      32.308  18.205  23.717  1.00  0.00    -0.085 NA
ATOM     22  O   UNL A   1      32.073  18.967  22.600  1.00  0.00    -0.361 OA
ATOM     23  C   UNL A   1      32.227  20.283  22.896  1.00  0.00     0.139 A 
ATOM     24  C   UNL A   1      31.954  21.197  21.768  1.00  0.00     0.091 C 
ENDBRANCH  16  18
ENDBRANCH  11  16
ENDBRANCH   9  10
ENDBRANCH   7   9
BRANCH   7  25
ATOM     25  O   UNL A   1      31.699  25.295  22.211  1.00  0.00    -0.378 OA
ATOM     26  H   UNL A   1      32.612  25.035  22.012  1.00  0.00     0.212 HD
ENDBRANCH   7  25
ENDBRANCH   4   7
ENDBRANCH   2   3
ENDBRANCH   1   2
BRANCH   1  27
ATOM     27  C   UNL A   1      34.082  28.377  25.724  1.00  0.00     0.023 C 
BRANCH  27  28
ATOM     28  C   UNL A   1      33.699  28.562  27.191  1.00  0.00     0.116 C 
BRANCH  28  29
ATOM     29  N   UNL A   1      33.635  29.953  27.609  1.00  0.00    -0.352 N 
ATOM     30  C   UNL A   1      34.593  30.739  28.206  1.00  0.00     0.251 C 
ATOM     31  H   UNL A   1      32.775  30.401  27.438  1.00  0.00     0.163 HD
ATOM     32  O   UNL A   1      34.306  31.887  28.540  1.00  0.00    -0.269 OA
BRANCH  30  33
ATOM     33  C   UNL A   1      35.945  30.201  28.489  1.00  0.00     0.039 A 
ATOM     34  C   UNL A   1      36.893  30.209  27.462  1.00  0.00     0.014 A 
ATOM     35  C   UNL A   1      36.286  29.704  29.749  1.00  0.00     0.014 A 
ATOM     36  C   UNL A   1      38.203  29.796  27.720  1.00  0.00     0.010 A 
ATOM     37  C   UNL A   1      37.609  29.359  30.023  1.00  0.00     0.010 A 
ATOM     38  C   UNL A   1      38.584  29.410  29.015  1.00  0.00    -0.014 A 
BRANCH  38  39
ATOM     39  C   UNL A   1      40.002  29.098  29.340  1.00  0.00     0.031 A 
ATOM     40  C   UNL A   1      40.904  30.146  29.929  1.00  0.00     0.074 A 
ATOM     41  C   UNL A   1      40.502  27.886  29.027  1.00  0.00     0.049 A 
ATOM     42  N   UNL A   1      42.177  30.070  30.221  1.00  0.00    -0.248 NA
ATOM     43  C   UNL A   1      40.304  31.462  30.199  1.00  0.00     0.031 C 
ATOM     44  C   UNL A   1      39.749  26.796  28.401  1.00  0.00     0.029 A 
ATOM     45  N   UNL A   1      41.765  27.370  29.179  1.00  0.00    -0.354 N 
ATOM     46  C   UNL A   1      42.536  31.326  30.694  1.00  0.00     0.074 A 
ATOM     47  C   UNL A   1      41.355  32.159  30.600  1.00  0.00     0.031 C 
ATOM     48  C   UNL A   1      40.560  25.740  28.234  1.00  0.00     0.029 A 
ATOM     49  C   UNL A   1      41.897  26.087  28.705  1.00  0.00     0.049 A 
ATOM     50  H   UNL A   1      42.507  27.872  29.589  1.00  0.00     0.167 HD
ATOM     51  C   UNL A   1      43.730  31.747  31.176  1.00  0.00     0.031 A 
ATOM     52  C   UNL A   1      42.974  25.278  28.641  1.00  0.00     0.031 A 
ATOM     53  C   UNL A   1      44.905  30.920  31.260  1.00  0.00     0.049 A 
ATOM     54  C   UNL A   1      44.290  25.759  29.180  1.00  0.00     0.074 A 
ATOM     55  C   UNL A   1      46.145  31.235  31.788  1.00  0.00     0.029 A 
ATOM     56  N   UNL A   1      44.992  29.617  30.791  1.00  0.00    -0.354 N 
ATOM     57  N   UNL A   1      44.588  26.926  29.702  1.00  0.00    -0.248 NA
ATOM     58  C   UNL A   1      45.412  24.813  29.136  1.00  0.00     0.031 C 
ATOM     59  C   UNL A   1      46.996  30.140  31.591  1.00  0.00     0.029 A 
ATOM     60  C   UNL A   1      46.271  29.122  30.992  1.00  0.00     0.049 A 
ATOM     61  H   UNL A   1      44.253  29.116  30.377  1.00  0.00     0.167 HD
ATOM     62  C   UNL A   1      45.929  26.849  30.061  1.00  0.00     0.074 A 
ATOM     63  C   UNL A   1      46.379  25.515  29.714  1.00  0.00     0.031 C 
ATOM     64  C   UNL A   1      46.714  27.799  30.627  1.00  0.00     0.031 A 
BRANCH  51  65
ATOM     65  C   UNL A   1      43.819  33.181  31.631  1.00  0.00    -0.014 A 
ATOM     66  C   UNL A   1      43.561  33.538  32.968  1.00  0.00     0.010 A 
ATOM     67  C   UNL A   1      44.156  34.190  30.710  1.00  0.00     0.010 A 
ATOM     68  C   UNL A   1      43.566  34.880  33.358  1.00  0.00     0.020 A 
ATOM     69  C   UNL A   1      44.195  35.531  31.103  1.00  0.00     0.020 A 
ATOM     70  C   UNL A   1      43.870  35.869  32.419  1.00  0.00     0.054 A 
BRANCH  70  71
ATOM     71  S   UNL A   1      43.840  37.605  32.942  1.00  0.00     0.124 S 
ATOM     72  O   UNL A   1      42.667  37.635  33.811  1.00  0.00    -0.237 OA
ATOM     73  O   UNL A   1      45.125  37.760  33.620  1.00  0.00    -0.237 OA
ATOM     74  O   UNL A   1      43.707  38.344  31.690  1.00  0.00    -0.744 OA
ENDBRANCH  70  71
ENDBRANCH  51  65
BRANCH  52  75
ATOM     75  C   UNL A   1      42.827  23.920  28.049  1.00  0.00    -0.014 A 
ATOM     76  C   UNL A   1      42.512  22.818  28.862  1.00  0.00     0.010 A 
ATOM     77  C   UNL A   1      42.933  23.738  26.658  1.00  0.00     0.010 A 
ATOM     78  C   UNL A   1      42.297  21.559  28.292  1.00  0.00     0.020 A 
ATOM     79  C   UNL A   1      42.695  22.488  26.083  1.00  0.00     0.020 A 
ATOM     80  C   UNL A   1      42.379  21.403  26.905  1.00  0.00     0.054 A 
BRANCH  80  81
ATOM     81  S   UNL A   1      41.995  19.785  26.182  1.00  0.00     0.124 S 
ATOM     82  O   UNL A   1      40.565  19.902  25.915  1.00  0.00    -0.237 OA
ATOM     83  O   UNL A   1      42.859  19.752  25.004  1.00  0.00    -0.237 OA
ATOM     84  O   UNL A   1      42.361  18.842  27.237  1.00  0.00    -0.744 OA
ENDBRANCH  80  81
ENDBRANCH  52  75
BRANCH  64  85
ATOM     85  C   UNL A   1      48.145  27.430  30.921  1.00  0.00    -0.014 A 
ATOM     86  C   UNL A   1      48.489  26.731  32.093  1.00  0.00     0.010 A 
ATOM     87  C   UNL A   1      49.150  27.737  29.986  1.00  0.00     0.010 A 
ATOM     88  C   UNL A   1      49.818  26.373  32.336  1.00  0.00     0.020 A 
ATOM     89  C   UNL A   1      50.475  27.357  30.214  1.00  0.00     0.020 A 
ATOM     90  C   UNL A   1      50.803  26.689  31.395  1.00  0.00     0.054 A 
BRANCH  90  91
ATOM     91  S   UNL A   1      52.513  26.171  31.713  1.00  0.00     0.124 S 
ATOM     92  O   UNL A   1      52.325  24.851  32.307  1.00  0.00    -0.237 OA
ATOM     93  O   UNL A   1      53.106  26.181  30.378  1.00  0.00    -0.237 OA
ATOM     94  O   UNL A   1      53.022  27.197  32.621  1.00  0.00    -0.744 OA
ENDBRANCH  90  91
ENDBRANCH  64  85
ENDBRANCH  38  39
ENDBRANCH  30  33
ENDBRANCH  28  29
ENDBRANCH  27  28
ENDBRANCH   1  27
TORSDOF 19
ENDMDL
MODEL 3
REMARK VINA RESULT:      -8.4      4.766     11.450
REMARK SMILES Cc1noc(C)c1[C@H](C)NC(=O)NC[C@@](C)(O)C(=O)NCCCCNC(=O)c1ccc(-c2c3nc(c(-c4ccc(S(=O)(=O)[O-])cc4)c4ccc([nH]4)c(-c4ccc(S(=O)(=O)[O-])cc4)c4nc(c(-c5ccc(S(=O)(=O)[O-])cc5)c5ccc2[nH]5)C=C4)C=C3)cc1
REMARK SMILES IDX 22 1 21 2 20 3 18 4 19 5 15 7 16 8 14 9 13 10 10 11 11 12
REMARK SMILES IDX 12 14 8 16 9 17 7 18 1 19 2 20 3 21 4 22 5 23 6 24 17 25
REMARK SMILES IDX 23 27 24 28 25 29 26 30 27 32 28 33 29 34 87 35 30 36 86 37
REMARK SMILES IDX 31 38 32 39 33 40 80 41 34 42 85 43 79 44 81 45 35 46 84 47
REMARK SMILES IDX 78 48 77 49 36 51 66 52 47 53 65 54 48 55 51 56 64 57 82 58
REMARK SMILES IDX 49 59 50 60 63 62 83 63 52 64 37 65 38 66 46 67 39 68 45 69
REMARK SMILES IDX 40 70 41 71 42 72 43 73 44 74 67 75 68 76 76 77 69 78 75 79
REMARK SMILES IDX 70 80 71 81 72 82 73 83 74 84 53 85 54 86 62 87 55 88 61 89
REMARK SMILES IDX 56 90 57 91 58 92 59 93 60 94
REMARK H PARENT 20 6 10 13 13 15 17 26 25 31 81 50 51 61
REMARK Flexibility Score: inf
ROOT
ATOM      1  C   UNL A   1      36.326  21.130  25.489  1.00  0.00     0.023 C 
ENDROOT
BRANCH   1   2
ATOM      2  C   UNL A   1      35.847  22.480  26.018  1.00  0.00     0.116 C 
BRANCH   2   3
ATOM      3  N   UNL A   1      34.812  22.360  27.026  1.00  0.00    -0.354 N 
ATOM      4  C   UNL A   1      33.507  22.774  27.035  1.00  0.00     0.253 C 
ATOM      5  O   UNL A   1      32.841  22.386  27.996  1.00  0.00    -0.272 OA
ATOM      6  H   UNL A   1      35.097  21.901  27.848  1.00  0.00     0.163 HD
BRANCH   4   7
ATOM      7  C   UNL A   1      32.897  23.573  25.844  1.00  0.00     0.157 C 
ATOM      8  C   UNL A   1      32.772  22.589  24.668  1.00  0.00     0.055 C 
BRANCH   7   9
ATOM      9  C   UNL A   1      31.505  24.239  26.101  1.00  0.00     0.162 C 
BRANCH   9  10
ATOM     10  N   UNL A   1      31.432  25.460  26.876  1.00  0.00    -0.335 N 
ATOM     11  N   UNL A   1      31.267  27.259  25.340  1.00  0.00    -0.331 N 
ATOM     12  C   UNL A   1      31.354  26.765  26.580  1.00  0.00     0.315 C 
ATOM     13  H   UNL A   1      31.350  28.240  25.310  1.00  0.00     0.165 HD
ATOM     14  O   UNL A   1      31.341  27.562  27.521  1.00  0.00    -0.249 OA
ATOM     15  H   UNL A   1      31.444  25.292  27.847  1.00  0.00     0.165 HD
BRANCH  11  16
ATOM     16  C   UNL A   1      31.076  26.666  24.028  1.00  0.00     0.116 C 
ATOM     17  C   UNL A   1      29.707  27.087  23.494  1.00  0.00     0.036 C 
BRANCH  16  18
ATOM     18  C   UNL A   1      32.242  27.039  23.154  1.00  0.00     0.040 A 
ATOM     19  C   UNL A   1      32.894  29.330  24.256  1.00  0.00     0.071 C 
ATOM     20  C   UNL A   1      33.034  28.226  23.280  1.00  0.00     0.086 A 
ATOM     21  N   UNL A   1      34.023  28.260  22.383  1.00  0.00    -0.085 NA
ATOM     22  O   UNL A   1      33.914  27.098  21.661  1.00  0.00    -0.361 OA
ATOM     23  C   UNL A   1      32.868  26.364  22.121  1.00  0.00     0.139 A 
ATOM     24  C   UNL A   1      32.688  25.068  21.436  1.00  0.00     0.091 C 
ENDBRANCH  16  18
ENDBRANCH  11  16
ENDBRANCH   9  10
ENDBRANCH   7   9
BRANCH   7  25
ATOM     25  O   UNL A   1      33.773  24.648  25.461  1.00  0.00    -0.378 OA
ATOM     26  H   UNL A   1      34.520  24.692  26.078  1.00  0.00     0.212 HD
ENDBRANCH   7  25
ENDBRANCH   4   7
ENDBRANCH   2   3
ENDBRANCH   1   2
BRANCH   1  27
ATOM     27  C   UNL A   1      37.776  21.076  25.000  1.00  0.00     0.023 C 
BRANCH  27  28
ATOM     28  C   UNL A   1      38.862  21.095  26.074  1.00  0.00     0.116 C 
BRANCH  28  29
ATOM     29  N   UNL A   1      39.759  19.953  26.021  1.00  0.00    -0.352 N 
ATOM     30  C   UNL A   1      41.126  19.898  26.164  1.00  0.00     0.251 C 
ATOM     31  H   UNL A   1      39.321  19.086  25.857  1.00  0.00     0.163 HD
ATOM     32  O   UNL A   1      41.703  18.822  26.017  1.00  0.00    -0.269 OA
BRANCH  30  33
ATOM     33  C   UNL A   1      41.907  21.124  26.448  1.00  0.00     0.039 A 
ATOM     34  C   UNL A   1      42.290  21.933  25.374  1.00  0.00     0.014 A 
ATOM     35  C   UNL A   1      42.254  21.486  27.751  1.00  0.00     0.014 A 
ATOM     36  C   UNL A   1      42.947  23.143  25.613  1.00  0.00     0.010 A 
ATOM     37  C   UNL A   1      42.846  22.726  27.993  1.00  0.00     0.010 A 
ATOM     38  C   UNL A   1      43.190  23.573  26.927  1.00  0.00    -0.014 A 
BRANCH  38  39
ATOM     39  C   UNL A   1      43.764  24.916  27.205  1.00  0.00     0.031 A 
ATOM     40  C   UNL A   1      42.901  26.026  27.738  1.00  0.00     0.074 A 
ATOM     41  C   UNL A   1      45.054  25.162  26.899  1.00  0.00     0.049 A 
ATOM     42  N   UNL A   1      43.217  27.271  27.984  1.00  0.00    -0.248 NA
ATOM     43  C   UNL A   1      41.492  25.699  28.004  1.00  0.00     0.031 C 
ATOM     44  C   UNL A   1      45.987  24.190  26.324  1.00  0.00     0.029 A 
ATOM     45  N   UNL A   1      45.800  26.309  27.014  1.00  0.00    -0.354 N 
ATOM     46  C   UNL A   1      42.046  27.883  28.418  1.00  0.00     0.074 A 
ATOM     47  C   UNL A   1      41.003  26.880  28.352  1.00  0.00     0.031 C 
ATOM     48  C   UNL A   1      47.181  24.777  26.148  1.00  0.00     0.029 A 
ATOM     49  C   UNL A   1      47.091  26.174  26.562  1.00  0.00     0.049 A 
ATOM     50  H   UNL A   1      45.444  27.149  27.385  1.00  0.00     0.167 HD
ATOM     51  C   UNL A   1      41.857  29.154  28.847  1.00  0.00     0.031 A 
ATOM     52  C   UNL A   1      48.092  27.072  26.474  1.00  0.00     0.031 A 
ATOM     53  C   UNL A   1      42.893  30.152  28.903  1.00  0.00     0.049 A 
ATOM     54  C   UNL A   1      47.866  28.477  26.954  1.00  0.00     0.074 A 
ATOM     55  C   UNL A   1      42.814  31.449  29.378  1.00  0.00     0.029 A 
ATOM     56  N   UNL A   1      44.194  29.968  28.458  1.00  0.00    -0.354 N 
ATOM     57  N   UNL A   1      46.770  29.013  27.440  1.00  0.00    -0.248 NA
ATOM     58  C   UNL A   1      49.010  29.395  26.887  1.00  0.00     0.031 C 
ATOM     59  C   UNL A   1      44.054  32.067  29.172  1.00  0.00     0.029 A 
ATOM     60  C   UNL A   1      44.922  31.136  28.621  1.00  0.00     0.049 A 
ATOM     61  H   UNL A   1      44.549  29.131  28.082  1.00  0.00     0.167 HD
ATOM     62  C   UNL A   1      47.099  30.329  27.750  1.00  0.00     0.074 A 
ATOM     63  C   UNL A   1      48.499  30.500  27.414  1.00  0.00     0.031 C 
ATOM     64  C   UNL A   1      46.310  31.303  28.266  1.00  0.00     0.031 A 
BRANCH  51  65
ATOM     65  C   UNL A   1      40.460  29.534  29.268  1.00  0.00    -0.014 A 
ATOM     66  C   UNL A   1      39.522  30.010  28.332  1.00  0.00     0.010 A 
ATOM     67  C   UNL A   1      40.079  29.423  30.618  1.00  0.00     0.010 A 
ATOM     68  C   UNL A   1      38.258  30.436  28.748  1.00  0.00     0.020 A 
ATOM     69  C   UNL A   1      38.804  29.817  31.034  1.00  0.00     0.020 A 
ATOM     70  C   UNL A   1      37.912  30.350  30.100  1.00  0.00     0.054 A 
BRANCH  70  71
ATOM     71  S   UNL A   1      36.277  30.937  30.620  1.00  0.00     0.124 S 
ATOM     72  O   UNL A   1      35.478  30.693  29.422  1.00  0.00    -0.237 OA
ATOM     73  O   UNL A   1      35.973  30.079  31.762  1.00  0.00    -0.237 OA
ATOM     74  O   UNL A   1      36.500  32.344  30.944  1.00  0.00    -0.744 OA
ENDBRANCH  70  71
ENDBRANCH  51  65
BRANCH  52  75
ATOM     75  C   UNL A   1      49.404  26.645  25.916  1.00  0.00    -0.014 A 
ATOM     76  C   UNL A   1      49.789  27.031  24.621  1.00  0.00     0.010 A 
ATOM     77  C   UNL A   1      50.304  25.907  26.707  1.00  0.00     0.010 A 
ATOM     78  C   UNL A   1      51.054  26.695  24.129  1.00  0.00     0.020 A 
ATOM     79  C   UNL A   1      51.578  25.590  26.229  1.00  0.00     0.020 A 
ATOM     80  C   UNL A   1      51.945  25.985  24.940  1.00  0.00     0.054 A 
BRANCH  80  81
ATOM     81  S   UNL A   1      53.616  25.651  24.319  1.00  0.00     0.124 S 
ATOM     82  O   UNL A   1      54.425  26.577  25.105  1.00  0.00    -0.237 OA
ATOM     83  O   UNL A   1      53.792  24.235  24.632  1.00  0.00    -0.237 OA
ATOM     84  O   UNL A   1      53.520  25.957  22.893  1.00  0.00    -0.744 OA
ENDBRANCH  80  81
ENDBRANCH  52  75
BRANCH  64  85
ATOM     85  C   UNL A   1      46.943  32.647  28.515  1.00  0.00    -0.014 A 
ATOM     86  C   UNL A   1      47.600  32.930  29.727  1.00  0.00     0.010 A 
ATOM     87  C   UNL A   1      46.929  33.623  27.500  1.00  0.00     0.010 A 
ATOM     88  C   UNL A   1      48.205  34.172  29.929  1.00  0.00     0.020 A 
ATOM     89  C   UNL A   1      47.555  34.857  27.689  1.00  0.00     0.020 A 
ATOM     90  C   UNL A   1      48.179  35.129  28.909  1.00  0.00     0.054 A 
BRANCH  90  91
ATOM     91  S   UNL A   1      49.012  36.718  29.178  1.00  0.00     0.124 S 
ATOM     92  O   UNL A   1      49.980  36.743  28.085  1.00  0.00    -0.237 OA
ATOM     93  O   UNL A   1      47.917  37.678  29.071  1.00  0.00    -0.237 OA
ATOM     94  O   UNL A   1      49.587  36.585  30.515  1.00  0.00    -0.744 OA
ENDBRANCH  90  91
ENDBRANCH  64  85
ENDBRANCH  38  39
ENDBRANCH  30  33
ENDBRANCH  28  29
ENDBRANCH  27  28
ENDBRANCH   1  27
TORSDOF 19
ENDMDL
