MODEL 1
REMARK VINA RESULT:     -12.4      0.000      0.000
REMARK SMILES NS(=O)(=O)c1ccc(-c2coc(=O)n2-c2ccc(C(=O)NCCCCNC(=O)c3ccc(-c4c5nc(c(-c6ccc(S(=O)(=O)[O-])cc6)c6ccc([nH]6)c(-c6ccc(S(=O)(=O)[O-])cc6)c6nc(c(-c7ccc(S(=O)(=O)[O-])cc7)c7ccc4[nH]7)C=C6)C=C5)cc3)cc2)cc1
REMARK SMILES IDX 23 1 22 2 21 3 19 4 20 5 18 7 15 8 16 9 90 10 17 11 89 12
REMARK SMILES IDX 14 13 9 14 10 15 11 16 12 17 13 18 8 19 5 20 6 21 92 22 7 23
REMARK SMILES IDX 91 24 2 25 3 26 4 27 1 28 24 31 25 32 26 33 27 34 28 36
REMARK SMILES IDX 29 37 30 38 88 39 31 40 87 41 32 42 33 43 34 44 81 45 35 46
REMARK SMILES IDX 86 47 80 48 82 49 36 50 85 51 79 52 78 53 37 55 67 56 48 57
REMARK SMILES IDX 66 58 49 59 52 60 65 61 83 62 50 63 51 64 64 66 84 67 53 68
REMARK SMILES IDX 38 69 39 70 47 71 40 72 46 73 41 74 42 75 43 76 44 77 45 78
REMARK SMILES IDX 68 79 69 80 77 81 70 82 76 83 71 84 72 85 73 86 74 87 75 88
REMARK SMILES IDX 54 89 55 90 63 91 56 92 62 93 57 94 58 95 59 96 60 97 61 98
REMARK H PARENT 21 6 1 29 1 30 26 35 82 54 52 65
REMARK Flexibility Score: inf
ROOT
ATOM      1  C   UNL A   1      41.376  31.184  33.845  1.00  0.00     0.023 C 
ENDROOT
BRANCH   1   2
ATOM      2  C   UNL A   1      40.845  30.178  34.874  1.00  0.00     0.116 C 
BRANCH   2   3
ATOM      3  N   UNL A   1      39.731  30.731  35.623  1.00  0.00    -0.352 N 
ATOM      4  C   UNL A   1      38.484  31.182  35.269  1.00  0.00     0.251 C 
ATOM      5  O   UNL A   1      37.773  31.620  36.174  1.00  0.00    -0.269 OA
ATOM      6  H   UNL A   1      39.908  30.797  36.589  1.00  0.00     0.163 HD
BRANCH   4   7
ATOM      7  C   UNL A   1      37.931  31.137  33.882  1.00  0.00     0.039 A 
ATOM      8  C   UNL A   1      36.827  31.274  31.290  1.00  0.00     0.053 A 
ATOM      9  C   UNL A   1      37.464  32.389  31.829  1.00  0.00     0.028 A 
ATOM     10  C   UNL A   1      36.799  30.080  32.014  1.00  0.00     0.028 A 
ATOM     11  C   UNL A   1      37.982  32.328  33.131  1.00  0.00     0.016 A 
ATOM     12  C   UNL A   1      37.394  30.002  33.275  1.00  0.00     0.016 A 
BRANCH   8  13
ATOM     13  N   UNL A   1      36.213  31.322  30.028  1.00  0.00    -0.242 N 
ATOM     14  C   UNL A   1      35.124  32.052  29.647  1.00  0.00     0.095 A 
ATOM     15  C   UNL A   1      34.790  31.604  28.442  1.00  0.00     0.228 A 
ATOM     16  O   UNL A   1      35.609  30.586  27.958  1.00  0.00    -0.415 OA
ATOM     17  C   UNL A   1      36.527  30.437  28.999  1.00  0.00     0.424 A 
ATOM     18  O   UNL A   1      37.419  29.601  28.970  1.00  0.00    -0.223 OA
BRANCH  14  19
ATOM     19  C   UNL A   1      34.564  33.205  30.351  1.00  0.00     0.002 A 
ATOM     20  C   UNL A   1      33.622  35.452  31.745  1.00  0.00     0.082 A 
ATOM     21  C   UNL A   1      34.021  34.321  32.455  1.00  0.00     0.022 A 
ATOM     22  C   UNL A   1      33.671  35.466  30.346  1.00  0.00     0.022 A 
ATOM     23  C   UNL A   1      34.490  33.205  31.755  1.00  0.00     0.012 A 
ATOM     24  C   UNL A   1      34.147  34.347  29.654  1.00  0.00     0.012 A 
BRANCH  20  25
ATOM     25  S   UNL A   1      33.034  36.899  32.580  1.00  0.00     0.238 S 
ATOM     26  O   UNL A   1      33.986  37.233  33.611  1.00  0.00    -0.207 OA
ATOM     27  O   UNL A   1      31.626  36.706  32.848  1.00  0.00    -0.207 OA
BRANCH  25  28
ATOM     28  N   UNL A   1      33.144  38.123  31.440  1.00  0.00    -0.225 NA
ATOM     29  H   UNL A   1      32.295  38.688  31.463  1.00  0.00     0.137 HD
ATOM     30  H   UNL A   1      33.254  37.714  30.512  1.00  0.00     0.137 HD
ENDBRANCH  25  28
ENDBRANCH  20  25
ENDBRANCH  14  19
ENDBRANCH   8  13
ENDBRANCH   4   7
ENDBRANCH   2   3
ENDBRANCH   1   2
BRANCH   1  31
ATOM     31  C   UNL A   1      41.389  32.646  34.316  1.00  0.00     0.023 C 
BRANCH  31  32
ATOM     32  C   UNL A   1      41.974  33.637  33.313  1.00  0.00     0.116 C 
BRANCH  32  33
ATOM     33  N   UNL A   1      40.975  34.140  32.368  1.00  0.00    -0.352 N 
ATOM     34  C   UNL A   1      40.809  33.797  31.040  1.00  0.00     0.251 C 
ATOM     35  H   UNL A   1      40.344  34.806  32.723  1.00  0.00     0.163 HD
ATOM     36  O   UNL A   1      40.228  34.549  30.266  1.00  0.00    -0.269 OA
BRANCH  34  37
ATOM     37  C   UNL A   1      41.329  32.499  30.577  1.00  0.00     0.039 A 
ATOM     38  C   UNL A   1      42.684  32.309  30.292  1.00  0.00     0.014 A 
ATOM     39  C   UNL A   1      40.422  31.449  30.475  1.00  0.00     0.014 A 
ATOM     40  C   UNL A   1      43.134  31.024  29.992  1.00  0.00     0.010 A 
ATOM     41  C   UNL A   1      40.885  30.167  30.318  1.00  0.00     0.010 A 
ATOM     42  C   UNL A   1      42.230  29.951  30.028  1.00  0.00    -0.014 A 
BRANCH  42  43
ATOM     43  C   UNL A   1      42.687  28.570  29.890  1.00  0.00     0.031 A 
ATOM     44  C   UNL A   1      43.383  28.017  31.085  1.00  0.00     0.074 A 
ATOM     45  C   UNL A   1      42.276  27.771  28.880  1.00  0.00     0.049 A 
ATOM     46  N   UNL A   1      44.629  27.697  31.203  1.00  0.00    -0.248 NA
ATOM     47  C   UNL A   1      42.631  27.941  32.350  1.00  0.00     0.031 C 
ATOM     48  C   UNL A   1      41.316  28.090  27.813  1.00  0.00     0.029 A 
ATOM     49  N   UNL A   1      42.519  26.449  28.671  1.00  0.00    -0.354 N 
ATOM     50  C   UNL A   1      44.764  27.147  32.477  1.00  0.00     0.074 A 
ATOM     51  C   UNL A   1      43.574  27.522  33.196  1.00  0.00     0.031 C 
ATOM     52  C   UNL A   1      40.871  26.948  27.247  1.00  0.00     0.029 A 
ATOM     53  C   UNL A   1      41.647  25.842  27.773  1.00  0.00     0.049 A 
ATOM     54  H   UNL A   1      43.250  25.964  29.118  1.00  0.00     0.167 HD
ATOM     55  C   UNL A   1      45.705  26.196  32.747  1.00  0.00     0.031 A 
ATOM     56  C   UNL A   1      41.548  24.518  27.495  1.00  0.00     0.031 A 
ATOM     57  C   UNL A   1      46.666  26.093  31.677  1.00  0.00     0.049 A 
ATOM     58  C   UNL A   1      42.820  23.891  27.921  1.00  0.00     0.074 A 
ATOM     59  C   UNL A   1      47.567  26.949  31.077  1.00  0.00     0.029 A 
ATOM     60  N   UNL A   1      46.493  25.045  30.803  1.00  0.00    -0.354 N 
ATOM     61  N   UNL A   1      43.969  24.160  27.366  1.00  0.00    -0.248 NA
ATOM     62  C   UNL A   1      42.891  23.305  29.249  1.00  0.00     0.031 C 
ATOM     63  C   UNL A   1      47.534  26.607  29.693  1.00  0.00     0.029 A 
ATOM     64  C   UNL A   1      46.676  25.516  29.531  1.00  0.00     0.049 A 
ATOM     65  H   UNL A   1      46.277  24.117  31.050  1.00  0.00     0.167 HD
ATOM     66  C   UNL A   1      44.870  24.198  28.421  1.00  0.00     0.074 A 
ATOM     67  C   UNL A   1      44.174  23.547  29.530  1.00  0.00     0.031 C 
ATOM     68  C   UNL A   1      45.975  25.002  28.372  1.00  0.00     0.031 A 
BRANCH  55  69
ATOM     69  C   UNL A   1      45.501  25.051  33.724  1.00  0.00    -0.014 A 
ATOM     70  C   UNL A   1      46.468  24.854  34.735  1.00  0.00     0.010 A 
ATOM     71  C   UNL A   1      44.590  23.998  33.510  1.00  0.00     0.010 A 
ATOM     72  C   UNL A   1      46.594  23.627  35.399  1.00  0.00     0.020 A 
ATOM     73  C   UNL A   1      44.678  22.785  34.199  1.00  0.00     0.020 A 
ATOM     74  C   UNL A   1      45.710  22.591  35.104  1.00  0.00     0.054 A 
BRANCH  74  75
ATOM     75  S   UNL A   1      45.968  20.964  35.852  1.00  0.00     0.124 S 
ATOM     76  O   UNL A   1      45.052  20.134  35.076  1.00  0.00    -0.237 OA
ATOM     77  O   UNL A   1      47.391  20.737  35.614  1.00  0.00    -0.237 OA
ATOM     78  O   UNL A   1      45.599  21.170  37.250  1.00  0.00    -0.744 OA
ENDBRANCH  74  75
ENDBRANCH  55  69
BRANCH  56  79
ATOM     79  C   UNL A   1      40.337  23.734  27.147  1.00  0.00    -0.014 A 
ATOM     80  C   UNL A   1      39.163  24.366  26.697  1.00  0.00     0.010 A 
ATOM     81  C   UNL A   1      40.431  22.336  26.988  1.00  0.00     0.010 A 
ATOM     82  C   UNL A   1      38.145  23.633  26.060  1.00  0.00     0.020 A 
ATOM     83  C   UNL A   1      39.420  21.600  26.358  1.00  0.00     0.020 A 
ATOM     84  C   UNL A   1      38.289  22.256  25.877  1.00  0.00     0.054 A 
BRANCH  84  85
ATOM     85  S   UNL A   1      37.050  21.345  24.907  1.00  0.00     0.124 S 
ATOM     86  O   UNL A   1      37.727  20.077  24.652  1.00  0.00    -0.237 OA
ATOM     87  O   UNL A   1      35.913  21.283  25.820  1.00  0.00    -0.237 OA
ATOM     88  O   UNL A   1      36.850  22.186  23.728  1.00  0.00    -0.744 OA
ENDBRANCH  84  85
ENDBRANCH  56  79
BRANCH  68  89
ATOM     89  C   UNL A   1      46.382  25.581  27.038  1.00  0.00    -0.014 A 
ATOM     90  C   UNL A   1      45.852  26.769  26.496  1.00  0.00     0.010 A 
ATOM     91  C   UNL A   1      47.459  24.967  26.375  1.00  0.00     0.010 A 
ATOM     92  C   UNL A   1      46.373  27.310  25.309  1.00  0.00     0.020 A 
ATOM     93  C   UNL A   1      47.994  25.509  25.206  1.00  0.00     0.020 A 
ATOM     94  C   UNL A   1      47.443  26.673  24.672  1.00  0.00     0.054 A 
BRANCH  94  95
ATOM     95  S   UNL A   1      48.143  27.393  23.161  1.00  0.00     0.124 S 
ATOM     96  O   UNL A   1      49.350  28.052  23.652  1.00  0.00    -0.237 OA
ATOM     97  O   UNL A   1      48.364  26.223  22.315  1.00  0.00    -0.237 OA
ATOM     98  O   UNL A   1      47.095  28.298  22.688  1.00  0.00    -0.744 OA
ENDBRANCH  94  95
ENDBRANCH  68  89
ENDBRANCH  42  43
ENDBRANCH  34  37
ENDBRANCH  32  33
ENDBRANCH  31  32
ENDBRANCH   1  31
TORSDOF 18
ENDMDL
MODEL 2
REMARK VINA RESULT:     -12.3      4.429     11.800
REMARK SMILES NS(=O)(=O)c1ccc(-c2coc(=O)n2-c2ccc(C(=O)NCCCCNC(=O)c3ccc(-c4c5nc(c(-c6ccc(S(=O)(=O)[O-])cc6)c6ccc([nH]6)c(-c6ccc(S(=O)(=O)[O-])cc6)c6nc(c(-c7ccc(S(=O)(=O)[O-])cc7)c7ccc4[nH]7)C=C6)C=C5)cc3)cc2)cc1
REMARK SMILES IDX 23 1 22 2 21 3 19 4 20 5 18 7 15 8 16 9 90 10 17 11 89 12
REMARK SMILES IDX 14 13 9 14 10 15 11 16 12 17 13 18 8 19 5 20 6 21 92 22 7 23
REMARK SMILES IDX 91 24 2 25 3 26 4 27 1 28 24 31 25 32 26 33 27 34 28 36
REMARK SMILES IDX 29 37 30 38 88 39 31 40 87 41 32 42 33 43 34 44 81 45 35 46
REMARK SMILES IDX 86 47 80 48 82 49 36 50 85 51 79 52 78 53 37 55 67 56 48 57
REMARK SMILES IDX 66 58 49 59 52 60 65 61 83 62 50 63 51 64 64 66 84 67 53 68
REMARK SMILES IDX 38 69 39 70 47 71 40 72 46 73 41 74 42 75 43 76 44 77 45 78
REMARK SMILES IDX 68 79 69 80 77 81 70 82 76 83 71 84 72 85 73 86 74 87 75 88
REMARK SMILES IDX 54 89 55 90 63 91 56 92 62 93 57 94 58 95 59 96 60 97 61 98
REMARK H PARENT 21 6 1 29 1 30 26 35 82 54 52 65
REMARK Flexibility Score: inf
ROOT
ATOM      1  C   UNL A   1      39.850  20.264  26.056  1.00  0.00     0.023 C 
ENDROOT
BRANCH   1   2
ATOM      2  C   UNL A   1      38.646  21.130  25.662  1.00  0.00     0.116 C 
BRANCH   2   3
ATOM      3  N   UNL A   1      38.810  22.497  26.121  1.00  0.00    -0.352 N 
ATOM      4  C   UNL A   1      38.012  23.613  26.073  1.00  0.00     0.251 C 
ATOM      5  O   UNL A   1      38.476  24.650  26.548  1.00  0.00    -0.269 OA
ATOM      6  H   UNL A   1      39.677  22.658  26.558  1.00  0.00     0.163 HD
BRANCH   4   7
ATOM      7  C   UNL A   1      36.623  23.636  25.524  1.00  0.00     0.039 A 
ATOM      8  C   UNL A   1      33.931  23.577  24.683  1.00  0.00     0.053 A 
ATOM      9  C   UNL A   1      34.231  23.783  26.028  1.00  0.00     0.028 A 
ATOM     10  C   UNL A   1      34.969  23.467  23.756  1.00  0.00     0.028 A 
ATOM     11  C   UNL A   1      35.569  23.778  26.447  1.00  0.00     0.016 A 
ATOM     12  C   UNL A   1      36.301  23.550  24.169  1.00  0.00     0.016 A 
BRANCH   8  13
ATOM     13  N   UNL A   1      32.603  23.483  24.236  1.00  0.00    -0.242 N 
ATOM     14  C   UNL A   1      31.949  22.380  23.766  1.00  0.00     0.095 A 
ATOM     15  C   UNL A   1      30.802  22.825  23.265  1.00  0.00     0.228 A 
ATOM     16  O   UNL A   1      30.623  24.204  23.369  1.00  0.00    -0.415 OA
ATOM     17  C   UNL A   1      31.797  24.597  24.014  1.00  0.00     0.424 A 
ATOM     18  O   UNL A   1      32.042  25.767  24.271  1.00  0.00    -0.223 OA
BRANCH  14  19
ATOM     19  C   UNL A   1      32.356  20.987  23.947  1.00  0.00     0.002 A 
ATOM     20  C   UNL A   1      33.014  18.290  24.362  1.00  0.00     0.082 A 
ATOM     21  C   UNL A   1      33.068  19.183  25.431  1.00  0.00     0.022 A 
ATOM     22  C   UNL A   1      32.654  18.734  23.084  1.00  0.00     0.022 A 
ATOM     23  C   UNL A   1      32.739  20.525  25.219  1.00  0.00     0.012 A 
ATOM     24  C   UNL A   1      32.320  20.078  22.882  1.00  0.00     0.012 A 
BRANCH  20  25
ATOM     25  S   UNL A   1      33.406  16.576  24.576  1.00  0.00     0.238 S 
ATOM     26  O   UNL A   1      34.342  16.470  25.669  1.00  0.00    -0.207 OA
ATOM     27  O   UNL A   1      33.666  16.021  23.266  1.00  0.00    -0.207 OA
BRANCH  25  28
ATOM     28  N   UNL A   1      31.984  15.879  25.121  1.00  0.00    -0.225 NA
ATOM     29  H   UNL A   1      32.202  15.060  25.690  1.00  0.00     0.137 HD
ATOM     30  H   UNL A   1      31.417  15.596  24.322  1.00  0.00     0.137 HD
ENDBRANCH  25  28
ENDBRANCH  20  25
ENDBRANCH  14  19
ENDBRANCH   8  13
ENDBRANCH   4   7
ENDBRANCH   2   3
ENDBRANCH   1   2
BRANCH   1  31
ATOM     31  C   UNL A   1      40.877  20.958  26.963  1.00  0.00     0.023 C 
BRANCH  31  32
ATOM     32  C   UNL A   1      42.283  20.367  26.908  1.00  0.00     0.116 C 
BRANCH  32  33
ATOM     33  N   UNL A   1      43.065  20.874  25.780  1.00  0.00    -0.352 N 
ATOM     34  C   UNL A   1      43.193  22.182  25.349  1.00  0.00     0.251 C 
ATOM     35  H   UNL A   1      43.563  20.200  25.263  1.00  0.00     0.163 HD
ATOM     36  O   UNL A   1      43.530  22.432  24.198  1.00  0.00    -0.269 OA
BRANCH  34  37
ATOM     37  C   UNL A   1      42.933  23.268  26.309  1.00  0.00     0.039 A 
ATOM     38  C   UNL A   1      43.676  23.404  27.484  1.00  0.00     0.014 A 
ATOM     39  C   UNL A   1      41.941  24.186  25.979  1.00  0.00     0.014 A 
ATOM     40  C   UNL A   1      43.473  24.530  28.281  1.00  0.00     0.010 A 
ATOM     41  C   UNL A   1      41.841  25.358  26.685  1.00  0.00     0.010 A 
ATOM     42  C   UNL A   1      42.567  25.517  27.863  1.00  0.00    -0.014 A 
BRANCH  42  43
ATOM     43  C   UNL A   1      42.449  26.788  28.574  1.00  0.00     0.031 A 
ATOM     44  C   UNL A   1      43.572  27.739  28.349  1.00  0.00     0.074 A 
ATOM     45  C   UNL A   1      41.297  27.182  29.161  1.00  0.00     0.049 A 
ATOM     46  N   UNL A   1      44.465  28.132  29.196  1.00  0.00    -0.248 NA
ATOM     47  C   UNL A   1      43.818  28.206  26.973  1.00  0.00     0.031 C 
ATOM     48  C   UNL A   1      40.004  26.484  29.166  1.00  0.00     0.029 A 
ATOM     49  N   UNL A   1      40.995  28.365  29.761  1.00  0.00    -0.354 N 
ATOM     50  C   UNL A   1      45.235  29.084  28.529  1.00  0.00     0.074 A 
ATOM     51  C   UNL A   1      44.932  28.924  27.130  1.00  0.00     0.031 C 
ATOM     52  C   UNL A   1      39.022  27.348  29.499  1.00  0.00     0.029 A 
ATOM     53  C   UNL A   1      39.631  28.598  29.911  1.00  0.00     0.049 A 
ATOM     54  H   UNL A   1      41.682  29.002  30.061  1.00  0.00     0.167 HD
ATOM     55  C   UNL A   1      45.839  30.108  29.198  1.00  0.00     0.031 A 
ATOM     56  C   UNL A   1      39.036  29.745  30.323  1.00  0.00     0.031 A 
ATOM     57  C   UNL A   1      45.823  29.883  30.623  1.00  0.00     0.049 A 
ATOM     58  C   UNL A   1      40.065  30.531  31.042  1.00  0.00     0.074 A 
ATOM     59  C   UNL A   1      46.314  28.913  31.472  1.00  0.00     0.029 A 
ATOM     60  N   UNL A   1      44.865  30.568  31.335  1.00  0.00    -0.354 N 
ATOM     61  N   UNL A   1      40.611  30.138  32.159  1.00  0.00    -0.248 NA
ATOM     62  C   UNL A   1      40.813  31.532  30.301  1.00  0.00     0.031 C 
ATOM     63  C   UNL A   1      45.314  28.767  32.480  1.00  0.00     0.029 A 
ATOM     64  C   UNL A   1      44.306  29.704  32.236  1.00  0.00     0.049 A 
ATOM     65  H   UNL A   1      44.625  31.515  31.217  1.00  0.00     0.167 HD
ATOM     66  C   UNL A   1      41.947  30.494  32.044  1.00  0.00     0.074 A 
ATOM     67  C   UNL A   1      41.984  31.452  30.939  1.00  0.00     0.031 C 
ATOM     68  C   UNL A   1      42.924  29.767  32.665  1.00  0.00     0.031 A 
BRANCH  55  69
ATOM     69  C   UNL A   1      46.018  31.506  28.632  1.00  0.00    -0.014 A 
ATOM     70  C   UNL A   1      44.871  32.315  28.474  1.00  0.00     0.010 A 
ATOM     71  C   UNL A   1      47.189  31.937  27.977  1.00  0.00     0.010 A 
ATOM     72  C   UNL A   1      44.865  33.416  27.607  1.00  0.00     0.020 A 
ATOM     73  C   UNL A   1      47.207  33.060  27.146  1.00  0.00     0.020 A 
ATOM     74  C   UNL A   1      46.031  33.763  26.928  1.00  0.00     0.054 A 
BRANCH  74  75
ATOM     75  S   UNL A   1      45.982  35.090  25.699  1.00  0.00     0.124 S 
ATOM     76  O   UNL A   1      47.395  35.434  25.579  1.00  0.00    -0.237 OA
ATOM     77  O   UNL A   1      45.389  34.419  24.545  1.00  0.00    -0.237 OA
ATOM     78  O   UNL A   1      45.139  36.104  26.327  1.00  0.00    -0.744 OA
ENDBRANCH  74  75
ENDBRANCH  55  69
BRANCH  56  79
ATOM     79  C   UNL A   1      37.734  30.316  29.898  1.00  0.00    -0.014 A 
ATOM     80  C   UNL A   1      36.890  30.970  30.815  1.00  0.00     0.010 A 
ATOM     81  C   UNL A   1      37.449  30.463  28.525  1.00  0.00     0.010 A 
ATOM     82  C   UNL A   1      35.835  31.788  30.371  1.00  0.00     0.020 A 
ATOM     83  C   UNL A   1      36.397  31.272  28.076  1.00  0.00     0.020 A 
ATOM     84  C   UNL A   1      35.608  31.950  29.002  1.00  0.00     0.054 A 
BRANCH  84  85
ATOM     85  S   UNL A   1      34.353  33.137  28.435  1.00  0.00     0.124 S 
ATOM     86  O   UNL A   1      33.878  33.708  29.691  1.00  0.00    -0.237 OA
ATOM     87  O   UNL A   1      35.125  34.035  27.582  1.00  0.00    -0.237 OA
ATOM     88  O   UNL A   1      33.382  32.299  27.732  1.00  0.00    -0.744 OA
ENDBRANCH  84  85
ENDBRANCH  56  79
BRANCH  68  89
ATOM     89  C   UNL A   1      42.515  28.790  33.742  1.00  0.00    -0.014 A 
ATOM     90  C   UNL A   1      42.186  27.440  33.501  1.00  0.00     0.010 A 
ATOM     91  C   UNL A   1      42.614  29.227  35.074  1.00  0.00     0.010 A 
ATOM     92  C   UNL A   1      41.940  26.563  34.569  1.00  0.00     0.020 A 
ATOM     93  C   UNL A   1      42.389  28.355  36.140  1.00  0.00     0.020 A 
ATOM     94  C   UNL A   1      42.043  27.029  35.884  1.00  0.00     0.054 A 
BRANCH  94  95
ATOM     95  S   UNL A   1      41.764  25.885  37.266  1.00  0.00     0.124 S 
ATOM     96  O   UNL A   1      42.761  26.317  38.242  1.00  0.00    -0.237 OA
ATOM     97  O   UNL A   1      40.373  26.147  37.628  1.00  0.00    -0.237 OA
ATOM     98  O   UNL A   1      42.004  24.567  36.680  1.00  0.00    -0.744 OA
ENDBRANCH  94  95
ENDBRANCH  68  89
ENDBRANCH  42  43
ENDBRANCH  34  37
ENDBRANCH  32  33
ENDBRANCH  31  32
ENDBRANCH   1  31
TORSDOF 18
ENDMDL
MODEL 3
REMARK VINA RESULT:     -12.2      4.286     11.477
REMARK SMILES NS(=O)(=O)c1ccc(-c2coc(=O)n2-c2ccc(C(=O)NCCCCNC(=O)c3ccc(-c4c5nc(c(-c6ccc(S(=O)(=O)[O-])cc6)c6ccc([nH]6)c(-c6ccc(S(=O)(=O)[O-])cc6)c6nc(c(-c7ccc(S(=O)(=O)[O-])cc7)c7ccc4[nH]7)C=C6)C=C5)cc3)cc2)cc1
REMARK SMILES IDX 23 1 22 2 21 3 19 4 20 5 18 7 15 8 16 9 90 10 17 11 89 12
REMARK SMILES IDX 14 13 9 14 10 15 11 16 12 17 13 18 8 19 5 20 6 21 92 22 7 23
REMARK SMILES IDX 91 24 2 25 3 26 4 27 1 28 24 31 25 32 26 33 27 34 28 36
REMARK SMILES IDX 29 37 30 38 88 39 31 40 87 41 32 42 33 43 34 44 81 45 35 46
REMARK SMILES IDX 86 47 80 48 82 49 36 50 85 51 79 52 78 53 37 55 67 56 48 57
REMARK SMILES IDX 66 58 49 59 52 60 65 61 83 62 50 63 51 64 64 66 84 67 53 68
REMARK SMILES IDX 38 69 39 70 47 71 40 72 46 73 41 74 42 75 43 76 44 77 45 78
REMARK SMILES IDX 68 79 69 80 77 81 70 82 76 83 71 84 72 85 73 86 74 87 75 88
REMARK SMILES IDX 54 89 55 90 63 91 56 92 62 93 57 94 58 95 59 96 60 97 61 98
REMARK H PARENT 21 6 1 29 1 30 26 35 82 54 52 65
REMARK Flexibility Score: inf
ROOT
ATOM      1  C   UNL A   1      40.120  20.396  26.712  1.00  0.00     0.023 C 
ENDROOT
BRANCH   1   2
ATOM      2  C   UNL A   1      39.060  21.153  25.902  1.00  0.00     0.116 C 
BRANCH   2   3
ATOM      3  N   UNL A   1      39.204  22.588  26.059  1.00  0.00    -0.352 N 
ATOM      4  C   UNL A   1      38.346  23.648  25.903  1.00  0.00     0.251 C 
ATOM      5  O   UNL A   1      38.808  24.772  26.100  1.00  0.00    -0.269 OA
ATOM      6  H   UNL A   1      40.110  22.859  26.334  1.00  0.00     0.163 HD
BRANCH   4   7
ATOM      7  C   UNL A   1      36.899  23.520  25.555  1.00  0.00     0.039 A 
ATOM      8  C   UNL A   1      34.211  23.404  24.709  1.00  0.00     0.053 A 
ATOM      9  C   UNL A   1      35.234  23.399  23.764  1.00  0.00     0.028 A 
ATOM     10  C   UNL A   1      34.530  23.401  26.069  1.00  0.00     0.028 A 
ATOM     11  C   UNL A   1      36.567  23.490  24.187  1.00  0.00     0.016 A 
ATOM     12  C   UNL A   1      35.864  23.404  26.483  1.00  0.00     0.016 A 
BRANCH   8  13
ATOM     13  N   UNL A   1      32.860  23.407  24.326  1.00  0.00    -0.242 N 
ATOM     14  C   UNL A   1      32.106  22.356  23.887  1.00  0.00     0.095 A 
ATOM     15  C   UNL A   1      30.972  22.885  23.441  1.00  0.00     0.228 A 
ATOM     16  O   UNL A   1      30.898  24.272  23.556  1.00  0.00    -0.415 OA
ATOM     17  C   UNL A   1      32.126  24.577  24.144  1.00  0.00     0.424 A 
ATOM     18  O   UNL A   1      32.466  25.725  24.392  1.00  0.00    -0.223 OA
BRANCH  14  19
ATOM     19  C   UNL A   1      32.421  20.937  24.045  1.00  0.00     0.002 A 
ATOM     20  C   UNL A   1      33.149  18.236  24.281  1.00  0.00     0.082 A 
ATOM     21  C   UNL A   1      32.741  18.732  23.044  1.00  0.00     0.022 A 
ATOM     22  C   UNL A   1      33.178  19.070  25.405  1.00  0.00     0.022 A 
ATOM     23  C   UNL A   1      32.380  20.078  22.932  1.00  0.00     0.012 A 
ATOM     24  C   UNL A   1      32.821  20.418  25.283  1.00  0.00     0.012 A 
BRANCH  20  25
ATOM     25  S   UNL A   1      33.631  16.543  24.478  1.00  0.00     0.238 S 
ATOM     26  O   UNL A   1      34.083  16.060  23.195  1.00  0.00    -0.207 OA
ATOM     27  O   UNL A   1      32.597  15.881  25.243  1.00  0.00    -0.207 OA
BRANCH  25  28
ATOM     28  N   UNL A   1      34.992  16.599  25.453  1.00  0.00    -0.225 NA
ATOM     29  H   UNL A   1      34.818  17.217  26.246  1.00  0.00     0.137 HD
ATOM     30  H   UNL A   1      35.782  16.953  24.914  1.00  0.00     0.137 HD
ENDBRANCH  25  28
ENDBRANCH  20  25
ENDBRANCH  14  19
ENDBRANCH   8  13
ENDBRANCH   4   7
ENDBRANCH   2   3
ENDBRANCH   1   2
BRANCH   1  31
ATOM     31  C   UNL A   1      41.087  19.544  25.876  1.00  0.00     0.023 C 
BRANCH  31  32
ATOM     32  C   UNL A   1      42.501  19.439  26.441  1.00  0.00     0.116 C 
BRANCH  32  33
ATOM     33  N   UNL A   1      43.514  19.257  25.401  1.00  0.00    -0.352 N 
ATOM     34  C   UNL A   1      44.124  20.225  24.625  1.00  0.00     0.251 C 
ATOM     35  H   UNL A   1      43.796  18.329  25.232  1.00  0.00     0.163 HD
ATOM     36  O   UNL A   1      44.635  19.936  23.549  1.00  0.00    -0.269 OA
BRANCH  34  37
ATOM     37  C   UNL A   1      44.163  21.608  25.127  1.00  0.00     0.039 A 
ATOM     38  C   UNL A   1      43.277  22.585  24.663  1.00  0.00     0.014 A 
ATOM     39  C   UNL A   1      45.093  21.901  26.120  1.00  0.00     0.014 A 
ATOM     40  C   UNL A   1      43.274  23.837  25.277  1.00  0.00     0.010 A 
ATOM     41  C   UNL A   1      44.995  23.080  26.813  1.00  0.00     0.010 A 
ATOM     42  C   UNL A   1      44.124  24.071  26.369  1.00  0.00    -0.014 A 
BRANCH  42  43
ATOM     43  C   UNL A   1      44.034  25.304  27.148  1.00  0.00     0.031 A 
ATOM     44  C   UNL A   1      45.071  26.324  26.829  1.00  0.00     0.074 A 
ATOM     45  C   UNL A   1      42.948  25.610  27.892  1.00  0.00     0.049 A 
ATOM     46  N   UNL A   1      46.043  26.732  27.576  1.00  0.00    -0.248 NA
ATOM     47  C   UNL A   1      45.116  26.859  25.456  1.00  0.00     0.031 C 
ATOM     48  C   UNL A   1      41.702  24.841  28.026  1.00  0.00     0.029 A 
ATOM     49  N   UNL A   1      42.665  26.749  28.579  1.00  0.00    -0.354 N 
ATOM     50  C   UNL A   1      46.673  27.751  26.863  1.00  0.00     0.074 A 
ATOM     51  C   UNL A   1      46.203  27.631  25.507  1.00  0.00     0.031 C 
ATOM     52  C   UNL A   1      40.729  25.636  28.518  1.00  0.00     0.029 A 
ATOM     53  C   UNL A   1      41.322  26.900  28.909  1.00  0.00     0.049 A 
ATOM     54  H   UNL A   1      43.353  27.411  28.821  1.00  0.00     0.167 HD
ATOM     55  C   UNL A   1      47.306  28.779  27.498  1.00  0.00     0.031 A 
ATOM     56  C   UNL A   1      40.728  27.995  29.445  1.00  0.00     0.031 A 
ATOM     57  C   UNL A   1      47.482  28.497  28.902  1.00  0.00     0.049 A 
ATOM     58  C   UNL A   1      41.799  28.807  30.067  1.00  0.00     0.074 A 
ATOM     59  C   UNL A   1      48.125  27.522  29.637  1.00  0.00     0.029 A 
ATOM     60  N   UNL A   1      46.590  29.099  29.759  1.00  0.00    -0.354 N 
ATOM     61  N   UNL A   1      42.501  28.401  31.087  1.00  0.00    -0.248 NA
ATOM     62  C   UNL A   1      42.396  29.877  29.286  1.00  0.00     0.031 C 
ATOM     63  C   UNL A   1      47.270  27.281  30.754  1.00  0.00     0.029 A 
ATOM     64  C   UNL A   1      46.193  28.169  30.682  1.00  0.00     0.049 A 
ATOM     65  H   UNL A   1      46.289  30.035  29.717  1.00  0.00     0.167 HD
ATOM     66  C   UNL A   1      43.792  28.835  30.823  1.00  0.00     0.074 A 
ATOM     67  C   UNL A   1      43.641  29.837  29.769  1.00  0.00     0.031 C 
ATOM     68  C   UNL A   1      44.875  28.139  31.283  1.00  0.00     0.031 A 
BRANCH  55  69
ATOM     69  C   UNL A   1      47.341  30.207  26.981  1.00  0.00    -0.014 A 
ATOM     70  C   UNL A   1      48.545  30.935  27.110  1.00  0.00     0.010 A 
ATOM     71  C   UNL A   1      46.187  30.948  26.662  1.00  0.00     0.010 A 
ATOM     72  C   UNL A   1      48.563  32.335  27.053  1.00  0.00     0.020 A 
ATOM     73  C   UNL A   1      46.202  32.341  26.557  1.00  0.00     0.020 A 
ATOM     74  C   UNL A   1      47.381  33.029  26.802  1.00  0.00     0.054 A 
BRANCH  74  75
ATOM     75  S   UNL A   1      47.379  34.837  26.877  1.00  0.00     0.124 S 
ATOM     76  O   UNL A   1      47.237  35.073  28.310  1.00  0.00    -0.237 OA
ATOM     77  O   UNL A   1      48.680  35.170  26.302  1.00  0.00    -0.237 OA
ATOM     78  O   UNL A   1      46.226  35.210  26.061  1.00  0.00    -0.744 OA
ENDBRANCH  74  75
ENDBRANCH  55  69
BRANCH  56  79
ATOM     79  C   UNL A   1      39.355  28.509  29.214  1.00  0.00    -0.014 A 
ATOM     80  C   UNL A   1      38.485  28.777  30.287  1.00  0.00     0.010 A 
ATOM     81  C   UNL A   1      38.998  29.004  27.943  1.00  0.00     0.010 A 
ATOM     82  C   UNL A   1      37.331  29.560  30.106  1.00  0.00     0.020 A 
ATOM     83  C   UNL A   1      37.849  29.781  27.754  1.00  0.00     0.020 A 
ATOM     84  C   UNL A   1      37.031  30.075  28.842  1.00  0.00     0.054 A 
BRANCH  84  85
ATOM     85  S   UNL A   1      35.633  31.221  28.649  1.00  0.00     0.124 S 
ATOM     86  O   UNL A   1      35.205  31.422  30.030  1.00  0.00    -0.237 OA
ATOM     87  O   UNL A   1      36.253  32.375  28.004  1.00  0.00    -0.237 OA
ATOM     88  O   UNL A   1      34.692  30.478  27.813  1.00  0.00    -0.744 OA
ENDBRANCH  84  85
ENDBRANCH  56  79
BRANCH  68  89
ATOM     89  C   UNL A   1      44.656  27.098  32.355  1.00  0.00    -0.014 A 
ATOM     90  C   UNL A   1      44.447  27.396  33.716  1.00  0.00     0.010 A 
ATOM     91  C   UNL A   1      44.509  25.765  31.932  1.00  0.00     0.010 A 
ATOM     92  C   UNL A   1      44.125  26.380  34.631  1.00  0.00     0.020 A 
ATOM     93  C   UNL A   1      44.171  24.754  32.832  1.00  0.00     0.020 A 
ATOM     94  C   UNL A   1      43.990  25.063  34.180  1.00  0.00     0.054 A 
BRANCH  94  95
ATOM     95  S   UNL A   1      43.534  23.756  35.353  1.00  0.00     0.124 S 
ATOM     96  O   UNL A   1      44.042  22.552  34.701  1.00  0.00    -0.237 OA
ATOM     97  O   UNL A   1      44.234  24.155  36.572  1.00  0.00    -0.237 OA
ATOM     98  O   UNL A   1      42.076  23.849  35.429  1.00  0.00    -0.744 OA
ENDBRANCH  94  95
ENDBRANCH  68  89
ENDBRANCH  42  43
ENDBRANCH  34  37
ENDBRANCH  32  33
ENDBRANCH  31  32
ENDBRANCH   1  31
TORSDOF 18
ENDMDL
