MODEL 1
REMARK VINA RESULT:     -10.2      0.000      0.000
REMARK SMILES CC(C)[C@@H](Nc1cc(Cl)c(Cl)cc1[N+](=O)[O-])C(=O)NCCCCNC(=O)c1ccc(-c2c3nc(c(-c4ccc(S(=O)(=O)[O-])cc4)c4ccc([nH]4)c(-c4ccc(S(=O)(=O)[O-])cc4)c4nc(c(-c5ccc(S(=O)(=O)[O-])cc5)c5ccc2[nH]5)C=C4)C=C3)cc1
REMARK SMILES IDX 21 1 20 2 19 3 17 4 18 5 4 7 2 8 1 9 3 10 5 11 6 13 7 14
REMARK SMILES IDX 13 15 8 16 12 17 9 18 10 19 11 20 14 21 15 22 16 23 22 24
REMARK SMILES IDX 23 25 24 26 25 27 26 29 27 30 28 31 86 32 29 33 85 34 30 35
REMARK SMILES IDX 31 36 32 37 79 38 33 39 84 40 78 41 80 42 34 43 83 44 77 45
REMARK SMILES IDX 76 46 35 48 65 49 46 50 64 51 47 52 50 53 63 54 81 55 48 56
REMARK SMILES IDX 49 57 62 59 82 60 51 61 36 62 37 63 45 64 38 65 44 66 39 67
REMARK SMILES IDX 40 68 41 69 42 70 43 71 66 72 67 73 75 74 68 75 74 76 69 77
REMARK SMILES IDX 70 78 71 79 72 80 73 81 52 82 53 83 61 84 54 85 60 86 55 87
REMARK SMILES IDX 56 88 57 89 58 90 59 91
REMARK H PARENT 19 6 5 12 24 28 80 47 50 58
REMARK Flexibility Score: inf
ROOT
ATOM      1  C   UNL A   1      33.357  28.423  24.796  1.00  0.00     0.023 C 
ENDROOT
BRANCH   1   2
ATOM      2  C   UNL A   1      33.611  27.582  23.555  1.00  0.00     0.116 C 
BRANCH   2   3
ATOM      3  N   UNL A   1      32.377  27.056  23.006  1.00  0.00    -0.354 N 
ATOM      4  C   UNL A   1      31.673  25.942  23.366  1.00  0.00     0.242 C 
ATOM      5  O   UNL A   1      30.623  25.703  22.763  1.00  0.00    -0.273 OA
ATOM      6  H   UNL A   1      31.989  27.579  22.267  1.00  0.00     0.163 HD
BRANCH   4   7
ATOM      7  C   UNL A   1      32.169  25.001  24.497  1.00  0.00     0.171 C 
BRANCH   7   8
ATOM      8  C   UNL A   1      31.058  24.838  25.580  1.00  0.00     0.015 C 
ATOM      9  C   UNL A   1      31.525  24.060  26.815  1.00  0.00     0.010 C 
ATOM     10  C   UNL A   1      30.502  26.195  26.040  1.00  0.00     0.010 C 
ENDBRANCH   7   8
BRANCH   7  11
ATOM     11  N   UNL A   1      32.635  23.681  23.997  1.00  0.00    -0.368 N 
ATOM     12  H   UNL A   1      32.110  23.284  23.267  1.00  0.00     0.161 HD
BRANCH  11  13
ATOM     13  C   UNL A   1      33.726  22.942  24.438  1.00  0.00     0.115 A 
ATOM     14  C   UNL A   1      34.969  23.554  24.674  1.00  0.00     0.055 A 
ATOM     15  C   UNL A   1      33.692  21.525  24.503  1.00  0.00     0.293 A 
ATOM     16  C   UNL A   1      36.142  22.807  24.856  1.00  0.00     0.062 A 
ATOM     17  C   UNL A   1      34.864  20.769  24.687  1.00  0.00     0.110 A 
ATOM     18  Cl  UNL A   1      37.625  23.671  25.052  1.00  0.00    -0.083 Cl
ATOM     19  C   UNL A   1      36.091  21.412  24.837  1.00  0.00     0.066 A 
ATOM     20  Cl  UNL A   1      37.501  20.427  24.972  1.00  0.00    -0.082 Cl
BRANCH  15  21
ATOM     21  N   UNL A   1      32.432  20.783  24.305  1.00  0.00     0.065 N 
ATOM     22  O   UNL A   1      32.387  19.970  23.371  1.00  0.00    -0.258 OA
ATOM     23  O   UNL A   1      31.488  21.006  25.076  1.00  0.00    -0.258 OA
ENDBRANCH  15  21
ENDBRANCH  11  13
ENDBRANCH   7  11
ENDBRANCH   4   7
ENDBRANCH   2   3
ENDBRANCH   1   2
BRANCH   1  24
ATOM     24  C   UNL A   1      33.953  27.831  26.071  1.00  0.00     0.023 C 
BRANCH  24  25
ATOM     25  C   UNL A   1      33.345  28.359  27.366  1.00  0.00     0.116 C 
BRANCH  25  26
ATOM     26  N   UNL A   1      33.307  29.813  27.420  1.00  0.00    -0.352 N 
ATOM     27  C   UNL A   1      34.287  30.680  27.837  1.00  0.00     0.251 C 
ATOM     28  H   UNL A   1      32.467  30.230  27.117  1.00  0.00     0.163 HD
ATOM     29  O   UNL A   1      34.036  31.874  27.973  1.00  0.00    -0.269 OA
BRANCH  27  30
ATOM     30  C   UNL A   1      35.631  30.155  28.149  1.00  0.00     0.039 A 
ATOM     31  C   UNL A   1      36.611  30.177  27.157  1.00  0.00     0.014 A 
ATOM     32  C   UNL A   1      35.929  29.677  29.429  1.00  0.00     0.014 A 
ATOM     33  C   UNL A   1      37.910  29.770  27.465  1.00  0.00     0.010 A 
ATOM     34  C   UNL A   1      37.241  29.353  29.756  1.00  0.00     0.010 A 
ATOM     35  C   UNL A   1      38.244  29.388  28.776  1.00  0.00    -0.014 A 
BRANCH  35  36
ATOM     36  C   UNL A   1      39.638  29.021  29.132  1.00  0.00     0.031 A 
ATOM     37  C   UNL A   1      40.525  30.010  29.840  1.00  0.00     0.074 A 
ATOM     38  C   UNL A   1      40.118  27.810  28.782  1.00  0.00     0.049 A 
ATOM     39  N   UNL A   1      41.767  29.872  30.226  1.00  0.00    -0.248 NA
ATOM     40  C   UNL A   1      39.951  31.333  30.132  1.00  0.00     0.031 C 
ATOM     41  C   UNL A   1      39.373  26.783  28.051  1.00  0.00     0.029 A 
ATOM     42  N   UNL A   1      41.347  27.238  28.995  1.00  0.00    -0.354 N 
ATOM     43  C   UNL A   1      42.125  31.090  30.794  1.00  0.00     0.074 A 
ATOM     44  C   UNL A   1      40.990  31.972  30.649  1.00  0.00     0.031 C 
ATOM     45  C   UNL A   1      40.146  25.694  27.912  1.00  0.00     0.029 A 
ATOM     46  C   UNL A   1      41.453  25.959  28.504  1.00  0.00     0.049 A 
ATOM     47  H   UNL A   1      42.083  27.702  29.457  1.00  0.00     0.167 HD
ATOM     48  C   UNL A   1      43.284  31.435  31.402  1.00  0.00     0.031 A 
ATOM     49  C   UNL A   1      42.486  25.093  28.527  1.00  0.00     0.031 A 
ATOM     50  C   UNL A   1      44.411  30.551  31.548  1.00  0.00     0.049 A 
ATOM     51  C   UNL A   1      43.768  25.504  29.200  1.00  0.00     0.074 A 
ATOM     52  C   UNL A   1      45.611  30.787  32.195  1.00  0.00     0.029 A 
ATOM     53  N   UNL A   1      44.479  29.263  31.038  1.00  0.00    -0.354 N 
ATOM     54  N   UNL A   1      44.061  26.635  29.796  1.00  0.00    -0.248 NA
ATOM     55  C   UNL A   1      44.853  24.514  29.217  1.00  0.00     0.031 C 
ATOM     56  C   UNL A   1      46.428  29.664  32.024  1.00  0.00     0.029 A 
ATOM     57  C   UNL A   1      45.710  28.701  31.331  1.00  0.00     0.049 A 
ATOM     58  H   UNL A   1      43.758  28.814  30.540  1.00  0.00     0.167 HD
ATOM     59  C   UNL A   1      45.354  26.482  30.284  1.00  0.00     0.074 A 
ATOM     60  C   UNL A   1      45.777  25.142  29.930  1.00  0.00     0.031 C 
ATOM     61  C   UNL A   1      46.121  27.369  30.966  1.00  0.00     0.031 A 
BRANCH  48  62
ATOM     62  C   UNL A   1      43.393  32.834  31.952  1.00  0.00    -0.014 A 
ATOM     63  C   UNL A   1      42.982  33.135  33.264  1.00  0.00     0.010 A 
ATOM     64  C   UNL A   1      43.951  33.856  31.161  1.00  0.00     0.010 A 
ATOM     65  C   UNL A   1      43.086  34.438  33.759  1.00  0.00     0.020 A 
ATOM     66  C   UNL A   1      44.087  35.153  31.664  1.00  0.00     0.020 A 
ATOM     67  C   UNL A   1      43.637  35.439  32.955  1.00  0.00     0.054 A 
BRANCH  67  68
ATOM     68  S   UNL A   1      43.784  37.114  33.634  1.00  0.00     0.124 S 
ATOM     69  O   UNL A   1      43.787  37.931  32.423  1.00  0.00    -0.237 OA
ATOM     70  O   UNL A   1      42.587  37.228  34.465  1.00  0.00    -0.237 OA
ATOM     71  O   UNL A   1      45.047  37.083  34.367  1.00  0.00    -0.744 OA
ENDBRANCH  67  68
ENDBRANCH  48  62
BRANCH  49  72
ATOM     72  C   UNL A   1      42.342  23.746  27.911  1.00  0.00    -0.014 A 
ATOM     73  C   UNL A   1      42.708  23.527  26.570  1.00  0.00     0.010 A 
ATOM     74  C   UNL A   1      41.848  22.667  28.666  1.00  0.00     0.010 A 
ATOM     75  C   UNL A   1      42.561  22.264  25.991  1.00  0.00     0.020 A 
ATOM     76  C   UNL A   1      41.729  21.394  28.100  1.00  0.00     0.020 A 
ATOM     77  C   UNL A   1      42.075  21.203  26.761  1.00  0.00     0.054 A 
BRANCH  77  78
ATOM     78  S   UNL A   1      41.940  19.561  26.003  1.00  0.00     0.124 S 
ATOM     79  O   UNL A   1      42.788  19.700  24.824  1.00  0.00    -0.237 OA
ATOM     80  O   UNL A   1      42.452  18.686  27.054  1.00  0.00    -0.237 OA
ATOM     81  O   UNL A   1      40.509  19.426  25.734  1.00  0.00    -0.744 OA
ENDBRANCH  77  78
ENDBRANCH  49  72
BRANCH  61  82
ATOM     82  C   UNL A   1      47.486  26.909  31.406  1.00  0.00    -0.014 A 
ATOM     83  C   UNL A   1      48.621  27.103  30.599  1.00  0.00     0.010 A 
ATOM     84  C   UNL A   1      47.639  26.305  32.668  1.00  0.00     0.010 A 
ATOM     85  C   UNL A   1      49.877  26.664  31.028  1.00  0.00     0.020 A 
ATOM     86  C   UNL A   1      48.897  25.895  33.115  1.00  0.00     0.020 A 
ATOM     87  C   UNL A   1      50.006  26.060  32.283  1.00  0.00     0.054 A 
BRANCH  87  88
ATOM     88  S   UNL A   1      51.651  25.524  32.827  1.00  0.00     0.124 S 
ATOM     89  O   UNL A   1      51.550  25.662  34.277  1.00  0.00    -0.237 OA
ATOM     90  O   UNL A   1      51.722  24.153  32.329  1.00  0.00    -0.237 OA
ATOM     91  O   UNL A   1      52.557  26.467  32.173  1.00  0.00    -0.744 OA
ENDBRANCH  87  88
ENDBRANCH  61  82
ENDBRANCH  35  36
ENDBRANCH  27  30
ENDBRANCH  25  26
ENDBRANCH  24  25
ENDBRANCH   1  24
TORSDOF 18
ENDMDL
MODEL 2
REMARK VINA RESULT:      -9.6      2.925      9.241
REMARK SMILES CC(C)[C@@H](Nc1cc(Cl)c(Cl)cc1[N+](=O)[O-])C(=O)NCCCCNC(=O)c1ccc(-c2c3nc(c(-c4ccc(S(=O)(=O)[O-])cc4)c4ccc([nH]4)c(-c4ccc(S(=O)(=O)[O-])cc4)c4nc(c(-c5ccc(S(=O)(=O)[O-])cc5)c5ccc2[nH]5)C=C4)C=C3)cc1
REMARK SMILES IDX 21 1 20 2 19 3 17 4 18 5 4 7 2 8 1 9 3 10 5 11 6 13 7 14
REMARK SMILES IDX 13 15 8 16 12 17 9 18 10 19 11 20 14 21 15 22 16 23 22 24
REMARK SMILES IDX 23 25 24 26 25 27 26 29 27 30 28 31 86 32 29 33 85 34 30 35
REMARK SMILES IDX 31 36 32 37 79 38 33 39 84 40 78 41 80 42 34 43 83 44 77 45
REMARK SMILES IDX 76 46 35 48 65 49 46 50 64 51 47 52 50 53 63 54 81 55 48 56
REMARK SMILES IDX 49 57 62 59 82 60 51 61 36 62 37 63 45 64 38 65 44 66 39 67
REMARK SMILES IDX 40 68 41 69 42 70 43 71 66 72 67 73 75 74 68 75 74 76 69 77
REMARK SMILES IDX 70 78 71 79 72 80 73 81 52 82 53 83 61 84 54 85 60 86 55 87
REMARK SMILES IDX 56 88 57 89 58 90 59 91
REMARK H PARENT 19 6 5 12 24 28 80 47 50 58
REMARK Flexibility Score: inf
ROOT
ATOM      1  C   UNL A   1      33.981  24.844  25.255  1.00  0.00     0.023 C 
ENDROOT
BRANCH   1   2
ATOM      2  C   UNL A   1      32.757  25.134  26.109  1.00  0.00     0.116 C 
BRANCH   2   3
ATOM      3  N   UNL A   1      31.529  24.932  25.364  1.00  0.00    -0.354 N 
ATOM      4  C   UNL A   1      31.293  25.074  24.026  1.00  0.00     0.242 C 
ATOM      5  O   UNL A   1      30.158  24.823  23.611  1.00  0.00    -0.273 OA
ATOM      6  H   UNL A   1      30.753  24.652  25.901  1.00  0.00     0.163 HD
BRANCH   4   7
ATOM      7  C   UNL A   1      32.409  25.536  23.051  1.00  0.00     0.171 C 
BRANCH   7   8
ATOM      8  C   UNL A   1      32.430  24.616  21.790  1.00  0.00     0.015 C 
ATOM      9  C   UNL A   1      32.806  25.360  20.504  1.00  0.00     0.010 C 
ATOM     10  C   UNL A   1      33.386  23.427  21.964  1.00  0.00     0.010 C 
ENDBRANCH   7   8
BRANCH   7  11
ATOM     11  N   UNL A   1      32.301  26.970  22.673  1.00  0.00    -0.368 N 
ATOM     12  H   UNL A   1      32.247  27.161  21.710  1.00  0.00     0.161 HD
BRANCH  11  13
ATOM     13  C   UNL A   1      32.265  28.072  23.519  1.00  0.00     0.115 A 
ATOM     14  C   UNL A   1      33.301  28.314  24.438  1.00  0.00     0.055 A 
ATOM     15  C   UNL A   1      31.118  28.899  23.621  1.00  0.00     0.293 A 
ATOM     16  C   UNL A   1      33.170  29.249  25.475  1.00  0.00     0.062 A 
ATOM     17  C   UNL A   1      30.979  29.841  24.658  1.00  0.00     0.110 A 
ATOM     18  Cl  UNL A   1      34.477  29.397  26.595  1.00  0.00    -0.083 Cl
ATOM     19  C   UNL A   1      31.997  29.994  25.598  1.00  0.00     0.066 A 
ATOM     20  Cl  UNL A   1      31.730  31.103  26.893  1.00  0.00    -0.082 Cl
BRANCH  15  21
ATOM     21  N   UNL A   1      29.987  28.753  22.685  1.00  0.00     0.065 N 
ATOM     22  O   UNL A   1      29.124  27.906  22.957  1.00  0.00    -0.258 OA
ATOM     23  O   UNL A   1      29.953  29.480  21.681  1.00  0.00    -0.258 OA
ENDBRANCH  15  21
ENDBRANCH  11  13
ENDBRANCH   7  11
ENDBRANCH   4   7
ENDBRANCH   2   3
ENDBRANCH   1   2
BRANCH   1  24
ATOM     24  C   UNL A   1      34.983  23.903  25.919  1.00  0.00     0.023 C 
BRANCH  24  25
ATOM     25  C   UNL A   1      36.444  24.315  25.770  1.00  0.00     0.116 C 
BRANCH  25  26
ATOM     26  N   UNL A   1      37.353  23.179  25.755  1.00  0.00    -0.352 N 
ATOM     27  C   UNL A   1      38.657  23.121  26.181  1.00  0.00     0.251 C 
ATOM     28  H   UNL A   1      36.984  22.341  25.391  1.00  0.00     0.163 HD
ATOM     29  O   UNL A   1      39.338  22.126  25.949  1.00  0.00    -0.269 OA
BRANCH  27  30
ATOM     30  C   UNL A   1      39.238  24.278  26.890  1.00  0.00     0.039 A 
ATOM     31  C   UNL A   1      40.020  25.185  26.173  1.00  0.00     0.014 A 
ATOM     32  C   UNL A   1      38.979  24.486  28.248  1.00  0.00     0.014 A 
ATOM     33  C   UNL A   1      40.498  26.332  26.809  1.00  0.00     0.010 A 
ATOM     34  C   UNL A   1      39.385  25.669  28.855  1.00  0.00     0.010 A 
ATOM     35  C   UNL A   1      40.155  26.601  28.145  1.00  0.00    -0.014 A 
BRANCH  35  36
ATOM     36  C   UNL A   1      40.600  27.852  28.810  1.00  0.00     0.031 A 
ATOM     37  C   UNL A   1      41.991  27.957  29.376  1.00  0.00     0.074 A 
ATOM     38  C   UNL A   1      39.737  28.880  28.940  1.00  0.00     0.049 A 
ATOM     39  N   UNL A   1      42.554  28.963  29.993  1.00  0.00    -0.248 NA
ATOM     40  C   UNL A   1      42.854  26.771  29.252  1.00  0.00     0.031 C 
ATOM     41  C   UNL A   1      38.347  28.883  28.476  1.00  0.00     0.029 A 
ATOM     42  N   UNL A   1      39.901  30.123  29.498  1.00  0.00    -0.354 N 
ATOM     43  C   UNL A   1      43.829  28.529  30.341  1.00  0.00     0.074 A 
ATOM     44  C   UNL A   1      43.934  27.150  29.918  1.00  0.00     0.031 C 
ATOM     45  C   UNL A   1      37.800  30.082  28.735  1.00  0.00     0.029 A 
ATOM     46  C   UNL A   1      38.782  30.917  29.418  1.00  0.00     0.049 A 
ATOM     47  H   UNL A   1      40.742  30.417  29.918  1.00  0.00     0.167 HD
ATOM     48  C   UNL A   1      44.828  29.220  30.936  1.00  0.00     0.031 A 
ATOM     49  C   UNL A   1      38.568  32.177  29.846  1.00  0.00     0.031 A 
ATOM     50  C   UNL A   1      44.720  30.594  31.352  1.00  0.00     0.049 A 
ATOM     51  C   UNL A   1      39.692  32.921  30.514  1.00  0.00     0.074 A 
ATOM     52  C   UNL A   1      45.693  31.401  31.916  1.00  0.00     0.029 A 
ATOM     53  N   UNL A   1      43.570  31.363  31.253  1.00  0.00    -0.354 N 
ATOM     54  N   UNL A   1      40.914  32.517  30.768  1.00  0.00    -0.248 NA
ATOM     55  C   UNL A   1      39.412  34.299  30.939  1.00  0.00     0.031 C 
ATOM     56  C   UNL A   1      45.113  32.640  32.212  1.00  0.00     0.029 A 
ATOM     57  C   UNL A   1      43.800  32.628  31.769  1.00  0.00     0.049 A 
ATOM     58  H   UNL A   1      42.717  31.056  30.871  1.00  0.00     0.167 HD
ATOM     59  C   UNL A   1      41.556  33.600  31.356  1.00  0.00     0.074 A 
ATOM     60  C   UNL A   1      40.594  34.682  31.403  1.00  0.00     0.031 C 
ATOM     61  C   UNL A   1      42.830  33.692  31.815  1.00  0.00     0.031 A 
BRANCH  48  62
ATOM     62  C   UNL A   1      46.128  28.497  31.179  1.00  0.00    -0.014 A 
ATOM     63  C   UNL A   1      46.377  27.833  32.395  1.00  0.00     0.010 A 
ATOM     64  C   UNL A   1      47.101  28.444  30.163  1.00  0.00     0.010 A 
ATOM     65  C   UNL A   1      47.587  27.169  32.607  1.00  0.00     0.020 A 
ATOM     66  C   UNL A   1      48.300  27.753  30.359  1.00  0.00     0.020 A 
ATOM     67  C   UNL A   1      48.542  27.135  31.587  1.00  0.00     0.054 A 
BRANCH  67  68
ATOM     68  S   UNL A   1      50.094  26.243  31.882  1.00  0.00     0.124 S 
ATOM     69  O   UNL A   1      50.456  26.703  33.219  1.00  0.00    -0.237 OA
ATOM     70  O   UNL A   1      49.681  24.844  31.789  1.00  0.00    -0.237 OA
ATOM     71  O   UNL A   1      50.969  26.704  30.807  1.00  0.00    -0.744 OA
ENDBRANCH  67  68
ENDBRANCH  48  62
BRANCH  49  72
ATOM     72  C   UNL A   1      37.242  32.819  29.636  1.00  0.00    -0.014 A 
ATOM     73  C   UNL A   1      36.294  32.866  30.675  1.00  0.00     0.010 A 
ATOM     74  C   UNL A   1      36.921  33.400  28.395  1.00  0.00     0.010 A 
ATOM     75  C   UNL A   1      35.046  33.460  30.472  1.00  0.00     0.020 A 
ATOM     76  C   UNL A   1      35.685  34.022  28.197  1.00  0.00     0.020 A 
ATOM     77  C   UNL A   1      34.749  34.037  29.234  1.00  0.00     0.054 A 
BRANCH  77  78
ATOM     78  S   UNL A   1      33.142  34.846  29.008  1.00  0.00     0.124 S 
ATOM     79  O   UNL A   1      32.577  34.779  30.351  1.00  0.00    -0.237 OA
ATOM     80  O   UNL A   1      33.522  36.179  28.545  1.00  0.00    -0.237 OA
ATOM     81  O   UNL A   1      32.478  34.014  28.006  1.00  0.00    -0.744 OA
ENDBRANCH  77  78
ENDBRANCH  49  72
BRANCH  61  82
ATOM     82  C   UNL A   1      43.269  35.020  32.377  1.00  0.00    -0.014 A 
ATOM     83  C   UNL A   1      43.811  36.021  31.552  1.00  0.00     0.010 A 
ATOM     84  C   UNL A   1      43.098  35.281  33.749  1.00  0.00     0.010 A 
ATOM     85  C   UNL A   1      44.214  37.244  32.096  1.00  0.00     0.020 A 
ATOM     86  C   UNL A   1      43.469  36.514  34.292  1.00  0.00     0.020 A 
ATOM     87  C   UNL A   1      44.042  37.481  33.464  1.00  0.00     0.054 A 
BRANCH  87  88
ATOM     88  S   UNL A   1      44.548  39.086  34.141  1.00  0.00     0.124 S 
ATOM     89  O   UNL A   1      45.948  39.158  33.736  1.00  0.00    -0.237 OA
ATOM     90  O   UNL A   1      43.649  40.017  33.464  1.00  0.00    -0.237 OA
ATOM     91  O   UNL A   1      44.322  38.943  35.578  1.00  0.00    -0.744 OA
ENDBRANCH  87  88
ENDBRANCH  61  82
ENDBRANCH  35  36
ENDBRANCH  27  30
ENDBRANCH  25  26
ENDBRANCH  24  25
ENDBRANCH   1  24
TORSDOF 18
ENDMDL
MODEL 3
REMARK VINA RESULT:      -9.5      3.749      5.007
REMARK SMILES CC(C)[C@@H](Nc1cc(Cl)c(Cl)cc1[N+](=O)[O-])C(=O)NCCCCNC(=O)c1ccc(-c2c3nc(c(-c4ccc(S(=O)(=O)[O-])cc4)c4ccc([nH]4)c(-c4ccc(S(=O)(=O)[O-])cc4)c4nc(c(-c5ccc(S(=O)(=O)[O-])cc5)c5ccc2[nH]5)C=C4)C=C3)cc1
REMARK SMILES IDX 21 1 20 2 19 3 17 4 18 5 4 7 2 8 1 9 3 10 5 11 6 13 7 14
REMARK SMILES IDX 13 15 8 16 12 17 9 18 10 19 11 20 14 21 15 22 16 23 22 24
REMARK SMILES IDX 23 25 24 26 25 27 26 29 27 30 28 31 86 32 29 33 85 34 30 35
REMARK SMILES IDX 31 36 32 37 79 38 33 39 84 40 78 41 80 42 34 43 83 44 77 45
REMARK SMILES IDX 76 46 35 48 65 49 46 50 64 51 47 52 50 53 63 54 81 55 48 56
REMARK SMILES IDX 49 57 62 59 82 60 51 61 36 62 37 63 45 64 38 65 44 66 39 67
REMARK SMILES IDX 40 68 41 69 42 70 43 71 66 72 67 73 75 74 68 75 74 76 69 77
REMARK SMILES IDX 70 78 71 79 72 80 73 81 52 82 53 83 61 84 54 85 60 86 55 87
REMARK SMILES IDX 56 88 57 89 58 90 59 91
REMARK H PARENT 19 6 5 12 24 28 80 47 50 58
REMARK Flexibility Score: inf
ROOT
ATOM      1  C   UNL A   1      32.571  29.319  27.239  1.00  0.00     0.023 C 
ENDROOT
BRANCH   1   2
ATOM      2  C   UNL A   1      33.784  28.526  26.781  1.00  0.00     0.116 C 
BRANCH   2   3
ATOM      3  N   UNL A   1      34.080  28.766  25.382  1.00  0.00    -0.354 N 
ATOM      4  C   UNL A   1      33.657  28.084  24.277  1.00  0.00     0.242 C 
ATOM      5  O   UNL A   1      34.026  28.492  23.172  1.00  0.00    -0.273 OA
ATOM      6  H   UNL A   1      34.671  29.533  25.203  1.00  0.00     0.163 HD
BRANCH   4   7
ATOM      7  C   UNL A   1      32.742  26.836  24.396  1.00  0.00     0.171 C 
BRANCH   7   8
ATOM      8  C   UNL A   1      31.294  27.191  23.935  1.00  0.00     0.015 C 
ATOM      9  C   UNL A   1      31.033  26.870  22.459  1.00  0.00     0.010 C 
ATOM     10  C   UNL A   1      30.231  26.478  24.785  1.00  0.00     0.010 C 
ENDBRANCH   7   8
BRANCH   7  11
ATOM     11  N   UNL A   1      33.268  25.652  23.666  1.00  0.00    -0.368 N 
ATOM     12  H   UNL A   1      33.156  25.661  22.689  1.00  0.00     0.161 HD
BRANCH  11  13
ATOM     13  C   UNL A   1      33.899  24.535  24.200  1.00  0.00     0.115 A 
ATOM     14  C   UNL A   1      35.047  24.664  25.000  1.00  0.00     0.055 A 
ATOM     15  C   UNL A   1      33.528  23.218  23.826  1.00  0.00     0.293 A 
ATOM     16  C   UNL A   1      35.853  23.564  25.326  1.00  0.00     0.062 A 
ATOM     17  C   UNL A   1      34.331  22.108  24.151  1.00  0.00     0.110 A 
ATOM     18  Cl  UNL A   1      37.286  23.859  26.245  1.00  0.00    -0.083 Cl
ATOM     19  C   UNL A   1      35.506  22.289  24.879  1.00  0.00     0.066 A 
ATOM     20  Cl  UNL A   1      36.489  20.901  25.170  1.00  0.00    -0.082 Cl
BRANCH  15  21
ATOM     21  N   UNL A   1      32.322  22.966  23.015  1.00  0.00     0.065 N 
ATOM     22  O   UNL A   1      31.261  23.485  23.389  1.00  0.00    -0.258 OA
ATOM     23  O   UNL A   1      32.428  22.254  22.006  1.00  0.00    -0.258 OA
ENDBRANCH  15  21
ENDBRANCH  11  13
ENDBRANCH   7  11
ENDBRANCH   4   7
ENDBRANCH   2   3
ENDBRANCH   1   2
BRANCH   1  24
ATOM     24  C   UNL A   1      32.570  30.770  26.762  1.00  0.00     0.023 C 
BRANCH  24  25
ATOM     25  C   UNL A   1      33.610  31.664  27.430  1.00  0.00     0.116 C 
BRANCH  25  26
ATOM     26  N   UNL A   1      33.089  32.979  27.771  1.00  0.00    -0.352 N 
ATOM     27  C   UNL A   1      33.497  33.829  28.768  1.00  0.00     0.251 C 
ATOM     28  H   UNL A   1      32.344  33.302  27.212  1.00  0.00     0.163 HD
ATOM     29  O   UNL A   1      32.844  34.836  29.027  1.00  0.00    -0.269 OA
BRANCH  27  30
ATOM     30  C   UNL A   1      34.709  33.502  29.546  1.00  0.00     0.039 A 
ATOM     31  C   UNL A   1      34.634  32.513  30.528  1.00  0.00     0.014 A 
ATOM     32  C   UNL A   1      35.922  34.143  29.279  1.00  0.00     0.014 A 
ATOM     33  C   UNL A   1      35.792  32.128  31.205  1.00  0.00     0.010 A 
ATOM     34  C   UNL A   1      37.087  33.700  29.895  1.00  0.00     0.010 A 
ATOM     35  C   UNL A   1      37.033  32.694  30.870  1.00  0.00    -0.014 A 
BRANCH  35  36
ATOM     36  C   UNL A   1      38.282  32.242  31.535  1.00  0.00     0.031 A 
ATOM     37  C   UNL A   1      38.665  32.793  32.884  1.00  0.00     0.074 A 
ATOM     38  C   UNL A   1      39.092  31.366  30.907  1.00  0.00     0.049 A 
ATOM     39  N   UNL A   1      39.715  32.523  33.615  1.00  0.00    -0.248 NA
ATOM     40  C   UNL A   1      37.763  33.793  33.477  1.00  0.00     0.031 C 
ATOM     41  C   UNL A   1      38.856  30.797  29.578  1.00  0.00     0.029 A 
ATOM     42  N   UNL A   1      40.277  30.799  31.304  1.00  0.00    -0.354 N 
ATOM     43  C   UNL A   1      39.606  33.325  34.745  1.00  0.00     0.074 A 
ATOM     44  C   UNL A   1      38.420  34.134  34.576  1.00  0.00     0.031 C 
ATOM     45  C   UNL A   1      39.843  29.934  29.288  1.00  0.00     0.029 A 
ATOM     46  C   UNL A   1      40.802  29.919  30.387  1.00  0.00     0.049 A 
ATOM     47  H   UNL A   1      40.711  31.004  32.164  1.00  0.00     0.167 HD
ATOM     48  C   UNL A   1      40.407  33.369  35.836  1.00  0.00     0.031 A 
ATOM     49  C   UNL A   1      41.929  29.182  30.425  1.00  0.00     0.031 A 
ATOM     50  C   UNL A   1      41.585  32.559  36.002  1.00  0.00     0.049 A 
ATOM     51  C   UNL A   1      42.809  29.255  31.644  1.00  0.00     0.074 A 
ATOM     52  C   UNL A   1      42.434  32.489  37.092  1.00  0.00     0.029 A 
ATOM     53  N   UNL A   1      42.083  31.680  35.051  1.00  0.00    -0.354 N 
ATOM     54  N   UNL A   1      42.649  29.966  32.735  1.00  0.00    -0.248 NA
ATOM     55  C   UNL A   1      44.012  28.413  31.644  1.00  0.00     0.031 C 
ATOM     56  C   UNL A   1      43.479  31.613  36.777  1.00  0.00     0.029 A 
ATOM     57  C   UNL A   1      43.242  31.083  35.519  1.00  0.00     0.049 A 
ATOM     58  H   UNL A   1      41.672  31.506  34.174  1.00  0.00     0.167 HD
ATOM     59  C   UNL A   1      43.717  29.635  33.562  1.00  0.00     0.074 A 
ATOM     60  C   UNL A   1      44.504  28.646  32.853  1.00  0.00     0.031 C 
ATOM     61  C   UNL A   1      44.019  30.106  34.798  1.00  0.00     0.031 A 
BRANCH  48  62
ATOM     62  C   UNL A   1      40.037  34.332  36.934  1.00  0.00    -0.014 A 
ATOM     63  C   UNL A   1      39.288  33.911  38.050  1.00  0.00     0.010 A 
ATOM     64  C   UNL A   1      40.476  35.667  36.873  1.00  0.00     0.010 A 
ATOM     65  C   UNL A   1      38.949  34.815  39.060  1.00  0.00     0.020 A 
ATOM     66  C   UNL A   1      40.167  36.567  37.897  1.00  0.00     0.020 A 
ATOM     67  C   UNL A   1      39.390  36.139  38.975  1.00  0.00     0.054 A 
BRANCH  67  68
ATOM     68  S   UNL A   1      38.957  37.284  40.314  1.00  0.00     0.124 S 
ATOM     69  O   UNL A   1      38.224  38.323  39.596  1.00  0.00    -0.237 OA
ATOM     70  O   UNL A   1      38.153  36.447  41.202  1.00  0.00    -0.237 OA
ATOM     71  O   UNL A   1      40.252  37.695  40.853  1.00  0.00    -0.744 OA
ENDBRANCH  67  68
ENDBRANCH  48  62
BRANCH  49  72
ATOM     72  C   UNL A   1      42.279  28.295  29.282  1.00  0.00    -0.014 A 
ATOM     73  C   UNL A   1      41.742  26.998  29.188  1.00  0.00     0.010 A 
ATOM     74  C   UNL A   1      43.145  28.748  28.269  1.00  0.00     0.010 A 
ATOM     75  C   UNL A   1      42.080  26.165  28.119  1.00  0.00     0.020 A 
ATOM     76  C   UNL A   1      43.461  27.929  27.182  1.00  0.00     0.020 A 
ATOM     77  C   UNL A   1      42.937  26.637  27.120  1.00  0.00     0.054 A 
BRANCH  77  78
ATOM     78  S   UNL A   1      43.323  25.555  25.716  1.00  0.00     0.124 S 
ATOM     79  O   UNL A   1      43.542  24.271  26.373  1.00  0.00    -0.237 OA
ATOM     80  O   UNL A   1      42.114  25.653  24.901  1.00  0.00    -0.237 OA
ATOM     81  O   UNL A   1      44.512  26.170  25.128  1.00  0.00    -0.744 OA
ENDBRANCH  77  78
ENDBRANCH  49  72
BRANCH  61  82
ATOM     82  C   UNL A   1      45.233  29.531  35.480  1.00  0.00    -0.014 A 
ATOM     83  C   UNL A   1      46.467  30.206  35.472  1.00  0.00     0.010 A 
ATOM     84  C   UNL A   1      45.125  28.312  36.174  1.00  0.00     0.010 A 
ATOM     85  C   UNL A   1      47.580  29.651  36.109  1.00  0.00     0.020 A 
ATOM     86  C   UNL A   1      46.226  27.770  36.841  1.00  0.00     0.020 A 
ATOM     87  C   UNL A   1      47.453  28.434  36.787  1.00  0.00     0.054 A 
BRANCH  87  88
ATOM     88  S   UNL A   1      48.905  27.749  37.629  1.00  0.00     0.124 S 
ATOM     89  O   UNL A   1      48.324  26.649  38.391  1.00  0.00    -0.237 OA
ATOM     90  O   UNL A   1      49.765  27.357  36.516  1.00  0.00    -0.237 OA
ATOM     91  O   UNL A   1      49.402  28.868  38.429  1.00  0.00    -0.744 OA
ENDBRANCH  87  88
ENDBRANCH  61  82
ENDBRANCH  35  36
ENDBRANCH  27  30
ENDBRANCH  25  26
ENDBRANCH  24  25
ENDBRANCH   1  24
TORSDOF 18
ENDMDL
