MODEL 1
REMARK VINA RESULT:     -11.7      0.000      0.000
REMARK SMILES CC(C)(C)OC(=O)N1CCC2(CC1)C[C@@H](C(=O)NCCCCNC(=O)c1ccc(-c3c4nc(c(-c5ccc(S(=O)(=O)[O-])cc5)c5ccc([nH]5)c(-c5ccc(S(=O)(=O)[O-])cc5)c5nc(c(-c6ccc(S(=O)(=O)[O-])cc6)c6ccc3[nH]6)C=C5)C=C4)cc1)CO2
REMARK SMILES IDX 21 1 20 2 19 3 18 4 16 5 17 6 15 8 6 9 7 10 8 11 9 12 13 13
REMARK SMILES IDX 10 14 12 15 11 16 14 17 87 18 86 19 5 20 2 21 1 22 3 23 4 24
REMARK SMILES IDX 22 25 23 26 24 27 25 29 26 30 27 31 85 32 28 33 84 34 29 35
REMARK SMILES IDX 30 36 31 37 78 38 32 39 83 40 77 41 79 42 33 43 82 44 76 45
REMARK SMILES IDX 75 46 34 48 64 49 45 50 63 51 46 52 49 53 62 54 80 55 47 56
REMARK SMILES IDX 48 57 61 59 81 60 50 61 35 62 36 63 44 64 37 65 43 66 38 67
REMARK SMILES IDX 39 68 40 69 41 70 42 71 65 72 66 73 74 74 67 75 73 76 68 77
REMARK SMILES IDX 69 78 70 79 71 80 72 81 51 82 52 83 60 84 53 85 59 86 54 87
REMARK SMILES IDX 55 88 56 89 57 90 58 91
REMARK H PARENT 18 7 23 28 79 47 49 58
REMARK Flexibility Score: inf
ROOT
ATOM      1  C   UNL A   1      37.655  23.131  26.168  1.00  0.00     0.023 C 
ENDROOT
BRANCH   1   2
ATOM      2  C   UNL A   1      38.190  21.796  25.659  1.00  0.00     0.023 C 
BRANCH   2   3
ATOM      3  C   UNL A   1      37.170  20.947  24.910  1.00  0.00     0.116 C 
BRANCH   3   4
ATOM      4  N   UNL A   1      35.905  20.768  25.591  1.00  0.00    -0.356 N 
ATOM      5  C   UNL A   1      34.630  21.071  25.234  1.00  0.00     0.225 C 
ATOM      6  O   UNL A   1      33.738  20.602  25.951  1.00  0.00    -0.275 OA
ATOM      7  H   UNL A   1      35.985  20.350  26.479  1.00  0.00     0.163 HD
BRANCH   5   8
ATOM      8  C   UNL A   1      34.223  21.917  24.023  1.00  0.00     0.107 C 
ATOM      9  C   UNL A   1      31.047  27.667  24.824  1.00  0.00     0.410 C 
ATOM     10  O   UNL A   1      30.449  28.287  23.953  1.00  0.00    -0.224 OA
ATOM     11  N   UNL A   1      31.458  26.359  24.685  1.00  0.00    -0.308 N 
ATOM     12  C   UNL A   1      31.475  25.719  23.376  1.00  0.00     0.126 C 
ATOM     13  C   UNL A   1      31.857  25.531  25.815  1.00  0.00     0.126 C 
ATOM     14  C   UNL A   1      32.853  25.081  23.100  1.00  0.00     0.057 C 
ATOM     15  C   UNL A   1      33.231  24.944  25.554  1.00  0.00     0.057 C 
ATOM     16  C   UNL A   1      33.231  24.125  24.247  1.00  0.00     0.072 C 
ATOM     17  C   UNL A   1      34.571  23.396  24.082  1.00  0.00     0.051 C 
ATOM     18  O   UNL A   1      32.212  23.099  24.245  1.00  0.00    -0.374 OA
ATOM     19  C   UNL A   1      32.759  21.898  23.689  1.00  0.00     0.174 C 
BRANCH   9  20
ATOM     20  O   UNL A   1      31.459  28.190  26.004  1.00  0.00    -0.444 OA
BRANCH  20  21
ATOM     21  C   UNL A   1      32.617  29.054  26.111  1.00  0.00     0.106 C 
ATOM     22  C   UNL A   1      32.031  30.460  26.318  1.00  0.00     0.056 C 
ATOM     23  C   UNL A   1      33.395  29.014  24.797  1.00  0.00     0.056 C 
ATOM     24  C   UNL A   1      33.508  28.728  27.316  1.00  0.00     0.056 C 
ENDBRANCH  20  21
ENDBRANCH   9  20
ENDBRANCH   5   8
ENDBRANCH   3   4
ENDBRANCH   2   3
ENDBRANCH   1   2
BRANCH   1  25
ATOM     25  C   UNL A   1      38.657  24.281  26.213  1.00  0.00     0.116 C 
BRANCH  25  26
ATOM     26  N   UNL A   1      40.055  23.873  26.248  1.00  0.00    -0.352 N 
ATOM     27  C   UNL A   1      41.081  24.465  26.954  1.00  0.00     0.251 C 
ATOM     28  H   UNL A   1      40.293  23.086  25.707  1.00  0.00     0.163 HD
ATOM     29  O   UNL A   1      42.231  24.053  26.860  1.00  0.00    -0.269 OA
BRANCH  27  30
ATOM     30  C   UNL A   1      40.771  25.645  27.789  1.00  0.00     0.039 A 
ATOM     31  C   UNL A   1      39.723  25.568  28.708  1.00  0.00     0.014 A 
ATOM     32  C   UNL A   1      41.594  26.773  27.741  1.00  0.00     0.014 A 
ATOM     33  C   UNL A   1      39.556  26.589  29.644  1.00  0.00     0.010 A 
ATOM     34  C   UNL A   1      41.471  27.752  28.721  1.00  0.00     0.010 A 
ATOM     35  C   UNL A   1      40.458  27.665  29.691  1.00  0.00    -0.014 A 
BRANCH  35  36
ATOM     36  C   UNL A   1      40.379  28.696  30.758  1.00  0.00     0.031 A 
ATOM     37  C   UNL A   1      41.244  28.581  31.982  1.00  0.00     0.074 A 
ATOM     38  C   UNL A   1      39.470  29.686  30.666  1.00  0.00     0.049 A 
ATOM     39  N   UNL A   1      41.268  29.338  33.049  1.00  0.00    -0.248 NA
ATOM     40  C   UNL A   1      42.184  27.448  32.026  1.00  0.00     0.031 C 
ATOM     41  C   UNL A   1      38.527  29.874  29.560  1.00  0.00     0.029 A 
ATOM     42  N   UNL A   1      39.179  30.716  31.526  1.00  0.00    -0.354 N 
ATOM     43  C   UNL A   1      42.209  28.766  33.896  1.00  0.00     0.074 A 
ATOM     44  C   UNL A   1      42.692  27.568  33.243  1.00  0.00     0.031 C 
ATOM     45  C   UNL A   1      37.776  30.961  29.802  1.00  0.00     0.029 A 
ATOM     46  C   UNL A   1      38.158  31.529  31.090  1.00  0.00     0.049 A 
ATOM     47  H   UNL A   1      39.656  30.860  32.374  1.00  0.00     0.167 HD
ATOM     48  C   UNL A   1      42.650  29.207  35.098  1.00  0.00     0.031 A 
ATOM     49  C   UNL A   1      37.588  32.606  31.665  1.00  0.00     0.031 A 
ATOM     50  C   UNL A   1      42.174  30.401  35.744  1.00  0.00     0.049 A 
ATOM     51  C   UNL A   1      38.103  33.090  32.991  1.00  0.00     0.074 A 
ATOM     52  C   UNL A   1      42.595  30.962  36.937  1.00  0.00     0.029 A 
ATOM     53  N   UNL A   1      41.168  31.218  35.250  1.00  0.00    -0.354 N 
ATOM     54  N   UNL A   1      39.046  32.577  33.744  1.00  0.00    -0.248 NA
ATOM     55  C   UNL A   1      37.488  34.308  33.538  1.00  0.00     0.031 C 
ATOM     56  C   UNL A   1      41.814  32.096  37.185  1.00  0.00     0.029 A 
ATOM     57  C   UNL A   1      40.943  32.270  36.122  1.00  0.00     0.049 A 
ATOM     58  H   UNL A   1      40.685  31.072  34.405  1.00  0.00     0.167 HD
ATOM     59  C   UNL A   1      39.153  33.419  34.845  1.00  0.00     0.074 A 
ATOM     60  C   UNL A   1      38.189  34.484  34.651  1.00  0.00     0.031 C 
ATOM     61  C   UNL A   1      39.975  33.319  35.918  1.00  0.00     0.031 A 
BRANCH  48  62
ATOM     62  C   UNL A   1      43.702  28.379  35.788  1.00  0.00    -0.014 A 
ATOM     63  C   UNL A   1      43.344  27.353  36.683  1.00  0.00     0.010 A 
ATOM     64  C   UNL A   1      45.064  28.629  35.544  1.00  0.00     0.010 A 
ATOM     65  C   UNL A   1      44.328  26.635  37.368  1.00  0.00     0.020 A 
ATOM     66  C   UNL A   1      46.052  27.892  36.205  1.00  0.00     0.020 A 
ATOM     67  C   UNL A   1      45.676  26.917  37.132  1.00  0.00     0.054 A 
BRANCH  67  68
ATOM     68  S   UNL A   1      46.933  25.981  38.043  1.00  0.00     0.124 S 
ATOM     69  O   UNL A   1      46.372  25.963  39.392  1.00  0.00    -0.237 OA
ATOM     70  O   UNL A   1      46.942  24.694  37.351  1.00  0.00    -0.237 OA
ATOM     71  O   UNL A   1      48.145  26.781  37.883  1.00  0.00    -0.744 OA
ENDBRANCH  67  68
ENDBRANCH  48  62
BRANCH  49  72
ATOM     72  C   UNL A   1      36.475  33.307  30.970  1.00  0.00    -0.014 A 
ATOM     73  C   UNL A   1      35.196  33.370  31.549  1.00  0.00     0.010 A 
ATOM     74  C   UNL A   1      36.700  33.953  29.740  1.00  0.00     0.010 A 
ATOM     75  C   UNL A   1      34.160  34.058  30.910  1.00  0.00     0.020 A 
ATOM     76  C   UNL A   1      35.674  34.662  29.108  1.00  0.00     0.020 A 
ATOM     77  C   UNL A   1      34.408  34.705  29.695  1.00  0.00     0.054 A 
BRANCH  77  78
ATOM     78  S   UNL A   1      33.071  35.657  28.921  1.00  0.00     0.124 S 
ATOM     79  O   UNL A   1      32.330  36.140  30.082  1.00  0.00    -0.237 OA
ATOM     80  O   UNL A   1      33.801  36.673  28.169  1.00  0.00    -0.237 OA
ATOM     81  O   UNL A   1      32.377  34.665  28.101  1.00  0.00    -0.744 OA
ENDBRANCH  77  78
ENDBRANCH  49  72
BRANCH  61  82
ATOM     82  C   UNL A   1      39.889  34.403  36.960  1.00  0.00    -0.014 A 
ATOM     83  C   UNL A   1      40.660  35.574  36.857  1.00  0.00     0.010 A 
ATOM     84  C   UNL A   1      38.981  34.270  38.026  1.00  0.00     0.010 A 
ATOM     85  C   UNL A   1      40.542  36.583  37.816  1.00  0.00     0.020 A 
ATOM     86  C   UNL A   1      38.843  35.287  38.974  1.00  0.00     0.020 A 
ATOM     87  C   UNL A   1      39.635  36.432  38.870  1.00  0.00     0.054 A 
BRANCH  87  88
ATOM     88  S   UNL A   1      39.466  37.776  40.077  1.00  0.00     0.124 S 
ATOM     89  O   UNL A   1      40.676  38.555  39.834  1.00  0.00    -0.237 OA
ATOM     90  O   UNL A   1      38.215  38.414  39.675  1.00  0.00    -0.237 OA
ATOM     91  O   UNL A   1      39.418  37.082  41.363  1.00  0.00    -0.744 OA
ENDBRANCH  87  88
ENDBRANCH  61  82
ENDBRANCH  35  36
ENDBRANCH  27  30
ENDBRANCH  25  26
ENDBRANCH   1  25
TORSDOF 16
ENDMDL
MODEL 2
REMARK VINA RESULT:     -11.5      6.461     12.222
REMARK SMILES CC(C)(C)OC(=O)N1CCC2(CC1)C[C@@H](C(=O)NCCCCNC(=O)c1ccc(-c3c4nc(c(-c5ccc(S(=O)(=O)[O-])cc5)c5ccc([nH]5)c(-c5ccc(S(=O)(=O)[O-])cc5)c5nc(c(-c6ccc(S(=O)(=O)[O-])cc6)c6ccc3[nH]6)C=C5)C=C4)cc1)CO2
REMARK SMILES IDX 21 1 20 2 19 3 18 4 16 5 17 6 15 8 6 9 7 10 8 11 9 12 13 13
REMARK SMILES IDX 10 14 12 15 11 16 14 17 87 18 86 19 5 20 2 21 1 22 3 23 4 24
REMARK SMILES IDX 22 25 23 26 24 27 25 29 26 30 27 31 85 32 28 33 84 34 29 35
REMARK SMILES IDX 30 36 31 37 78 38 32 39 83 40 77 41 79 42 33 43 82 44 76 45
REMARK SMILES IDX 75 46 34 48 64 49 45 50 63 51 46 52 49 53 62 54 80 55 47 56
REMARK SMILES IDX 48 57 61 59 81 60 50 61 35 62 36 63 44 64 37 65 43 66 38 67
REMARK SMILES IDX 39 68 40 69 41 70 42 71 65 72 66 73 74 74 67 75 73 76 68 77
REMARK SMILES IDX 69 78 70 79 71 80 72 81 51 82 52 83 60 84 53 85 59 86 54 87
REMARK SMILES IDX 55 88 56 89 57 90 58 91
REMARK H PARENT 18 7 23 28 79 47 49 58
REMARK Flexibility Score: inf
ROOT
ATOM      1  C   UNL A   1      33.777  29.265  26.913  1.00  0.00     0.023 C 
ENDROOT
BRANCH   1   2
ATOM      2  C   UNL A   1      32.849  30.447  27.174  1.00  0.00     0.023 C 
BRANCH   2   3
ATOM      3  C   UNL A   1      31.601  30.479  26.300  1.00  0.00     0.116 C 
BRANCH   3   4
ATOM      4  N   UNL A   1      31.811  30.101  24.919  1.00  0.00    -0.356 N 
ATOM      5  C   UNL A   1      31.398  29.027  24.196  1.00  0.00     0.225 C 
ATOM      6  O   UNL A   1      31.571  29.095  22.973  1.00  0.00    -0.275 OA
ATOM      7  H   UNL A   1      32.357  30.742  24.408  1.00  0.00     0.163 HD
BRANCH   5   8
ATOM      8  C   UNL A   1      30.732  27.773  24.771  1.00  0.00     0.107 C 
ATOM      9  C   UNL A   1      33.531  21.820  24.052  1.00  0.00     0.410 C 
ATOM     10  O   UNL A   1      32.981  20.740  24.227  1.00  0.00    -0.224 OA
ATOM     11  N   UNL A   1      32.853  23.015  23.948  1.00  0.00    -0.308 N 
ATOM     12  C   UNL A   1      31.453  23.113  24.342  1.00  0.00     0.126 C 
ATOM     13  C   UNL A   1      33.460  24.225  23.412  1.00  0.00     0.126 C 
ATOM     14  C   UNL A   1      31.244  24.284  25.324  1.00  0.00     0.057 C 
ATOM     15  C   UNL A   1      33.288  25.361  24.403  1.00  0.00     0.057 C 
ATOM     16  C   UNL A   1      31.795  25.587  24.715  1.00  0.00     0.072 C 
ATOM     17  C   UNL A   1      31.622  26.843  25.580  1.00  0.00     0.051 C 
ATOM     18  O   UNL A   1      31.015  25.813  23.519  1.00  0.00    -0.374 OA
ATOM     19  C   UNL A   1      30.082  26.871  23.761  1.00  0.00     0.174 C 
BRANCH   9  20
ATOM     20  O   UNL A   1      34.873  22.011  24.016  1.00  0.00    -0.444 OA
BRANCH  20  21
ATOM     21  C   UNL A   1      35.702  21.937  25.201  1.00  0.00     0.106 C 
ATOM     22  C   UNL A   1      36.606  23.177  25.117  1.00  0.00     0.056 C 
ATOM     23  C   UNL A   1      36.560  20.674  25.134  1.00  0.00     0.056 C 
ATOM     24  C   UNL A   1      34.902  22.019  26.507  1.00  0.00     0.056 C 
ENDBRANCH  20  21
ENDBRANCH   9  20
ENDBRANCH   5   8
ENDBRANCH   3   4
ENDBRANCH   2   3
ENDBRANCH   1   2
BRANCH   1  25
ATOM     25  C   UNL A   1      35.163  29.349  27.547  1.00  0.00     0.116 C 
BRANCH  25  26
ATOM     26  N   UNL A   1      35.246  30.202  28.725  1.00  0.00    -0.352 N 
ATOM     27  C   UNL A   1      36.347  30.415  29.528  1.00  0.00     0.251 C 
ATOM     28  H   UNL A   1      34.423  30.681  28.975  1.00  0.00     0.163 HD
ATOM     29  O   UNL A   1      36.272  31.122  30.526  1.00  0.00    -0.269 OA
BRANCH  27  30
ATOM     30  C   UNL A   1      37.609  29.725  29.188  1.00  0.00     0.039 A 
ATOM     31  C   UNL A   1      38.040  29.719  27.860  1.00  0.00     0.014 A 
ATOM     32  C   UNL A   1      38.413  29.195  30.200  1.00  0.00     0.014 A 
ATOM     33  C   UNL A   1      39.324  29.261  27.559  1.00  0.00     0.010 A 
ATOM     34  C   UNL A   1      39.717  28.809  29.907  1.00  0.00     0.010 A 
ATOM     35  C   UNL A   1      40.191  28.849  28.585  1.00  0.00    -0.014 A 
BRANCH  35  36
ATOM     36  C   UNL A   1      41.602  28.481  28.305  1.00  0.00     0.031 A 
ATOM     37  C   UNL A   1      42.668  29.541  28.285  1.00  0.00     0.074 A 
ATOM     38  C   UNL A   1      41.912  27.209  27.983  1.00  0.00     0.049 A 
ATOM     39  N   UNL A   1      43.938  29.429  27.992  1.00  0.00    -0.248 NA
ATOM     40  C   UNL A   1      42.244  30.914  28.607  1.00  0.00     0.031 C 
ATOM     41  C   UNL A   1      40.960  26.097  27.905  1.00  0.00     0.029 A 
ATOM     42  N   UNL A   1      43.115  26.638  27.648  1.00  0.00    -0.354 N 
ATOM     43  C   UNL A   1      44.460  30.713  28.077  1.00  0.00     0.074 A 
ATOM     44  C   UNL A   1      43.358  31.596  28.394  1.00  0.00     0.031 C 
ATOM     45  C   UNL A   1      41.618  24.978  27.561  1.00  0.00     0.029 A 
ATOM     46  C   UNL A   1      43.028  25.295  27.364  1.00  0.00     0.049 A 
ATOM     47  H   UNL A   1      43.959  27.142  27.615  1.00  0.00     0.167 HD
ATOM     48  C   UNL A   1      45.743  31.122  27.928  1.00  0.00     0.031 A 
ATOM     49  C   UNL A   1      43.976  24.417  26.981  1.00  0.00     0.031 A 
ATOM     50  C   UNL A   1      46.839  30.243  27.620  1.00  0.00     0.049 A 
ATOM     51  C   UNL A   1      45.397  24.886  26.838  1.00  0.00     0.074 A 
ATOM     52  C   UNL A   1      48.183  30.549  27.501  1.00  0.00     0.029 A 
ATOM     53  N   UNL A   1      46.716  28.882  27.379  1.00  0.00    -0.354 N 
ATOM     54  N   UNL A   1      45.885  26.093  26.995  1.00  0.00    -0.248 NA
ATOM     55  C   UNL A   1      46.399  23.871  26.482  1.00  0.00     0.031 C 
ATOM     56  C   UNL A   1      48.867  29.381  27.147  1.00  0.00     0.029 A 
ATOM     57  C   UNL A   1      47.958  28.338  27.096  1.00  0.00     0.049 A 
ATOM     58  H   UNL A   1      45.871  28.377  27.404  1.00  0.00     0.167 HD
ATOM     59  C   UNL A   1      47.253  25.980  26.776  1.00  0.00     0.074 A 
ATOM     60  C   UNL A   1      47.517  24.584  26.492  1.00  0.00     0.031 C 
ATOM     61  C   UNL A   1      48.204  26.946  26.809  1.00  0.00     0.031 A 
BRANCH  48  62
ATOM     62  C   UNL A   1      46.018  32.592  28.097  1.00  0.00    -0.014 A 
ATOM     63  C   UNL A   1      46.263  33.140  29.371  1.00  0.00     0.010 A 
ATOM     64  C   UNL A   1      46.027  33.440  26.975  1.00  0.00     0.010 A 
ATOM     65  C   UNL A   1      46.452  34.516  29.525  1.00  0.00     0.020 A 
ATOM     66  C   UNL A   1      46.245  34.813  27.122  1.00  0.00     0.020 A 
ATOM     67  C   UNL A   1      46.430  35.345  28.401  1.00  0.00     0.054 A 
BRANCH  67  68
ATOM     68  S   UNL A   1      46.663  37.129  28.630  1.00  0.00     0.124 S 
ATOM     69  O   UNL A   1      46.786  37.230  30.082  1.00  0.00    -0.237 OA
ATOM     70  O   UNL A   1      47.887  37.393  27.877  1.00  0.00    -0.237 OA
ATOM     71  O   UNL A   1      45.449  37.712  28.065  1.00  0.00    -0.744 OA
ENDBRANCH  67  68
ENDBRANCH  48  62
BRANCH  49  72
ATOM     72  C   UNL A   1      43.605  22.999  26.724  1.00  0.00    -0.014 A 
ATOM     73  C   UNL A   1      44.124  22.313  25.613  1.00  0.00     0.010 A 
ATOM     74  C   UNL A   1      42.758  22.315  27.617  1.00  0.00     0.010 A 
ATOM     75  C   UNL A   1      43.800  20.970  25.394  1.00  0.00     0.020 A 
ATOM     76  C   UNL A   1      42.450  20.966  27.414  1.00  0.00     0.020 A 
ATOM     77  C   UNL A   1      42.969  20.304  26.299  1.00  0.00     0.054 A 
BRANCH  77  78
ATOM     78  S   UNL A   1      42.623  18.542  26.037  1.00  0.00     0.124 S 
ATOM     79  O   UNL A   1      42.998  17.964  27.324  1.00  0.00    -0.237 OA
ATOM     80  O   UNL A   1      41.194  18.541  25.736  1.00  0.00    -0.237 OA
ATOM     81  O   UNL A   1      43.489  18.188  24.914  1.00  0.00    -0.744 OA
ENDBRANCH  77  78
ENDBRANCH  49  72
BRANCH  61  82
ATOM     82  C   UNL A   1      49.627  26.527  26.555  1.00  0.00    -0.014 A 
ATOM     83  C   UNL A   1      50.418  25.978  27.579  1.00  0.00     0.010 A 
ATOM     84  C   UNL A   1      50.160  26.630  25.257  1.00  0.00     0.010 A 
ATOM     85  C   UNL A   1      51.726  25.563  27.316  1.00  0.00     0.020 A 
ATOM     86  C   UNL A   1      51.459  26.196  24.984  1.00  0.00     0.020 A 
ATOM     87  C   UNL A   1      52.239  25.677  26.020  1.00  0.00     0.054 A 
BRANCH  87  88
ATOM     88  S   UNL A   1      53.924  25.089  25.692  1.00  0.00     0.124 S 
ATOM     89  O   UNL A   1      54.628  25.497  26.903  1.00  0.00    -0.237 OA
ATOM     90  O   UNL A   1      53.736  23.650  25.527  1.00  0.00    -0.237 OA
ATOM     91  O   UNL A   1      54.308  25.803  24.476  1.00  0.00    -0.744 OA
ENDBRANCH  87  88
ENDBRANCH  61  82
ENDBRANCH  35  36
ENDBRANCH  27  30
ENDBRANCH  25  26
ENDBRANCH   1  25
TORSDOF 16
ENDMDL
MODEL 3
REMARK VINA RESULT:     -11.3      4.578     10.724
REMARK SMILES CC(C)(C)OC(=O)N1CCC2(CC1)C[C@@H](C(=O)NCCCCNC(=O)c1ccc(-c3c4nc(c(-c5ccc(S(=O)(=O)[O-])cc5)c5ccc([nH]5)c(-c5ccc(S(=O)(=O)[O-])cc5)c5nc(c(-c6ccc(S(=O)(=O)[O-])cc6)c6ccc3[nH]6)C=C5)C=C4)cc1)CO2
REMARK SMILES IDX 21 1 20 2 19 3 18 4 16 5 17 6 15 8 6 9 7 10 8 11 9 12 13 13
REMARK SMILES IDX 10 14 12 15 11 16 14 17 87 18 86 19 5 20 2 21 1 22 3 23 4 24
REMARK SMILES IDX 22 25 23 26 24 27 25 29 26 30 27 31 85 32 28 33 84 34 29 35
REMARK SMILES IDX 30 36 31 37 78 38 32 39 83 40 77 41 79 42 33 43 82 44 76 45
REMARK SMILES IDX 75 46 34 48 64 49 45 50 63 51 46 52 49 53 62 54 80 55 47 56
REMARK SMILES IDX 48 57 61 59 81 60 50 61 35 62 36 63 44 64 37 65 43 66 38 67
REMARK SMILES IDX 39 68 40 69 41 70 42 71 65 72 66 73 74 74 67 75 73 76 68 77
REMARK SMILES IDX 69 78 70 79 71 80 72 81 51 82 52 83 60 84 53 85 59 86 54 87
REMARK SMILES IDX 55 88 56 89 57 90 58 91
REMARK H PARENT 18 7 23 28 79 47 49 58
REMARK Flexibility Score: inf
ROOT
ATOM      1  C   UNL A   1      33.227  29.252  25.490  1.00  0.00     0.023 C 
ENDROOT
BRANCH   1   2
ATOM      2  C   UNL A   1      31.737  29.507  25.280  1.00  0.00     0.023 C 
BRANCH   2   3
ATOM      3  C   UNL A   1      31.144  28.825  24.053  1.00  0.00     0.116 C 
BRANCH   3   4
ATOM      4  N   UNL A   1      30.584  27.512  24.295  1.00  0.00    -0.356 N 
ATOM      5  C   UNL A   1      31.154  26.331  24.651  1.00  0.00     0.225 C 
ATOM      6  O   UNL A   1      30.376  25.429  24.984  1.00  0.00    -0.275 OA
ATOM      7  H   UNL A   1      29.607  27.466  24.178  1.00  0.00     0.163 HD
BRANCH   5   8
ATOM      8  C   UNL A   1      32.659  26.047  24.687  1.00  0.00     0.107 C 
ATOM      9  C   UNL A   1      34.932  19.833  24.758  1.00  0.00     0.410 C 
ATOM     10  O   UNL A   1      36.070  19.486  25.048  1.00  0.00    -0.224 OA
ATOM     11  N   UNL A   1      34.428  21.089  25.014  1.00  0.00    -0.308 N 
ATOM     12  C   UNL A   1      35.315  22.188  25.376  1.00  0.00     0.126 C 
ATOM     13  C   UNL A   1      33.004  21.392  24.981  1.00  0.00     0.126 C 
ATOM     14  C   UNL A   1      35.060  23.414  24.475  1.00  0.00     0.057 C 
ATOM     15  C   UNL A   1      32.757  22.571  24.058  1.00  0.00     0.057 C 
ATOM     16  C   UNL A   1      33.569  23.799  24.519  1.00  0.00     0.072 C 
ATOM     17  C   UNL A   1      33.182  25.029  23.686  1.00  0.00     0.051 C 
ATOM     18  O   UNL A   1      33.301  24.146  25.897  1.00  0.00    -0.374 OA
ATOM     19  C   UNL A   1      33.191  25.569  26.008  1.00  0.00     0.174 C 
BRANCH   9  20
ATOM     20  O   UNL A   1      34.038  19.073  24.079  1.00  0.00    -0.444 OA
BRANCH  20  21
ATOM     21  C   UNL A   1      33.662  17.742  24.510  1.00  0.00     0.106 C 
ATOM     22  C   UNL A   1      32.825  17.183  23.348  1.00  0.00     0.056 C 
ATOM     23  C   UNL A   1      32.791  17.848  25.761  1.00  0.00     0.056 C 
ATOM     24  C   UNL A   1      34.862  16.811  24.724  1.00  0.00     0.056 C 
ENDBRANCH  20  21
ENDBRANCH   9  20
ENDBRANCH   5   8
ENDBRANCH   3   4
ENDBRANCH   2   3
ENDBRANCH   1   2
BRANCH   1  25
ATOM     25  C   UNL A   1      33.694  29.165  26.940  1.00  0.00     0.116 C 
BRANCH  25  26
ATOM     26  N   UNL A   1      33.602  30.412  27.688  1.00  0.00    -0.352 N 
ATOM     27  C   UNL A   1      34.573  30.983  28.484  1.00  0.00     0.251 C 
ATOM     28  H   UNL A   1      32.752  30.902  27.617  1.00  0.00     0.163 HD
ATOM     29  O   UNL A   1      34.353  32.016  29.104  1.00  0.00    -0.269 OA
BRANCH  27  30
ATOM     30  C   UNL A   1      35.871  30.289  28.616  1.00  0.00     0.039 A 
ATOM     31  C   UNL A   1      36.763  30.311  27.542  1.00  0.00     0.014 A 
ATOM     32  C   UNL A   1      36.245  29.726  29.839  1.00  0.00     0.014 A 
ATOM     33  C   UNL A   1      38.067  29.848  27.724  1.00  0.00     0.010 A 
ATOM     34  C   UNL A   1      37.565  29.335  30.038  1.00  0.00     0.010 A 
ATOM     35  C   UNL A   1      38.494  29.403  28.986  1.00  0.00    -0.014 A 
BRANCH  35  36
ATOM     36  C   UNL A   1      39.909  29.028  29.238  1.00  0.00     0.031 A 
ATOM     37  C   UNL A   1      40.870  30.041  29.794  1.00  0.00     0.074 A 
ATOM     38  C   UNL A   1      40.350  27.804  28.885  1.00  0.00     0.049 A 
ATOM     39  N   UNL A   1      42.154  29.926  30.014  1.00  0.00    -0.248 NA
ATOM     40  C   UNL A   1      40.320  31.369  30.116  1.00  0.00     0.031 C 
ATOM     41  C   UNL A   1      39.534  26.750  28.277  1.00  0.00     0.029 A 
ATOM     42  N   UNL A   1      41.600  27.243  28.975  1.00  0.00    -0.354 N 
ATOM     43  C   UNL A   1      42.569  31.166  30.484  1.00  0.00     0.074 A 
ATOM     44  C   UNL A   1      41.411  32.034  30.462  1.00  0.00     0.031 C 
ATOM     45  C   UNL A   1      40.301  25.668  28.065  1.00  0.00     0.029 A 
ATOM     46  C   UNL A   1      41.666  25.958  28.489  1.00  0.00     0.049 A 
ATOM     47  H   UNL A   1      42.376  27.717  29.352  1.00  0.00     0.167 HD
ATOM     48  C   UNL A   1      43.795  31.545  30.915  1.00  0.00     0.031 A 
ATOM     49  C   UNL A   1      42.708  25.110  28.390  1.00  0.00     0.031 A 
ATOM     50  C   UNL A   1      44.944  30.680  30.942  1.00  0.00     0.049 A 
ATOM     51  C   UNL A   1      44.058  25.543  28.890  1.00  0.00     0.074 A 
ATOM     52  C   UNL A   1      46.218  30.952  31.411  1.00  0.00     0.029 A 
ATOM     53  N   UNL A   1      44.959  29.373  30.479  1.00  0.00    -0.354 N 
ATOM     54  N   UNL A   1      44.415  26.698  29.399  1.00  0.00    -0.248 NA
ATOM     55  C   UNL A   1      45.142  24.554  28.817  1.00  0.00     0.031 C 
ATOM     56  C   UNL A   1      47.014  29.823  31.192  1.00  0.00     0.029 A 
ATOM     57  C   UNL A   1      46.224  28.830  30.635  1.00  0.00     0.049 A 
ATOM     58  H   UNL A   1      44.185  28.900  30.095  1.00  0.00     0.167 HD
ATOM     59  C   UNL A   1      45.760  26.569  29.727  1.00  0.00     0.074 A 
ATOM     60  C   UNL A   1      46.148  25.218  29.372  1.00  0.00     0.031 C 
ATOM     61  C   UNL A   1      46.596  27.486  30.272  1.00  0.00     0.031 A 
BRANCH  48  62
ATOM     62  C   UNL A   1      43.946  32.967  31.389  1.00  0.00    -0.014 A 
ATOM     63  C   UNL A   1      43.863  33.285  32.758  1.00  0.00     0.010 A 
ATOM     64  C   UNL A   1      44.168  33.998  30.460  1.00  0.00     0.010 A 
ATOM     65  C   UNL A   1      43.938  34.614  33.182  1.00  0.00     0.020 A 
ATOM     66  C   UNL A   1      44.273  35.327  30.883  1.00  0.00     0.020 A 
ATOM     67  C   UNL A   1      44.132  35.628  32.240  1.00  0.00     0.054 A 
BRANCH  67  68
ATOM     68  S   UNL A   1      44.211  37.346  32.814  1.00  0.00     0.124 S 
ATOM     69  O   UNL A   1      44.080  38.086  31.562  1.00  0.00    -0.237 OA
ATOM     70  O   UNL A   1      43.068  37.436  33.719  1.00  0.00    -0.237 OA
ATOM     71  O   UNL A   1      45.520  37.436  33.457  1.00  0.00    -0.744 OA
ENDBRANCH  67  68
ENDBRANCH  48  62
BRANCH  49  72
ATOM     72  C   UNL A   1      42.502  23.757  27.806  1.00  0.00    -0.014 A 
ATOM     73  C   UNL A   1      42.865  23.489  26.475  1.00  0.00     0.010 A 
ATOM     74  C   UNL A   1      41.978  22.716  28.595  1.00  0.00     0.010 A 
ATOM     75  C   UNL A   1      42.702  22.208  25.939  1.00  0.00     0.020 A 
ATOM     76  C   UNL A   1      41.835  21.428  28.070  1.00  0.00     0.020 A 
ATOM     77  C   UNL A   1      42.192  21.184  26.742  1.00  0.00     0.054 A 
BRANCH  77  78
ATOM     78  S   UNL A   1      42.061  19.511  26.051  1.00  0.00     0.124 S 
ATOM     79  O   UNL A   1      42.619  18.694  27.124  1.00  0.00    -0.237 OA
ATOM     80  O   UNL A   1      40.624  19.372  25.832  1.00  0.00    -0.237 OA
ATOM     81  O   UNL A   1      42.865  19.582  24.833  1.00  0.00    -0.744 OA
ENDBRANCH  77  78
ENDBRANCH  49  72
BRANCH  61  82
ATOM     82  C   UNL A   1      48.013  27.055  30.543  1.00  0.00    -0.014 A 
ATOM     83  C   UNL A   1      49.041  27.314  29.620  1.00  0.00     0.010 A 
ATOM     84  C   UNL A   1      48.329  26.436  31.766  1.00  0.00     0.010 A 
ATOM     85  C   UNL A   1      50.356  26.936  29.904  1.00  0.00     0.020 A 
ATOM     86  C   UNL A   1      49.645  26.079  32.064  1.00  0.00     0.020 A 
ATOM     87  C   UNL A   1      50.650  26.319  31.125  1.00  0.00     0.054 A 
BRANCH  87  88
ATOM     88  S   UNL A   1      52.372  25.881  31.491  1.00  0.00     0.124 S 
ATOM     89  O   UNL A   1      52.987  25.942  30.169  1.00  0.00    -0.237 OA
ATOM     90  O   UNL A   1      52.779  26.929  32.424  1.00  0.00    -0.237 OA
ATOM     91  O   UNL A   1      52.272  24.544  32.072  1.00  0.00    -0.744 OA
ENDBRANCH  87  88
ENDBRANCH  61  82
ENDBRANCH  35  36
ENDBRANCH  27  30
ENDBRANCH  25  26
ENDBRANCH   1  25
TORSDOF 16
ENDMDL
