MODEL 1
REMARK VINA RESULT:     -11.4      0.000      0.000
REMARK SMILES COc1ccc(/C=C/C(=O)NCCCCNC(=O)c2ccc(-c3c4nc(c(-c5ccc(S(=O)(=O)[O-])cc5)c5ccc([nH]5)c(-c5ccc(S(=O)(=O)[O-])cc5)c5nc(c(-c6ccc(S(=O)(=O)[O-])cc6)c6ccc3[nH]6)C=C5)C=C4)cc2)cc1S(=O)(=O)Nc1ccc(F)cc1F
REMARK SMILES IDX 13 1 12 2 11 3 9 4 10 5 8 7 7 8 6 9 3 10 4 11 80 12 5 13
REMARK SMILES IDX 79 14 2 15 1 16 81 17 82 18 83 19 84 20 85 22 86 23 91 24
REMARK SMILES IDX 87 25 90 26 92 27 88 28 89 29 14 30 15 31 16 32 17 33 18 35
REMARK SMILES IDX 19 36 20 37 78 38 21 39 77 40 22 41 23 42 24 43 71 44 25 45
REMARK SMILES IDX 76 46 70 47 72 48 26 49 75 50 69 51 68 52 27 54 57 55 38 56
REMARK SMILES IDX 56 57 39 58 42 59 55 60 73 61 40 62 41 63 54 65 74 66 43 67
REMARK SMILES IDX 28 68 29 69 37 70 30 71 36 72 31 73 32 74 33 75 34 76 35 77
REMARK SMILES IDX 58 78 59 79 67 80 60 81 66 82 61 83 62 84 63 85 64 86 65 87
REMARK SMILES IDX 44 88 45 89 53 90 46 91 52 92 47 93 48 94 49 95 50 96 51 97
REMARK H PARENT 11 6 84 21 16 34 72 53 42 64
REMARK Flexibility Score: inf
ROOT
ATOM      1  C   UNL A   1      32.901  29.509  24.780  1.00  0.00     0.023 C 
ENDROOT
BRANCH   1   2
ATOM      2  C   UNL A   1      31.382  29.563  24.923  1.00  0.00     0.116 C 
BRANCH   2   3
ATOM      3  N   UNL A   1      30.754  29.736  23.625  1.00  0.00    -0.353 N 
ATOM      4  C   UNL A   1      30.444  28.812  22.678  1.00  0.00     0.243 C 
ATOM      5  O   UNL A   1      29.873  29.143  21.643  1.00  0.00    -0.270 OA
ATOM      6  H   UNL A   1      30.517  30.664  23.397  1.00  0.00     0.163 HD
BRANCH   4   7
ATOM      7  C   UNL A   1      30.659  27.380  22.965  1.00  0.00     0.072 C 
ATOM      8  C   UNL A   1      31.745  26.673  22.609  1.00  0.00     0.014 C 
BRANCH   8   9
ATOM      9  C   UNL A   1      31.923  25.272  23.029  1.00  0.00    -0.024 A 
ATOM     10  C   UNL A   1      31.867  22.540  23.687  1.00  0.00     0.139 A 
ATOM     11  C   UNL A   1      32.488  22.969  22.514  1.00  0.00     0.048 A 
ATOM     12  C   UNL A   1      31.449  23.481  24.623  1.00  0.00     0.130 A 
ATOM     13  C   UNL A   1      32.530  24.324  22.196  1.00  0.00     0.012 A 
ATOM     14  C   UNL A   1      31.449  24.848  24.277  1.00  0.00     0.034 A 
BRANCH  10  15
ATOM     15  O   UNL A   1      31.761  21.189  23.831  1.00  0.00    -0.495 OA
ATOM     16  C   UNL A   1      32.993  20.526  23.542  1.00  0.00     0.278 C 
ENDBRANCH  10  15
BRANCH  12  17
ATOM     17  S   UNL A   1      30.964  23.080  26.282  1.00  0.00     0.265 S 
ATOM     18  O   UNL A   1      30.399  24.278  26.878  1.00  0.00    -0.201 OA
ATOM     19  O   UNL A   1      30.168  21.873  26.183  1.00  0.00    -0.201 OA
BRANCH  17  20
ATOM     20  N   UNL A   1      32.293  22.635  27.214  1.00  0.00    -0.277 N 
ATOM     21  H   UNL A   1      32.129  22.305  28.127  1.00  0.00     0.180 HD
BRANCH  20  22
ATOM     22  C   UNL A   1      33.645  22.707  26.759  1.00  0.00     0.085 A 
ATOM     23  C   UNL A   1      34.331  21.486  26.664  1.00  0.00     0.033 A 
ATOM     24  C   UNL A   1      34.297  23.881  26.365  1.00  0.00     0.150 A 
ATOM     25  C   UNL A   1      35.588  21.430  26.061  1.00  0.00     0.041 A 
ATOM     26  C   UNL A   1      35.553  23.830  25.768  1.00  0.00     0.080 A 
ATOM     27  F   UNL A   1      33.703  25.074  26.486  1.00  0.00    -0.205 F 
ATOM     28  C   UNL A   1      36.175  22.601  25.599  1.00  0.00     0.126 A 
ATOM     29  F   UNL A   1      37.359  22.537  24.975  1.00  0.00    -0.207 F 
ENDBRANCH  20  22
ENDBRANCH  17  20
ENDBRANCH  12  17
ENDBRANCH   8   9
ENDBRANCH   4   7
ENDBRANCH   2   3
ENDBRANCH   1   2
BRANCH   1  30
ATOM     30  C   UNL A   1      33.556  28.329  25.508  1.00  0.00     0.023 C 
BRANCH  30  31
ATOM     31  C   UNL A   1      33.674  28.485  27.023  1.00  0.00     0.116 C 
BRANCH  31  32
ATOM     32  N   UNL A   1      33.539  29.864  27.467  1.00  0.00    -0.352 N 
ATOM     33  C   UNL A   1      34.454  30.643  28.132  1.00  0.00     0.251 C 
ATOM     34  H   UNL A   1      32.677  30.295  27.264  1.00  0.00     0.163 HD
ATOM     35  O   UNL A   1      34.135  31.758  28.534  1.00  0.00    -0.269 OA
BRANCH  33  36
ATOM     36  C   UNL A   1      35.808  30.116  28.394  1.00  0.00     0.039 A 
ATOM     37  C   UNL A   1      36.751  30.140  27.363  1.00  0.00     0.014 A 
ATOM     38  C   UNL A   1      36.151  29.619  29.654  1.00  0.00     0.014 A 
ATOM     39  C   UNL A   1      38.059  29.722  27.613  1.00  0.00     0.010 A 
ATOM     40  C   UNL A   1      37.470  29.257  29.917  1.00  0.00     0.010 A 
ATOM     41  C   UNL A   1      38.435  29.308  28.901  1.00  0.00    -0.014 A 
BRANCH  41  42
ATOM     42  C   UNL A   1      39.836  28.926  29.209  1.00  0.00     0.031 A 
ATOM     43  C   UNL A   1      40.769  29.923  29.838  1.00  0.00     0.074 A 
ATOM     44  C   UNL A   1      40.289  27.708  28.852  1.00  0.00     0.049 A 
ATOM     45  N   UNL A   1      42.043  29.806  30.105  1.00  0.00    -0.248 NA
ATOM     46  C   UNL A   1      40.197  31.234  30.188  1.00  0.00     0.031 C 
ATOM     47  C   UNL A   1      39.493  26.665  28.200  1.00  0.00     0.029 A 
ATOM     48  N   UNL A   1      41.533  27.146  28.978  1.00  0.00    -0.354 N 
ATOM     49  C   UNL A   1      42.433  31.032  30.630  1.00  0.00     0.074 A 
ATOM     50  C   UNL A   1      41.268  31.891  30.608  1.00  0.00     0.031 C 
ATOM     51  C   UNL A   1      40.264  25.582  28.003  1.00  0.00     0.029 A 
ATOM     52  C   UNL A   1      41.614  25.866  28.480  1.00  0.00     0.049 A 
ATOM     53  H   UNL A   1      42.297  27.614  29.386  1.00  0.00     0.167 HD
ATOM     54  C   UNL A   1      43.647  31.407  31.101  1.00  0.00     0.031 A 
ATOM     55  C   UNL A   1      42.658  25.018  28.411  1.00  0.00     0.031 A 
ATOM     56  C   UNL A   1      44.798  30.545  31.140  1.00  0.00     0.049 A 
ATOM     57  C   UNL A   1      43.993  25.451  28.950  1.00  0.00     0.074 A 
ATOM     58  C   UNL A   1      46.056  30.810  31.652  1.00  0.00     0.029 A 
ATOM     59  N   UNL A   1      44.832  29.249  30.647  1.00  0.00    -0.354 N 
ATOM     60  N   UNL A   1      44.329  26.596  29.494  1.00  0.00    -0.248 NA
ATOM     61  C   UNL A   1      45.088  24.473  28.874  1.00  0.00     0.031 C 
ATOM     62  C   UNL A   1      46.862  29.687  31.435  1.00  0.00     0.029 A 
ATOM     63  C   UNL A   1      46.093  28.707  30.827  1.00  0.00     0.049 A 
ATOM     64  H   UNL A   1      44.071  28.784  30.229  1.00  0.00     0.167 HD
ATOM     65  C   UNL A   1      45.667  26.468  29.848  1.00  0.00     0.074 A 
ATOM     66  C   UNL A   1      46.076  25.131  29.465  1.00  0.00     0.031 C 
ATOM     67  C   UNL A   1      46.482  27.375  30.439  1.00  0.00     0.031 A 
BRANCH  54  68
ATOM     68  C   UNL A   1      43.785  32.818  31.605  1.00  0.00    -0.014 A 
ATOM     69  C   UNL A   1      44.173  33.861  30.745  1.00  0.00     0.010 A 
ATOM     70  C   UNL A   1      43.511  33.109  32.954  1.00  0.00     0.010 A 
ATOM     71  C   UNL A   1      44.337  35.158  31.235  1.00  0.00     0.020 A 
ATOM     72  C   UNL A   1      43.648  34.411  33.443  1.00  0.00     0.020 A 
ATOM     73  C   UNL A   1      44.082  35.423  32.584  1.00  0.00     0.054 A 
BRANCH  73  74
ATOM     74  S   UNL A   1      44.304  37.115  33.199  1.00  0.00     0.124 S 
ATOM     75  O   UNL A   1      44.286  37.889  31.960  1.00  0.00    -0.237 OA
ATOM     76  O   UNL A   1      43.145  37.298  34.070  1.00  0.00    -0.237 OA
ATOM     77  O   UNL A   1      45.593  37.068  33.886  1.00  0.00    -0.744 OA
ENDBRANCH  73  74
ENDBRANCH  54  68
BRANCH  55  78
ATOM     78  C   UNL A   1      42.471  23.662  27.830  1.00  0.00    -0.014 A 
ATOM     79  C   UNL A   1      42.731  23.435  26.467  1.00  0.00     0.010 A 
ATOM     80  C   UNL A   1      42.060  22.588  28.638  1.00  0.00     0.010 A 
ATOM     81  C   UNL A   1      42.573  22.160  25.919  1.00  0.00     0.020 A 
ATOM     82  C   UNL A   1      41.922  21.305  28.098  1.00  0.00     0.020 A 
ATOM     83  C   UNL A   1      42.171  21.101  26.740  1.00  0.00     0.054 A 
BRANCH  83  84
ATOM     84  S   UNL A   1      42.036  19.440  26.023  1.00  0.00     0.124 S 
ATOM     85  O   UNL A   1      40.602  19.333  25.774  1.00  0.00    -0.237 OA
ATOM     86  O   UNL A   1      42.880  19.537  24.835  1.00  0.00    -0.237 OA
ATOM     87  O   UNL A   1      42.557  18.571  27.077  1.00  0.00    -0.744 OA
ENDBRANCH  83  84
ENDBRANCH  55  78
BRANCH  67  88
ATOM     88  C   UNL A   1      47.892  26.944  30.737  1.00  0.00    -0.014 A 
ATOM     89  C   UNL A   1      48.913  27.086  29.781  1.00  0.00     0.010 A 
ATOM     90  C   UNL A   1      48.209  26.444  32.013  1.00  0.00     0.010 A 
ATOM     91  C   UNL A   1      50.223  26.709  30.088  1.00  0.00     0.020 A 
ATOM     92  C   UNL A   1      49.522  26.087  32.331  1.00  0.00     0.020 A 
ATOM     93  C   UNL A   1      50.519  26.211  31.360  1.00  0.00     0.054 A 
BRANCH  93  94
ATOM     94  S   UNL A   1      52.235  25.774  31.753  1.00  0.00     0.124 S 
ATOM     95  O   UNL A   1      52.513  26.638  32.897  1.00  0.00    -0.237 OA
ATOM     96  O   UNL A   1      52.146  24.347  32.049  1.00  0.00    -0.237 OA
ATOM     97  O   UNL A   1      52.964  26.105  30.529  1.00  0.00    -0.744 OA
ENDBRANCH  93  94
ENDBRANCH  67  88
ENDBRANCH  41  42
ENDBRANCH  33  36
ENDBRANCH  31  32
ENDBRANCH  30  31
ENDBRANCH   1  30
TORSDOF 19
ENDMDL
MODEL 2
REMARK VINA RESULT:     -11.3      2.607      9.217
REMARK SMILES COc1ccc(/C=C/C(=O)NCCCCNC(=O)c2ccc(-c3c4nc(c(-c5ccc(S(=O)(=O)[O-])cc5)c5ccc([nH]5)c(-c5ccc(S(=O)(=O)[O-])cc5)c5nc(c(-c6ccc(S(=O)(=O)[O-])cc6)c6ccc3[nH]6)C=C5)C=C4)cc2)cc1S(=O)(=O)Nc1ccc(F)cc1F
REMARK SMILES IDX 13 1 12 2 11 3 9 4 10 5 8 7 7 8 6 9 3 10 4 11 80 12 5 13
REMARK SMILES IDX 79 14 2 15 1 16 81 17 82 18 83 19 84 20 85 22 86 23 91 24
REMARK SMILES IDX 87 25 90 26 92 27 88 28 89 29 14 30 15 31 16 32 17 33 18 35
REMARK SMILES IDX 19 36 20 37 78 38 21 39 77 40 22 41 23 42 24 43 71 44 25 45
REMARK SMILES IDX 76 46 70 47 72 48 26 49 75 50 69 51 68 52 27 54 57 55 38 56
REMARK SMILES IDX 56 57 39 58 42 59 55 60 73 61 40 62 41 63 54 65 74 66 43 67
REMARK SMILES IDX 28 68 29 69 37 70 30 71 36 72 31 73 32 74 33 75 34 76 35 77
REMARK SMILES IDX 58 78 59 79 67 80 60 81 66 82 61 83 62 84 63 85 64 86 65 87
REMARK SMILES IDX 44 88 45 89 53 90 46 91 52 92 47 93 48 94 49 95 50 96 51 97
REMARK H PARENT 11 6 84 21 16 34 72 53 42 64
REMARK Flexibility Score: inf
ROOT
ATOM      1  C   UNL A   1      35.319  21.698  26.443  1.00  0.00     0.023 C 
ENDROOT
BRANCH   1   2
ATOM      2  C   UNL A   1      34.065  21.267  27.201  1.00  0.00     0.116 C 
BRANCH   2   3
ATOM      3  N   UNL A   1      33.437  20.134  26.544  1.00  0.00    -0.353 N 
ATOM      4  C   UNL A   1      32.715  20.086  25.394  1.00  0.00     0.243 C 
ATOM      5  O   UNL A   1      32.287  19.018  24.967  1.00  0.00    -0.270 OA
ATOM      6  H   UNL A   1      33.552  19.270  27.001  1.00  0.00     0.163 HD
BRANCH   4   7
ATOM      7  C   UNL A   1      32.574  21.306  24.576  1.00  0.00     0.072 C 
ATOM      8  C   UNL A   1      31.676  22.284  24.789  1.00  0.00     0.014 C 
BRANCH   8   9
ATOM      9  C   UNL A   1      31.675  23.518  23.984  1.00  0.00    -0.024 A 
ATOM     10  C   UNL A   1      32.039  25.959  22.641  1.00  0.00     0.139 A 
ATOM     11  C   UNL A   1      32.374  24.757  22.018  1.00  0.00     0.048 A 
ATOM     12  C   UNL A   1      31.346  25.935  23.847  1.00  0.00     0.130 A 
ATOM     13  C   UNL A   1      32.178  23.546  22.678  1.00  0.00     0.012 A 
ATOM     14  C   UNL A   1      31.193  24.713  24.533  1.00  0.00     0.034 A 
BRANCH  10  15
ATOM     15  O   UNL A   1      32.401  27.087  21.966  1.00  0.00    -0.495 OA
ATOM     16  C   UNL A   1      33.809  27.317  22.033  1.00  0.00     0.278 C 
ENDBRANCH  10  15
BRANCH  12  17
ATOM     17  S   UNL A   1      30.568  27.356  24.571  1.00  0.00     0.265 S 
ATOM     18  O   UNL A   1      29.296  27.553  23.897  1.00  0.00    -0.201 OA
ATOM     19  O   UNL A   1      30.606  27.145  26.003  1.00  0.00    -0.201 OA
BRANCH  17  20
ATOM     20  N   UNL A   1      31.487  28.745  24.323  1.00  0.00    -0.277 N 
ATOM     21  H   UNL A   1      31.398  29.211  23.460  1.00  0.00     0.180 HD
BRANCH  20  22
ATOM     22  C   UNL A   1      32.387  29.287  25.290  1.00  0.00     0.085 A 
ATOM     23  C   UNL A   1      31.989  30.486  25.901  1.00  0.00     0.033 A 
ATOM     24  C   UNL A   1      33.587  28.690  25.691  1.00  0.00     0.150 A 
ATOM     25  C   UNL A   1      32.707  30.998  26.983  1.00  0.00     0.041 A 
ATOM     26  C   UNL A   1      34.310  29.199  26.767  1.00  0.00     0.080 A 
ATOM     27  F   UNL A   1      34.034  27.574  25.102  1.00  0.00    -0.205 F 
ATOM     28  C   UNL A   1      33.848  30.335  27.417  1.00  0.00     0.126 A 
ATOM     29  F   UNL A   1      34.507  30.799  28.488  1.00  0.00    -0.207 F 
ENDBRANCH  20  22
ENDBRANCH  17  20
ENDBRANCH  12  17
ENDBRANCH   8   9
ENDBRANCH   4   7
ENDBRANCH   2   3
ENDBRANCH   1   2
BRANCH   1  30
ATOM     30  C   UNL A   1      35.351  23.188  26.084  1.00  0.00     0.023 C 
BRANCH  30  31
ATOM     31  C   UNL A   1      36.677  23.690  25.516  1.00  0.00     0.116 C 
BRANCH  31  32
ATOM     32  N   UNL A   1      37.767  22.742  25.686  1.00  0.00    -0.352 N 
ATOM     33  C   UNL A   1      39.000  22.948  26.255  1.00  0.00     0.251 C 
ATOM     34  H   UNL A   1      37.599  21.833  25.348  1.00  0.00     0.163 HD
ATOM     35  O   UNL A   1      39.850  22.065  26.218  1.00  0.00    -0.269 OA
BRANCH  33  36
ATOM     36  C   UNL A   1      39.308  24.252  26.877  1.00  0.00     0.039 A 
ATOM     37  C   UNL A   1      38.885  24.490  28.187  1.00  0.00     0.014 A 
ATOM     38  C   UNL A   1      40.027  25.226  26.178  1.00  0.00     0.014 A 
ATOM     39  C   UNL A   1      39.237  25.684  28.821  1.00  0.00     0.010 A 
ATOM     40  C   UNL A   1      40.425  26.390  26.831  1.00  0.00     0.010 A 
ATOM     41  C   UNL A   1      40.036  26.628  28.157  1.00  0.00    -0.014 A 
BRANCH  41  42
ATOM     42  C   UNL A   1      40.481  27.872  28.833  1.00  0.00     0.031 A 
ATOM     43  C   UNL A   1      41.849  27.945  29.453  1.00  0.00     0.074 A 
ATOM     44  C   UNL A   1      39.626  28.906  28.957  1.00  0.00     0.049 A 
ATOM     45  N   UNL A   1      42.385  28.909  30.156  1.00  0.00    -0.248 NA
ATOM     46  C   UNL A   1      42.717  26.768  29.282  1.00  0.00     0.031 C 
ATOM     47  C   UNL A   1      38.259  28.944  28.432  1.00  0.00     0.029 A 
ATOM     48  N   UNL A   1      39.779  30.123  29.572  1.00  0.00    -0.354 N 
ATOM     49  C   UNL A   1      43.641  28.448  30.531  1.00  0.00     0.074 A 
ATOM     50  C   UNL A   1      43.771  27.103  30.011  1.00  0.00     0.031 C 
ATOM     51  C   UNL A   1      37.706  30.131  28.730  1.00  0.00     0.029 A 
ATOM     52  C   UNL A   1      38.664  30.924  29.495  1.00  0.00     0.049 A 
ATOM     53  H   UNL A   1      40.609  30.397  30.025  1.00  0.00     0.167 HD
ATOM     54  C   UNL A   1      44.606  29.089  31.234  1.00  0.00     0.031 A 
ATOM     55  C   UNL A   1      38.436  32.155  29.989  1.00  0.00     0.031 A 
ATOM     56  C   UNL A   1      44.482  30.432  31.735  1.00  0.00     0.049 A 
ATOM     57  C   UNL A   1      39.524  32.853  30.757  1.00  0.00     0.074 A 
ATOM     58  C   UNL A   1      45.423  31.191  32.406  1.00  0.00     0.029 A 
ATOM     59  N   UNL A   1      43.344  31.217  31.616  1.00  0.00    -0.354 N 
ATOM     60  N   UNL A   1      40.727  32.422  31.055  1.00  0.00    -0.248 NA
ATOM     61  C   UNL A   1      39.228  34.207  31.246  1.00  0.00     0.031 C 
ATOM     62  C   UNL A   1      44.843  32.423  32.727  1.00  0.00     0.029 A 
ATOM     63  C   UNL A   1      43.554  32.446  32.216  1.00  0.00     0.049 A 
ATOM     64  H   UNL A   1      42.511  30.940  31.172  1.00  0.00     0.167 HD
ATOM     65  C   UNL A   1      41.340  33.460  31.746  1.00  0.00     0.074 A 
ATOM     66  C   UNL A   1      40.379  34.544  31.812  1.00  0.00     0.031 C 
ATOM     67  C   UNL A   1      42.587  33.513  32.274  1.00  0.00     0.031 A 
BRANCH  54  68
ATOM     68  C   UNL A   1      45.877  28.331  31.508  1.00  0.00    -0.014 A 
ATOM     69  C   UNL A   1      46.034  27.578  32.685  1.00  0.00     0.010 A 
ATOM     70  C   UNL A   1      46.926  28.364  30.570  1.00  0.00     0.010 A 
ATOM     71  C   UNL A   1      47.236  26.914  32.945  1.00  0.00     0.020 A 
ATOM     72  C   UNL A   1      48.119  27.679  30.814  1.00  0.00     0.020 A 
ATOM     73  C   UNL A   1      48.274  26.977  32.011  1.00  0.00     0.054 A 
BRANCH  73  74
ATOM     74  S   UNL A   1      49.825  26.108  32.372  1.00  0.00     0.124 S 
ATOM     75  O   UNL A   1      50.609  26.382  31.170  1.00  0.00    -0.237 OA
ATOM     76  O   UNL A   1      50.291  26.769  33.589  1.00  0.00    -0.237 OA
ATOM     77  O   UNL A   1      49.412  24.718  32.543  1.00  0.00    -0.744 OA
ENDBRANCH  73  74
ENDBRANCH  54  68
BRANCH  55  78
ATOM     78  C   UNL A   1      37.126  32.818  29.748  1.00  0.00    -0.014 A 
ATOM     79  C   UNL A   1      36.153  32.851  30.762  1.00  0.00     0.010 A 
ATOM     80  C   UNL A   1      36.856  33.440  28.516  1.00  0.00     0.010 A 
ATOM     81  C   UNL A   1      34.927  33.486  30.546  1.00  0.00     0.020 A 
ATOM     82  C   UNL A   1      35.639  34.095  28.304  1.00  0.00     0.020 A 
ATOM     83  C   UNL A   1      34.679  34.107  29.317  1.00  0.00     0.054 A 
BRANCH  83  84
ATOM     84  S   UNL A   1      33.107  34.982  29.081  1.00  0.00     0.124 S 
ATOM     85  O   UNL A   1      32.455  34.164  28.064  1.00  0.00    -0.237 OA
ATOM     86  O   UNL A   1      32.511  34.930  30.414  1.00  0.00    -0.237 OA
ATOM     87  O   UNL A   1      33.522  36.315  28.645  1.00  0.00    -0.744 OA
ENDBRANCH  83  84
ENDBRANCH  55  78
BRANCH  67  88
ATOM     88  C   UNL A   1      42.998  34.794  32.947  1.00  0.00    -0.014 A 
ATOM     89  C   UNL A   1      42.863  34.961  34.336  1.00  0.00     0.010 A 
ATOM     90  C   UNL A   1      43.578  35.822  32.182  1.00  0.00     0.010 A 
ATOM     91  C   UNL A   1      43.281  36.147  34.946  1.00  0.00     0.020 A 
ATOM     92  C   UNL A   1      44.017  37.000  32.793  1.00  0.00     0.020 A 
ATOM     93  C   UNL A   1      43.853  37.160  34.171  1.00  0.00     0.054 A 
BRANCH  93  94
ATOM     94  S   UNL A   1      44.433  38.670  34.991  1.00  0.00     0.124 S 
ATOM     95  O   UNL A   1      44.092  38.407  36.386  1.00  0.00    -0.237 OA
ATOM     96  O   UNL A   1      45.860  38.678  34.682  1.00  0.00    -0.237 OA
ATOM     97  O   UNL A   1      43.658  39.730  34.348  1.00  0.00    -0.744 OA
ENDBRANCH  93  94
ENDBRANCH  67  88
ENDBRANCH  41  42
ENDBRANCH  33  36
ENDBRANCH  31  32
ENDBRANCH  30  31
ENDBRANCH   1  30
TORSDOF 19
ENDMDL
MODEL 3
REMARK VINA RESULT:     -11.0      1.687      2.503
REMARK SMILES COc1ccc(/C=C/C(=O)NCCCCNC(=O)c2ccc(-c3c4nc(c(-c5ccc(S(=O)(=O)[O-])cc5)c5ccc([nH]5)c(-c5ccc(S(=O)(=O)[O-])cc5)c5nc(c(-c6ccc(S(=O)(=O)[O-])cc6)c6ccc3[nH]6)C=C5)C=C4)cc2)cc1S(=O)(=O)Nc1ccc(F)cc1F
REMARK SMILES IDX 13 1 12 2 11 3 9 4 10 5 8 7 7 8 6 9 3 10 4 11 80 12 5 13
REMARK SMILES IDX 79 14 2 15 1 16 81 17 82 18 83 19 84 20 85 22 86 23 91 24
REMARK SMILES IDX 87 25 90 26 92 27 88 28 89 29 14 30 15 31 16 32 17 33 18 35
REMARK SMILES IDX 19 36 20 37 78 38 21 39 77 40 22 41 23 42 24 43 71 44 25 45
REMARK SMILES IDX 76 46 70 47 72 48 26 49 75 50 69 51 68 52 27 54 57 55 38 56
REMARK SMILES IDX 56 57 39 58 42 59 55 60 73 61 40 62 41 63 54 65 74 66 43 67
REMARK SMILES IDX 28 68 29 69 37 70 30 71 36 72 31 73 32 74 33 75 34 76 35 77
REMARK SMILES IDX 58 78 59 79 67 80 60 81 66 82 61 83 62 84 63 85 64 86 65 87
REMARK SMILES IDX 44 88 45 89 53 90 46 91 52 92 47 93 48 94 49 95 50 96 51 97
REMARK H PARENT 11 6 84 21 16 34 72 53 42 64
REMARK Flexibility Score: inf
ROOT
ATOM      1  C   UNL A   1      32.900  29.446  24.974  1.00  0.00     0.023 C 
ENDROOT
BRANCH   1   2
ATOM      2  C   UNL A   1      31.397  29.715  24.978  1.00  0.00     0.116 C 
BRANCH   2   3
ATOM      3  N   UNL A   1      30.823  29.418  23.677  1.00  0.00    -0.353 N 
ATOM      4  C   UNL A   1      30.704  28.230  23.030  1.00  0.00     0.243 C 
ATOM      5  O   UNL A   1      30.150  28.164  21.937  1.00  0.00    -0.270 OA
ATOM      6  H   UNL A   1      30.466  30.196  23.192  1.00  0.00     0.163 HD
BRANCH   4   7
ATOM      7  C   UNL A   1      31.110  26.987  23.715  1.00  0.00     0.072 C 
ATOM      8  C   UNL A   1      30.271  26.112  24.296  1.00  0.00     0.014 C 
BRANCH   8   9
ATOM      9  C   UNL A   1      30.756  24.843  24.867  1.00  0.00    -0.024 A 
ATOM     10  C   UNL A   1      32.049  22.626  26.010  1.00  0.00     0.139 A 
ATOM     11  C   UNL A   1      31.212  23.429  26.786  1.00  0.00     0.048 A 
ATOM     12  C   UNL A   1      32.089  22.808  24.632  1.00  0.00     0.130 A 
ATOM     13  C   UNL A   1      30.559  24.518  26.214  1.00  0.00     0.012 A 
ATOM     14  C   UNL A   1      31.466  23.939  24.066  1.00  0.00     0.034 A 
BRANCH  10  15
ATOM     15  O   UNL A   1      32.746  21.675  26.697  1.00  0.00    -0.495 OA
ATOM     16  C   UNL A   1      33.348  22.209  27.877  1.00  0.00     0.278 C 
ENDBRANCH  10  15
BRANCH  12  17
ATOM     17  S   UNL A   1      32.832  21.660  23.501  1.00  0.00     0.265 S 
ATOM     18  O   UNL A   1      32.739  22.230  22.169  1.00  0.00    -0.201 OA
ATOM     19  O   UNL A   1      34.127  21.331  24.062  1.00  0.00    -0.201 OA
BRANCH  17  20
ATOM     20  N   UNL A   1      31.996  20.199  23.481  1.00  0.00    -0.277 N 
ATOM     21  H   UNL A   1      31.063  20.204  23.167  1.00  0.00     0.180 HD
BRANCH  20  22
ATOM     22  C   UNL A   1      32.560  18.953  23.892  1.00  0.00     0.085 A 
ATOM     23  C   UNL A   1      32.656  18.744  25.277  1.00  0.00     0.033 A 
ATOM     24  C   UNL A   1      32.967  17.933  23.025  1.00  0.00     0.150 A 
ATOM     25  C   UNL A   1      33.021  17.494  25.776  1.00  0.00     0.041 A 
ATOM     26  C   UNL A   1      33.338  16.685  23.519  1.00  0.00     0.080 A 
ATOM     27  F   UNL A   1      32.944  18.104  21.697  1.00  0.00    -0.205 F 
ATOM     28  C   UNL A   1      33.337  16.471  24.890  1.00  0.00     0.126 A 
ATOM     29  F   UNL A   1      33.638  15.257  25.372  1.00  0.00    -0.207 F 
ENDBRANCH  20  22
ENDBRANCH  17  20
ENDBRANCH  12  17
ENDBRANCH   8   9
ENDBRANCH   4   7
ENDBRANCH   2   3
ENDBRANCH   1   2
BRANCH   1  30
ATOM     30  C   UNL A   1      33.320  28.230  25.808  1.00  0.00     0.023 C 
BRANCH  30  31
ATOM     31  C   UNL A   1      33.723  28.538  27.249  1.00  0.00     0.116 C 
BRANCH  31  32
ATOM     32  N   UNL A   1      33.654  29.955  27.571  1.00  0.00    -0.352 N 
ATOM     33  C   UNL A   1      34.613  30.749  28.150  1.00  0.00     0.251 C 
ATOM     34  H   UNL A   1      32.807  30.404  27.343  1.00  0.00     0.163 HD
ATOM     35  O   UNL A   1      34.349  31.908  28.456  1.00  0.00    -0.269 OA
BRANCH  33  36
ATOM     36  C   UNL A   1      35.949  30.189  28.436  1.00  0.00     0.039 A 
ATOM     37  C   UNL A   1      36.913  30.194  27.425  1.00  0.00     0.014 A 
ATOM     38  C   UNL A   1      36.255  29.679  29.701  1.00  0.00     0.014 A 
ATOM     39  C   UNL A   1      38.205  29.744  27.700  1.00  0.00     0.010 A 
ATOM     40  C   UNL A   1      37.559  29.285  29.989  1.00  0.00     0.010 A 
ATOM     41  C   UNL A   1      38.546  29.316  28.993  1.00  0.00    -0.014 A 
BRANCH  41  42
ATOM     42  C   UNL A   1      39.930  28.899  29.327  1.00  0.00     0.031 A 
ATOM     43  C   UNL A   1      40.866  29.864  30.000  1.00  0.00     0.074 A 
ATOM     44  C   UNL A   1      40.368  27.680  28.955  1.00  0.00     0.049 A 
ATOM     45  N   UNL A   1      42.131  29.715  30.297  1.00  0.00    -0.248 NA
ATOM     46  C   UNL A   1      40.312  31.179  30.364  1.00  0.00     0.031 C 
ATOM     47  C   UNL A   1      39.568  26.667  28.262  1.00  0.00     0.029 A 
ATOM     48  N   UNL A   1      41.598  27.090  29.100  1.00  0.00    -0.354 N 
ATOM     49  C   UNL A   1      42.531  30.922  30.858  1.00  0.00     0.074 A 
ATOM     50  C   UNL A   1      41.384  31.805  30.825  1.00  0.00     0.031 C 
ATOM     51  C   UNL A   1      40.323  25.574  28.061  1.00  0.00     0.029 A 
ATOM     52  C   UNL A   1      41.666  25.820  28.577  1.00  0.00     0.049 A 
ATOM     53  H   UNL A   1      42.360  27.534  29.537  1.00  0.00     0.167 HD
ATOM     54  C   UNL A   1      43.740  31.262  31.367  1.00  0.00     0.031 A 
ATOM     55  C   UNL A   1      42.694  24.953  28.516  1.00  0.00     0.031 A 
ATOM     56  C   UNL A   1      44.873  30.377  31.415  1.00  0.00     0.049 A 
ATOM     57  C   UNL A   1      44.023  25.347  29.097  1.00  0.00     0.074 A 
ATOM     58  C   UNL A   1      46.122  30.606  31.964  1.00  0.00     0.029 A 
ATOM     59  N   UNL A   1      44.893  29.091  30.895  1.00  0.00    -0.354 N 
ATOM     60  N   UNL A   1      44.368  26.474  29.674  1.00  0.00    -0.248 NA
ATOM     61  C   UNL A   1      45.100  24.349  29.028  1.00  0.00     0.031 C 
ATOM     62  C   UNL A   1      46.911  29.471  31.743  1.00  0.00     0.029 A 
ATOM     63  C   UNL A   1      46.138  28.520  31.096  1.00  0.00     0.049 A 
ATOM     64  H   UNL A   1      44.135  28.650  30.449  1.00  0.00     0.167 HD
ATOM     65  C   UNL A   1      45.693  26.311  30.058  1.00  0.00     0.074 A 
ATOM     66  C   UNL A   1      46.085  24.975  29.657  1.00  0.00     0.031 C 
ATOM     67  C   UNL A   1      46.511  27.189  30.689  1.00  0.00     0.031 A 
BRANCH  54  68
ATOM     68  C   UNL A   1      43.893  32.660  31.904  1.00  0.00    -0.014 A 
ATOM     69  C   UNL A   1      44.322  33.712  31.076  1.00  0.00     0.010 A 
ATOM     70  C   UNL A   1      43.591  32.927  33.252  1.00  0.00     0.010 A 
ATOM     71  C   UNL A   1      44.500  34.995  31.598  1.00  0.00     0.020 A 
ATOM     72  C   UNL A   1      43.741  34.216  33.772  1.00  0.00     0.020 A 
ATOM     73  C   UNL A   1      44.217  35.237  32.946  1.00  0.00     0.054 A 
BRANCH  73  74
ATOM     74  S   UNL A   1      44.456  36.911  33.602  1.00  0.00     0.124 S 
ATOM     75  O   UNL A   1      44.838  36.640  34.986  1.00  0.00    -0.237 OA
ATOM     76  O   UNL A   1      45.519  37.444  32.751  1.00  0.00    -0.237 OA
ATOM     77  O   UNL A   1      43.150  37.541  33.428  1.00  0.00    -0.744 OA
ENDBRANCH  73  74
ENDBRANCH  54  68
BRANCH  55  78
ATOM     78  C   UNL A   1      42.495  23.613  27.901  1.00  0.00    -0.014 A 
ATOM     79  C   UNL A   1      42.930  23.367  26.587  1.00  0.00     0.010 A 
ATOM     80  C   UNL A   1      41.896  22.572  28.632  1.00  0.00     0.010 A 
ATOM     81  C   UNL A   1      42.761  22.106  26.011  1.00  0.00     0.020 A 
ATOM     82  C   UNL A   1      41.745  21.303  28.066  1.00  0.00     0.020 A 
ATOM     83  C   UNL A   1      42.171  21.080  26.756  1.00  0.00     0.054 A 
BRANCH  83  84
ATOM     84  S   UNL A   1      42.020  19.432  26.011  1.00  0.00     0.124 S 
ATOM     85  O   UNL A   1      40.582  19.331  25.788  1.00  0.00    -0.237 OA
ATOM     86  O   UNL A   1      42.841  19.551  24.808  1.00  0.00    -0.237 OA
ATOM     87  O   UNL A   1      42.561  18.544  27.038  1.00  0.00    -0.744 OA
ENDBRANCH  83  84
ENDBRANCH  55  78
BRANCH  67  88
ATOM     88  C   UNL A   1      47.904  26.724  31.012  1.00  0.00    -0.014 A 
ATOM     89  C   UNL A   1      48.956  26.884  30.093  1.00  0.00     0.010 A 
ATOM     90  C   UNL A   1      48.174  26.169  32.277  1.00  0.00     0.010 A 
ATOM     91  C   UNL A   1      50.250  26.474  30.425  1.00  0.00     0.020 A 
ATOM     92  C   UNL A   1      49.471  25.779  32.620  1.00  0.00     0.020 A 
ATOM     93  C   UNL A   1      50.499  25.923  31.686  1.00  0.00     0.054 A 
BRANCH  93  94
ATOM     94  S   UNL A   1      52.195  25.443  32.113  1.00  0.00     0.124 S 
ATOM     95  O   UNL A   1      52.950  25.941  30.966  1.00  0.00    -0.237 OA
ATOM     96  O   UNL A   1      52.424  26.150  33.371  1.00  0.00    -0.237 OA
ATOM     97  O   UNL A   1      52.124  23.987  32.229  1.00  0.00    -0.744 OA
ENDBRANCH  93  94
ENDBRANCH  67  88
ENDBRANCH  41  42
ENDBRANCH  33  36
ENDBRANCH  31  32
ENDBRANCH  30  31
ENDBRANCH   1  30
TORSDOF 19
ENDMDL
