MODEL 1
REMARK VINA RESULT:     -12.7      0.000      0.000
REMARK SMILES O=C(NCCCCNC(=O)C1CC[NH+]([C@H]2CC(=O)N(c3ccc4c(c3)OCCO4)C2=O)CC1)c1ccc(-c2c3nc(c(-c4ccc(S(=O)(=O)[O-])cc4)c4ccc([nH]4)c(-c4ccc(S(=O)(=O)[O-])cc4)c4nc(c(-c5ccc(S(=O)(=O)[O-])cc5)c5ccc2[nH]5)C=C4)C=C3)cc1
REMARK SMILES IDX 5 1 4 2 3 3 1 4 2 5 34 7 35 8 93 9 36 10 92 11 37 12 38 13
REMARK SMILES IDX 39 14 86 15 40 16 91 17 85 18 87 19 41 20 90 21 84 22 83 23
REMARK SMILES IDX 42 25 72 26 53 27 71 28 54 29 57 30 70 31 88 32 55 33 56 34
REMARK SMILES IDX 69 36 89 37 58 38 43 39 44 40 52 41 45 42 51 43 46 44 47 45
REMARK SMILES IDX 48 46 49 47 50 48 73 49 74 50 82 51 75 52 81 53 76 54 77 55
REMARK SMILES IDX 78 56 79 57 80 58 59 59 60 60 68 61 61 62 67 63 62 64 63 65
REMARK SMILES IDX 64 66 65 67 66 68 6 69 7 70 8 71 9 72 10 74 11 75 12 76
REMARK SMILES IDX 33 77 13 78 32 79 14 80 15 82 16 83 30 84 17 85 19 86 31 87
REMARK SMILES IDX 18 88 20 89 21 90 25 91 22 92 24 93 23 94 26 95 29 96 27 97
REMARK SMILES IDX 28 98
REMARK H PARENT 3 6 87 24 57 35 8 73 14 81
REMARK Flexibility Score: inf
ROOT
ATOM      1  C   UNL A   1      40.385  22.603  27.693  1.00  0.00     0.023 C 
ENDROOT
BRANCH   1   2
ATOM      2  C   UNL A   1      41.639  23.444  27.519  1.00  0.00     0.116 C 
BRANCH   2   3
ATOM      3  N   UNL A   1      41.643  24.212  26.280  1.00  0.00    -0.352 N 
ATOM      4  O   UNL A   1      41.320  26.057  25.007  1.00  0.00    -0.269 OA
ATOM      5  C   UNL A   1      41.442  25.564  26.123  1.00  0.00     0.251 C 
ATOM      6  H   UNL A   1      41.811  23.700  25.455  1.00  0.00     0.163 HD
BRANCH   5   7
ATOM      7  C   UNL A   1      41.344  26.400  27.336  1.00  0.00     0.039 A 
ATOM      8  C   UNL A   1      40.239  26.260  28.176  1.00  0.00     0.014 A 
ATOM      9  C   UNL A   1      42.308  27.379  27.584  1.00  0.00     0.014 A 
ATOM     10  C   UNL A   1      40.005  27.211  29.155  1.00  0.00     0.010 A 
ATOM     11  C   UNL A   1      42.131  28.261  28.654  1.00  0.00     0.010 A 
ATOM     12  C   UNL A   1      40.963  28.202  29.431  1.00  0.00    -0.014 A 
BRANCH  12  13
ATOM     13  C   UNL A   1      40.752  29.084  30.606  1.00  0.00     0.031 A 
ATOM     14  C   UNL A   1      39.646  30.102  30.648  1.00  0.00     0.074 A 
ATOM     15  C   UNL A   1      41.564  28.913  31.670  1.00  0.00     0.049 A 
ATOM     16  N   UNL A   1      39.323  30.915  31.623  1.00  0.00    -0.248 NA
ATOM     17  C   UNL A   1      38.798  30.235  29.453  1.00  0.00     0.031 C 
ATOM     18  C   UNL A   1      42.677  27.957  31.735  1.00  0.00     0.029 A 
ATOM     19  N   UNL A   1      41.569  29.505  32.905  1.00  0.00    -0.354 N 
ATOM     20  C   UNL A   1      38.248  31.665  31.158  1.00  0.00     0.074 A 
ATOM     21  C   UNL A   1      37.990  31.228  29.802  1.00  0.00     0.031 C 
ATOM     22  C   UNL A   1      43.210  27.982  32.963  1.00  0.00     0.029 A 
ATOM     23  C   UNL A   1      42.541  29.014  33.743  1.00  0.00     0.049 A 
ATOM     24  H   UNL A   1      40.937  30.213  33.167  1.00  0.00     0.167 HD
ATOM     25  C   UNL A   1      37.544  32.624  31.807  1.00  0.00     0.031 A 
ATOM     26  C   UNL A   1      42.884  29.369  34.993  1.00  0.00     0.031 A 
ATOM     27  C   UNL A   1      37.816  33.053  33.157  1.00  0.00     0.049 A 
ATOM     28  C   UNL A   1      42.114  30.467  35.665  1.00  0.00     0.074 A 
ATOM     29  C   UNL A   1      37.146  34.003  33.908  1.00  0.00     0.029 A 
ATOM     30  N   UNL A   1      38.841  32.566  33.955  1.00  0.00    -0.354 N 
ATOM     31  N   UNL A   1      41.082  31.141  35.217  1.00  0.00    -0.248 NA
ATOM     32  C   UNL A   1      42.554  30.851  37.011  1.00  0.00     0.031 C 
ATOM     33  C   UNL A   1      37.803  34.134  35.136  1.00  0.00     0.029 A 
ATOM     34  C   UNL A   1      38.839  33.217  35.179  1.00  0.00     0.049 A 
ATOM     35  H   UNL A   1      39.477  31.863  33.691  1.00  0.00     0.167 HD
ATOM     36  C   UNL A   1      40.737  32.020  36.235  1.00  0.00     0.074 A 
ATOM     37  C   UNL A   1      41.651  31.766  37.332  1.00  0.00     0.031 C 
ATOM     38  C   UNL A   1      39.760  32.958  36.258  1.00  0.00     0.031 A 
BRANCH  25  39
ATOM     39  C   UNL A   1      36.414  33.298  31.068  1.00  0.00    -0.014 A 
ATOM     40  C   UNL A   1      35.165  33.508  31.679  1.00  0.00     0.010 A 
ATOM     41  C   UNL A   1      36.635  33.810  29.774  1.00  0.00     0.010 A 
ATOM     42  C   UNL A   1      34.153  34.196  31.003  1.00  0.00     0.020 A 
ATOM     43  C   UNL A   1      35.634  34.523  29.107  1.00  0.00     0.020 A 
ATOM     44  C   UNL A   1      34.395  34.703  29.723  1.00  0.00     0.054 A 
BRANCH  44  45
ATOM     45  S   UNL A   1      33.077  35.637  28.893  1.00  0.00     0.124 S 
ATOM     46  O   UNL A   1      32.422  34.595  28.104  1.00  0.00    -0.237 OA
ATOM     47  O   UNL A   1      32.300  36.154  30.015  1.00  0.00    -0.237 OA
ATOM     48  O   UNL A   1      33.797  36.643  28.119  1.00  0.00    -0.744 OA
ENDBRANCH  44  45
ENDBRANCH  25  39
BRANCH  26  49
ATOM     49  C   UNL A   1      44.037  28.709  35.665  1.00  0.00    -0.014 A 
ATOM     50  C   UNL A   1      43.847  27.579  36.479  1.00  0.00     0.010 A 
ATOM     51  C   UNL A   1      45.338  29.216  35.491  1.00  0.00     0.010 A 
ATOM     52  C   UNL A   1      44.933  26.993  37.134  1.00  0.00     0.020 A 
ATOM     53  C   UNL A   1      46.430  28.609  36.112  1.00  0.00     0.020 A 
ATOM     54  C   UNL A   1      46.217  27.513  36.948  1.00  0.00     0.054 A 
BRANCH  54  55
ATOM     55  S   UNL A   1      47.614  26.726  37.795  1.00  0.00     0.124 S 
ATOM     56  O   UNL A   1      48.748  27.473  37.264  1.00  0.00    -0.237 OA
ATOM     57  O   UNL A   1      47.300  26.961  39.203  1.00  0.00    -0.237 OA
ATOM     58  O   UNL A   1      47.528  25.330  37.370  1.00  0.00    -0.744 OA
ENDBRANCH  54  55
ENDBRANCH  26  49
BRANCH  38  59
ATOM     59  C   UNL A   1      39.613  33.758  37.526  1.00  0.00    -0.014 A 
ATOM     60  C   UNL A   1      40.297  34.974  37.706  1.00  0.00     0.010 A 
ATOM     61  C   UNL A   1      38.767  33.290  38.547  1.00  0.00     0.010 A 
ATOM     62  C   UNL A   1      40.174  35.683  38.903  1.00  0.00     0.020 A 
ATOM     63  C   UNL A   1      38.614  34.014  39.731  1.00  0.00     0.020 A 
ATOM     64  C   UNL A   1      39.334  35.197  39.909  1.00  0.00     0.054 A 
BRANCH  64  65
ATOM     65  S   UNL A   1      39.174  36.147  41.444  1.00  0.00     0.124 S 
ATOM     66  O   UNL A   1      40.413  35.810  42.141  1.00  0.00    -0.237 OA
ATOM     67  O   UNL A   1      39.079  37.522  40.961  1.00  0.00    -0.237 OA
ATOM     68  O   UNL A   1      37.955  35.621  42.053  1.00  0.00    -0.744 OA
ENDBRANCH  64  65
ENDBRANCH  38  59
ENDBRANCH  12  13
ENDBRANCH   5   7
ENDBRANCH   2   3
ENDBRANCH   1   2
BRANCH   1  69
ATOM     69  C   UNL A   1      39.854  22.004  26.400  1.00  0.00     0.023 C 
BRANCH  69  70
ATOM     70  C   UNL A   1      38.447  22.463  26.046  1.00  0.00     0.116 C 
BRANCH  70  71
ATOM     71  N   UNL A   1      37.590  21.354  25.641  1.00  0.00    -0.356 N 
ATOM     72  C   UNL A   1      36.222  21.337  25.531  1.00  0.00     0.223 C 
ATOM     73  H   UNL A   1      38.050  20.514  25.417  1.00  0.00     0.163 HD
ATOM     74  O   UNL A   1      35.649  20.323  25.146  1.00  0.00    -0.275 OA
BRANCH  72  75
ATOM     75  C   UNL A   1      35.497  22.631  25.857  1.00  0.00     0.089 C 
ATOM     76  C   UNL A   1      34.414  22.499  26.942  1.00  0.00     0.075 C 
ATOM     77  C   UNL A   1      35.103  23.315  24.532  1.00  0.00     0.075 C 
ATOM     78  C   UNL A   1      33.027  23.030  26.587  1.00  0.00     0.263 C 
ATOM     79  C   UNL A   1      33.627  23.602  24.359  1.00  0.00     0.263 C 
ATOM     80  N   UNL A   1      32.990  24.083  25.575  1.00  0.00    -0.324 N 
ATOM     81  H   UNL A   1      32.021  24.266  25.314  1.00  0.00     0.348 HD
BRANCH  80  82
ATOM     82  C   UNL A   1      33.270  25.456  26.045  1.00  0.00     0.284 C 
ATOM     83  C   UNL A   1      34.339  26.304  25.371  1.00  0.00     0.176 C 
ATOM     84  C   UNL A   1      32.044  26.373  25.960  1.00  0.00     0.292 C 
ATOM     85  C   UNL A   1      33.573  27.259  24.509  1.00  0.00     0.240 C 
ATOM     86  N   UNL A   1      32.290  27.325  24.992  1.00  0.00    -0.245 N 
ATOM     87  O   UNL A   1      31.024  26.234  26.624  1.00  0.00    -0.267 OA
ATOM     88  O   UNL A   1      34.093  27.912  23.619  1.00  0.00    -0.274 OA
BRANCH  86  89
ATOM     89  C   UNL A   1      31.390  28.350  24.624  1.00  0.00     0.056 A 
ATOM     90  C   UNL A   1      31.440  29.583  25.290  1.00  0.00     0.031 A 
ATOM     91  C   UNL A   1      30.504  28.187  23.551  1.00  0.00     0.077 A 
ATOM     92  C   UNL A   1      30.648  30.650  24.862  1.00  0.00     0.052 A 
ATOM     93  C   UNL A   1      29.668  29.238  23.164  1.00  0.00     0.163 A 
ATOM     94  C   UNL A   1      29.749  30.472  23.814  1.00  0.00     0.161 A 
ATOM     95  O   UNL A   1      28.782  28.981  22.151  1.00  0.00    -0.486 OA
ATOM     96  O   UNL A   1      28.983  31.556  23.473  1.00  0.00    -0.486 OA
ATOM     97  C   UNL A   1      28.201  30.180  21.623  1.00  0.00     0.271 C 
ATOM     98  C   UNL A   1      27.829  31.155  22.729  1.00  0.00     0.271 C 
ENDBRANCH  86  89
ENDBRANCH  80  82
ENDBRANCH  72  75
ENDBRANCH  70  71
ENDBRANCH  69  70
ENDBRANCH   1  69
TORSDOF 16
ENDMDL
MODEL 2
REMARK VINA RESULT:     -12.5      6.201     11.836
REMARK SMILES O=C(NCCCCNC(=O)C1CC[NH+]([C@H]2CC(=O)N(c3ccc4c(c3)OCCO4)C2=O)CC1)c1ccc(-c2c3nc(c(-c4ccc(S(=O)(=O)[O-])cc4)c4ccc([nH]4)c(-c4ccc(S(=O)(=O)[O-])cc4)c4nc(c(-c5ccc(S(=O)(=O)[O-])cc5)c5ccc2[nH]5)C=C4)C=C3)cc1
REMARK SMILES IDX 5 1 4 2 3 3 1 4 2 5 34 7 35 8 93 9 36 10 92 11 37 12 38 13
REMARK SMILES IDX 39 14 86 15 40 16 91 17 85 18 87 19 41 20 90 21 84 22 83 23
REMARK SMILES IDX 42 25 72 26 53 27 71 28 54 29 57 30 70 31 88 32 55 33 56 34
REMARK SMILES IDX 69 36 89 37 58 38 43 39 44 40 52 41 45 42 51 43 46 44 47 45
REMARK SMILES IDX 48 46 49 47 50 48 73 49 74 50 82 51 75 52 81 53 76 54 77 55
REMARK SMILES IDX 78 56 79 57 80 58 59 59 60 60 68 61 61 62 67 63 62 64 63 65
REMARK SMILES IDX 64 66 65 67 66 68 6 69 7 70 8 71 9 72 10 74 11 75 12 76
REMARK SMILES IDX 33 77 13 78 32 79 14 80 15 82 16 83 30 84 17 85 19 86 31 87
REMARK SMILES IDX 18 88 20 89 21 90 25 91 22 92 24 93 23 94 26 95 29 96 27 97
REMARK SMILES IDX 28 98
REMARK H PARENT 3 6 87 24 57 35 8 73 14 81
REMARK Flexibility Score: inf
ROOT
ATOM      1  C   UNL A   1      34.518  31.030  27.868  1.00  0.00     0.023 C 
ENDROOT
BRANCH   1   2
ATOM      2  C   UNL A   1      35.805  31.256  28.645  1.00  0.00     0.116 C 
BRANCH   2   3
ATOM      3  N   UNL A   1      35.677  30.945  30.063  1.00  0.00    -0.352 N 
ATOM      4  O   UNL A   1      36.239  29.905  31.996  1.00  0.00    -0.269 OA
ATOM      5  C   UNL A   1      36.543  30.223  30.852  1.00  0.00     0.251 C 
ATOM      6  H   UNL A   1      34.873  31.295  30.512  1.00  0.00     0.163 HD
BRANCH   5   7
ATOM      7  C   UNL A   1      37.838  29.813  30.271  1.00  0.00     0.039 A 
ATOM      8  C   UNL A   1      38.868  29.401  31.117  1.00  0.00     0.014 A 
ATOM      9  C   UNL A   1      38.049  29.926  28.896  1.00  0.00     0.014 A 
ATOM     10  C   UNL A   1      40.152  29.276  30.615  1.00  0.00     0.010 A 
ATOM     11  C   UNL A   1      39.322  29.674  28.374  1.00  0.00     0.010 A 
ATOM     12  C   UNL A   1      40.390  29.375  29.234  1.00  0.00    -0.014 A 
BRANCH  12  13
ATOM     13  C   UNL A   1      41.747  29.054  28.724  1.00  0.00     0.031 A 
ATOM     14  C   UNL A   1      42.845  30.079  28.685  1.00  0.00     0.074 A 
ATOM     15  C   UNL A   1      41.982  27.784  28.333  1.00  0.00     0.049 A 
ATOM     16  N   UNL A   1      44.087  29.929  28.298  1.00  0.00    -0.248 NA
ATOM     17  C   UNL A   1      42.518  31.444  29.126  1.00  0.00     0.031 C 
ATOM     18  C   UNL A   1      40.985  26.706  28.322  1.00  0.00     0.029 A 
ATOM     19  N   UNL A   1      43.129  27.172  27.900  1.00  0.00    -0.354 N 
ATOM     20  C   UNL A   1      44.687  31.176  28.434  1.00  0.00     0.074 A 
ATOM     21  C   UNL A   1      43.663  32.081  28.914  1.00  0.00     0.031 C 
ATOM     22  C   UNL A   1      41.577  25.559  27.969  1.00  0.00     0.029 A 
ATOM     23  C   UNL A   1      42.969  25.832  27.642  1.00  0.00     0.049 A 
ATOM     24  H   UNL A   1      43.984  27.646  27.786  1.00  0.00     0.167 HD
ATOM     25  C   UNL A   1      45.971  31.528  28.183  1.00  0.00     0.031 A 
ATOM     26  C   UNL A   1      43.835  24.920  27.166  1.00  0.00     0.031 A 
ATOM     27  C   UNL A   1      46.979  30.617  27.699  1.00  0.00     0.049 A 
ATOM     28  C   UNL A   1      45.236  25.354  26.854  1.00  0.00     0.074 A 
ATOM     29  C   UNL A   1      48.314  30.873  27.434  1.00  0.00     0.029 A 
ATOM     30  N   UNL A   1      46.766  29.278  27.403  1.00  0.00    -0.354 N 
ATOM     31  N   UNL A   1      45.788  26.532  27.020  1.00  0.00    -0.248 NA
ATOM     32  C   UNL A   1      46.131  24.336  26.293  1.00  0.00     0.031 C 
ATOM     33  C   UNL A   1      48.891  29.708  26.920  1.00  0.00     0.029 A 
ATOM     34  C   UNL A   1      47.937  28.705  26.930  1.00  0.00     0.049 A 
ATOM     35  H   UNL A   1      45.910  28.805  27.511  1.00  0.00     0.167 HD
ATOM     36  C   UNL A   1      47.104  26.393  26.597  1.00  0.00     0.074 A 
ATOM     37  C   UNL A   1      47.270  25.007  26.203  1.00  0.00     0.031 C 
ATOM     38  C   UNL A   1      48.084  27.326  26.534  1.00  0.00     0.031 A 
BRANCH  25  39
ATOM     39  C   UNL A   1      46.371  32.965  28.408  1.00  0.00    -0.014 A 
ATOM     40  C   UNL A   1      46.914  33.389  29.634  1.00  0.00     0.010 A 
ATOM     41  C   UNL A   1      46.285  33.887  27.346  1.00  0.00     0.010 A 
ATOM     42  C   UNL A   1      47.342  34.709  29.801  1.00  0.00     0.020 A 
ATOM     43  C   UNL A   1      46.738  35.201  27.501  1.00  0.00     0.020 A 
ATOM     44  C   UNL A   1      47.256  35.606  28.732  1.00  0.00     0.054 A 
BRANCH  44  45
ATOM     45  S   UNL A   1      47.868  37.299  28.965  1.00  0.00     0.124 S 
ATOM     46  O   UNL A   1      48.792  37.133  30.086  1.00  0.00    -0.237 OA
ATOM     47  O   UNL A   1      48.491  37.592  27.678  1.00  0.00    -0.237 OA
ATOM     48  O   UNL A   1      46.663  38.068  29.262  1.00  0.00    -0.744 OA
ENDBRANCH  44  45
ENDBRANCH  25  39
BRANCH  26  49
ATOM     49  C   UNL A   1      43.383  23.525  26.914  1.00  0.00    -0.014 A 
ATOM     50  C   UNL A   1      43.237  22.611  27.972  1.00  0.00     0.010 A 
ATOM     51  C   UNL A   1      43.096  23.103  25.602  1.00  0.00     0.010 A 
ATOM     52  C   UNL A   1      42.848  21.293  27.718  1.00  0.00     0.020 A 
ATOM     53  C   UNL A   1      42.670  21.799  25.349  1.00  0.00     0.020 A 
ATOM     54  C   UNL A   1      42.569  20.896  26.407  1.00  0.00     0.054 A 
BRANCH  54  55
ATOM     55  S   UNL A   1      42.051  19.185  26.101  1.00  0.00     0.124 S 
ATOM     56  O   UNL A   1      40.628  19.346  25.826  1.00  0.00    -0.237 OA
ATOM     57  O   UNL A   1      42.880  18.805  24.958  1.00  0.00    -0.237 OA
ATOM     58  O   UNL A   1      42.376  18.502  27.351  1.00  0.00    -0.744 OA
ENDBRANCH  54  55
ENDBRANCH  26  49
BRANCH  38  59
ATOM     59  C   UNL A   1      49.432  26.866  26.045  1.00  0.00    -0.014 A 
ATOM     60  C   UNL A   1      50.332  26.206  26.900  1.00  0.00     0.010 A 
ATOM     61  C   UNL A   1      49.797  27.088  24.705  1.00  0.00     0.010 A 
ATOM     62  C   UNL A   1      51.591  25.818  26.436  1.00  0.00     0.020 A 
ATOM     63  C   UNL A   1      51.041  26.670  24.228  1.00  0.00     0.020 A 
ATOM     64  C   UNL A   1      51.938  26.055  25.103  1.00  0.00     0.054 A 
BRANCH  64  65
ATOM     65  S   UNL A   1      53.569  25.521  24.520  1.00  0.00     0.124 S 
ATOM     66  O   UNL A   1      53.526  25.897  23.109  1.00  0.00    -0.237 OA
ATOM     67  O   UNL A   1      54.479  26.306  25.351  1.00  0.00    -0.237 OA
ATOM     68  O   UNL A   1      53.579  24.084  24.781  1.00  0.00    -0.744 OA
ENDBRANCH  64  65
ENDBRANCH  38  59
ENDBRANCH  12  13
ENDBRANCH   5   7
ENDBRANCH   2   3
ENDBRANCH   1   2
BRANCH   1  69
ATOM     69  C   UNL A   1      34.434  29.671  27.189  1.00  0.00     0.023 C 
BRANCH  69  70
ATOM     70  C   UNL A   1      33.238  29.524  26.261  1.00  0.00     0.116 C 
BRANCH  70  71
ATOM     71  N   UNL A   1      33.623  29.553  24.854  1.00  0.00    -0.356 N 
ATOM     72  C   UNL A   1      33.321  28.641  23.874  1.00  0.00     0.223 C 
ATOM     73  H   UNL A   1      34.167  30.324  24.573  1.00  0.00     0.163 HD
ATOM     74  O   UNL A   1      33.702  28.827  22.723  1.00  0.00    -0.275 OA
BRANCH  72  75
ATOM     75  C   UNL A   1      32.469  27.454  24.289  1.00  0.00     0.089 C 
ATOM     76  C   UNL A   1      31.202  27.824  25.078  1.00  0.00     0.075 C 
ATOM     77  C   UNL A   1      33.396  26.376  24.887  1.00  0.00     0.075 C 
ATOM     78  C   UNL A   1      30.997  27.108  26.412  1.00  0.00     0.263 C 
ATOM     79  C   UNL A   1      33.065  25.941  26.298  1.00  0.00     0.263 C 
ATOM     80  N   UNL A   1      31.636  25.800  26.534  1.00  0.00    -0.324 N 
ATOM     81  H   UNL A   1      31.556  25.475  27.498  1.00  0.00     0.348 HD
BRANCH  80  82
ATOM     82  C   UNL A   1      30.912  24.657  25.940  1.00  0.00     0.284 C 
ATOM     83  C   UNL A   1      30.679  24.583  24.439  1.00  0.00     0.176 C 
ATOM     84  C   UNL A   1      31.598  23.313  26.216  1.00  0.00     0.292 C 
ATOM     85  C   UNL A   1      31.690  23.592  23.949  1.00  0.00     0.240 C 
ATOM     86  N   UNL A   1      32.080  22.826  25.019  1.00  0.00    -0.245 N 
ATOM     87  O   UNL A   1      31.714  22.807  27.326  1.00  0.00    -0.267 OA
ATOM     88  O   UNL A   1      31.985  23.473  22.771  1.00  0.00    -0.274 OA
BRANCH  86  89
ATOM     89  C   UNL A   1      32.774  21.606  24.868  1.00  0.00     0.056 A 
ATOM     90  C   UNL A   1      34.171  21.618  24.747  1.00  0.00     0.031 A 
ATOM     91  C   UNL A   1      32.103  20.377  24.919  1.00  0.00     0.077 A 
ATOM     92  C   UNL A   1      34.890  20.421  24.723  1.00  0.00     0.052 A 
ATOM     93  C   UNL A   1      32.819  19.180  24.833  1.00  0.00     0.163 A 
ATOM     94  C   UNL A   1      34.214  19.205  24.745  1.00  0.00     0.161 A 
ATOM     95  O   UNL A   1      32.087  18.022  24.823  1.00  0.00    -0.486 OA
ATOM     96  O   UNL A   1      34.985  18.073  24.685  1.00  0.00    -0.486 OA
ATOM     97  C   UNL A   1      32.903  16.865  25.045  1.00  0.00     0.271 C 
ATOM     98  C   UNL A   1      34.210  16.944  24.272  1.00  0.00     0.271 C 
ENDBRANCH  86  89
ENDBRANCH  80  82
ENDBRANCH  72  75
ENDBRANCH  70  71
ENDBRANCH  69  70
ENDBRANCH   1  69
TORSDOF 16
ENDMDL
MODEL 3
REMARK VINA RESULT:     -12.5      1.641      8.284
REMARK SMILES O=C(NCCCCNC(=O)C1CC[NH+]([C@H]2CC(=O)N(c3ccc4c(c3)OCCO4)C2=O)CC1)c1ccc(-c2c3nc(c(-c4ccc(S(=O)(=O)[O-])cc4)c4ccc([nH]4)c(-c4ccc(S(=O)(=O)[O-])cc4)c4nc(c(-c5ccc(S(=O)(=O)[O-])cc5)c5ccc2[nH]5)C=C4)C=C3)cc1
REMARK SMILES IDX 5 1 4 2 3 3 1 4 2 5 34 7 35 8 93 9 36 10 92 11 37 12 38 13
REMARK SMILES IDX 39 14 86 15 40 16 91 17 85 18 87 19 41 20 90 21 84 22 83 23
REMARK SMILES IDX 42 25 72 26 53 27 71 28 54 29 57 30 70 31 88 32 55 33 56 34
REMARK SMILES IDX 69 36 89 37 58 38 43 39 44 40 52 41 45 42 51 43 46 44 47 45
REMARK SMILES IDX 48 46 49 47 50 48 73 49 74 50 82 51 75 52 81 53 76 54 77 55
REMARK SMILES IDX 78 56 79 57 80 58 59 59 60 60 68 61 61 62 67 63 62 64 63 65
REMARK SMILES IDX 64 66 65 67 66 68 6 69 7 70 8 71 9 72 10 74 11 75 12 76
REMARK SMILES IDX 33 77 13 78 32 79 14 80 15 82 16 83 30 84 17 85 19 86 31 87
REMARK SMILES IDX 18 88 20 89 21 90 25 91 22 92 24 93 23 94 26 95 29 96 27 97
REMARK SMILES IDX 28 98
REMARK H PARENT 3 6 87 24 57 35 8 73 14 81
REMARK Flexibility Score: inf
ROOT
ATOM      1  C   UNL A   1      37.799  23.830  26.204  1.00  0.00     0.023 C 
ENDROOT
BRANCH   1   2
ATOM      2  C   UNL A   1      39.153  23.942  26.886  1.00  0.00     0.116 C 
BRANCH   2   3
ATOM      3  N   UNL A   1      40.204  24.413  25.993  1.00  0.00    -0.352 N 
ATOM      4  O   UNL A   1      41.639  25.942  25.137  1.00  0.00    -0.269 OA
ATOM      5  C   UNL A   1      40.884  25.608  26.043  1.00  0.00     0.251 C 
ATOM      6  H   UNL A   1      40.459  23.800  25.265  1.00  0.00     0.163 HD
BRANCH   5   7
ATOM      7  C   UNL A   1      40.654  26.493  27.203  1.00  0.00     0.039 A 
ATOM      8  C   UNL A   1      41.321  27.716  27.273  1.00  0.00     0.014 A 
ATOM      9  C   UNL A   1      39.845  26.061  28.255  1.00  0.00     0.014 A 
ATOM     10  C   UNL A   1      41.324  28.422  28.464  1.00  0.00     0.010 A 
ATOM     11  C   UNL A   1      39.751  26.842  29.412  1.00  0.00     0.010 A 
ATOM     12  C   UNL A   1      40.512  28.014  29.536  1.00  0.00    -0.014 A 
BRANCH  12  13
ATOM     13  C   UNL A   1      40.409  28.900  30.723  1.00  0.00     0.031 A 
ATOM     14  C   UNL A   1      41.332  28.763  31.901  1.00  0.00     0.074 A 
ATOM     15  C   UNL A   1      39.477  29.876  30.694  1.00  0.00     0.049 A 
ATOM     16  N   UNL A   1      41.379  29.490  32.989  1.00  0.00    -0.248 NA
ATOM     17  C   UNL A   1      42.324  27.677  31.864  1.00  0.00     0.031 C 
ATOM     18  C   UNL A   1      38.520  30.097  29.603  1.00  0.00     0.029 A 
ATOM     19  N   UNL A   1      39.196  30.880  31.583  1.00  0.00    -0.354 N 
ATOM     20  C   UNL A   1      42.390  28.945  33.773  1.00  0.00     0.074 A 
ATOM     21  C   UNL A   1      42.915  27.808  33.047  1.00  0.00     0.031 C 
ATOM     22  C   UNL A   1      37.808  31.202  29.855  1.00  0.00     0.029 A 
ATOM     23  C   UNL A   1      38.190  31.717  31.163  1.00  0.00     0.049 A 
ATOM     24  H   UNL A   1      39.669  30.992  32.439  1.00  0.00     0.167 HD
ATOM     25  C   UNL A   1      42.838  29.360  34.983  1.00  0.00     0.031 A 
ATOM     26  C   UNL A   1      37.611  32.768  31.769  1.00  0.00     0.031 A 
ATOM     27  C   UNL A   1      42.301  30.492  35.698  1.00  0.00     0.049 A 
ATOM     28  C   UNL A   1      38.099  33.171  33.128  1.00  0.00     0.074 A 
ATOM     29  C   UNL A   1      42.701  31.004  36.921  1.00  0.00     0.029 A 
ATOM     30  N   UNL A   1      41.250  31.284  35.262  1.00  0.00    -0.354 N 
ATOM     31  N   UNL A   1      39.077  32.660  33.837  1.00  0.00    -0.248 NA
ATOM     32  C   UNL A   1      37.406  34.295  33.769  1.00  0.00     0.031 C 
ATOM     33  C   UNL A   1      41.852  32.065  37.252  1.00  0.00     0.029 A 
ATOM     34  C   UNL A   1      40.968  32.261  36.205  1.00  0.00     0.049 A 
ATOM     35  H   UNL A   1      40.772  31.169  34.409  1.00  0.00     0.167 HD
ATOM     36  C   UNL A   1      39.128  33.411  35.003  1.00  0.00     0.074 A 
ATOM     37  C   UNL A   1      38.105  34.432  34.887  1.00  0.00     0.031 C 
ATOM     38  C   UNL A   1      39.941  33.266  36.077  1.00  0.00     0.031 A 
BRANCH  25  39
ATOM     39  C   UNL A   1      43.955  28.581  35.633  1.00  0.00    -0.014 A 
ATOM     40  C   UNL A   1      43.688  27.487  36.475  1.00  0.00     0.010 A 
ATOM     41  C   UNL A   1      45.294  28.893  35.324  1.00  0.00     0.010 A 
ATOM     42  C   UNL A   1      44.737  26.734  37.013  1.00  0.00     0.020 A 
ATOM     43  C   UNL A   1      46.344  28.126  35.838  1.00  0.00     0.020 A 
ATOM     44  C   UNL A   1      46.058  27.056  36.688  1.00  0.00     0.054 A 
BRANCH  44  45
ATOM     45  S   UNL A   1      47.394  26.028  37.361  1.00  0.00     0.124 S 
ATOM     46  O   UNL A   1      46.779  25.492  38.574  1.00  0.00    -0.237 OA
ATOM     47  O   UNL A   1      47.619  25.058  36.292  1.00  0.00    -0.237 OA
ATOM     48  O   UNL A   1      48.484  26.973  37.582  1.00  0.00    -0.744 OA
ENDBRANCH  44  45
ENDBRANCH  25  39
BRANCH  26  49
ATOM     49  C   UNL A   1      36.479  33.476  31.111  1.00  0.00    -0.014 A 
ATOM     50  C   UNL A   1      36.595  33.955  29.794  1.00  0.00     0.010 A 
ATOM     51  C   UNL A   1      35.273  33.675  31.807  1.00  0.00     0.010 A 
ATOM     52  C   UNL A   1      35.538  34.651  29.202  1.00  0.00     0.020 A 
ATOM     53  C   UNL A   1      34.202  34.336  31.205  1.00  0.00     0.020 A 
ATOM     54  C   UNL A   1      34.349  34.839  29.913  1.00  0.00     0.054 A 
BRANCH  54  55
ATOM     55  S   UNL A   1      32.985  35.731  29.119  1.00  0.00     0.124 S 
ATOM     56  O   UNL A   1      32.386  34.692  28.290  1.00  0.00    -0.237 OA
ATOM     57  O   UNL A   1      32.187  36.169  30.263  1.00  0.00    -0.237 OA
ATOM     58  O   UNL A   1      33.657  36.805  28.392  1.00  0.00    -0.744 OA
ENDBRANCH  54  55
ENDBRANCH  26  49
BRANCH  38  59
ATOM     59  C   UNL A   1      39.773  34.257  37.198  1.00  0.00    -0.014 A 
ATOM     60  C   UNL A   1      39.045  33.932  38.357  1.00  0.00     0.010 A 
ATOM     61  C   UNL A   1      40.364  35.529  37.095  1.00  0.00     0.010 A 
ATOM     62  C   UNL A   1      38.871  34.877  39.371  1.00  0.00     0.020 A 
ATOM     63  C   UNL A   1      40.223  36.464  38.121  1.00  0.00     0.020 A 
ATOM     64  C   UNL A   1      39.460  36.138  39.245  1.00  0.00     0.054 A 
BRANCH  64  65
ATOM     65  S   UNL A   1      39.239  37.340  40.584  1.00  0.00     0.124 S 
ATOM     66  O   UNL A   1      38.282  38.275  39.999  1.00  0.00    -0.237 OA
ATOM     67  O   UNL A   1      38.725  36.514  41.673  1.00  0.00    -0.237 OA
ATOM     68  O   UNL A   1      40.582  37.875  40.796  1.00  0.00    -0.744 OA
ENDBRANCH  64  65
ENDBRANCH  38  59
ENDBRANCH  12  13
ENDBRANCH   5   7
ENDBRANCH   2   3
ENDBRANCH   1   2
BRANCH   1  69
ATOM     69  C   UNL A   1      37.481  22.436  25.683  1.00  0.00     0.023 C 
BRANCH  69  70
ATOM     70  C   UNL A   1      36.038  22.012  25.914  1.00  0.00     0.116 C 
BRANCH  70  71
ATOM     71  N   UNL A   1      35.783  20.649  25.463  1.00  0.00    -0.356 N 
ATOM     72  C   UNL A   1      34.646  20.148  24.881  1.00  0.00     0.223 C 
ATOM     73  H   UNL A   1      36.519  20.009  25.591  1.00  0.00     0.163 HD
ATOM     74  O   UNL A   1      34.601  18.974  24.531  1.00  0.00    -0.275 OA
BRANCH  72  75
ATOM     75  C   UNL A   1      33.505  21.127  24.662  1.00  0.00     0.089 C 
ATOM     76  C   UNL A   1      32.411  20.627  23.704  1.00  0.00     0.075 C 
ATOM     77  C   UNL A   1      34.108  22.522  24.396  1.00  0.00     0.075 C 
ATOM     78  C   UNL A   1      32.045  21.553  22.545  1.00  0.00     0.263 C 
ATOM     79  C   UNL A   1      33.701  23.170  23.090  1.00  0.00     0.263 C 
ATOM     80  N   UNL A   1      32.296  22.975  22.766  1.00  0.00    -0.324 N 
ATOM     81  H   UNL A   1      32.151  23.483  21.893  1.00  0.00     0.348 HD
BRANCH  80  82
ATOM     82  C   UNL A   1      31.267  23.712  23.530  1.00  0.00     0.284 C 
ATOM     83  C   UNL A   1      30.924  23.310  24.956  1.00  0.00     0.176 C 
ATOM     84  C   UNL A   1      31.606  25.199  23.698  1.00  0.00     0.292 C 
ATOM     85  C   UNL A   1      31.615  24.328  25.811  1.00  0.00     0.240 C 
ATOM     86  N   UNL A   1      31.867  25.429  25.032  1.00  0.00    -0.245 N 
ATOM     87  O   UNL A   1      31.664  26.007  22.778  1.00  0.00    -0.267 OA
ATOM     88  O   UNL A   1      31.790  24.178  27.009  1.00  0.00    -0.274 OA
BRANCH  86  89
ATOM     89  C   UNL A   1      32.217  26.683  25.579  1.00  0.00     0.056 A 
ATOM     90  C   UNL A   1      31.218  27.641  25.804  1.00  0.00     0.031 A 
ATOM     91  C   UNL A   1      33.532  26.959  25.978  1.00  0.00     0.077 A 
ATOM     92  C   UNL A   1      31.519  28.837  26.458  1.00  0.00     0.052 A 
ATOM     93  C   UNL A   1      33.842  28.184  26.577  1.00  0.00     0.163 A 
ATOM     94  C   UNL A   1      32.832  29.117  26.825  1.00  0.00     0.161 A 
ATOM     95  O   UNL A   1      35.160  28.407  26.877  1.00  0.00    -0.486 OA
ATOM     96  O   UNL A   1      33.055  30.325  27.432  1.00  0.00    -0.486 OA
ATOM     97  C   UNL A   1      35.332  29.528  27.753  1.00  0.00     0.271 C 
ATOM     98  C   UNL A   1      34.436  30.691  27.357  1.00  0.00     0.271 C 
ENDBRANCH  86  89
ENDBRANCH  80  82
ENDBRANCH  72  75
ENDBRANCH  70  71
ENDBRANCH  69  70
ENDBRANCH   1  69
TORSDOF 16
ENDMDL
