MODEL 1
REMARK VINA RESULT:     -13.0      0.000      0.000
REMARK SMILES O=C(NCCCCNC(=O)c1ccc(-c2c3nc(c(-c4ccc(S(=O)(=O)[O-])cc4)c4ccc([nH]4)c(-c4ccc(S(=O)(=O)[O-])cc4)c4nc(c(-c5ccc(S(=O)(=O)[O-])cc5)c5ccc2[nH]5)C=C4)C=C3)cc1)C1=Cc2cc(Cl)cc(-c3ccc(CO)cc3)c2O[C@@H]1C(F)(F)F
REMARK SMILES IDX 5 1 4 2 3 3 1 4 2 5 71 7 72 8 89 9 73 10 88 11 74 12 87 13
REMARK SMILES IDX 75 14 78 15 76 16 77 17 90 18 91 19 92 20 93 21 79 22 80 23
REMARK SMILES IDX 86 24 81 25 85 26 82 27 83 28 84 29 6 31 7 32 8 33 9 34
REMARK SMILES IDX 10 36 11 37 12 38 70 39 13 40 69 41 14 42 15 43 16 44 63 45
REMARK SMILES IDX 17 46 68 47 62 48 64 49 18 50 67 51 61 52 60 53 19 55 49 56
REMARK SMILES IDX 30 57 48 58 31 59 34 60 47 61 65 62 32 63 33 64 46 66 66 67
REMARK SMILES IDX 35 68 20 69 21 70 29 71 22 72 28 73 23 74 24 75 25 76 26 77
REMARK SMILES IDX 27 78 50 79 51 80 59 81 52 82 58 83 53 84 54 85 55 86 56 87
REMARK SMILES IDX 57 88 36 89 37 90 45 91 38 92 44 93 39 94 40 95 41 96 42 97
REMARK SMILES IDX 43 98
REMARK H PARENT 3 6 84 30 8 35 64 54 34 65
REMARK Flexibility Score: inf
ROOT
ATOM      1  C   UNL A   1      31.831  27.212  25.780  1.00  0.00     0.023 C 
ENDROOT
BRANCH   1   2
ATOM      2  C   UNL A   1      30.719  26.159  25.892  1.00  0.00     0.116 C 
BRANCH   2   3
ATOM      3  N   UNL A   1      31.056  25.044  26.787  1.00  0.00    -0.352 N 
ATOM      4  O   UNL A   1      32.334  23.444  27.731  1.00  0.00    -0.270 OA
ATOM      5  C   UNL A   1      32.006  24.053  26.719  1.00  0.00     0.251 C 
ATOM      6  H   UNL A   1      30.493  24.998  27.593  1.00  0.00     0.163 HD
BRANCH   5   7
ATOM      7  C   UNL A   1      32.729  23.834  25.449  1.00  0.00     0.067 C 
ATOM      8  C   UNL A   1      33.998  24.211  25.243  1.00  0.00     0.025 C 
ATOM      9  C   UNL A   1      32.127  22.869  24.479  1.00  0.00     0.314 C 
ATOM     10  C   UNL A   1      34.867  23.062  24.936  1.00  0.00     0.019 A 
ATOM     11  O   UNL A   1      32.925  21.669  24.398  1.00  0.00    -0.475 OA
ATOM     12  C   UNL A   1      36.224  23.132  25.277  1.00  0.00     0.032 A 
ATOM     13  C   UNL A   1      34.275  21.809  24.650  1.00  0.00     0.135 A 
ATOM     14  C   UNL A   1      36.970  21.959  25.372  1.00  0.00     0.042 A 
ATOM     15  C   UNL A   1      35.014  20.623  24.803  1.00  0.00     0.026 A 
ATOM     16  Cl  UNL A   1      38.600  22.035  25.916  1.00  0.00    -0.084 Cl
ATOM     17  C   UNL A   1      36.373  20.717  25.152  1.00  0.00     0.033 A 
BRANCH   9  18
ATOM     18  C   UNL A   1      31.935  23.533  23.092  1.00  0.00     0.429 C 
ATOM     19  F   UNL A   1      30.625  23.714  22.802  1.00  0.00    -0.167 F 
ATOM     20  F   UNL A   1      32.520  24.756  23.033  1.00  0.00    -0.167 F 
ATOM     21  F   UNL A   1      32.464  22.802  22.079  1.00  0.00    -0.167 F 
ENDBRANCH   9  18
BRANCH  15  22
ATOM     22  C   UNL A   1      34.366  19.304  24.850  1.00  0.00    -0.015 A 
ATOM     23  C   UNL A   1      33.158  19.161  25.552  1.00  0.00     0.009 A 
ATOM     24  C   UNL A   1      34.949  18.167  24.286  1.00  0.00     0.009 A 
ATOM     25  C   UNL A   1      32.580  17.907  25.745  1.00  0.00     0.007 A 
ATOM     26  C   UNL A   1      34.369  16.906  24.474  1.00  0.00     0.007 A 
ATOM     27  C   UNL A   1      33.193  16.764  25.225  1.00  0.00    -0.023 A 
BRANCH  27  28
ATOM     28  C   UNL A   1      32.615  15.411  25.534  1.00  0.00     0.191 C 
BRANCH  28  29
ATOM     29  O   UNL A   1      33.622  14.425  25.355  1.00  0.00    -0.392 OA
ATOM     30  H   UNL A   1      34.397  14.826  24.930  1.00  0.00     0.211 HD
ENDBRANCH  28  29
ENDBRANCH  27  28
ENDBRANCH  15  22
ENDBRANCH   5   7
ENDBRANCH   2   3
ENDBRANCH   1   2
BRANCH   1  31
ATOM     31  C   UNL A   1      31.924  28.177  26.973  1.00  0.00     0.023 C 
BRANCH  31  32
ATOM     32  C   UNL A   1      33.314  28.671  27.371  1.00  0.00     0.116 C 
BRANCH  32  33
ATOM     33  N   UNL A   1      33.393  30.082  27.729  1.00  0.00    -0.352 N 
ATOM     34  C   UNL A   1      34.496  30.762  28.195  1.00  0.00     0.251 C 
ATOM     35  H   UNL A   1      32.566  30.606  27.627  1.00  0.00     0.163 HD
ATOM     36  O   UNL A   1      34.416  31.950  28.504  1.00  0.00    -0.269 OA
BRANCH  34  37
ATOM     37  C   UNL A   1      35.776  30.035  28.382  1.00  0.00     0.039 A 
ATOM     38  C   UNL A   1      36.687  29.982  27.322  1.00  0.00     0.014 A 
ATOM     39  C   UNL A   1      36.116  29.493  29.625  1.00  0.00     0.014 A 
ATOM     40  C   UNL A   1      37.976  29.489  27.544  1.00  0.00     0.010 A 
ATOM     41  C   UNL A   1      37.420  29.052  29.857  1.00  0.00     0.010 A 
ATOM     42  C   UNL A   1      38.375  29.079  28.829  1.00  0.00    -0.014 A 
BRANCH  42  43
ATOM     43  C   UNL A   1      39.805  28.784  29.122  1.00  0.00     0.031 A 
ATOM     44  C   UNL A   1      40.708  29.816  29.740  1.00  0.00     0.074 A 
ATOM     45  C   UNL A   1      40.313  27.584  28.768  1.00  0.00     0.049 A 
ATOM     46  N   UNL A   1      41.970  29.707  30.074  1.00  0.00    -0.248 NA
ATOM     47  C   UNL A   1      40.129  31.142  30.004  1.00  0.00     0.031 C 
ATOM     48  C   UNL A   1      39.566  26.512  28.101  1.00  0.00     0.029 A 
ATOM     49  N   UNL A   1      41.575  27.061  28.914  1.00  0.00    -0.354 N 
ATOM     50  C   UNL A   1      42.337  30.945  30.587  1.00  0.00     0.074 A 
ATOM     51  C   UNL A   1      41.177  31.804  30.477  1.00  0.00     0.031 C 
ATOM     52  C   UNL A   1      40.374  25.455  27.924  1.00  0.00     0.029 A 
ATOM     53  C   UNL A   1      41.702  25.777  28.435  1.00  0.00     0.049 A 
ATOM     54  H   UNL A   1      42.319  27.558  29.323  1.00  0.00     0.167 HD
ATOM     55  C   UNL A   1      43.525  31.329  31.117  1.00  0.00     0.031 A 
ATOM     56  C   UNL A   1      42.764  24.947  28.408  1.00  0.00     0.031 A 
ATOM     57  C   UNL A   1      44.684  30.482  31.219  1.00  0.00     0.049 A 
ATOM     58  C   UNL A   1      44.071  25.398  28.997  1.00  0.00     0.074 A 
ATOM     59  C   UNL A   1      45.912  30.770  31.793  1.00  0.00     0.029 A 
ATOM     60  N   UNL A   1      44.769  29.188  30.730  1.00  0.00    -0.354 N 
ATOM     61  N   UNL A   1      44.367  26.544  29.561  1.00  0.00    -0.248 NA
ATOM     62  C   UNL A   1      45.184  24.438  28.958  1.00  0.00     0.031 C 
ATOM     63  C   UNL A   1      46.753  29.667  31.609  1.00  0.00     0.029 A 
ATOM     64  C   UNL A   1      46.034  28.673  30.967  1.00  0.00     0.049 A 
ATOM     65  H   UNL A   1      44.038  28.706  30.280  1.00  0.00     0.167 HD
ATOM     66  C   UNL A   1      45.693  26.434  29.968  1.00  0.00     0.074 A 
ATOM     67  C   UNL A   1      46.136  25.105  29.598  1.00  0.00     0.031 C 
ATOM     68  C   UNL A   1      46.469  27.351  30.593  1.00  0.00     0.031 A 
BRANCH  55  69
ATOM     69  C   UNL A   1      43.630  32.739  31.637  1.00  0.00    -0.014 A 
ATOM     70  C   UNL A   1      43.981  33.798  30.779  1.00  0.00     0.010 A 
ATOM     71  C   UNL A   1      43.320  33.020  32.979  1.00  0.00     0.010 A 
ATOM     72  C   UNL A   1      44.056  35.106  31.263  1.00  0.00     0.020 A 
ATOM     73  C   UNL A   1      43.370  34.331  33.462  1.00  0.00     0.020 A 
ATOM     74  C   UNL A   1      43.753  35.365  32.603  1.00  0.00     0.054 A 
BRANCH  74  75
ATOM     75  S   UNL A   1      43.833  37.077  33.198  1.00  0.00     0.124 S 
ATOM     76  O   UNL A   1      45.105  37.087  33.915  1.00  0.00    -0.237 OA
ATOM     77  O   UNL A   1      43.806  37.850  31.959  1.00  0.00    -0.237 OA
ATOM     78  O   UNL A   1      42.644  37.209  34.036  1.00  0.00    -0.744 OA
ENDBRANCH  74  75
ENDBRANCH  55  69
BRANCH  56  79
ATOM     79  C   UNL A   1      42.630  23.587  27.817  1.00  0.00    -0.014 A 
ATOM     80  C   UNL A   1      42.975  23.355  26.474  1.00  0.00     0.010 A 
ATOM     81  C   UNL A   1      42.158  22.516  28.597  1.00  0.00     0.010 A 
ATOM     82  C   UNL A   1      42.830  22.082  25.915  1.00  0.00     0.020 A 
ATOM     83  C   UNL A   1      42.036  21.236  28.050  1.00  0.00     0.020 A 
ATOM     84  C   UNL A   1      42.361  21.029  26.707  1.00  0.00     0.054 A 
BRANCH  84  85
ATOM     85  S   UNL A   1      42.224  19.374  25.976  1.00  0.00     0.124 S 
ATOM     86  O   UNL A   1      42.766  18.530  27.035  1.00  0.00    -0.237 OA
ATOM     87  O   UNL A   1      40.788  19.250  25.738  1.00  0.00    -0.237 OA
ATOM     88  O   UNL A   1      43.042  19.468  24.768  1.00  0.00    -0.744 OA
ENDBRANCH  84  85
ENDBRANCH  56  79
BRANCH  68  89
ATOM     89  C   UNL A   1      47.876  26.946  30.943  1.00  0.00    -0.014 A 
ATOM     90  C   UNL A   1      48.155  26.211  32.108  1.00  0.00     0.010 A 
ATOM     91  C   UNL A   1      48.930  27.264  30.065  1.00  0.00     0.010 A 
ATOM     92  C   UNL A   1      49.466  25.829  32.406  1.00  0.00     0.020 A 
ATOM     93  C   UNL A   1      50.238  26.862  30.347  1.00  0.00     0.020 A 
ATOM     94  C   UNL A   1      50.499  26.158  31.524  1.00  0.00     0.054 A 
BRANCH  94  95
ATOM     95  S   UNL A   1      52.187  25.612  31.909  1.00  0.00     0.124 S 
ATOM     96  O   UNL A   1      52.540  26.483  33.026  1.00  0.00    -0.237 OA
ATOM     97  O   UNL A   1      52.000  24.202  32.246  1.00  0.00    -0.237 OA
ATOM     98  O   UNL A   1      52.921  25.857  30.670  1.00  0.00    -0.744 OA
ENDBRANCH  94  95
ENDBRANCH  68  89
ENDBRANCH  42  43
ENDBRANCH  34  37
ENDBRANCH  32  33
ENDBRANCH  31  32
ENDBRANCH   1  31
TORSDOF 18
ENDMDL
MODEL 2
REMARK VINA RESULT:     -12.6      0.545      7.892
REMARK SMILES O=C(NCCCCNC(=O)c1ccc(-c2c3nc(c(-c4ccc(S(=O)(=O)[O-])cc4)c4ccc([nH]4)c(-c4ccc(S(=O)(=O)[O-])cc4)c4nc(c(-c5ccc(S(=O)(=O)[O-])cc5)c5ccc2[nH]5)C=C4)C=C3)cc1)C1=Cc2cc(Cl)cc(-c3ccc(CO)cc3)c2O[C@@H]1C(F)(F)F
REMARK SMILES IDX 5 1 4 2 3 3 1 4 2 5 71 7 72 8 89 9 73 10 88 11 74 12 87 13
REMARK SMILES IDX 75 14 78 15 76 16 77 17 90 18 91 19 92 20 93 21 79 22 80 23
REMARK SMILES IDX 86 24 81 25 85 26 82 27 83 28 84 29 6 31 7 32 8 33 9 34
REMARK SMILES IDX 10 36 11 37 12 38 70 39 13 40 69 41 14 42 15 43 16 44 63 45
REMARK SMILES IDX 17 46 68 47 62 48 64 49 18 50 67 51 61 52 60 53 19 55 49 56
REMARK SMILES IDX 30 57 48 58 31 59 34 60 47 61 65 62 32 63 33 64 46 66 66 67
REMARK SMILES IDX 35 68 20 69 21 70 29 71 22 72 28 73 23 74 24 75 25 76 26 77
REMARK SMILES IDX 27 78 50 79 51 80 59 81 52 82 58 83 53 84 54 85 55 86 56 87
REMARK SMILES IDX 57 88 36 89 37 90 45 91 38 92 44 93 39 94 40 95 41 96 42 97
REMARK SMILES IDX 43 98
REMARK H PARENT 3 6 84 30 8 35 64 54 34 65
REMARK Flexibility Score: inf
ROOT
ATOM      1  C   UNL A   1      31.559  27.471  26.828  1.00  0.00     0.023 C 
ENDROOT
BRANCH   1   2
ATOM      2  C   UNL A   1      30.919  26.251  26.152  1.00  0.00     0.116 C 
BRANCH   2   3
ATOM      3  N   UNL A   1      31.056  25.010  26.927  1.00  0.00    -0.352 N 
ATOM      4  O   UNL A   1      32.049  23.145  27.714  1.00  0.00    -0.270 OA
ATOM      5  C   UNL A   1      31.848  23.898  26.768  1.00  0.00     0.251 C 
ATOM      6  H   UNL A   1      30.467  24.968  27.714  1.00  0.00     0.163 HD
BRANCH   5   7
ATOM      7  C   UNL A   1      32.571  23.705  25.494  1.00  0.00     0.067 C 
ATOM      8  C   UNL A   1      33.831  24.108  25.287  1.00  0.00     0.025 C 
ATOM      9  C   UNL A   1      31.984  22.737  24.518  1.00  0.00     0.314 C 
ATOM     10  C   UNL A   1      34.721  22.978  24.967  1.00  0.00     0.019 A 
ATOM     11  O   UNL A   1      32.804  21.553  24.424  1.00  0.00    -0.475 OA
ATOM     12  C   UNL A   1      36.078  23.071  25.304  1.00  0.00     0.032 A 
ATOM     13  C   UNL A   1      34.152  21.717  24.672  1.00  0.00     0.135 A 
ATOM     14  C   UNL A   1      36.847  21.913  25.386  1.00  0.00     0.042 A 
ATOM     15  C   UNL A   1      34.915  20.544  24.811  1.00  0.00     0.026 A 
ATOM     16  Cl  UNL A   1      38.477  22.016  25.925  1.00  0.00    -0.084 Cl
ATOM     17  C   UNL A   1      36.273  20.662  25.157  1.00  0.00     0.033 A 
BRANCH   9  18
ATOM     18  C   UNL A   1      31.774  23.409  23.138  1.00  0.00     0.429 C 
ATOM     19  F   UNL A   1      30.476  23.371  22.756  1.00  0.00    -0.167 F 
ATOM     20  F   UNL A   1      32.137  24.716  23.152  1.00  0.00    -0.167 F 
ATOM     21  F   UNL A   1      32.492  22.820  22.148  1.00  0.00    -0.167 F 
ENDBRANCH   9  18
BRANCH  15  22
ATOM     22  C   UNL A   1      34.293  19.213  24.850  1.00  0.00    -0.015 A 
ATOM     23  C   UNL A   1      33.079  19.044  25.536  1.00  0.00     0.009 A 
ATOM     24  C   UNL A   1      34.905  18.088  24.292  1.00  0.00     0.009 A 
ATOM     25  C   UNL A   1      32.524  17.780  25.720  1.00  0.00     0.007 A 
ATOM     26  C   UNL A   1      34.347  16.815  24.472  1.00  0.00     0.007 A 
ATOM     27  C   UNL A   1      33.166  16.650  25.208  1.00  0.00    -0.023 A 
BRANCH  27  28
ATOM     28  C   UNL A   1      32.611  15.285  25.508  1.00  0.00     0.191 C 
BRANCH  28  29
ATOM     29  O   UNL A   1      33.661  14.330  25.433  1.00  0.00    -0.392 OA
ATOM     30  H   UNL A   1      34.262  14.566  24.709  1.00  0.00     0.211 HD
ENDBRANCH  28  29
ENDBRANCH  27  28
ENDBRANCH  15  22
ENDBRANCH   5   7
ENDBRANCH   2   3
ENDBRANCH   1   2
BRANCH   1  31
ATOM     31  C   UNL A   1      32.223  28.466  25.861  1.00  0.00     0.023 C 
BRANCH  31  32
ATOM     32  C   UNL A   1      33.538  29.104  26.303  1.00  0.00     0.116 C 
BRANCH  32  33
ATOM     33  N   UNL A   1      33.404  30.307  27.115  1.00  0.00    -0.352 N 
ATOM     34  C   UNL A   1      34.327  30.826  27.994  1.00  0.00     0.251 C 
ATOM     35  H   UNL A   1      32.557  30.803  27.025  1.00  0.00     0.163 HD
ATOM     36  O   UNL A   1      34.068  31.832  28.655  1.00  0.00    -0.269 OA
BRANCH  34  37
ATOM     37  C   UNL A   1      35.623  30.129  28.187  1.00  0.00     0.039 A 
ATOM     38  C   UNL A   1      36.545  30.107  27.136  1.00  0.00     0.014 A 
ATOM     39  C   UNL A   1      35.964  29.584  29.428  1.00  0.00     0.014 A 
ATOM     40  C   UNL A   1      37.843  29.644  27.366  1.00  0.00     0.010 A 
ATOM     41  C   UNL A   1      37.277  29.174  29.670  1.00  0.00     0.010 A 
ATOM     42  C   UNL A   1      38.240  29.233  28.651  1.00  0.00    -0.014 A 
BRANCH  42  43
ATOM     43  C   UNL A   1      39.674  28.970  28.956  1.00  0.00     0.031 A 
ATOM     44  C   UNL A   1      40.310  27.642  28.650  1.00  0.00     0.074 A 
ATOM     45  C   UNL A   1      40.399  29.927  29.575  1.00  0.00     0.049 A 
ATOM     46  N   UNL A   1      41.551  27.264  28.837  1.00  0.00    -0.248 NA
ATOM     47  C   UNL A   1      39.445  26.601  28.076  1.00  0.00     0.031 C 
ATOM     48  C   UNL A   1      39.891  31.239  29.989  1.00  0.00     0.029 A 
ATOM     49  N   UNL A   1      41.715  29.947  29.968  1.00  0.00    -0.354 N 
ATOM     50  C   UNL A   1      41.616  25.945  28.405  1.00  0.00     0.074 A 
ATOM     51  C   UNL A   1      40.280  25.574  27.990  1.00  0.00     0.031 C 
ATOM     52  C   UNL A   1      40.889  31.942  30.548  1.00  0.00     0.029 A 
ATOM     53  C   UNL A   1      42.099  31.127  30.563  1.00  0.00     0.049 A 
ATOM     54  H   UNL A   1      42.327  29.187  29.838  1.00  0.00     0.167 HD
ATOM     55  C   UNL A   1      42.692  25.122  28.343  1.00  0.00     0.031 A 
ATOM     56  C   UNL A   1      43.288  31.517  31.064  1.00  0.00     0.031 A 
ATOM     57  C   UNL A   1      44.021  25.484  28.764  1.00  0.00     0.049 A 
ATOM     58  C   UNL A   1      44.464  30.585  30.988  1.00  0.00     0.074 A 
ATOM     59  C   UNL A   1      45.183  24.733  28.685  1.00  0.00     0.029 A 
ATOM     60  N   UNL A   1      44.368  26.690  29.352  1.00  0.00    -0.354 N 
ATOM     61  N   UNL A   1      44.522  29.373  30.488  1.00  0.00    -0.248 NA
ATOM     62  C   UNL A   1      45.739  31.077  31.530  1.00  0.00     0.031 C 
ATOM     63  C   UNL A   1      46.221  25.467  29.268  1.00  0.00     0.029 A 
ATOM     64  C   UNL A   1      45.718  26.695  29.662  1.00  0.00     0.049 A 
ATOM     65  H   UNL A   1      43.746  27.433  29.524  1.00  0.00     0.167 HD
ATOM     66  C   UNL A   1      45.846  28.968  30.633  1.00  0.00     0.074 A 
ATOM     67  C   UNL A   1      46.556  30.069  31.253  1.00  0.00     0.031 C 
ATOM     68  C   UNL A   1      46.418  27.792  30.282  1.00  0.00     0.031 A 
BRANCH  55  69
ATOM     69  C   UNL A   1      42.477  23.737  27.790  1.00  0.00    -0.014 A 
ATOM     70  C   UNL A   1      42.556  23.494  26.406  1.00  0.00     0.010 A 
ATOM     71  C   UNL A   1      42.251  22.657  28.663  1.00  0.00     0.010 A 
ATOM     72  C   UNL A   1      42.378  22.204  25.903  1.00  0.00     0.020 A 
ATOM     73  C   UNL A   1      42.096  21.360  28.164  1.00  0.00     0.020 A 
ATOM     74  C   UNL A   1      42.144  21.145  26.785  1.00  0.00     0.054 A 
BRANCH  74  75
ATOM     75  S   UNL A   1      41.942  19.475  26.105  1.00  0.00     0.124 S 
ATOM     76  O   UNL A   1      42.371  18.640  27.224  1.00  0.00    -0.237 OA
ATOM     77  O   UNL A   1      40.516  19.424  25.795  1.00  0.00    -0.237 OA
ATOM     78  O   UNL A   1      42.828  19.463  24.944  1.00  0.00    -0.744 OA
ENDBRANCH  74  75
ENDBRANCH  55  69
BRANCH  56  79
ATOM     79  C   UNL A   1      43.433  32.870  31.667  1.00  0.00    -0.014 A 
ATOM     80  C   UNL A   1      43.185  33.072  33.036  1.00  0.00     0.010 A 
ATOM     81  C   UNL A   1      43.824  33.964  30.873  1.00  0.00     0.010 A 
ATOM     82  C   UNL A   1      43.303  34.348  33.597  1.00  0.00     0.020 A 
ATOM     83  C   UNL A   1      43.968  35.235  31.435  1.00  0.00     0.020 A 
ATOM     84  C   UNL A   1      43.694  35.422  32.792  1.00  0.00     0.054 A 
BRANCH  84  85
ATOM     85  S   UNL A   1      43.888  37.060  33.548  1.00  0.00     0.124 S 
ATOM     86  O   UNL A   1      42.733  37.121  34.438  1.00  0.00    -0.237 OA
ATOM     87  O   UNL A   1      45.189  36.956  34.203  1.00  0.00    -0.237 OA
ATOM     88  O   UNL A   1      43.847  37.969  32.404  1.00  0.00    -0.744 OA
ENDBRANCH  84  85
ENDBRANCH  56  79
BRANCH  68  89
ATOM     89  C   UNL A   1      47.894  27.636  30.534  1.00  0.00    -0.014 A 
ATOM     90  C   UNL A   1      48.843  28.038  29.579  1.00  0.00     0.010 A 
ATOM     91  C   UNL A   1      48.337  27.123  31.768  1.00  0.00     0.010 A 
ATOM     92  C   UNL A   1      50.210  27.902  29.840  1.00  0.00     0.020 A 
ATOM     93  C   UNL A   1      49.703  27.008  32.041  1.00  0.00     0.020 A 
ATOM     94  C   UNL A   1      50.631  27.387  31.069  1.00  0.00     0.054 A 
BRANCH  94  95
ATOM     95  S   UNL A   1      52.410  27.261  31.403  1.00  0.00     0.124 S 
ATOM     96  O   UNL A   1      52.459  26.183  32.386  1.00  0.00    -0.237 OA
ATOM     97  O   UNL A   1      52.962  26.937  30.088  1.00  0.00    -0.237 OA
ATOM     98  O   UNL A   1      52.762  28.585  31.909  1.00  0.00    -0.744 OA
ENDBRANCH  94  95
ENDBRANCH  68  89
ENDBRANCH  42  43
ENDBRANCH  34  37
ENDBRANCH  32  33
ENDBRANCH  31  32
ENDBRANCH   1  31
TORSDOF 18
ENDMDL
MODEL 3
REMARK VINA RESULT:     -12.3      1.979      2.486
REMARK SMILES O=C(NCCCCNC(=O)c1ccc(-c2c3nc(c(-c4ccc(S(=O)(=O)[O-])cc4)c4ccc([nH]4)c(-c4ccc(S(=O)(=O)[O-])cc4)c4nc(c(-c5ccc(S(=O)(=O)[O-])cc5)c5ccc2[nH]5)C=C4)C=C3)cc1)C1=Cc2cc(Cl)cc(-c3ccc(CO)cc3)c2O[C@@H]1C(F)(F)F
REMARK SMILES IDX 5 1 4 2 3 3 1 4 2 5 71 7 72 8 89 9 73 10 88 11 74 12 87 13
REMARK SMILES IDX 75 14 78 15 76 16 77 17 90 18 91 19 92 20 93 21 79 22 80 23
REMARK SMILES IDX 86 24 81 25 85 26 82 27 83 28 84 29 6 31 7 32 8 33 9 34
REMARK SMILES IDX 10 36 11 37 12 38 70 39 13 40 69 41 14 42 15 43 16 44 63 45
REMARK SMILES IDX 17 46 68 47 62 48 64 49 18 50 67 51 61 52 60 53 19 55 49 56
REMARK SMILES IDX 30 57 48 58 31 59 34 60 47 61 65 62 32 63 33 64 46 66 66 67
REMARK SMILES IDX 35 68 20 69 21 70 29 71 22 72 28 73 23 74 24 75 25 76 26 77
REMARK SMILES IDX 27 78 50 79 51 80 59 81 52 82 58 83 53 84 54 85 55 86 56 87
REMARK SMILES IDX 57 88 36 89 37 90 45 91 38 92 44 93 39 94 40 95 41 96 42 97
REMARK SMILES IDX 43 98
REMARK H PARENT 3 6 84 30 8 35 64 54 34 65
REMARK Flexibility Score: inf
ROOT
ATOM      1  C   UNL A   1      31.392  27.559  26.848  1.00  0.00     0.023 C 
ENDROOT
BRANCH   1   2
ATOM      2  C   UNL A   1      31.173  26.263  26.055  1.00  0.00     0.116 C 
BRANCH   2   3
ATOM      3  N   UNL A   1      31.319  25.047  26.866  1.00  0.00    -0.352 N 
ATOM      4  O   UNL A   1      32.315  23.197  27.686  1.00  0.00    -0.270 OA
ATOM      5  C   UNL A   1      32.096  23.922  26.722  1.00  0.00     0.251 C 
ATOM      6  H   UNL A   1      30.750  25.035  27.669  1.00  0.00     0.163 HD
BRANCH   5   7
ATOM      7  C   UNL A   1      32.782  23.680  25.436  1.00  0.00     0.067 C 
ATOM      8  C   UNL A   1      34.052  24.034  25.194  1.00  0.00     0.025 C 
ATOM      9  C   UNL A   1      32.139  22.718  24.490  1.00  0.00     0.314 C 
ATOM     10  C   UNL A   1      34.893  22.867  24.875  1.00  0.00     0.019 A 
ATOM     11  O   UNL A   1      32.914  21.504  24.399  1.00  0.00    -0.475 OA
ATOM     12  C   UNL A   1      36.259  22.916  25.181  1.00  0.00     0.032 A 
ATOM     13  C   UNL A   1      34.272  21.622  24.615  1.00  0.00     0.135 A 
ATOM     14  C   UNL A   1      36.987  21.731  25.267  1.00  0.00     0.042 A 
ATOM     15  C   UNL A   1      34.994  20.424  24.759  1.00  0.00     0.026 A 
ATOM     16  Cl  UNL A   1      38.632  21.783  25.768  1.00  0.00    -0.084 Cl
ATOM     17  C   UNL A   1      36.363  20.498  25.072  1.00  0.00     0.033 A 
BRANCH   9  18
ATOM     18  C   UNL A   1      31.923  23.374  23.103  1.00  0.00     0.429 C 
ATOM     19  F   UNL A   1      32.290  24.678  23.104  1.00  0.00    -0.167 F 
ATOM     20  F   UNL A   1      32.656  22.765  22.137  1.00  0.00    -0.167 F 
ATOM     21  F   UNL A   1      30.631  23.330  22.692  1.00  0.00    -0.167 F 
ENDBRANCH   9  18
BRANCH  15  22
ATOM     22  C   UNL A   1      34.325  19.118  24.834  1.00  0.00    -0.015 A 
ATOM     23  C   UNL A   1      33.118  19.008  25.543  1.00  0.00     0.009 A 
ATOM     24  C   UNL A   1      34.888  17.961  24.290  1.00  0.00     0.009 A 
ATOM     25  C   UNL A   1      32.520  17.768  25.761  1.00  0.00     0.007 A 
ATOM     26  C   UNL A   1      34.287  16.713  24.505  1.00  0.00     0.007 A 
ATOM     27  C   UNL A   1      33.112  16.605  25.262  1.00  0.00    -0.023 A 
BRANCH  27  28
ATOM     28  C   UNL A   1      32.513  15.268  25.600  1.00  0.00     0.191 C 
BRANCH  28  29
ATOM     29  O   UNL A   1      33.489  14.257  25.390  1.00  0.00    -0.392 OA
ATOM     30  H   UNL A   1      33.142  13.595  24.771  1.00  0.00     0.211 HD
ENDBRANCH  28  29
ENDBRANCH  27  28
ENDBRANCH  15  22
ENDBRANCH   5   7
ENDBRANCH   2   3
ENDBRANCH   1   2
BRANCH   1  31
ATOM     31  C   UNL A   1      32.856  27.843  27.222  1.00  0.00     0.023 C 
BRANCH  31  32
ATOM     32  C   UNL A   1      33.636  28.805  26.327  1.00  0.00     0.116 C 
BRANCH  32  33
ATOM     33  N   UNL A   1      33.570  30.208  26.718  1.00  0.00    -0.352 N 
ATOM     34  C   UNL A   1      34.487  30.906  27.471  1.00  0.00     0.251 C 
ATOM     35  H   UNL A   1      32.783  30.712  26.409  1.00  0.00     0.163 HD
ATOM     36  O   UNL A   1      34.288  32.084  27.769  1.00  0.00    -0.269 OA
BRANCH  34  37
ATOM     37  C   UNL A   1      35.696  30.210  27.978  1.00  0.00     0.039 A 
ATOM     38  C   UNL A   1      36.864  30.232  27.210  1.00  0.00     0.014 A 
ATOM     39  C   UNL A   1      35.703  29.623  29.247  1.00  0.00     0.014 A 
ATOM     40  C   UNL A   1      38.062  29.769  27.762  1.00  0.00     0.010 A 
ATOM     41  C   UNL A   1      36.911  29.212  29.815  1.00  0.00     0.010 A 
ATOM     42  C   UNL A   1      38.109  29.314  29.092  1.00  0.00    -0.014 A 
BRANCH  42  43
ATOM     43  C   UNL A   1      39.415  29.049  29.758  1.00  0.00     0.031 A 
ATOM     44  C   UNL A   1      39.898  29.898  30.902  1.00  0.00     0.074 A 
ATOM     45  C   UNL A   1      40.206  28.063  29.281  1.00  0.00     0.049 A 
ATOM     46  N   UNL A   1      41.002  29.783  31.598  1.00  0.00    -0.248 NA
ATOM     47  C   UNL A   1      39.045  31.025  31.307  1.00  0.00     0.031 C 
ATOM     48  C   UNL A   1      39.890  27.204  28.135  1.00  0.00     0.029 A 
ATOM     49  N   UNL A   1      41.437  27.617  29.696  1.00  0.00    -0.354 N 
ATOM     50  C   UNL A   1      40.978  30.820  32.523  1.00  0.00     0.074 A 
ATOM     51  C   UNL A   1      39.772  31.580  32.268  1.00  0.00     0.031 C 
ATOM     52  C   UNL A   1      40.885  26.320  27.959  1.00  0.00     0.029 A 
ATOM     53  C   UNL A   1      41.923  26.563  28.956  1.00  0.00     0.049 A 
ATOM     54  H   UNL A   1      41.927  28.013  30.452  1.00  0.00     0.167 HD
ATOM     55  C   UNL A   1      41.867  31.105  33.506  1.00  0.00     0.031 A 
ATOM     56  C   UNL A   1      43.071  25.865  29.063  1.00  0.00     0.031 A 
ATOM     57  C   UNL A   1      43.072  30.357  33.758  1.00  0.00     0.049 A 
ATOM     58  C   UNL A   1      44.043  26.204  30.158  1.00  0.00     0.074 A 
ATOM     59  C   UNL A   1      44.002  30.540  34.768  1.00  0.00     0.029 A 
ATOM     60  N   UNL A   1      43.521  29.294  32.992  1.00  0.00    -0.354 N 
ATOM     61  N   UNL A   1      43.953  27.132  31.080  1.00  0.00    -0.248 NA
ATOM     62  C   UNL A   1      45.266  25.391  30.236  1.00  0.00     0.031 C 
ATOM     63  C   UNL A   1      45.037  29.618  34.584  1.00  0.00     0.029 A 
ATOM     64  C   UNL A   1      44.727  28.826  33.491  1.00  0.00     0.049 A 
ATOM     65  H   UNL A   1      43.054  28.925  32.208  1.00  0.00     0.167 HD
ATOM     66  C   UNL A   1      45.095  26.998  31.863  1.00  0.00     0.074 A 
ATOM     67  C   UNL A   1      45.852  25.891  31.316  1.00  0.00     0.031 C 
ATOM     68  C   UNL A   1      45.477  27.726  32.940  1.00  0.00     0.031 A 
BRANCH  55  69
ATOM     69  C   UNL A   1      41.565  32.283  34.396  1.00  0.00    -0.014 A 
ATOM     70  C   UNL A   1      42.057  33.564  34.086  1.00  0.00     0.010 A 
ATOM     71  C   UNL A   1      40.736  32.122  35.521  1.00  0.00     0.010 A 
ATOM     72  C   UNL A   1      41.756  34.655  34.903  1.00  0.00     0.020 A 
ATOM     73  C   UNL A   1      40.412  33.217  36.328  1.00  0.00     0.020 A 
ATOM     74  C   UNL A   1      40.938  34.474  36.023  1.00  0.00     0.054 A 
BRANCH  74  75
ATOM     75  S   UNL A   1      40.541  35.915  37.052  1.00  0.00     0.124 S 
ATOM     76  O   UNL A   1      39.748  36.730  36.136  1.00  0.00    -0.237 OA
ATOM     77  O   UNL A   1      39.802  35.323  38.164  1.00  0.00    -0.237 OA
ATOM     78  O   UNL A   1      41.849  36.463  37.400  1.00  0.00    -0.744 OA
ENDBRANCH  74  75
ENDBRANCH  55  69
BRANCH  56  79
ATOM     79  C   UNL A   1      43.358  24.755  28.113  1.00  0.00    -0.014 A 
ATOM     80  C   UNL A   1      42.794  23.483  28.309  1.00  0.00     0.010 A 
ATOM     81  C   UNL A   1      44.197  24.968  27.004  1.00  0.00     0.010 A 
ATOM     82  C   UNL A   1      43.080  22.437  27.428  1.00  0.00     0.020 A 
ATOM     83  C   UNL A   1      44.466  23.931  26.106  1.00  0.00     0.020 A 
ATOM     84  C   UNL A   1      43.915  22.668  26.330  1.00  0.00     0.054 A 
BRANCH  84  85
ATOM     85  S   UNL A   1      44.237  21.309  25.171  1.00  0.00     0.124 S 
ATOM     86  O   UNL A   1      43.187  20.359  25.519  1.00  0.00    -0.237 OA
ATOM     87  O   UNL A   1      44.096  21.962  23.871  1.00  0.00    -0.237 OA
ATOM     88  O   UNL A   1      45.598  20.894  25.505  1.00  0.00    -0.744 OA
ENDBRANCH  84  85
ENDBRANCH  56  79
BRANCH  68  89
ATOM     89  C   UNL A   1      46.763  27.338  33.619  1.00  0.00    -0.014 A 
ATOM     90  C   UNL A   1      46.784  26.377  34.645  1.00  0.00     0.010 A 
ATOM     91  C   UNL A   1      47.976  27.908  33.188  1.00  0.00     0.010 A 
ATOM     92  C   UNL A   1      47.992  26.016  35.250  1.00  0.00     0.020 A 
ATOM     93  C   UNL A   1      49.187  27.532  33.775  1.00  0.00     0.020 A 
ATOM     94  C   UNL A   1      49.185  26.597  34.812  1.00  0.00     0.054 A 
BRANCH  94  95
ATOM     95  S   UNL A   1      50.745  26.081  35.583  1.00  0.00     0.124 S 
ATOM     96  O   UNL A   1      51.108  27.264  36.356  1.00  0.00    -0.237 OA
ATOM     97  O   UNL A   1      50.346  24.914  36.368  1.00  0.00    -0.237 OA
ATOM     98  O   UNL A   1      51.613  25.789  34.444  1.00  0.00    -0.744 OA
ENDBRANCH  94  95
ENDBRANCH  68  89
ENDBRANCH  42  43
ENDBRANCH  34  37
ENDBRANCH  32  33
ENDBRANCH  31  32
ENDBRANCH   1  31
TORSDOF 18
ENDMDL
