MODEL 1
REMARK VINA RESULT:     -10.2      0.000      0.000
REMARK SMILES C[NH+](C)CCNC(=O)NC1(CC(=O)NCCCCNC(=O)c2ccc(-c3c4nc(c(-c5ccc(S(=O)(=O)[O-])cc5)c5ccc([nH]5)c(-c5ccc(S(=O)(=O)[O-])cc5)c5nc(c(-c6ccc(S(=O)(=O)[O-])cc6)c6ccc3[nH]6)C=C5)C=C4)cc2)CCC1
REMARK SMILES IDX 15 1 14 2 12 3 13 4 11 6 10 7 82 8 84 9 83 10 9 11 6 12 7 13
REMARK SMILES IDX 8 15 5 17 4 18 2 19 1 20 3 21 16 23 17 24 18 25 19 26 20 27
REMARK SMILES IDX 21 29 22 30 23 31 81 32 24 33 80 34 25 35 26 36 27 37 74 38
REMARK SMILES IDX 28 39 79 40 73 41 75 42 29 43 78 44 72 45 71 46 30 48 60 49
REMARK SMILES IDX 41 50 59 51 42 52 45 53 58 54 76 55 43 56 44 57 57 59 77 60
REMARK SMILES IDX 46 61 31 62 32 63 40 64 33 65 39 66 34 67 35 68 36 69 37 70
REMARK SMILES IDX 38 71 61 72 62 73 70 74 63 75 69 76 64 77 65 78 66 79 67 80
REMARK SMILES IDX 68 81 47 82 48 83 56 84 49 85 55 86 50 87 51 88 52 89 53 90
REMARK SMILES IDX 54 91
REMARK H PARENT 14 5 6 14 9 16 2 22 19 28 75 47 45 58
REMARK Flexibility Score: inf
ROOT
ATOM      1  C   UNL A   1      30.787  26.560  25.651  1.00  0.00     0.116 C 
ENDROOT
BRANCH   1   2
ATOM      2  N   UNL A   1      30.616  25.388  26.484  1.00  0.00    -0.356 N 
ATOM      3  C   UNL A   1      31.029  24.096  26.346  1.00  0.00     0.222 C 
ATOM      4  O   UNL A   1      31.061  23.411  27.372  1.00  0.00    -0.275 OA
ATOM      5  H   UNL A   1      30.104  25.555  27.307  1.00  0.00     0.163 HD
BRANCH   3   6
ATOM      6  C   UNL A   1      31.553  23.537  25.048  1.00  0.00     0.128 C 
BRANCH   6   7
ATOM      7  C   UNL A   1      33.052  23.250  24.852  1.00  0.00     0.051 C 
ATOM      8  C   UNL A   1      33.784  24.655  24.641  1.00  0.00     0.029 C 
ATOM      9  C   UNL A   1      33.622  22.925  23.438  1.00  0.00     0.029 C 
ATOM     10  C   UNL A   1      33.686  24.430  23.132  1.00  0.00     0.005 C 
BRANCH   7  11
ATOM     11  N   UNL A   1      33.750  22.576  25.983  1.00  0.00    -0.332 N 
ATOM     12  N   UNL A   1      33.094  20.317  26.036  1.00  0.00    -0.332 N 
ATOM     13  C   UNL A   1      33.608  21.400  26.626  1.00  0.00     0.315 C 
ATOM     14  H   UNL A   1      32.324  19.899  26.485  1.00  0.00     0.165 HD
ATOM     15  O   UNL A   1      33.963  21.351  27.805  1.00  0.00    -0.249 OA
ATOM     16  H   UNL A   1      34.489  23.118  26.345  1.00  0.00     0.165 HD
BRANCH  12  17
ATOM     17  C   UNL A   1      33.541  19.690  24.808  1.00  0.00     0.179 C 
BRANCH  17  18
ATOM     18  C   UNL A   1      32.453  18.785  24.174  1.00  0.00     0.283 C 
BRANCH  18  19
ATOM     19  N   UNL A   1      32.805  17.363  24.027  1.00  0.00    -0.338 N 
ATOM     20  C   UNL A   1      32.468  16.607  25.233  1.00  0.00     0.332 C 
ATOM     21  C   UNL A   1      34.236  17.205  23.738  1.00  0.00     0.332 C 
ATOM     22  H   UNL A   1      32.262  16.995  23.246  1.00  0.00     0.347 HD
ENDBRANCH  18  19
ENDBRANCH  17  18
ENDBRANCH  12  17
ENDBRANCH   7  11
ENDBRANCH   6   7
ENDBRANCH   3   6
ENDBRANCH   1   2
BRANCH   1  23
ATOM     23  C   UNL A   1      31.528  27.754  26.276  1.00  0.00     0.023 C 
BRANCH  23  24
ATOM     24  C   UNL A   1      32.982  27.661  26.735  1.00  0.00     0.023 C 
BRANCH  24  25
ATOM     25  C   UNL A   1      34.009  28.512  26.013  1.00  0.00     0.116 C 
BRANCH  25  26
ATOM     26  N   UNL A   1      33.801  29.917  26.311  1.00  0.00    -0.352 N 
ATOM     27  C   UNL A   1      34.369  30.664  27.316  1.00  0.00     0.251 C 
ATOM     28  H   UNL A   1      33.176  30.395  25.720  1.00  0.00     0.163 HD
ATOM     29  O   UNL A   1      33.829  31.714  27.665  1.00  0.00    -0.269 OA
BRANCH  27  30
ATOM     30  C   UNL A   1      35.622  30.222  27.974  1.00  0.00     0.039 A 
ATOM     31  C   UNL A   1      35.580  29.763  29.294  1.00  0.00     0.014 A 
ATOM     32  C   UNL A   1      36.853  30.325  27.316  1.00  0.00     0.014 A 
ATOM     33  C   UNL A   1      36.761  29.385  29.944  1.00  0.00     0.010 A 
ATOM     34  C   UNL A   1      38.022  29.896  27.944  1.00  0.00     0.010 A 
ATOM     35  C   UNL A   1      37.991  29.438  29.270  1.00  0.00    -0.014 A 
BRANCH  35  36
ATOM     36  C   UNL A   1      39.261  29.063  29.944  1.00  0.00     0.031 A 
ATOM     37  C   UNL A   1      39.723  29.827  31.158  1.00  0.00     0.074 A 
ATOM     38  C   UNL A   1      40.027  28.076  29.441  1.00  0.00     0.049 A 
ATOM     39  N   UNL A   1      40.829  29.694  31.846  1.00  0.00    -0.248 NA
ATOM     40  C   UNL A   1      38.834  30.891  31.651  1.00  0.00     0.031 C 
ATOM     41  C   UNL A   1      39.703  27.271  28.262  1.00  0.00     0.029 A 
ATOM     42  N   UNL A   1      41.242  27.588  29.854  1.00  0.00    -0.354 N 
ATOM     43  C   UNL A   1      40.775  30.663  32.842  1.00  0.00     0.074 A 
ATOM     44  C   UNL A   1      39.548  31.404  32.643  1.00  0.00     0.031 C 
ATOM     45  C   UNL A   1      40.686  26.380  28.056  1.00  0.00     0.029 A 
ATOM     46  C   UNL A   1      41.727  26.574  29.061  1.00  0.00     0.049 A 
ATOM     47  H   UNL A   1      41.721  27.932  30.641  1.00  0.00     0.167 HD
ATOM     48  C   UNL A   1      41.656  30.905  33.842  1.00  0.00     0.031 A 
ATOM     49  C   UNL A   1      42.883  25.885  29.129  1.00  0.00     0.031 A 
ATOM     50  C   UNL A   1      42.874  30.164  34.044  1.00  0.00     0.049 A 
ATOM     51  C   UNL A   1      43.868  26.199  30.222  1.00  0.00     0.074 A 
ATOM     52  C   UNL A   1      43.802  30.296  35.061  1.00  0.00     0.029 A 
ATOM     53  N   UNL A   1      43.335  29.159  33.208  1.00  0.00    -0.354 N 
ATOM     54  N   UNL A   1      43.768  27.076  31.191  1.00  0.00    -0.248 NA
ATOM     55  C   UNL A   1      45.121  25.430  30.230  1.00  0.00     0.031 C 
ATOM     56  C   UNL A   1      44.852  29.407  34.812  1.00  0.00     0.029 A 
ATOM     57  C   UNL A   1      44.553  28.686  33.666  1.00  0.00     0.049 A 
ATOM     58  H   UNL A   1      42.866  28.831  32.407  1.00  0.00     0.167 HD
ATOM     59  C   UNL A   1      44.938  26.956  31.932  1.00  0.00     0.074 A 
ATOM     60  C   UNL A   1      45.723  25.910  31.310  1.00  0.00     0.031 C 
ATOM     61  C   UNL A   1      45.329  27.653  33.028  1.00  0.00     0.031 A 
BRANCH  48  62
ATOM     62  C   UNL A   1      41.336  32.031  34.790  1.00  0.00    -0.014 A 
ATOM     63  C   UNL A   1      40.597  31.801  35.965  1.00  0.00     0.010 A 
ATOM     64  C   UNL A   1      41.805  33.330  34.520  1.00  0.00     0.010 A 
ATOM     65  C   UNL A   1      40.288  32.859  36.824  1.00  0.00     0.020 A 
ATOM     66  C   UNL A   1      41.520  34.385  35.391  1.00  0.00     0.020 A 
ATOM     67  C   UNL A   1      40.745  34.146  36.528  1.00  0.00     0.054 A 
BRANCH  67  68
ATOM     68  S   UNL A   1      40.331  35.500  37.662  1.00  0.00     0.124 S 
ATOM     69  O   UNL A   1      41.564  35.629  38.436  1.00  0.00    -0.237 OA
ATOM     70  O   UNL A   1      40.046  36.607  36.750  1.00  0.00    -0.237 OA
ATOM     71  O   UNL A   1      39.180  34.996  38.402  1.00  0.00    -0.744 OA
ENDBRANCH  67  68
ENDBRANCH  48  62
BRANCH  49  72
ATOM     72  C   UNL A   1      43.171  24.825  28.125  1.00  0.00    -0.014 A 
ATOM     73  C   UNL A   1      43.829  25.144  26.925  1.00  0.00     0.010 A 
ATOM     74  C   UNL A   1      42.811  23.488  28.376  1.00  0.00     0.010 A 
ATOM     75  C   UNL A   1      44.118  24.146  25.989  1.00  0.00     0.020 A 
ATOM     76  C   UNL A   1      43.120  22.484  27.454  1.00  0.00     0.020 A 
ATOM     77  C   UNL A   1      43.766  22.820  26.262  1.00  0.00     0.054 A 
BRANCH  77  78
ATOM     78  S   UNL A   1      44.216  21.531  25.068  1.00  0.00     0.124 S 
ATOM     79  O   UNL A   1      44.090  22.237  23.798  1.00  0.00    -0.237 OA
ATOM     80  O   UNL A   1      45.578  21.189  25.470  1.00  0.00    -0.237 OA
ATOM     81  O   UNL A   1      43.225  20.485  25.307  1.00  0.00    -0.744 OA
ENDBRANCH  77  78
ENDBRANCH  49  72
BRANCH  61  82
ATOM     82  C   UNL A   1      46.664  27.309  33.631  1.00  0.00    -0.014 A 
ATOM     83  C   UNL A   1      46.784  26.269  34.570  1.00  0.00     0.010 A 
ATOM     84  C   UNL A   1      47.821  27.981  33.198  1.00  0.00     0.010 A 
ATOM     85  C   UNL A   1      48.037  25.918  35.078  1.00  0.00     0.020 A 
ATOM     86  C   UNL A   1      49.079  27.617  33.686  1.00  0.00     0.020 A 
ATOM     87  C   UNL A   1      49.177  26.593  34.630  1.00  0.00     0.054 A 
BRANCH  87  88
ATOM     88  S   UNL A   1      50.799  26.073  35.254  1.00  0.00     0.124 S 
ATOM     89  O   UNL A   1      51.490  25.688  34.026  1.00  0.00    -0.237 OA
ATOM     90  O   UNL A   1      51.297  27.283  35.904  1.00  0.00    -0.237 OA
ATOM     91  O   UNL A   1      50.484  24.971  36.163  1.00  0.00    -0.744 OA
ENDBRANCH  87  88
ENDBRANCH  61  82
ENDBRANCH  35  36
ENDBRANCH  27  30
ENDBRANCH  25  26
ENDBRANCH  24  25
ENDBRANCH  23  24
ENDBRANCH   1  23
TORSDOF 19
ENDMDL
MODEL 2
REMARK VINA RESULT:     -10.1      5.242      8.360
REMARK SMILES C[NH+](C)CCNC(=O)NC1(CC(=O)NCCCCNC(=O)c2ccc(-c3c4nc(c(-c5ccc(S(=O)(=O)[O-])cc5)c5ccc([nH]5)c(-c5ccc(S(=O)(=O)[O-])cc5)c5nc(c(-c6ccc(S(=O)(=O)[O-])cc6)c6ccc3[nH]6)C=C5)C=C4)cc2)CCC1
REMARK SMILES IDX 15 1 14 2 12 3 13 4 11 6 10 7 82 8 84 9 83 10 9 11 6 12 7 13
REMARK SMILES IDX 8 15 5 17 4 18 2 19 1 20 3 21 16 23 17 24 18 25 19 26 20 27
REMARK SMILES IDX 21 29 22 30 23 31 81 32 24 33 80 34 25 35 26 36 27 37 74 38
REMARK SMILES IDX 28 39 79 40 73 41 75 42 29 43 78 44 72 45 71 46 30 48 60 49
REMARK SMILES IDX 41 50 59 51 42 52 45 53 58 54 76 55 43 56 44 57 57 59 77 60
REMARK SMILES IDX 46 61 31 62 32 63 40 64 33 65 39 66 34 67 35 68 36 69 37 70
REMARK SMILES IDX 38 71 61 72 62 73 70 74 63 75 69 76 64 77 65 78 66 79 67 80
REMARK SMILES IDX 68 81 47 82 48 83 56 84 49 85 55 86 50 87 51 88 52 89 53 90
REMARK SMILES IDX 54 91
REMARK H PARENT 14 5 6 14 9 16 2 22 19 28 75 47 45 58
REMARK Flexibility Score: inf
ROOT
ATOM      1  C   UNL A   1      36.944  22.441  25.342  1.00  0.00     0.116 C 
ENDROOT
BRANCH   1   2
ATOM      2  N   UNL A   1      36.040  22.392  26.471  1.00  0.00    -0.356 N 
ATOM      3  C   UNL A   1      34.810  22.940  26.687  1.00  0.00     0.222 C 
ATOM      4  O   UNL A   1      34.124  22.431  27.579  1.00  0.00    -0.275 OA
ATOM      5  H   UNL A   1      36.376  21.861  27.228  1.00  0.00     0.163 HD
BRANCH   3   6
ATOM      6  C   UNL A   1      34.232  24.025  25.816  1.00  0.00     0.128 C 
BRANCH   6   7
ATOM      7  C   UNL A   1      33.047  23.744  24.874  1.00  0.00     0.051 C 
ATOM      8  C   UNL A   1      33.311  22.326  24.184  1.00  0.00     0.029 C 
ATOM      9  C   UNL A   1      33.051  24.275  23.409  1.00  0.00     0.029 C 
ATOM     10  C   UNL A   1      33.905  23.069  22.987  1.00  0.00     0.005 C 
BRANCH   7  11
ATOM     11  N   UNL A   1      31.702  23.659  25.511  1.00  0.00    -0.332 N 
ATOM     12  N   UNL A   1      31.340  25.614  26.769  1.00  0.00    -0.332 N 
ATOM     13  C   UNL A   1      31.065  24.337  26.486  1.00  0.00     0.315 C 
ATOM     14  H   UNL A   1      31.582  25.812  27.703  1.00  0.00     0.165 HD
ATOM     15  O   UNL A   1      30.208  23.732  27.133  1.00  0.00    -0.249 OA
ATOM     16  H   UNL A   1      31.150  22.938  25.129  1.00  0.00     0.165 HD
BRANCH  12  17
ATOM     17  C   UNL A   1      31.323  26.739  25.857  1.00  0.00     0.179 C 
BRANCH  17  18
ATOM     18  C   UNL A   1      30.181  26.639  24.813  1.00  0.00     0.283 C 
BRANCH  18  19
ATOM     19  N   UNL A   1      30.180  27.667  23.758  1.00  0.00    -0.338 N 
ATOM     20  C   UNL A   1      30.882  27.201  22.563  1.00  0.00     0.332 C 
ATOM     21  C   UNL A   1      30.805  28.907  24.237  1.00  0.00     0.332 C 
ATOM     22  H   UNL A   1      29.207  27.854  23.517  1.00  0.00     0.347 HD
ENDBRANCH  18  19
ENDBRANCH  17  18
ENDBRANCH  12  17
ENDBRANCH   7  11
ENDBRANCH   6   7
ENDBRANCH   3   6
ENDBRANCH   1   2
BRANCH   1  23
ATOM     23  C   UNL A   1      37.178  21.126  24.580  1.00  0.00     0.023 C 
BRANCH  23  24
ATOM     24  C   UNL A   1      38.160  20.063  25.073  1.00  0.00     0.023 C 
BRANCH  24  25
ATOM     25  C   UNL A   1      39.261  20.501  26.020  1.00  0.00     0.116 C 
BRANCH  25  26
ATOM     26  N   UNL A   1      40.267  19.461  26.141  1.00  0.00    -0.352 N 
ATOM     27  C   UNL A   1      41.634  19.596  26.110  1.00  0.00     0.251 C 
ATOM     28  H   UNL A   1      39.927  18.545  26.261  1.00  0.00     0.163 HD
ATOM     29  O   UNL A   1      42.332  18.613  25.855  1.00  0.00    -0.269 OA
BRANCH  27  30
ATOM     30  C   UNL A   1      42.273  20.906  26.383  1.00  0.00     0.039 A 
ATOM     31  C   UNL A   1      42.592  21.254  27.699  1.00  0.00     0.014 A 
ATOM     32  C   UNL A   1      42.494  21.825  25.351  1.00  0.00     0.014 A 
ATOM     33  C   UNL A   1      43.155  22.505  27.978  1.00  0.00     0.010 A 
ATOM     34  C   UNL A   1      43.106  23.049  25.622  1.00  0.00     0.010 A 
ATOM     35  C   UNL A   1      43.425  23.410  26.939  1.00  0.00    -0.014 A 
BRANCH  35  36
ATOM     36  C   UNL A   1      44.001  24.752  27.211  1.00  0.00     0.031 A 
ATOM     37  C   UNL A   1      43.109  25.876  27.671  1.00  0.00     0.074 A 
ATOM     38  C   UNL A   1      45.311  24.982  26.997  1.00  0.00     0.049 A 
ATOM     39  N   UNL A   1      43.408  27.130  27.898  1.00  0.00    -0.248 NA
ATOM     40  C   UNL A   1      41.689  25.550  27.884  1.00  0.00     0.031 C 
ATOM     41  C   UNL A   1      46.280  23.986  26.537  1.00  0.00     0.029 A 
ATOM     42  N   UNL A   1      46.052  26.130  27.130  1.00  0.00    -0.354 N 
ATOM     43  C   UNL A   1      42.217  27.744  28.268  1.00  0.00     0.074 A 
ATOM     44  C   UNL A   1      41.182  26.736  28.192  1.00  0.00     0.031 C 
ATOM     45  C   UNL A   1      47.489  24.562  26.440  1.00  0.00     0.029 A 
ATOM     46  C   UNL A   1      47.376  25.974  26.794  1.00  0.00     0.049 A 
ATOM     47  H   UNL A   1      45.671  26.984  27.436  1.00  0.00     0.167 HD
ATOM     48  C   UNL A   1      42.004  29.025  28.651  1.00  0.00     0.031 A 
ATOM     49  C   UNL A   1      48.384  26.869  26.763  1.00  0.00     0.031 A 
ATOM     50  C   UNL A   1      43.034  30.028  28.731  1.00  0.00     0.049 A 
ATOM     51  C   UNL A   1      48.117  28.297  27.151  1.00  0.00     0.074 A 
ATOM     52  C   UNL A   1      42.928  31.337  29.164  1.00  0.00     0.029 A 
ATOM     53  N   UNL A   1      44.357  29.832  28.364  1.00  0.00    -0.354 N 
ATOM     54  N   UNL A   1      46.996  28.842  27.558  1.00  0.00    -0.248 NA
ATOM     55  C   UNL A   1      49.250  29.230  27.075  1.00  0.00     0.031 C 
ATOM     56  C   UNL A   1      44.176  31.951  29.008  1.00  0.00     0.029 A 
ATOM     57  C   UNL A   1      45.070  31.008  28.525  1.00  0.00     0.049 A 
ATOM     58  H   UNL A   1      44.733  28.983  28.036  1.00  0.00     0.167 HD
ATOM     59  C   UNL A   1      47.291  30.179  27.799  1.00  0.00     0.074 A 
ATOM     60  C   UNL A   1      48.700  30.357  27.510  1.00  0.00     0.031 C 
ATOM     61  C   UNL A   1      46.469  31.172  28.220  1.00  0.00     0.031 A 
BRANCH  48  62
ATOM     62  C   UNL A   1      40.593  29.419  29.002  1.00  0.00    -0.014 A 
ATOM     63  C   UNL A   1      39.630  29.634  28.000  1.00  0.00     0.010 A 
ATOM     64  C   UNL A   1      40.217  29.549  30.352  1.00  0.00     0.010 A 
ATOM     65  C   UNL A   1      38.330  30.021  28.339  1.00  0.00     0.020 A 
ATOM     66  C   UNL A   1      38.911  29.910  30.696  1.00  0.00     0.020 A 
ATOM     67  C   UNL A   1      37.981  30.165  29.684  1.00  0.00     0.054 A 
BRANCH  67  68
ATOM     68  S   UNL A   1      36.287  30.666  30.097  1.00  0.00     0.124 S 
ATOM     69  O   UNL A   1      35.571  30.344  28.865  1.00  0.00    -0.237 OA
ATOM     70  O   UNL A   1      35.972  29.818  31.245  1.00  0.00    -0.237 OA
ATOM     71  O   UNL A   1      36.409  32.090  30.394  1.00  0.00    -0.744 OA
ENDBRANCH  67  68
ENDBRANCH  48  62
BRANCH  49  72
ATOM     72  C   UNL A   1      49.744  26.434  26.347  1.00  0.00    -0.014 A 
ATOM     73  C   UNL A   1      50.163  26.588  25.014  1.00  0.00     0.010 A 
ATOM     74  C   UNL A   1      50.637  25.885  27.287  1.00  0.00     0.010 A 
ATOM     75  C   UNL A   1      51.449  26.199  24.626  1.00  0.00     0.020 A 
ATOM     76  C   UNL A   1      51.931  25.517  26.908  1.00  0.00     0.020 A 
ATOM     77  C   UNL A   1      52.327  25.670  25.577  1.00  0.00     0.054 A 
BRANCH  77  78
ATOM     78  S   UNL A   1      54.014  25.239  25.068  1.00  0.00     0.124 S 
ATOM     79  O   UNL A   1      54.160  25.999  23.831  1.00  0.00    -0.237 OA
ATOM     80  O   UNL A   1      54.814  25.706  26.197  1.00  0.00    -0.237 OA
ATOM     81  O   UNL A   1      53.962  23.787  24.911  1.00  0.00    -0.744 OA
ENDBRANCH  77  78
ENDBRANCH  49  72
BRANCH  61  82
ATOM     82  C   UNL A   1      47.067  32.542  28.397  1.00  0.00    -0.014 A 
ATOM     83  C   UNL A   1      47.029  33.483  27.354  1.00  0.00     0.010 A 
ATOM     84  C   UNL A   1      47.605  32.915  29.642  1.00  0.00     0.010 A 
ATOM     85  C   UNL A   1      47.532  34.772  27.548  1.00  0.00     0.020 A 
ATOM     86  C   UNL A   1      48.088  34.210  29.847  1.00  0.00     0.020 A 
ATOM     87  C   UNL A   1      48.056  35.128  28.795  1.00  0.00     0.054 A 
BRANCH  87  88
ATOM     88  S   UNL A   1      48.642  36.827  29.041  1.00  0.00     0.124 S 
ATOM     89  O   UNL A   1      47.389  37.565  29.175  1.00  0.00    -0.237 OA
ATOM     90  O   UNL A   1      49.441  36.718  30.259  1.00  0.00    -0.237 OA
ATOM     91  O   UNL A   1      49.405  37.110  27.827  1.00  0.00    -0.744 OA
ENDBRANCH  87  88
ENDBRANCH  61  82
ENDBRANCH  35  36
ENDBRANCH  27  30
ENDBRANCH  25  26
ENDBRANCH  24  25
ENDBRANCH  23  24
ENDBRANCH   1  23
TORSDOF 19
ENDMDL
MODEL 3
REMARK VINA RESULT:     -10.0      2.381      3.007
REMARK SMILES C[NH+](C)CCNC(=O)NC1(CC(=O)NCCCCNC(=O)c2ccc(-c3c4nc(c(-c5ccc(S(=O)(=O)[O-])cc5)c5ccc([nH]5)c(-c5ccc(S(=O)(=O)[O-])cc5)c5nc(c(-c6ccc(S(=O)(=O)[O-])cc6)c6ccc3[nH]6)C=C5)C=C4)cc2)CCC1
REMARK SMILES IDX 15 1 14 2 12 3 13 4 11 6 10 7 82 8 84 9 83 10 9 11 6 12 7 13
REMARK SMILES IDX 8 15 5 17 4 18 2 19 1 20 3 21 16 23 17 24 18 25 19 26 20 27
REMARK SMILES IDX 21 29 22 30 23 31 81 32 24 33 80 34 25 35 26 36 27 37 74 38
REMARK SMILES IDX 28 39 79 40 73 41 75 42 29 43 78 44 72 45 71 46 30 48 60 49
REMARK SMILES IDX 41 50 59 51 42 52 45 53 58 54 76 55 43 56 44 57 57 59 77 60
REMARK SMILES IDX 46 61 31 62 32 63 40 64 33 65 39 66 34 67 35 68 36 69 37 70
REMARK SMILES IDX 38 71 61 72 62 73 70 74 63 75 69 76 64 77 65 78 66 79 67 80
REMARK SMILES IDX 68 81 47 82 48 83 56 84 49 85 55 86 50 87 51 88 52 89 53 90
REMARK SMILES IDX 54 91
REMARK H PARENT 14 5 6 14 9 16 2 22 19 28 75 47 45 58
REMARK Flexibility Score: inf
ROOT
ATOM      1  C   UNL A   1      31.990  25.997  24.970  1.00  0.00     0.116 C 
ENDROOT
BRANCH   1   2
ATOM      2  N   UNL A   1      32.380  24.892  24.120  1.00  0.00    -0.356 N 
ATOM      3  C   UNL A   1      33.447  24.043  24.148  1.00  0.00     0.222 C 
ATOM      4  O   UNL A   1      33.327  22.980  23.532  1.00  0.00    -0.275 OA
ATOM      5  H   UNL A   1      31.755  24.719  23.379  1.00  0.00     0.163 HD
BRANCH   3   6
ATOM      6  C   UNL A   1      34.673  24.298  24.986  1.00  0.00     0.128 C 
BRANCH   6   7
ATOM      7  C   UNL A   1      35.364  23.157  25.754  1.00  0.00     0.051 C 
ATOM      8  C   UNL A   1      36.791  23.697  26.230  1.00  0.00     0.029 C 
ATOM      9  C   UNL A   1      36.203  22.081  25.000  1.00  0.00     0.029 C 
ATOM     10  C   UNL A   1      37.403  23.043  24.991  1.00  0.00     0.005 C 
BRANCH   7  11
ATOM     11  N   UNL A   1      34.668  22.669  26.979  1.00  0.00    -0.332 N 
ATOM     12  N   UNL A   1      32.884  21.279  26.328  1.00  0.00    -0.332 N 
ATOM     13  C   UNL A   1      33.492  22.058  27.228  1.00  0.00     0.315 C 
ATOM     14  H   UNL A   1      31.956  21.516  26.102  1.00  0.00     0.165 HD
ATOM     15  O   UNL A   1      32.974  22.251  28.329  1.00  0.00    -0.249 OA
ATOM     16  H   UNL A   1      35.191  22.830  27.798  1.00  0.00     0.165 HD
BRANCH  12  17
ATOM     17  C   UNL A   1      33.438  20.125  25.649  1.00  0.00     0.179 C 
BRANCH  17  18
ATOM     18  C   UNL A   1      32.558  19.657  24.462  1.00  0.00     0.283 C 
BRANCH  18  19
ATOM     19  N   UNL A   1      32.302  18.208  24.382  1.00  0.00    -0.338 N 
ATOM     20  C   UNL A   1      32.665  17.537  25.629  1.00  0.00     0.332 C 
ATOM     21  C   UNL A   1      33.048  17.607  23.269  1.00  0.00     0.332 C 
ATOM     22  H   UNL A   1      31.302  18.085  24.221  1.00  0.00     0.347 HD
ENDBRANCH  18  19
ENDBRANCH  17  18
ENDBRANCH  12  17
ENDBRANCH   7  11
ENDBRANCH   6   7
ENDBRANCH   3   6
ENDBRANCH   1   2
BRANCH   1  23
ATOM     23  C   UNL A   1      32.546  27.384  24.607  1.00  0.00     0.023 C 
BRANCH  23  24
ATOM     24  C   UNL A   1      33.785  27.967  25.286  1.00  0.00     0.023 C 
BRANCH  24  25
ATOM     25  C   UNL A   1      33.715  28.239  26.776  1.00  0.00     0.116 C 
BRANCH  25  26
ATOM     26  N   UNL A   1      33.577  29.662  27.025  1.00  0.00    -0.352 N 
ATOM     27  C   UNL A   1      34.374  30.469  27.801  1.00  0.00     0.251 C 
ATOM     28  H   UNL A   1      32.817  30.104  26.583  1.00  0.00     0.163 HD
ATOM     29  O   UNL A   1      33.931  31.544  28.207  1.00  0.00    -0.269 OA
BRANCH  27  30
ATOM     30  C   UNL A   1      35.757  30.061  28.147  1.00  0.00     0.039 A 
ATOM     31  C   UNL A   1      36.033  29.588  29.433  1.00  0.00     0.014 A 
ATOM     32  C   UNL A   1      36.800  30.211  27.225  1.00  0.00     0.014 A 
ATOM     33  C   UNL A   1      37.343  29.241  29.788  1.00  0.00     0.010 A 
ATOM     34  C   UNL A   1      38.094  29.814  27.561  1.00  0.00     0.010 A 
ATOM     35  C   UNL A   1      38.383  29.342  28.851  1.00  0.00    -0.014 A 
BRANCH  35  36
ATOM     36  C   UNL A   1      39.785  29.002  29.209  1.00  0.00     0.031 A 
ATOM     37  C   UNL A   1      40.660  30.028  29.881  1.00  0.00     0.074 A 
ATOM     38  C   UNL A   1      40.291  27.797  28.886  1.00  0.00     0.049 A 
ATOM     39  N   UNL A   1      41.923  29.945  30.214  1.00  0.00    -0.248 NA
ATOM     40  C   UNL A   1      40.038  31.323  30.204  1.00  0.00     0.031 C 
ATOM     41  C   UNL A   1      39.555  26.721  28.218  1.00  0.00     0.029 A 
ATOM     42  N   UNL A   1      41.548  27.276  29.067  1.00  0.00    -0.354 N 
ATOM     43  C   UNL A   1      42.251  31.176  30.772  1.00  0.00     0.074 A 
ATOM     44  C   UNL A   1      41.065  32.002  30.693  1.00  0.00     0.031 C 
ATOM     45  C   UNL A   1      40.369  25.665  28.060  1.00  0.00     0.029 A 
ATOM     46  C   UNL A   1      41.693  25.999  28.579  1.00  0.00     0.049 A 
ATOM     47  H   UNL A   1      42.278  27.772  29.504  1.00  0.00     0.167 HD
ATOM     48  C   UNL A   1      43.423  31.579  31.315  1.00  0.00     0.031 A 
ATOM     49  C   UNL A   1      42.770  25.191  28.543  1.00  0.00     0.031 A 
ATOM     50  C   UNL A   1      44.601  30.755  31.399  1.00  0.00     0.049 A 
ATOM     51  C   UNL A   1      44.076  25.674  29.113  1.00  0.00     0.074 A 
ATOM     52  C   UNL A   1      45.819  31.053  31.983  1.00  0.00     0.029 A 
ATOM     53  N   UNL A   1      44.710  29.476  30.875  1.00  0.00    -0.354 N 
ATOM     54  N   UNL A   1      44.346  26.818  29.693  1.00  0.00    -0.248 NA
ATOM     55  C   UNL A   1      45.221  24.756  29.024  1.00  0.00     0.031 C 
ATOM     56  C   UNL A   1      46.683  29.974  31.767  1.00  0.00     0.029 A 
ATOM     57  C   UNL A   1      45.986  28.984  31.091  1.00  0.00     0.049 A 
ATOM     58  H   UNL A   1      43.986  28.990  30.418  1.00  0.00     0.167 HD
ATOM     59  C   UNL A   1      45.689  26.754  30.050  1.00  0.00     0.074 A 
ATOM     60  C   UNL A   1      46.171  25.452  29.636  1.00  0.00     0.031 C 
ATOM     61  C   UNL A   1      46.455  27.691  30.662  1.00  0.00     0.031 A 
BRANCH  48  62
ATOM     62  C   UNL A   1      43.492  32.984  31.854  1.00  0.00    -0.014 A 
ATOM     63  C   UNL A   1      44.041  34.028  31.087  1.00  0.00     0.010 A 
ATOM     64  C   UNL A   1      42.978  33.271  33.131  1.00  0.00     0.010 A 
ATOM     65  C   UNL A   1      44.120  35.322  31.607  1.00  0.00     0.020 A 
ATOM     66  C   UNL A   1      43.031  34.570  33.645  1.00  0.00     0.020 A 
ATOM     67  C   UNL A   1      43.621  35.584  32.887  1.00  0.00     0.054 A 
BRANCH  67  68
ATOM     68  S   UNL A   1      43.734  37.273  33.538  1.00  0.00     0.124 S 
ATOM     69  O   UNL A   1      42.611  37.309  34.472  1.00  0.00    -0.237 OA
ATOM     70  O   UNL A   1      45.061  37.293  34.152  1.00  0.00    -0.237 OA
ATOM     71  O   UNL A   1      43.588  38.113  32.354  1.00  0.00    -0.744 OA
ENDBRANCH  67  68
ENDBRANCH  48  62
BRANCH  49  72
ATOM     72  C   UNL A   1      42.657  23.835  27.941  1.00  0.00    -0.014 A 
ATOM     73  C   UNL A   1      42.523  22.702  28.762  1.00  0.00     0.010 A 
ATOM     74  C   UNL A   1      42.657  23.673  26.543  1.00  0.00     0.010 A 
ATOM     75  C   UNL A   1      42.396  21.429  28.197  1.00  0.00     0.020 A 
ATOM     76  C   UNL A   1      42.505  22.405  25.974  1.00  0.00     0.020 A 
ATOM     77  C   UNL A   1      42.383  21.289  26.806  1.00  0.00     0.054 A 
BRANCH  77  78
ATOM     78  S   UNL A   1      42.143  19.638  26.093  1.00  0.00     0.124 S 
ATOM     79  O   UNL A   1      42.509  18.771  27.209  1.00  0.00    -0.237 OA
ATOM     80  O   UNL A   1      40.726  19.650  25.739  1.00  0.00    -0.237 OA
ATOM     81  O   UNL A   1      43.060  19.622  24.956  1.00  0.00    -0.744 OA
ENDBRANCH  77  78
ENDBRANCH  49  72
BRANCH  61  82
ATOM     82  C   UNL A   1      47.895  27.346  30.927  1.00  0.00    -0.014 A 
ATOM     83  C   UNL A   1      48.906  27.749  30.037  1.00  0.00     0.010 A 
ATOM     84  C   UNL A   1      48.248  26.678  32.113  1.00  0.00     0.010 A 
ATOM     85  C   UNL A   1      50.247  27.477  30.322  1.00  0.00     0.020 A 
ATOM     86  C   UNL A   1      49.590  26.425  32.413  1.00  0.00     0.020 A 
ATOM     87  C   UNL A   1      50.580  26.819  31.511  1.00  0.00     0.054 A 
BRANCH  87  88
ATOM     88  S   UNL A   1      52.332  26.537  31.889  1.00  0.00     0.124 S 
ATOM     89  O   UNL A   1      52.762  25.727  30.752  1.00  0.00    -0.237 OA
ATOM     90  O   UNL A   1      52.872  27.893  31.936  1.00  0.00    -0.237 OA
ATOM     91  O   UNL A   1      52.300  25.840  33.174  1.00  0.00    -0.744 OA
ENDBRANCH  87  88
ENDBRANCH  61  82
ENDBRANCH  35  36
ENDBRANCH  27  30
ENDBRANCH  25  26
ENDBRANCH  24  25
ENDBRANCH  23  24
ENDBRANCH   1  23
TORSDOF 19
ENDMDL
