MODEL 1
REMARK VINA RESULT:     -10.9      0.000      0.000
REMARK SMILES CCCOC(=O)c1c(NC(=O)[C@@H]2CC=CC[C@H]2C(=O)NCCCCNC(=O)c2ccc(-c3c4nc(c(-c5ccc(S(=O)(=O)[O-])cc5)c5ccc([nH]5)c(-c5ccc(S(=O)(=O)[O-])cc5)c5nc(c(-c6ccc(S(=O)(=O)[O-])cc6)c6ccc3[nH]6)C=C5)C=C4)cc2)sc2c1CCCC2
REMARK SMILES IDX 21 1 20 2 18 3 19 4 17 6 12 7 13 8 14 9 16 10 15 11 10 12
REMARK SMILES IDX 9 13 11 15 8 16 7 17 90 18 88 19 89 20 91 21 94 22 92 23
REMARK SMILES IDX 93 24 5 25 6 26 4 27 3 28 2 29 1 30 22 31 23 32 24 33 25 34
REMARK SMILES IDX 26 35 27 37 28 38 29 39 87 40 30 41 86 42 31 43 32 44 33 45
REMARK SMILES IDX 80 46 34 47 85 48 79 49 81 50 35 51 84 52 78 53 77 54 36 56
REMARK SMILES IDX 66 57 47 58 65 59 48 60 51 61 64 62 82 63 49 64 50 65 63 67
REMARK SMILES IDX 83 68 52 69 37 70 38 71 46 72 39 73 45 74 40 75 41 76 42 77
REMARK SMILES IDX 43 78 44 79 67 80 68 81 76 82 69 83 75 84 70 85 71 86 72 87
REMARK SMILES IDX 73 88 74 89 53 90 54 91 62 92 55 93 61 94 56 95 57 96 58 97
REMARK SMILES IDX 59 98 60 99
REMARK H PARENT 20 5 9 14 25 36 81 55 51 66
REMARK Flexibility Score: inf
ROOT
ATOM      1  C   UNL A   1      31.992  27.862  27.718  1.00  0.00     0.116 C 
ENDROOT
BRANCH   1   2
ATOM      2  N   UNL A   1      31.562  26.723  26.816  1.00  0.00    -0.356 N 
ATOM      3  C   UNL A   1      31.913  25.390  26.704  1.00  0.00     0.224 C 
ATOM      4  O   UNL A   1      31.160  24.619  27.325  1.00  0.00    -0.275 OA
ATOM      5  H   UNL A   1      30.876  26.993  26.163  1.00  0.00     0.163 HD
BRANCH   3   6
ATOM      6  C   UNL A   1      32.908  24.711  25.630  1.00  0.00     0.095 C 
ATOM      7  C   UNL A   1      32.399  24.278  24.265  1.00  0.00     0.095 C 
ATOM      8  C   UNL A   1      33.304  23.224  23.612  1.00  0.00     0.041 C 
ATOM      9  C   UNL A   1      34.635  23.863  23.357  1.00  0.00    -0.030 C 
ATOM     10  C   UNL A   1      34.368  25.220  25.457  1.00  0.00     0.041 C 
ATOM     11  C   UNL A   1      35.103  24.796  24.198  1.00  0.00    -0.030 C 
BRANCH   7  12
ATOM     12  C   UNL A   1      31.022  23.782  24.416  1.00  0.00     0.229 C 
ATOM     13  N   UNL A   1      30.024  24.674  24.267  1.00  0.00    -0.317 N 
ATOM     14  H   UNL A   1      29.135  24.328  24.510  1.00  0.00     0.170 HD
ATOM     15  O   UNL A   1      30.771  22.603  24.660  1.00  0.00    -0.274 OA
BRANCH  13  16
ATOM     16  C   UNL A   1      30.021  25.981  23.838  1.00  0.00     0.110 A 
ATOM     17  C   UNL A   1      30.818  27.021  23.325  1.00  0.00     0.098 A 
ATOM     18  C   UNL A   1      29.910  28.148  23.028  1.00  0.00    -0.017 A 
ATOM     19  S   UNL A   1      28.354  26.377  23.973  1.00  0.00    -0.122 S 
ATOM     20  C   UNL A   1      28.579  27.867  23.257  1.00  0.00     0.011 A 
ATOM     21  C   UNL A   1      30.304  29.520  22.544  1.00  0.00     0.038 C 
ATOM     22  C   UNL A   1      27.408  28.770  23.039  1.00  0.00     0.047 C 
ATOM     23  C   UNL A   1      29.191  30.534  22.845  1.00  0.00     0.005 C 
ATOM     24  C   UNL A   1      27.835  30.054  22.328  1.00  0.00     0.006 C 
BRANCH  17  25
ATOM     25  C   UNL A   1      32.302  27.213  23.070  1.00  0.00     0.341 C 
ATOM     26  O   UNL A   1      33.018  27.766  23.901  1.00  0.00    -0.246 OA
BRANCH  25  27
ATOM     27  O   UNL A   1      32.863  26.610  21.962  1.00  0.00    -0.462 OA
BRANCH  27  28
ATOM     28  C   UNL A   1      31.936  26.155  20.914  1.00  0.00     0.233 C 
BRANCH  28  29
ATOM     29  C   UNL A   1      32.580  25.353  19.735  1.00  0.00     0.038 C 
ATOM     30  C   UNL A   1      31.901  25.324  18.365  1.00  0.00     0.007 C 
ENDBRANCH  28  29
ENDBRANCH  27  28
ENDBRANCH  25  27
ENDBRANCH  17  25
ENDBRANCH  13  16
ENDBRANCH   7  12
ENDBRANCH   3   6
ENDBRANCH   1   2
BRANCH   1  31
ATOM     31  C   UNL A   1      33.101  28.746  27.111  1.00  0.00     0.023 C 
BRANCH  31  32
ATOM     32  C   UNL A   1      32.756  30.221  26.858  1.00  0.00     0.023 C 
BRANCH  32  33
ATOM     33  C   UNL A   1      33.617  31.291  27.536  1.00  0.00     0.116 C 
BRANCH  33  34
ATOM     34  N   UNL A   1      33.014  32.616  27.638  1.00  0.00    -0.352 N 
ATOM     35  C   UNL A   1      33.439  33.720  28.367  1.00  0.00     0.251 C 
ATOM     36  H   UNL A   1      32.188  32.746  27.116  1.00  0.00     0.163 HD
ATOM     37  O   UNL A   1      32.891  34.798  28.290  1.00  0.00    -0.269 OA
BRANCH  35  38
ATOM     38  C   UNL A   1      34.579  33.571  29.287  1.00  0.00     0.039 A 
ATOM     39  C   UNL A   1      34.421  32.817  30.453  1.00  0.00     0.014 A 
ATOM     40  C   UNL A   1      35.808  34.135  28.952  1.00  0.00     0.014 A 
ATOM     41  C   UNL A   1      35.540  32.525  31.232  1.00  0.00     0.010 A 
ATOM     42  C   UNL A   1      36.931  33.779  29.686  1.00  0.00     0.010 A 
ATOM     43  C   UNL A   1      36.812  32.953  30.816  1.00  0.00    -0.014 A 
BRANCH  43  44
ATOM     44  C   UNL A   1      38.047  32.525  31.515  1.00  0.00     0.031 A 
ATOM     45  C   UNL A   1      38.872  31.408  30.943  1.00  0.00     0.074 A 
ATOM     46  C   UNL A   1      38.345  33.057  32.718  1.00  0.00     0.049 A 
ATOM     47  N   UNL A   1      39.883  30.774  31.475  1.00  0.00    -0.248 NA
ATOM     48  C   UNL A   1      38.482  30.911  29.612  1.00  0.00     0.031 C 
ATOM     49  C   UNL A   1      37.584  34.113  33.395  1.00  0.00     0.029 A 
ATOM     50  N   UNL A   1      39.356  32.767  33.599  1.00  0.00    -0.354 N 
ATOM     51  C   UNL A   1      40.227  29.784  30.563  1.00  0.00     0.074 A 
ATOM     52  C   UNL A   1      39.291  29.872  29.464  1.00  0.00     0.031 C 
ATOM     53  C   UNL A   1      38.166  34.391  34.573  1.00  0.00     0.029 A 
ATOM     54  C   UNL A   1      39.309  33.506  34.759  1.00  0.00     0.049 A 
ATOM     55  H   UNL A   1      40.052  32.093  33.418  1.00  0.00     0.167 HD
ATOM     56  C   UNL A   1      41.244  28.893  30.629  1.00  0.00     0.031 A 
ATOM     57  C   UNL A   1      40.092  33.463  35.855  1.00  0.00     0.031 A 
ATOM     58  C   UNL A   1      42.185  28.836  31.714  1.00  0.00     0.049 A 
ATOM     59  C   UNL A   1      41.227  32.476  35.893  1.00  0.00     0.074 A 
ATOM     60  C   UNL A   1      43.295  28.022  31.848  1.00  0.00     0.029 A 
ATOM     61  N   UNL A   1      42.132  29.633  32.848  1.00  0.00    -0.354 N 
ATOM     62  N   UNL A   1      41.577  31.591  34.991  1.00  0.00    -0.248 NA
ATOM     63  C   UNL A   1      42.078  32.488  37.090  1.00  0.00     0.031 C 
ATOM     64  C   UNL A   1      43.886  28.294  33.086  1.00  0.00     0.029 A 
ATOM     65  C   UNL A   1      43.178  29.317  33.696  1.00  0.00     0.049 A 
ATOM     66  H   UNL A   1      41.450  30.322  33.024  1.00  0.00     0.167 HD
ATOM     67  C   UNL A   1      42.704  30.957  35.501  1.00  0.00     0.074 A 
ATOM     68  C   UNL A   1      42.987  31.574  36.781  1.00  0.00     0.031 C 
ATOM     69  C   UNL A   1      43.438  29.952  34.963  1.00  0.00     0.031 A 
BRANCH  56  70
ATOM     70  C   UNL A   1      41.390  27.913  29.496  1.00  0.00    -0.014 A 
ATOM     71  C   UNL A   1      42.429  28.039  28.556  1.00  0.00     0.010 A 
ATOM     72  C   UNL A   1      40.504  26.826  29.393  1.00  0.00     0.010 A 
ATOM     73  C   UNL A   1      42.558  27.117  27.515  1.00  0.00     0.020 A 
ATOM     74  C   UNL A   1      40.647  25.884  28.369  1.00  0.00     0.020 A 
ATOM     75  C   UNL A   1      41.667  26.044  27.429  1.00  0.00     0.054 A 
BRANCH  75  76
ATOM     76  S   UNL A   1      41.884  24.841  26.090  1.00  0.00     0.124 S 
ATOM     77  O   UNL A   1      40.668  24.040  26.203  1.00  0.00    -0.237 OA
ATOM     78  O   UNL A   1      41.966  25.693  24.906  1.00  0.00    -0.237 OA
ATOM     79  O   UNL A   1      43.120  24.147  26.442  1.00  0.00    -0.744 OA
ENDBRANCH  75  76
ENDBRANCH  56  70
BRANCH  57  80
ATOM     80  C   UNL A   1      39.835  34.380  37.000  1.00  0.00    -0.014 A 
ATOM     81  C   UNL A   1      40.318  35.701  36.976  1.00  0.00     0.010 A 
ATOM     82  C   UNL A   1      39.112  33.940  38.124  1.00  0.00     0.010 A 
ATOM     83  C   UNL A   1      40.107  36.554  38.064  1.00  0.00     0.020 A 
ATOM     84  C   UNL A   1      38.873  34.799  39.200  1.00  0.00     0.020 A 
ATOM     85  C   UNL A   1      39.387  36.098  39.171  1.00  0.00     0.054 A 
BRANCH  85  86
ATOM     86  S   UNL A   1      39.095  37.233  40.556  1.00  0.00     0.124 S 
ATOM     87  O   UNL A   1      38.483  36.352  41.546  1.00  0.00    -0.237 OA
ATOM     88  O   UNL A   1      40.443  37.700  40.871  1.00  0.00    -0.237 OA
ATOM     89  O   UNL A   1      38.210  38.245  39.986  1.00  0.00    -0.744 OA
ENDBRANCH  85  86
ENDBRANCH  57  80
BRANCH  69  90
ATOM     90  C   UNL A   1      44.636  29.482  35.741  1.00  0.00    -0.014 A 
ATOM     91  C   UNL A   1      45.869  30.153  35.654  1.00  0.00     0.010 A 
ATOM     92  C   UNL A   1      44.508  28.389  36.617  1.00  0.00     0.010 A 
ATOM     93  C   UNL A   1      46.961  29.719  36.408  1.00  0.00     0.020 A 
ATOM     94  C   UNL A   1      45.590  27.970  37.394  1.00  0.00     0.020 A 
ATOM     95  C   UNL A   1      46.814  28.630  37.273  1.00  0.00     0.054 A 
BRANCH  95  96
ATOM     96  S   UNL A   1      48.235  28.116  38.275  1.00  0.00     0.124 S 
ATOM     97  O   UNL A   1      48.039  28.887  39.499  1.00  0.00    -0.237 OA
ATOM     98  O   UNL A   1      48.033  26.674  38.402  1.00  0.00    -0.237 OA
ATOM     99  O   UNL A   1      49.387  28.508  37.467  1.00  0.00    -0.744 OA
ENDBRANCH  95  96
ENDBRANCH  69  90
ENDBRANCH  43  44
ENDBRANCH  35  38
ENDBRANCH  33  34
ENDBRANCH  32  33
ENDBRANCH  31  32
ENDBRANCH   1  31
TORSDOF 20
ENDMDL
MODEL 2
REMARK VINA RESULT:     -10.9      3.234      7.377
REMARK SMILES CCCOC(=O)c1c(NC(=O)[C@@H]2CC=CC[C@H]2C(=O)NCCCCNC(=O)c2ccc(-c3c4nc(c(-c5ccc(S(=O)(=O)[O-])cc5)c5ccc([nH]5)c(-c5ccc(S(=O)(=O)[O-])cc5)c5nc(c(-c6ccc(S(=O)(=O)[O-])cc6)c6ccc3[nH]6)C=C5)C=C4)cc2)sc2c1CCCC2
REMARK SMILES IDX 21 1 20 2 18 3 19 4 17 6 12 7 13 8 14 9 16 10 15 11 10 12
REMARK SMILES IDX 9 13 11 15 8 16 7 17 90 18 88 19 89 20 91 21 94 22 92 23
REMARK SMILES IDX 93 24 5 25 6 26 4 27 3 28 2 29 1 30 22 31 23 32 24 33 25 34
REMARK SMILES IDX 26 35 27 37 28 38 29 39 87 40 30 41 86 42 31 43 32 44 33 45
REMARK SMILES IDX 80 46 34 47 85 48 79 49 81 50 35 51 84 52 78 53 77 54 36 56
REMARK SMILES IDX 66 57 47 58 65 59 48 60 51 61 64 62 82 63 49 64 50 65 63 67
REMARK SMILES IDX 83 68 52 69 37 70 38 71 46 72 39 73 45 74 40 75 41 76 42 77
REMARK SMILES IDX 43 78 44 79 67 80 68 81 76 82 69 83 75 84 70 85 71 86 72 87
REMARK SMILES IDX 73 88 74 89 53 90 54 91 62 92 55 93 61 94 56 95 57 96 58 97
REMARK SMILES IDX 59 98 60 99
REMARK H PARENT 20 5 9 14 25 36 81 55 51 66
REMARK Flexibility Score: inf
ROOT
ATOM      1  C   UNL A   1      34.262  21.643  27.392  1.00  0.00     0.116 C 
ENDROOT
BRANCH   1   2
ATOM      2  N   UNL A   1      32.958  21.814  26.639  1.00  0.00    -0.356 N 
ATOM      3  C   UNL A   1      32.529  21.508  25.360  1.00  0.00     0.224 C 
ATOM      4  O   UNL A   1      31.941  20.416  25.276  1.00  0.00    -0.275 OA
ATOM      5  H   UNL A   1      32.257  22.238  27.185  1.00  0.00     0.163 HD
BRANCH   3   6
ATOM      6  C   UNL A   1      32.382  22.501  24.097  1.00  0.00     0.095 C 
ATOM      7  C   UNL A   1      31.765  23.881  24.262  1.00  0.00     0.095 C 
ATOM      8  C   UNL A   1      31.243  24.449  22.935  1.00  0.00     0.041 C 
ATOM      9  C   UNL A   1      32.420  24.644  22.030  1.00  0.00    -0.030 C 
ATOM     10  C   UNL A   1      33.503  22.604  23.023  1.00  0.00     0.041 C 
ATOM     11  C   UNL A   1      33.463  23.805  22.095  1.00  0.00    -0.030 C 
BRANCH   7  12
ATOM     12  C   UNL A   1      30.694  23.796  25.266  1.00  0.00     0.229 C 
ATOM     13  N   UNL A   1      30.076  24.942  25.610  1.00  0.00    -0.317 N 
ATOM     14  H   UNL A   1      29.466  24.857  26.378  1.00  0.00     0.170 HD
ATOM     15  O   UNL A   1      30.356  22.730  25.779  1.00  0.00    -0.274 OA
BRANCH  13  16
ATOM     16  C   UNL A   1      30.142  26.211  25.083  1.00  0.00     0.110 A 
ATOM     17  C   UNL A   1      30.942  27.364  24.966  1.00  0.00     0.098 A 
ATOM     18  C   UNL A   1      30.223  28.293  24.070  1.00  0.00    -0.017 A 
ATOM     19  S   UNL A   1      28.660  26.296  24.217  1.00  0.00    -0.122 S 
ATOM     20  C   UNL A   1      29.050  27.778  23.557  1.00  0.00     0.011 A 
ATOM     21  C   UNL A   1      30.634  29.697  23.711  1.00  0.00     0.038 C 
ATOM     22  C   UNL A   1      28.103  28.442  22.611  1.00  0.00     0.047 C 
ATOM     23  C   UNL A   1      29.424  30.497  23.207  1.00  0.00     0.005 C 
ATOM     24  C   UNL A   1      28.682  29.759  22.094  1.00  0.00     0.006 C 
BRANCH  17  25
ATOM     25  C   UNL A   1      32.265  27.819  25.553  1.00  0.00     0.341 C 
ATOM     26  O   UNL A   1      33.140  27.006  25.842  1.00  0.00    -0.246 OA
BRANCH  25  27
ATOM     27  O   UNL A   1      32.534  29.173  25.604  1.00  0.00    -0.462 OA
BRANCH  27  28
ATOM     28  C   UNL A   1      32.043  29.901  26.784  1.00  0.00     0.233 C 
BRANCH  28  29
ATOM     29  C   UNL A   1      33.128  30.662  27.615  1.00  0.00     0.038 C 
ATOM     30  C   UNL A   1      34.606  30.547  27.237  1.00  0.00     0.007 C 
ENDBRANCH  28  29
ENDBRANCH  27  28
ENDBRANCH  25  27
ENDBRANCH  17  25
ENDBRANCH  13  16
ENDBRANCH   7  12
ENDBRANCH   3   6
ENDBRANCH   1   2
BRANCH   1  31
ATOM     31  C   UNL A   1      35.514  21.805  26.505  1.00  0.00     0.023 C 
BRANCH  31  32
ATOM     32  C   UNL A   1      35.865  23.229  26.049  1.00  0.00     0.023 C 
BRANCH  32  33
ATOM     33  C   UNL A   1      37.058  23.412  25.106  1.00  0.00     0.116 C 
BRANCH  33  34
ATOM     34  N   UNL A   1      38.221  22.578  25.391  1.00  0.00    -0.352 N 
ATOM     35  C   UNL A   1      39.311  22.844  26.211  1.00  0.00     0.251 C 
ATOM     36  H   UNL A   1      38.235  21.702  24.940  1.00  0.00     0.163 HD
ATOM     37  O   UNL A   1      40.172  22.020  26.434  1.00  0.00    -0.269 OA
BRANCH  35  38
ATOM     38  C   UNL A   1      39.444  24.183  26.808  1.00  0.00     0.039 A 
ATOM     39  C   UNL A   1      38.936  24.413  28.090  1.00  0.00     0.014 A 
ATOM     40  C   UNL A   1      40.121  25.181  26.110  1.00  0.00     0.014 A 
ATOM     41  C   UNL A   1      39.217  25.620  28.727  1.00  0.00     0.010 A 
ATOM     42  C   UNL A   1      40.464  26.350  26.775  1.00  0.00     0.010 A 
ATOM     43  C   UNL A   1      40.036  26.570  28.095  1.00  0.00    -0.014 A 
BRANCH  43  44
ATOM     44  C   UNL A   1      40.501  27.791  28.797  1.00  0.00     0.031 A 
ATOM     45  C   UNL A   1      41.838  27.786  29.482  1.00  0.00     0.074 A 
ATOM     46  C   UNL A   1      39.668  28.843  28.917  1.00  0.00     0.049 A 
ATOM     47  N   UNL A   1      42.355  28.678  30.284  1.00  0.00    -0.248 NA
ATOM     48  C   UNL A   1      42.687  26.601  29.270  1.00  0.00     0.031 C 
ATOM     49  C   UNL A   1      38.324  28.937  28.335  1.00  0.00     0.029 A 
ATOM     50  N   UNL A   1      39.816  30.030  29.590  1.00  0.00    -0.354 N 
ATOM     51  C   UNL A   1      43.572  28.149  30.698  1.00  0.00     0.074 A 
ATOM     52  C   UNL A   1      43.696  26.841  30.095  1.00  0.00     0.031 C 
ATOM     53  C   UNL A   1      37.783  30.122  28.662  1.00  0.00     0.029 A 
ATOM     54  C   UNL A   1      38.714  30.852  29.512  1.00  0.00     0.049 A 
ATOM     55  H   UNL A   1      40.634  30.272  30.082  1.00  0.00     0.167 HD
ATOM     56  C   UNL A   1      44.508  28.713  31.497  1.00  0.00     0.031 A 
ATOM     57  C   UNL A   1      38.479  32.052  30.077  1.00  0.00     0.031 A 
ATOM     58  C   UNL A   1      44.384  30.027  32.066  1.00  0.00     0.049 A 
ATOM     59  C   UNL A   1      39.545  32.664  30.944  1.00  0.00     0.074 A 
ATOM     60  C   UNL A   1      45.303  30.723  32.830  1.00  0.00     0.029 A 
ATOM     61  N   UNL A   1      43.275  30.847  31.926  1.00  0.00    -0.354 N 
ATOM     62  N   UNL A   1      40.719  32.177  31.272  1.00  0.00    -0.248 NA
ATOM     63  C   UNL A   1      39.262  33.990  31.509  1.00  0.00     0.031 C 
ATOM     64  C   UNL A   1      44.730  31.947  33.191  1.00  0.00     0.029 A 
ATOM     65  C   UNL A   1      43.477  32.035  32.605  1.00  0.00     0.049 A 
ATOM     66  H   UNL A   1      42.463  30.617  31.419  1.00  0.00     0.167 HD
ATOM     67  C   UNL A   1      41.323  33.147  32.062  1.00  0.00     0.074 A 
ATOM     68  C   UNL A   1      40.395  34.257  32.145  1.00  0.00     0.031 C 
ATOM     69  C   UNL A   1      42.536  33.124  32.667  1.00  0.00     0.031 A 
BRANCH  56  70
ATOM     70  C   UNL A   1      45.746  27.911  31.797  1.00  0.00    -0.014 A 
ATOM     71  C   UNL A   1      45.796  27.035  32.897  1.00  0.00     0.010 A 
ATOM     72  C   UNL A   1      46.861  28.000  30.944  1.00  0.00     0.010 A 
ATOM     73  C   UNL A   1      46.948  26.291  33.158  1.00  0.00     0.020 A 
ATOM     74  C   UNL A   1      48.006  27.234  31.184  1.00  0.00     0.020 A 
ATOM     75  C   UNL A   1      48.046  26.394  32.299  1.00  0.00     0.054 A 
BRANCH  75  76
ATOM     76  S   UNL A   1      49.513  25.384  32.640  1.00  0.00     0.124 S 
ATOM     77  O   UNL A   1      48.977  24.371  33.546  1.00  0.00    -0.237 OA
ATOM     78  O   UNL A   1      49.886  24.904  31.312  1.00  0.00    -0.237 OA
ATOM     79  O   UNL A   1      50.451  26.326  33.246  1.00  0.00    -0.744 OA
ENDBRANCH  75  76
ENDBRANCH  56  70
BRANCH  57  80
ATOM     80  C   UNL A   1      37.188  32.756  29.840  1.00  0.00    -0.014 A 
ATOM     81  C   UNL A   1      37.014  33.558  28.698  1.00  0.00     0.010 A 
ATOM     82  C   UNL A   1      36.125  32.633  30.753  1.00  0.00     0.010 A 
ATOM     83  C   UNL A   1      35.814  34.247  28.489  1.00  0.00     0.020 A 
ATOM     84  C   UNL A   1      34.914  33.295  30.533  1.00  0.00     0.020 A 
ATOM     85  C   UNL A   1      34.771  34.112  29.409  1.00  0.00     0.054 A 
BRANCH  85  86
ATOM     86  S   UNL A   1      33.212  34.986  29.100  1.00  0.00     0.124 S 
ATOM     87  O   UNL A   1      33.681  36.286  28.630  1.00  0.00    -0.237 OA
ATOM     88  O   UNL A   1      32.570  34.143  28.094  1.00  0.00    -0.237 OA
ATOM     89  O   UNL A   1      32.558  34.989  30.406  1.00  0.00    -0.744 OA
ENDBRANCH  85  86
ENDBRANCH  57  80
BRANCH  69  90
ATOM     90  C   UNL A   1      42.941  34.347  33.444  1.00  0.00    -0.014 A 
ATOM     91  C   UNL A   1      42.641  34.472  34.812  1.00  0.00     0.010 A 
ATOM     92  C   UNL A   1      43.684  35.358  32.806  1.00  0.00     0.010 A 
ATOM     93  C   UNL A   1      43.052  35.602  35.522  1.00  0.00     0.020 A 
ATOM     94  C   UNL A   1      44.121  36.476  33.520  1.00  0.00     0.020 A 
ATOM     95  C   UNL A   1      43.789  36.596  34.871  1.00  0.00     0.054 A 
BRANCH  95  96
ATOM     96  S   UNL A   1      44.350  38.031  35.827  1.00  0.00     0.124 S 
ATOM     97  O   UNL A   1      43.893  39.144  35.001  1.00  0.00    -0.237 OA
ATOM     98  O   UNL A   1      43.652  37.862  37.099  1.00  0.00    -0.237 OA
ATOM     99  O   UNL A   1      45.800  37.857  35.892  1.00  0.00    -0.744 OA
ENDBRANCH  95  96
ENDBRANCH  69  90
ENDBRANCH  43  44
ENDBRANCH  35  38
ENDBRANCH  33  34
ENDBRANCH  32  33
ENDBRANCH  31  32
ENDBRANCH   1  31
TORSDOF 20
ENDMDL
MODEL 3
REMARK VINA RESULT:     -10.8      3.595      7.419
REMARK SMILES CCCOC(=O)c1c(NC(=O)[C@@H]2CC=CC[C@H]2C(=O)NCCCCNC(=O)c2ccc(-c3c4nc(c(-c5ccc(S(=O)(=O)[O-])cc5)c5ccc([nH]5)c(-c5ccc(S(=O)(=O)[O-])cc5)c5nc(c(-c6ccc(S(=O)(=O)[O-])cc6)c6ccc3[nH]6)C=C5)C=C4)cc2)sc2c1CCCC2
REMARK SMILES IDX 21 1 20 2 18 3 19 4 17 6 12 7 13 8 14 9 16 10 15 11 10 12
REMARK SMILES IDX 9 13 11 15 8 16 7 17 90 18 88 19 89 20 91 21 94 22 92 23
REMARK SMILES IDX 93 24 5 25 6 26 4 27 3 28 2 29 1 30 22 31 23 32 24 33 25 34
REMARK SMILES IDX 26 35 27 37 28 38 29 39 87 40 30 41 86 42 31 43 32 44 33 45
REMARK SMILES IDX 80 46 34 47 85 48 79 49 81 50 35 51 84 52 78 53 77 54 36 56
REMARK SMILES IDX 66 57 47 58 65 59 48 60 51 61 64 62 82 63 49 64 50 65 63 67
REMARK SMILES IDX 83 68 52 69 37 70 38 71 46 72 39 73 45 74 40 75 41 76 42 77
REMARK SMILES IDX 43 78 44 79 67 80 68 81 76 82 69 83 75 84 70 85 71 86 72 87
REMARK SMILES IDX 73 88 74 89 53 90 54 91 62 92 55 93 61 94 56 95 57 96 58 97
REMARK SMILES IDX 59 98 60 99
REMARK H PARENT 20 5 9 14 25 36 81 55 51 66
REMARK Flexibility Score: inf
ROOT
ATOM      1  C   UNL A   1      34.307  21.589  27.416  1.00  0.00     0.116 C 
ENDROOT
BRANCH   1   2
ATOM      2  N   UNL A   1      33.003  21.600  26.646  1.00  0.00    -0.356 N 
ATOM      3  C   UNL A   1      32.631  21.238  25.364  1.00  0.00     0.224 C 
ATOM      4  O   UNL A   1      32.177  20.083  25.281  1.00  0.00    -0.275 OA
ATOM      5  H   UNL A   1      32.249  21.942  27.178  1.00  0.00     0.163 HD
BRANCH   3   6
ATOM      6  C   UNL A   1      32.385  22.198  24.091  1.00  0.00     0.095 C 
ATOM      7  C   UNL A   1      31.719  23.554  24.258  1.00  0.00     0.095 C 
ATOM      8  C   UNL A   1      31.114  24.073  22.947  1.00  0.00     0.041 C 
ATOM      9  C   UNL A   1      32.240  24.299  21.985  1.00  0.00    -0.030 C 
ATOM     10  C   UNL A   1      33.451  22.325  22.965  1.00  0.00     0.041 C 
ATOM     11  C   UNL A   1      33.319  23.505  22.017  1.00  0.00    -0.030 C 
BRANCH   7  12
ATOM     12  C   UNL A   1      30.699  23.446  25.313  1.00  0.00     0.229 C 
ATOM     13  N   UNL A   1      30.348  24.578  25.953  1.00  0.00    -0.317 N 
ATOM     14  H   UNL A   1      29.768  24.435  26.735  1.00  0.00     0.170 HD
ATOM     15  O   UNL A   1      30.170  22.375  25.608  1.00  0.00    -0.274 OA
BRANCH  13  16
ATOM     16  C   UNL A   1      30.653  25.897  25.712  1.00  0.00     0.110 A 
ATOM     17  C   UNL A   1      30.428  26.987  24.851  1.00  0.00     0.098 A 
ATOM     18  C   UNL A   1      31.129  28.147  25.438  1.00  0.00    -0.017 A 
ATOM     19  S   UNL A   1      31.652  26.265  27.061  1.00  0.00    -0.122 S 
ATOM     20  C   UNL A   1      31.729  27.880  26.651  1.00  0.00     0.011 A 
ATOM     21  C   UNL A   1      31.256  29.523  24.836  1.00  0.00     0.038 C 
ATOM     22  C   UNL A   1      32.494  28.830  27.515  1.00  0.00     0.047 C 
ATOM     23  C   UNL A   1      32.447  30.270  25.453  1.00  0.00     0.005 C 
ATOM     24  C   UNL A   1      32.391  30.258  26.980  1.00  0.00     0.006 C 
BRANCH  17  25
ATOM     25  C   UNL A   1      29.699  27.185  23.534  1.00  0.00     0.341 C 
ATOM     26  O   UNL A   1      30.312  27.481  22.512  1.00  0.00    -0.246 OA
BRANCH  25  27
ATOM     27  O   UNL A   1      28.357  26.865  23.469  1.00  0.00    -0.462 OA
BRANCH  27  28
ATOM     28  C   UNL A   1      27.404  27.938  23.793  1.00  0.00     0.233 C 
BRANCH  28  29
ATOM     29  C   UNL A   1      27.365  29.140  22.793  1.00  0.00     0.038 C 
ATOM     30  C   UNL A   1      28.006  30.476  23.172  1.00  0.00     0.007 C 
ENDBRANCH  28  29
ENDBRANCH  27  28
ENDBRANCH  25  27
ENDBRANCH  17  25
ENDBRANCH  13  16
ENDBRANCH   7  12
ENDBRANCH   3   6
ENDBRANCH   1   2
BRANCH   1  31
ATOM     31  C   UNL A   1      35.554  21.771  26.526  1.00  0.00     0.023 C 
BRANCH  31  32
ATOM     32  C   UNL A   1      35.752  23.148  25.877  1.00  0.00     0.023 C 
BRANCH  32  33
ATOM     33  C   UNL A   1      37.038  23.394  25.084  1.00  0.00     0.116 C 
BRANCH  33  34
ATOM     34  N   UNL A   1      38.160  22.522  25.415  1.00  0.00    -0.352 N 
ATOM     35  C   UNL A   1      39.250  22.770  26.242  1.00  0.00     0.251 C 
ATOM     36  H   UNL A   1      38.143  21.631  24.995  1.00  0.00     0.163 HD
ATOM     37  O   UNL A   1      40.071  21.918  26.507  1.00  0.00    -0.269 OA
BRANCH  35  38
ATOM     38  C   UNL A   1      39.432  24.122  26.795  1.00  0.00     0.039 A 
ATOM     39  C   UNL A   1      38.970  24.400  28.085  1.00  0.00     0.014 A 
ATOM     40  C   UNL A   1      40.108  25.083  26.048  1.00  0.00     0.014 A 
ATOM     41  C   UNL A   1      39.298  25.619  28.677  1.00  0.00     0.010 A 
ATOM     42  C   UNL A   1      40.499  26.262  26.667  1.00  0.00     0.010 A 
ATOM     43  C   UNL A   1      40.118  26.531  27.993  1.00  0.00    -0.014 A 
BRANCH  43  44
ATOM     44  C   UNL A   1      40.633  27.759  28.643  1.00  0.00     0.031 A 
ATOM     45  C   UNL A   1      42.021  27.766  29.219  1.00  0.00     0.074 A 
ATOM     46  C   UNL A   1      39.807  28.810  28.821  1.00  0.00     0.049 A 
ATOM     47  N   UNL A   1      42.597  28.668  29.968  1.00  0.00    -0.248 NA
ATOM     48  C   UNL A   1      42.855  26.583  28.950  1.00  0.00     0.031 C 
ATOM     49  C   UNL A   1      38.421  28.893  28.348  1.00  0.00     0.029 A 
ATOM     50  N   UNL A   1      40.004  30.004  29.468  1.00  0.00    -0.354 N 
ATOM     51  C   UNL A   1      43.845  28.148  30.287  1.00  0.00     0.074 A 
ATOM     52  C   UNL A   1      43.927  26.834  29.688  1.00  0.00     0.031 C 
ATOM     53  C   UNL A   1      37.902  30.079  28.707  1.00  0.00     0.029 A 
ATOM     54  C   UNL A   1      38.896  30.821  29.472  1.00  0.00     0.049 A 
ATOM     55  H   UNL A   1      40.858  30.253  29.890  1.00  0.00     0.167 HD
ATOM     56  C   UNL A   1      44.841  28.722  31.003  1.00  0.00     0.031 A 
ATOM     57  C   UNL A   1      38.701  32.026  30.043  1.00  0.00     0.031 A 
ATOM     58  C   UNL A   1      44.757  30.042  31.568  1.00  0.00     0.049 A 
ATOM     59  C   UNL A   1      39.831  32.650  30.816  1.00  0.00     0.074 A 
ATOM     60  C   UNL A   1      45.731  30.748  32.249  1.00  0.00     0.029 A 
ATOM     61  N   UNL A   1      43.636  30.856  31.510  1.00  0.00    -0.354 N 
ATOM     62  N   UNL A   1      41.030  32.170  31.052  1.00  0.00    -0.248 NA
ATOM     63  C   UNL A   1      39.589  33.980  31.390  1.00  0.00     0.031 C 
ATOM     64  C   UNL A   1      45.183  31.973  32.644  1.00  0.00     0.029 A 
ATOM     65  C   UNL A   1      43.887  32.051  32.159  1.00  0.00     0.049 A 
ATOM     66  H   UNL A   1      42.787  30.618  31.072  1.00  0.00     0.167 HD
ATOM     67  C   UNL A   1      41.691  33.150  31.782  1.00  0.00     0.074 A 
ATOM     68  C   UNL A   1      40.768  34.257  31.930  1.00  0.00     0.031 C 
ATOM     69  C   UNL A   1      42.949  33.137  32.288  1.00  0.00     0.031 A 
BRANCH  56  70
ATOM     70  C   UNL A   1      46.102  27.928  31.209  1.00  0.00    -0.014 A 
ATOM     71  C   UNL A   1      47.157  27.985  30.279  1.00  0.00     0.010 A 
ATOM     72  C   UNL A   1      46.256  27.148  32.369  1.00  0.00     0.010 A 
ATOM     73  C   UNL A   1      48.325  27.250  30.488  1.00  0.00     0.020 A 
ATOM     74  C   UNL A   1      47.437  26.434  32.596  1.00  0.00     0.020 A 
ATOM     75  C   UNL A   1      48.459  26.479  31.646  1.00  0.00     0.054 A 
BRANCH  75  76
ATOM     76  S   UNL A   1      50.004  25.568  31.909  1.00  0.00     0.124 S 
ATOM     77  O   UNL A   1      50.812  26.546  32.633  1.00  0.00    -0.237 OA
ATOM     78  O   UNL A   1      49.565  24.415  32.691  1.00  0.00    -0.237 OA
ATOM     79  O   UNL A   1      50.462  25.262  30.556  1.00  0.00    -0.744 OA
ENDBRANCH  75  76
ENDBRANCH  56  70
BRANCH  57  80
ATOM     80  C   UNL A   1      37.392  32.722  29.904  1.00  0.00    -0.014 A 
ATOM     81  C   UNL A   1      37.179  33.634  28.855  1.00  0.00     0.010 A 
ATOM     82  C   UNL A   1      36.351  32.483  30.820  1.00  0.00     0.010 A 
ATOM     83  C   UNL A   1      35.962  34.314  28.740  1.00  0.00     0.020 A 
ATOM     84  C   UNL A   1      35.123  33.139  30.692  1.00  0.00     0.020 A 
ATOM     85  C   UNL A   1      34.941  34.063  29.661  1.00  0.00     0.054 A 
BRANCH  85  86
ATOM     86  S   UNL A   1      33.359  34.931  29.474  1.00  0.00     0.124 S 
ATOM     87  O   UNL A   1      33.770  36.176  28.832  1.00  0.00    -0.237 OA
ATOM     88  O   UNL A   1      32.591  34.011  28.638  1.00  0.00    -0.237 OA
ATOM     89  O   UNL A   1      32.878  35.062  30.847  1.00  0.00    -0.744 OA
ENDBRANCH  85  86
ENDBRANCH  57  80
BRANCH  69  90
ATOM     90  C   UNL A   1      43.410  34.369  33.018  1.00  0.00    -0.014 A 
ATOM     91  C   UNL A   1      43.376  34.438  34.422  1.00  0.00     0.010 A 
ATOM     92  C   UNL A   1      43.939  35.449  32.288  1.00  0.00     0.010 A 
ATOM     93  C   UNL A   1      43.835  35.579  35.082  1.00  0.00     0.020 A 
ATOM     94  C   UNL A   1      44.426  36.580  32.946  1.00  0.00     0.020 A 
ATOM     95  C   UNL A   1      44.358  36.642  34.339  1.00  0.00     0.054 A 
BRANCH  95  96
ATOM     96  S   UNL A   1      44.991  38.093  35.223  1.00  0.00     0.124 S 
ATOM     97  O   UNL A   1      46.114  37.530  35.967  1.00  0.00    -0.237 OA
ATOM     98  O   UNL A   1      45.350  39.001  34.136  1.00  0.00    -0.237 OA
ATOM     99  O   UNL A   1      43.857  38.524  36.037  1.00  0.00    -0.744 OA
ENDBRANCH  95  96
ENDBRANCH  69  90
ENDBRANCH  43  44
ENDBRANCH  35  38
ENDBRANCH  33  34
ENDBRANCH  32  33
ENDBRANCH  31  32
ENDBRANCH   1  31
TORSDOF 20
ENDMDL
