MODEL 1
REMARK VINA RESULT:     -12.1      0.000      0.000
REMARK SMILES CCc1cc(S(F)(F)(F)(F)F)cc2c1O[C@@H](C(F)(F)F)C(C(=O)NCCCCNC(=O)c1ccc(-c3c4nc(c(-c5ccc(S(=O)(=O)[O-])cc5)c5ccc([nH]5)c(-c5ccc(S(=O)(=O)[O-])cc5)c5nc(c(-c6ccc(S(=O)(=O)[O-])cc6)c6ccc3[nH]6)C=C5)C=C4)cc1)=C2
REMARK SMILES IDX 27 1 26 2 25 3 24 4 22 5 23 6 21 8 3 9 4 10 14 11 5 12 13 13
REMARK SMILES IDX 15 14 12 15 92 16 16 17 2 18 1 19 6 20 7 21 8 22 9 23 10 24
REMARK SMILES IDX 11 25 17 26 18 27 19 28 20 29 28 30 29 31 30 32 31 34 32 35
REMARK SMILES IDX 33 36 91 37 34 38 90 39 35 40 36 41 37 42 84 43 38 44 89 45
REMARK SMILES IDX 83 46 85 47 39 48 88 49 82 50 81 51 40 53 70 54 51 55 69 56
REMARK SMILES IDX 52 57 55 58 68 59 86 60 53 61 54 62 67 64 87 65 56 66 41 67
REMARK SMILES IDX 42 68 50 69 43 70 49 71 44 72 45 73 46 74 47 75 48 76 71 77
REMARK SMILES IDX 72 78 80 79 73 80 79 81 74 82 75 83 76 84 77 85 78 86 57 87
REMARK SMILES IDX 58 88 66 89 59 90 65 91 60 92 61 93 62 94 63 95 64 96
REMARK H PARENT 24 7 29 33 85 52 55 63
REMARK Flexibility Score: inf
ROOT
ATOM      1  C   UNL A   1      37.755  21.004  25.069  1.00  0.00     0.023 C 
ENDROOT
BRANCH   1   2
ATOM      2  C   UNL A   1      37.369  22.340  24.457  1.00  0.00     0.023 C 
BRANCH   2   3
ATOM      3  C   UNL A   1      36.108  22.859  25.128  1.00  0.00     0.116 C 
BRANCH   3   4
ATOM      4  N   UNL A   1      35.557  21.819  26.008  1.00  0.00    -0.352 N 
ATOM      5  C   UNL A   1      34.165  21.909  26.472  1.00  0.00     0.251 C 
ATOM      6  O   UNL A   1      33.689  21.009  27.232  1.00  0.00    -0.270 OA
ATOM      7  H   UNL A   1      36.121  21.061  26.286  1.00  0.00     0.163 HD
BRANCH   5   8
ATOM      8  C   UNL A   1      33.295  23.078  26.041  1.00  0.00     0.067 C 
ATOM      9  C   UNL A   1      31.160  26.280  24.417  1.00  0.00    -0.004 A 
ATOM     10  C   UNL A   1      31.305  27.548  24.949  1.00  0.00     0.032 A 
ATOM     11  C   UNL A   1      31.914  25.256  24.935  1.00  0.00     0.131 A 
ATOM     12  C   UNL A   1      32.186  27.786  25.972  1.00  0.00     0.108 A 
ATOM     13  C   UNL A   1      32.799  25.455  25.979  1.00  0.00     0.019 A 
ATOM     14  O   UNL A   1      31.841  24.029  24.324  1.00  0.00    -0.475 OA
ATOM     15  C   UNL A   1      32.925  26.742  26.488  1.00  0.00     0.036 A 
ATOM     16  C   UNL A   1      33.580  24.315  26.431  1.00  0.00     0.025 C 
ATOM     17  C   UNL A   1      32.077  22.857  25.154  1.00  0.00     0.314 C 
BRANCH   9  18
ATOM     18  C   UNL A   1      30.082  25.907  23.412  1.00  0.00     0.036 C 
ATOM     19  C   UNL A   1      28.757  26.516  23.841  1.00  0.00     0.009 C 
ENDBRANCH   9  18
BRANCH  12  20
ATOM     20  S   UNL A   1      32.380  29.457  26.638  1.00  0.00     0.310 S 
ATOM     21  F   UNL A   1      33.538  29.030  27.634  1.00  0.00    -0.094 F 
ATOM     22  F   UNL A   1      31.357  29.098  27.781  1.00  0.00    -0.094 F 
ATOM     23  F   UNL A   1      32.526  30.906  27.186  1.00  0.00    -0.094 F 
ATOM     24  F   UNL A   1      33.506  29.757  25.572  1.00  0.00    -0.094 F 
ATOM     25  F   UNL A   1      32.326  27.958  26.139  1.00  0.00    -0.094 F 
ENDBRANCH  12  20
BRANCH  17  26
ATOM     26  C   UNL A   1      32.328  21.656  24.258  1.00  0.00     0.429 C 
ATOM     27  F   UNL A   1      31.569  21.748  23.170  1.00  0.00    -0.167 F 
ATOM     28  F   UNL A   1      33.609  21.627  23.904  1.00  0.00    -0.167 F 
ATOM     29  F   UNL A   1      32.025  20.541  24.917  1.00  0.00    -0.167 F 
ENDBRANCH  17  26
ENDBRANCH   5   8
ENDBRANCH   3   4
ENDBRANCH   2   3
ENDBRANCH   1   2
BRANCH   1  30
ATOM     30  C   UNL A   1      39.079  21.145  25.800  1.00  0.00     0.116 C 
BRANCH  30  31
ATOM     31  N   UNL A   1      39.785  19.855  25.789  1.00  0.00    -0.352 N 
ATOM     32  C   UNL A   1      41.226  19.802  26.078  1.00  0.00     0.251 C 
ATOM     33  H   UNL A   1      39.293  19.027  25.587  1.00  0.00     0.163 HD
ATOM     34  O   UNL A   1      41.835  18.687  26.067  1.00  0.00    -0.269 OA
BRANCH  32  35
ATOM     35  C   UNL A   1      41.986  21.081  26.388  1.00  0.00     0.039 A 
ATOM     36  C   UNL A   1      42.287  21.377  27.707  1.00  0.00     0.014 A 
ATOM     37  C   UNL A   1      42.256  21.938  25.410  1.00  0.00     0.014 A 
ATOM     38  C   UNL A   1      42.610  22.736  27.930  1.00  0.00     0.010 A 
ATOM     39  C   UNL A   1      42.698  23.208  25.696  1.00  0.00     0.010 A 
ATOM     40  C   UNL A   1      42.959  23.588  26.984  1.00  0.00    -0.014 A 
BRANCH  40  41
ATOM     41  C   UNL A   1      43.616  24.920  27.307  1.00  0.00     0.031 A 
ATOM     42  C   UNL A   1      44.967  25.114  27.012  1.00  0.00     0.074 A 
ATOM     43  C   UNL A   1      42.781  25.911  27.794  1.00  0.00     0.049 A 
ATOM     44  N   UNL A   1      45.667  26.246  27.107  1.00  0.00    -0.248 NA
ATOM     45  C   UNL A   1      45.865  24.055  26.528  1.00  0.00     0.031 C 
ATOM     46  C   UNL A   1      41.415  25.725  28.086  1.00  0.00     0.029 A 
ATOM     47  N   UNL A   1      43.099  27.219  28.081  1.00  0.00    -0.354 N 
ATOM     48  C   UNL A   1      46.927  26.043  26.720  1.00  0.00     0.074 A 
ATOM     49  C   UNL A   1      47.074  24.630  26.346  1.00  0.00     0.031 C 
ATOM     50  C   UNL A   1      40.919  26.902  28.552  1.00  0.00     0.029 A 
ATOM     51  C   UNL A   1      41.968  27.843  28.560  1.00  0.00     0.049 A 
ATOM     52  H   UNL A   1      43.982  27.638  27.964  1.00  0.00     0.167 HD
ATOM     53  C   UNL A   1      47.959  26.981  26.660  1.00  0.00     0.031 A 
ATOM     54  C   UNL A   1      41.837  29.155  28.986  1.00  0.00     0.031 A 
ATOM     55  C   UNL A   1      47.817  28.305  27.044  1.00  0.00     0.049 A 
ATOM     56  C   UNL A   1      42.884  30.079  28.980  1.00  0.00     0.074 A 
ATOM     57  C   UNL A   1      48.845  29.266  26.983  1.00  0.00     0.029 A 
ATOM     58  N   UNL A   1      46.692  28.922  27.547  1.00  0.00    -0.354 N 
ATOM     59  N   UNL A   1      44.133  29.886  28.555  1.00  0.00    -0.248 NA
ATOM     60  C   UNL A   1      42.766  31.463  29.459  1.00  0.00     0.031 C 
ATOM     61  C   UNL A   1      48.349  30.443  27.451  1.00  0.00     0.029 A 
ATOM     62  C   UNL A   1      47.004  30.236  27.812  1.00  0.00     0.049 A 
ATOM     63  H   UNL A   1      45.815  28.496  27.690  1.00  0.00     0.167 HD
ATOM     64  C   UNL A   1      44.844  31.008  28.690  1.00  0.00     0.074 A 
ATOM     65  C   UNL A   1      43.976  32.037  29.280  1.00  0.00     0.031 C 
ATOM     66  C   UNL A   1      46.179  31.217  28.341  1.00  0.00     0.031 A 
BRANCH  53  67
ATOM     67  C   UNL A   1      49.314  26.525  26.143  1.00  0.00    -0.014 A 
ATOM     68  C   UNL A   1      50.164  25.832  26.987  1.00  0.00     0.010 A 
ATOM     69  C   UNL A   1      49.659  26.799  24.891  1.00  0.00     0.010 A 
ATOM     70  C   UNL A   1      51.488  25.720  26.502  1.00  0.00     0.020 A 
ATOM     71  C   UNL A   1      50.931  26.539  24.443  1.00  0.00     0.020 A 
ATOM     72  C   UNL A   1      51.843  25.909  25.244  1.00  0.00     0.054 A 
BRANCH  72  73
ATOM     73  S   UNL A   1      53.449  25.364  24.613  1.00  0.00     0.124 S 
ATOM     74  O   UNL A   1      53.579  23.849  24.791  1.00  0.00    -0.237 OA
ATOM     75  O   UNL A   1      53.559  25.714  23.127  1.00  0.00    -0.237 OA
ATOM     76  O   UNL A   1      54.699  26.148  25.477  1.00  0.00    -0.744 OA
ENDBRANCH  72  73
ENDBRANCH  53  67
BRANCH  54  77
ATOM     77  C   UNL A   1      40.478  29.615  29.486  1.00  0.00    -0.014 A 
ATOM     78  C   UNL A   1      39.526  30.039  28.573  1.00  0.00     0.010 A 
ATOM     79  C   UNL A   1      40.224  29.602  30.789  1.00  0.00     0.010 A 
ATOM     80  C   UNL A   1      38.427  30.709  29.161  1.00  0.00     0.020 A 
ATOM     81  C   UNL A   1      39.067  30.155  31.283  1.00  0.00     0.020 A 
ATOM     82  C   UNL A   1      38.108  30.647  30.441  1.00  0.00     0.054 A 
BRANCH  82  83
ATOM     83  S   UNL A   1      36.490  31.183  31.048  1.00  0.00     0.124 S 
ATOM     84  O   UNL A   1      35.506  31.261  29.878  1.00  0.00    -0.237 OA
ATOM     85  O   UNL A   1      35.974  30.180  32.083  1.00  0.00    -0.237 OA
ATOM     86  O   UNL A   1      36.636  32.725  31.773  1.00  0.00    -0.744 OA
ENDBRANCH  82  83
ENDBRANCH  54  77
BRANCH  66  87
ATOM     87  C   UNL A   1      46.765  32.604  28.553  1.00  0.00    -0.014 A 
ATOM     88  C   UNL A   1      46.708  33.544  27.536  1.00  0.00     0.010 A 
ATOM     89  C   UNL A   1      47.380  32.865  29.700  1.00  0.00     0.010 A 
ATOM     90  C   UNL A   1      47.588  34.637  27.718  1.00  0.00     0.020 A 
ATOM     91  C   UNL A   1      48.111  34.019  29.854  1.00  0.00     0.020 A 
ATOM     92  C   UNL A   1      48.148  34.965  28.867  1.00  0.00     0.054 A 
BRANCH  92  93
ATOM     93  S   UNL A   1      48.923  36.580  29.125  1.00  0.00     0.124 S 
ATOM     94  O   UNL A   1      49.734  36.556  30.423  1.00  0.00    -0.237 OA
ATOM     95  O   UNL A   1      49.853  36.892  27.950  1.00  0.00    -0.237 OA
ATOM     96  O   UNL A   1      47.714  37.784  29.229  1.00  0.00    -0.744 OA
ENDBRANCH  92  93
ENDBRANCH  66  87
ENDBRANCH  40  41
ENDBRANCH  32  35
ENDBRANCH  30  31
ENDBRANCH   1  30
TORSDOF 17
ENDMDL
MODEL 2
REMARK VINA RESULT:     -12.0      3.896      8.996
REMARK SMILES CCc1cc(S(F)(F)(F)(F)F)cc2c1O[C@@H](C(F)(F)F)C(C(=O)NCCCCNC(=O)c1ccc(-c3c4nc(c(-c5ccc(S(=O)(=O)[O-])cc5)c5ccc([nH]5)c(-c5ccc(S(=O)(=O)[O-])cc5)c5nc(c(-c6ccc(S(=O)(=O)[O-])cc6)c6ccc3[nH]6)C=C5)C=C4)cc1)=C2
REMARK SMILES IDX 27 1 26 2 25 3 24 4 22 5 23 6 21 8 3 9 4 10 14 11 5 12 13 13
REMARK SMILES IDX 15 14 12 15 92 16 16 17 2 18 1 19 6 20 7 21 8 22 9 23 10 24
REMARK SMILES IDX 11 25 17 26 18 27 19 28 20 29 28 30 29 31 30 32 31 34 32 35
REMARK SMILES IDX 33 36 91 37 34 38 90 39 35 40 36 41 37 42 84 43 38 44 89 45
REMARK SMILES IDX 83 46 85 47 39 48 88 49 82 50 81 51 40 53 70 54 51 55 69 56
REMARK SMILES IDX 52 57 55 58 68 59 86 60 53 61 54 62 67 64 87 65 56 66 41 67
REMARK SMILES IDX 42 68 50 69 43 70 49 71 44 72 45 73 46 74 47 75 48 76 71 77
REMARK SMILES IDX 72 78 80 79 73 80 79 81 74 82 75 83 76 84 77 85 78 86 57 87
REMARK SMILES IDX 58 88 66 89 59 90 65 91 60 92 61 93 62 94 63 95 64 96
REMARK H PARENT 24 7 29 33 85 52 55 63
REMARK Flexibility Score: inf
ROOT
ATOM      1  C   UNL A   1      35.635  23.475  25.029  1.00  0.00     0.023 C 
ENDROOT
BRANCH   1   2
ATOM      2  C   UNL A   1      35.420  22.140  24.336  1.00  0.00     0.023 C 
BRANCH   2   3
ATOM      3  C   UNL A   1      34.191  22.222  23.446  1.00  0.00     0.116 C 
BRANCH   3   4
ATOM      4  N   UNL A   1      33.153  21.316  23.958  1.00  0.00    -0.352 N 
ATOM      5  C   UNL A   1      32.018  21.854  24.720  1.00  0.00     0.251 C 
ATOM      6  O   UNL A   1      31.121  21.071  25.163  1.00  0.00    -0.270 OA
ATOM      7  H   UNL A   1      33.219  20.348  23.790  1.00  0.00     0.163 HD
BRANCH   5   8
ATOM      8  C   UNL A   1      31.917  23.349  24.979  1.00  0.00     0.067 C 
ATOM      9  C   UNL A   1      31.259  27.343  26.012  1.00  0.00    -0.004 A 
ATOM     10  C   UNL A   1      30.757  28.225  25.073  1.00  0.00     0.032 A 
ATOM     11  C   UNL A   1      31.415  26.024  25.662  1.00  0.00     0.131 A 
ATOM     12  C   UNL A   1      30.415  27.798  23.817  1.00  0.00     0.108 A 
ATOM     13  C   UNL A   1      31.099  25.560  24.397  1.00  0.00     0.019 A 
ATOM     14  O   UNL A   1      31.808  25.140  26.636  1.00  0.00    -0.475 OA
ATOM     15  C   UNL A   1      30.591  26.472  23.479  1.00  0.00     0.036 A 
ATOM     16  C   UNL A   1      31.263  24.140  24.136  1.00  0.00     0.025 C 
ATOM     17  C   UNL A   1      32.564  23.972  26.209  1.00  0.00     0.314 C 
BRANCH   9  18
ATOM     18  C   UNL A   1      31.824  27.773  27.356  1.00  0.00     0.036 C 
ATOM     19  C   UNL A   1      33.217  28.350  27.158  1.00  0.00     0.009 C 
ENDBRANCH   9  18
BRANCH  12  20
ATOM     20  S   UNL A   1      29.737  28.963  22.610  1.00  0.00     0.310 S 
ATOM     21  F   UNL A   1      29.703  30.165  23.645  1.00  0.00    -0.094 F 
ATOM     22  F   UNL A   1      28.286  28.592  23.099  1.00  0.00    -0.094 F 
ATOM     23  F   UNL A   1      29.159  29.943  21.549  1.00  0.00    -0.094 F 
ATOM     24  F   UNL A   1      31.198  29.427  22.230  1.00  0.00    -0.094 F 
ATOM     25  F   UNL A   1      30.338  28.058  23.759  1.00  0.00    -0.094 F 
ENDBRANCH  12  20
BRANCH  17  26
ATOM     26  C   UNL A   1      32.576  22.950  27.333  1.00  0.00     0.429 C 
ATOM     27  F   UNL A   1      31.329  22.583  27.613  1.00  0.00    -0.167 F 
ATOM     28  F   UNL A   1      33.277  21.885  26.957  1.00  0.00    -0.167 F 
ATOM     29  F   UNL A   1      33.134  23.488  28.415  1.00  0.00    -0.167 F 
ENDBRANCH  17  26
ENDBRANCH   5   8
ENDBRANCH   3   4
ENDBRANCH   2   3
ENDBRANCH   1   2
BRANCH   1  30
ATOM     30  C   UNL A   1      37.109  23.839  24.981  1.00  0.00     0.116 C 
BRANCH  30  31
ATOM     31  N   UNL A   1      37.917  22.660  25.326  1.00  0.00    -0.352 N 
ATOM     32  C   UNL A   1      39.064  22.795  26.237  1.00  0.00     0.251 C 
ATOM     33  H   UNL A   1      37.690  21.781  24.946  1.00  0.00     0.163 HD
ATOM     34  O   UNL A   1      39.762  21.776  26.534  1.00  0.00    -0.269 OA
BRANCH  32  35
ATOM     35  C   UNL A   1      39.414  24.153  26.822  1.00  0.00     0.039 A 
ATOM     36  C   UNL A   1      40.246  24.996  26.106  1.00  0.00     0.014 A 
ATOM     37  C   UNL A   1      39.006  24.465  28.047  1.00  0.00     0.014 A 
ATOM     38  C   UNL A   1      40.834  26.020  26.885  1.00  0.00     0.010 A 
ATOM     39  C   UNL A   1      39.523  25.560  28.699  1.00  0.00     0.010 A 
ATOM     40  C   UNL A   1      40.397  26.403  28.071  1.00  0.00    -0.014 A 
BRANCH  40  41
ATOM     41  C   UNL A   1      40.841  27.711  28.705  1.00  0.00     0.031 A 
ATOM     42  C   UNL A   1      39.938  28.770  28.810  1.00  0.00     0.074 A 
ATOM     43  C   UNL A   1      42.119  27.728  29.239  1.00  0.00     0.049 A 
ATOM     44  N   UNL A   1      40.114  29.930  29.444  1.00  0.00    -0.248 NA
ATOM     45  C   UNL A   1      38.594  28.769  28.213  1.00  0.00     0.031 C 
ATOM     46  C   UNL A   1      43.033  26.660  29.145  1.00  0.00     0.029 A 
ATOM     47  N   UNL A   1      42.729  28.745  29.938  1.00  0.00    -0.354 N 
ATOM     48  C   UNL A   1      39.018  30.684  29.340  1.00  0.00     0.074 A 
ATOM     49  C   UNL A   1      38.026  29.950  28.542  1.00  0.00     0.031 C 
ATOM     50  C   UNL A   1      44.182  27.032  29.769  1.00  0.00     0.029 A 
ATOM     51  C   UNL A   1      44.005  28.339  30.263  1.00  0.00     0.049 A 
ATOM     52  H   UNL A   1      42.324  29.612  30.167  1.00  0.00     0.167 HD
ATOM     53  C   UNL A   1      38.805  31.953  29.880  1.00  0.00     0.031 A 
ATOM     54  C   UNL A   1      44.974  29.053  30.950  1.00  0.00     0.031 A 
ATOM     55  C   UNL A   1      39.759  32.650  30.605  1.00  0.00     0.049 A 
ATOM     56  C   UNL A   1      44.781  30.346  31.442  1.00  0.00     0.074 A 
ATOM     57  C   UNL A   1      39.558  33.926  31.164  1.00  0.00     0.029 A 
ATOM     58  N   UNL A   1      41.044  32.253  30.908  1.00  0.00    -0.354 N 
ATOM     59  N   UNL A   1      43.672  31.082  31.371  1.00  0.00    -0.248 NA
ATOM     60  C   UNL A   1      45.811  31.125  32.142  1.00  0.00     0.031 C 
ATOM     61  C   UNL A   1      40.708  34.299  31.788  1.00  0.00     0.029 A 
ATOM     62  C   UNL A   1      41.646  33.260  31.628  1.00  0.00     0.049 A 
ATOM     63  H   UNL A   1      41.459  31.396  30.655  1.00  0.00     0.167 HD
ATOM     64  C   UNL A   1      43.863  32.260  31.970  1.00  0.00     0.074 A 
ATOM     65  C   UNL A   1      45.244  32.306  32.469  1.00  0.00     0.031 C 
ATOM     66  C   UNL A   1      42.940  33.295  32.125  1.00  0.00     0.031 A 
BRANCH  53  67
ATOM     67  C   UNL A   1      37.450  32.607  29.663  1.00  0.00    -0.014 A 
ATOM     68  C   UNL A   1      37.246  33.391  28.540  1.00  0.00     0.010 A 
ATOM     69  C   UNL A   1      36.485  32.415  30.554  1.00  0.00     0.010 A 
ATOM     70  C   UNL A   1      36.069  34.172  28.593  1.00  0.00     0.020 A 
ATOM     71  C   UNL A   1      35.305  33.114  30.468  1.00  0.00     0.020 A 
ATOM     72  C   UNL A   1      35.059  33.952  29.415  1.00  0.00     0.054 A 
BRANCH  72  73
ATOM     73  S   UNL A   1      33.439  34.717  29.164  1.00  0.00     0.124 S 
ATOM     74  O   UNL A   1      32.688  34.771  30.497  1.00  0.00    -0.237 OA
ATOM     75  O   UNL A   1      33.623  36.138  28.626  1.00  0.00    -0.237 OA
ATOM     76  O   UNL A   1      32.539  33.793  28.041  1.00  0.00    -0.744 OA
ENDBRANCH  72  73
ENDBRANCH  53  67
BRANCH  54  77
ATOM     77  C   UNL A   1      46.322  28.391  31.182  1.00  0.00    -0.014 A 
ATOM     78  C   UNL A   1      47.313  28.513  30.222  1.00  0.00     0.010 A 
ATOM     79  C   UNL A   1      46.528  27.705  32.301  1.00  0.00     0.010 A 
ATOM     80  C   UNL A   1      48.401  27.626  30.405  1.00  0.00     0.020 A 
ATOM     81  C   UNL A   1      47.675  26.968  32.469  1.00  0.00     0.020 A 
ATOM     82  C   UNL A   1      48.672  26.995  31.534  1.00  0.00     0.054 A 
BRANCH  82  83
ATOM     83  S   UNL A   1      50.276  26.209  31.825  1.00  0.00     0.124 S 
ATOM     84  O   UNL A   1      50.956  26.867  33.027  1.00  0.00    -0.237 OA
ATOM     85  O   UNL A   1      50.070  24.718  32.107  1.00  0.00    -0.237 OA
ATOM     86  O   UNL A   1      51.261  26.396  30.440  1.00  0.00    -0.744 OA
ENDBRANCH  82  83
ENDBRANCH  54  77
BRANCH  66  87
ATOM     87  C   UNL A   1      43.379  34.536  32.886  1.00  0.00    -0.014 A 
ATOM     88  C   UNL A   1      43.193  34.612  34.256  1.00  0.00     0.010 A 
ATOM     89  C   UNL A   1      43.879  35.557  32.200  1.00  0.00     0.010 A 
ATOM     90  C   UNL A   1      43.299  35.924  34.777  1.00  0.00     0.020 A 
ATOM     91  C   UNL A   1      44.085  36.773  32.807  1.00  0.00     0.020 A 
ATOM     92  C   UNL A   1      43.866  36.936  34.147  1.00  0.00     0.054 A 
BRANCH  92  93
ATOM     93  S   UNL A   1      44.328  38.458  35.010  1.00  0.00     0.124 S 
ATOM     94  O   UNL A   1      43.564  39.639  34.407  1.00  0.00    -0.237 OA
ATOM     95  O   UNL A   1      43.978  38.329  36.494  1.00  0.00    -0.237 OA
ATOM     96  O   UNL A   1      46.009  38.722  34.842  1.00  0.00    -0.744 OA
ENDBRANCH  92  93
ENDBRANCH  66  87
ENDBRANCH  40  41
ENDBRANCH  32  35
ENDBRANCH  30  31
ENDBRANCH   1  30
TORSDOF 17
ENDMDL
MODEL 3
REMARK VINA RESULT:     -11.9      2.291      8.471
REMARK SMILES CCc1cc(S(F)(F)(F)(F)F)cc2c1O[C@@H](C(F)(F)F)C(C(=O)NCCCCNC(=O)c1ccc(-c3c4nc(c(-c5ccc(S(=O)(=O)[O-])cc5)c5ccc([nH]5)c(-c5ccc(S(=O)(=O)[O-])cc5)c5nc(c(-c6ccc(S(=O)(=O)[O-])cc6)c6ccc3[nH]6)C=C5)C=C4)cc1)=C2
REMARK SMILES IDX 27 1 26 2 25 3 24 4 22 5 23 6 21 8 3 9 4 10 14 11 5 12 13 13
REMARK SMILES IDX 15 14 12 15 92 16 16 17 2 18 1 19 6 20 7 21 8 22 9 23 10 24
REMARK SMILES IDX 11 25 17 26 18 27 19 28 20 29 28 30 29 31 30 32 31 34 32 35
REMARK SMILES IDX 33 36 91 37 34 38 90 39 35 40 36 41 37 42 84 43 38 44 89 45
REMARK SMILES IDX 83 46 85 47 39 48 88 49 82 50 81 51 40 53 70 54 51 55 69 56
REMARK SMILES IDX 52 57 55 58 68 59 86 60 53 61 54 62 67 64 87 65 56 66 41 67
REMARK SMILES IDX 42 68 50 69 43 70 49 71 44 72 45 73 46 74 47 75 48 76 71 77
REMARK SMILES IDX 72 78 80 79 73 80 79 81 74 82 75 83 76 84 77 85 78 86 57 87
REMARK SMILES IDX 58 88 66 89 59 90 65 91 60 92 61 93 62 94 63 95 64 96
REMARK H PARENT 24 7 29 33 85 52 55 63
REMARK Flexibility Score: inf
ROOT
ATOM      1  C   UNL A   1      36.479  24.017  24.984  1.00  0.00     0.023 C 
ENDROOT
BRANCH   1   2
ATOM      2  C   UNL A   1      36.052  22.852  24.107  1.00  0.00     0.023 C 
BRANCH   2   3
ATOM      3  C   UNL A   1      34.586  23.007  23.736  1.00  0.00     0.116 C 
BRANCH   3   4
ATOM      4  N   UNL A   1      33.756  22.279  24.705  1.00  0.00    -0.352 N 
ATOM      5  C   UNL A   1      32.773  23.004  25.523  1.00  0.00     0.251 C 
ATOM      6  O   UNL A   1      32.055  22.374  26.361  1.00  0.00    -0.270 OA
ATOM      7  H   UNL A   1      33.858  21.304  24.806  1.00  0.00     0.163 HD
BRANCH   5   8
ATOM      8  C   UNL A   1      32.615  24.507  25.366  1.00  0.00     0.067 C 
ATOM      9  C   UNL A   1      32.431  28.588  24.492  1.00  0.00    -0.004 A 
ATOM     10  C   UNL A   1      33.136  29.492  25.266  1.00  0.00     0.032 A 
ATOM     11  C   UNL A   1      32.552  27.248  24.768  1.00  0.00     0.131 A 
ATOM     12  C   UNL A   1      33.944  29.067  26.287  1.00  0.00     0.108 A 
ATOM     13  C   UNL A   1      33.343  26.782  25.803  1.00  0.00     0.019 A 
ATOM     14  O   UNL A   1      31.937  26.358  23.923  1.00  0.00    -0.475 OA
ATOM     15  C   UNL A   1      34.042  27.717  26.558  1.00  0.00     0.036 A 
ATOM     16  C   UNL A   1      33.436  25.344  25.990  1.00  0.00     0.025 C 
ATOM     17  C   UNL A   1      31.512  25.087  24.491  1.00  0.00     0.314 C 
BRANCH   9  18
ATOM     18  C   UNL A   1      31.385  28.992  23.467  1.00  0.00     0.036 C 
ATOM     19  C   UNL A   1      30.273  29.768  24.156  1.00  0.00     0.009 C 
ENDBRANCH   9  18
BRANCH  12  20
ATOM     20  S   UNL A   1      34.876  30.264  27.273  1.00  0.00     0.310 S 
ATOM     21  F   UNL A   1      35.104  29.248  28.469  1.00  0.00    -0.094 F 
ATOM     22  F   UNL A   1      33.536  30.693  27.982  1.00  0.00    -0.094 F 
ATOM     23  F   UNL A   1      35.679  31.314  28.093  1.00  0.00    -0.094 F 
ATOM     24  F   UNL A   1      36.227  29.727  26.655  1.00  0.00    -0.094 F 
ATOM     25  F   UNL A   1      34.091  29.119  26.517  1.00  0.00    -0.094 F 
ENDBRANCH  12  20
BRANCH  17  26
ATOM     26  C   UNL A   1      31.212  24.115  23.362  1.00  0.00     0.429 C 
ATOM     27  F   UNL A   1      30.174  24.558  22.659  1.00  0.00    -0.167 F 
ATOM     28  F   UNL A   1      32.274  24.014  22.569  1.00  0.00    -0.167 F 
ATOM     29  F   UNL A   1      30.924  22.920  23.872  1.00  0.00    -0.167 F 
ENDBRANCH  17  26
ENDBRANCH   5   8
ENDBRANCH   3   4
ENDBRANCH   2   3
ENDBRANCH   1   2
BRANCH   1  30
ATOM     30  C   UNL A   1      36.919  23.495  26.341  1.00  0.00     0.116 C 
BRANCH  30  31
ATOM     31  N   UNL A   1      37.688  22.254  26.164  1.00  0.00    -0.352 N 
ATOM     32  C   UNL A   1      39.145  22.257  26.361  1.00  0.00     0.251 C 
ATOM     33  H   UNL A   1      37.227  21.422  25.911  1.00  0.00     0.163 HD
ATOM     34  O   UNL A   1      39.809  21.185  26.207  1.00  0.00    -0.269 OA
BRANCH  32  35
ATOM     35  C   UNL A   1      39.857  23.543  26.750  1.00  0.00     0.039 A 
ATOM     36  C   UNL A   1      40.206  23.740  28.075  1.00  0.00     0.014 A 
ATOM     37  C   UNL A   1      40.037  24.494  25.841  1.00  0.00     0.014 A 
ATOM     38  C   UNL A   1      40.473  25.090  28.403  1.00  0.00     0.010 A 
ATOM     39  C   UNL A   1      40.432  25.756  26.217  1.00  0.00     0.010 A 
ATOM     40  C   UNL A   1      40.735  26.037  27.521  1.00  0.00    -0.014 A 
BRANCH  40  41
ATOM     41  C   UNL A   1      41.342  27.369  27.931  1.00  0.00     0.031 A 
ATOM     42  C   UNL A   1      40.520  28.376  28.441  1.00  0.00     0.074 A 
ATOM     43  C   UNL A   1      42.722  27.459  27.862  1.00  0.00     0.049 A 
ATOM     44  N   UNL A   1      40.893  29.545  28.964  1.00  0.00    -0.248 NA
ATOM     45  C   UNL A   1      39.052  28.298  28.483  1.00  0.00     0.031 C 
ATOM     46  C   UNL A   1      43.559  26.443  27.357  1.00  0.00     0.029 A 
ATOM     47  N   UNL A   1      43.521  28.509  28.253  1.00  0.00    -0.354 N 
ATOM     48  C   UNL A   1      39.823  30.235  29.360  1.00  0.00     0.074 A 
ATOM     49  C   UNL A   1      38.623  29.446  29.052  1.00  0.00     0.031 C 
ATOM     50  C   UNL A   1      44.844  26.880  27.432  1.00  0.00     0.029 A 
ATOM     51  C   UNL A   1      44.831  28.175  27.985  1.00  0.00     0.049 A 
ATOM     52  H   UNL A   1      43.212  29.352  28.654  1.00  0.00     0.167 HD
ATOM     53  C   UNL A   1      39.800  31.491  29.970  1.00  0.00     0.031 A 
ATOM     54  C   UNL A   1      45.964  28.944  28.203  1.00  0.00     0.031 A 
ATOM     55  C   UNL A   1      40.936  32.241  30.228  1.00  0.00     0.049 A 
ATOM     56  C   UNL A   1      45.937  30.224  28.760  1.00  0.00     0.074 A 
ATOM     57  C   UNL A   1      40.932  33.505  30.847  1.00  0.00     0.029 A 
ATOM     58  N   UNL A   1      42.244  31.918  29.937  1.00  0.00    -0.354 N 
ATOM     59  N   UNL A   1      44.870  30.897  29.192  1.00  0.00    -0.248 NA
ATOM     60  C   UNL A   1      47.127  31.061  28.965  1.00  0.00     0.031 C 
ATOM     61  C   UNL A   1      42.218  33.942  30.922  1.00  0.00     0.029 A 
ATOM     62  C   UNL A   1      43.046  32.958  30.349  1.00  0.00     0.049 A 
ATOM     63  H   UNL A   1      42.552  31.085  29.510  1.00  0.00     0.167 HD
ATOM     64  C   UNL A   1      45.241  32.084  29.677  1.00  0.00     0.074 A 
ATOM     65  C   UNL A   1      46.697  32.209  29.532  1.00  0.00     0.031 C 
ATOM     66  C   UNL A   1      44.424  33.066  30.240  1.00  0.00     0.031 A 
BRANCH  53  67
ATOM     67  C   UNL A   1      38.453  32.068  30.374  1.00  0.00    -0.014 A 
ATOM     68  C   UNL A   1      37.840  33.001  29.555  1.00  0.00     0.010 A 
ATOM     69  C   UNL A   1      37.886  31.666  31.506  1.00  0.00     0.010 A 
ATOM     70  C   UNL A   1      36.755  33.674  30.165  1.00  0.00     0.020 A 
ATOM     71  C   UNL A   1      36.749  32.279  31.974  1.00  0.00     0.020 A 
ATOM     72  C   UNL A   1      36.123  33.252  31.244  1.00  0.00     0.054 A 
BRANCH  72  73
ATOM     73  S   UNL A   1      34.515  33.923  31.733  1.00  0.00     0.124 S 
ATOM     74  O   UNL A   1      33.695  34.244  30.481  1.00  0.00    -0.237 OA
ATOM     75  O   UNL A   1      33.768  32.891  32.581  1.00  0.00    -0.237 OA
ATOM     76  O   UNL A   1      34.746  35.351  32.645  1.00  0.00    -0.744 OA
ENDBRANCH  72  73
ENDBRANCH  53  67
BRANCH  54  77
ATOM     77  C   UNL A   1      47.312  28.359  27.814  1.00  0.00    -0.014 A 
ATOM     78  C   UNL A   1      47.815  28.595  26.546  1.00  0.00     0.010 A 
ATOM     79  C   UNL A   1      47.985  27.629  28.697  1.00  0.00     0.010 A 
ATOM     80  C   UNL A   1      48.914  27.773  26.203  1.00  0.00     0.020 A 
ATOM     81  C   UNL A   1      49.127  26.960  28.327  1.00  0.00     0.020 A 
ATOM     82  C   UNL A   1      49.648  27.101  27.072  1.00  0.00     0.054 A 
BRANCH  82  83
ATOM     83  S   UNL A   1      51.258  26.406  26.624  1.00  0.00     0.124 S 
ATOM     84  O   UNL A   1      52.356  27.097  27.436  1.00  0.00    -0.237 OA
ATOM     85  O   UNL A   1      51.268  24.905  26.924  1.00  0.00    -0.237 OA
ATOM     86  O   UNL A   1      51.541  26.654  24.956  1.00  0.00    -0.744 OA
ENDBRANCH  82  83
ENDBRANCH  54  77
BRANCH  66  87
ATOM     87  C   UNL A   1      45.084  34.331  30.765  1.00  0.00    -0.014 A 
ATOM     88  C   UNL A   1      45.274  35.416  29.924  1.00  0.00     0.010 A 
ATOM     89  C   UNL A   1      45.527  34.343  32.017  1.00  0.00     0.010 A 
ATOM     90  C   UNL A   1      46.203  36.364  30.414  1.00  0.00     0.020 A 
ATOM     91  C   UNL A   1      46.320  35.371  32.468  1.00  0.00     0.020 A 
ATOM     92  C   UNL A   1      46.596  36.448  31.671  1.00  0.00     0.054 A 
BRANCH  92  93
ATOM     93  S   UNL A   1      47.456  37.907  32.306  1.00  0.00     0.124 S 
ATOM     94  O   UNL A   1      46.449  39.038  32.526  1.00  0.00    -0.237 OA
ATOM     95  O   UNL A   1      48.132  37.563  33.635  1.00  0.00    -0.237 OA
ATOM     96  O   UNL A   1      48.640  38.409  31.179  1.00  0.00    -0.744 OA
ENDBRANCH  92  93
ENDBRANCH  66  87
ENDBRANCH  40  41
ENDBRANCH  32  35
ENDBRANCH  30  31
ENDBRANCH   1  30
TORSDOF 17
ENDMDL
