MODEL 1
REMARK VINA RESULT:     -12.6      0.000      0.000
REMARK SMILES O=C(NCCCCNC(=O)c1nnn(-c2cccc(C(F)(F)F)c2)c1[C@H]1COc2ccccc2O1)c1ccc(-c2c3nc(c(-c4ccc(S(=O)(=O)[O-])cc4)c4ccc([nH]4)c(-c4ccc(S(=O)(=O)[O-])cc4)c4nc(c(-c5ccc(S(=O)(=O)[O-])cc5)c5ccc2[nH]5)C=C4)C=C3)cc1
REMARK SMILES IDX 5 1 4 2 3 3 1 4 2 5 36 7 37 8 95 9 38 10 94 11 39 12 40 13
REMARK SMILES IDX 41 14 88 15 42 16 93 17 87 18 89 19 43 20 92 21 86 22 85 23
REMARK SMILES IDX 44 25 74 26 55 27 73 28 56 29 59 30 72 31 90 32 57 33 58 34
REMARK SMILES IDX 71 36 91 37 60 38 45 39 46 40 54 41 47 42 53 43 48 44 49 45
REMARK SMILES IDX 50 46 51 47 52 48 75 49 76 50 84 51 77 52 83 53 78 54 79 55
REMARK SMILES IDX 80 56 81 57 82 58 61 59 62 60 70 61 63 62 69 63 64 64 65 65
REMARK SMILES IDX 66 66 67 67 68 68 6 69 7 70 8 71 9 72 10 74 11 75 12 76
REMARK SMILES IDX 25 77 13 78 14 79 26 80 27 81 35 82 28 83 34 84 29 85 33 86
REMARK SMILES IDX 30 87 32 88 31 89 15 90 16 91 24 92 17 93 19 94 18 95 20 96
REMARK SMILES IDX 21 97 22 98 23 99
REMARK H PARENT 3 6 89 24 59 35 8 73
REMARK Flexibility Score: inf
ROOT
ATOM      1  C   UNL A   1      35.629  22.558  24.924  1.00  0.00     0.023 C 
ENDROOT
BRANCH   1   2
ATOM      2  C   UNL A   1      36.986  23.166  24.560  1.00  0.00     0.116 C 
BRANCH   2   3
ATOM      3  N   UNL A   1      38.149  22.353  24.856  1.00  0.00    -0.352 N 
ATOM      4  O   UNL A   1      39.637  21.237  26.073  1.00  0.00    -0.269 OA
ATOM      5  C   UNL A   1      39.004  22.285  25.923  1.00  0.00     0.251 C 
ATOM      6  H   UNL A   1      38.370  21.717  24.138  1.00  0.00     0.163 HD
BRANCH   5   7
ATOM      7  C   UNL A   1      39.296  23.433  26.812  1.00  0.00     0.039 A 
ATOM      8  C   UNL A   1      38.531  24.596  26.889  1.00  0.00     0.014 A 
ATOM      9  C   UNL A   1      40.493  23.353  27.546  1.00  0.00     0.014 A 
ATOM     10  C   UNL A   1      39.021  25.714  27.544  1.00  0.00     0.010 A 
ATOM     11  C   UNL A   1      40.968  24.455  28.240  1.00  0.00     0.010 A 
ATOM     12  C   UNL A   1      40.257  25.652  28.182  1.00  0.00    -0.014 A 
BRANCH  12  13
ATOM     13  C   UNL A   1      40.718  26.849  28.872  1.00  0.00     0.031 A 
ATOM     14  C   UNL A   1      41.914  27.510  28.272  1.00  0.00     0.074 A 
ATOM     15  C   UNL A   1      40.020  27.402  29.883  1.00  0.00     0.049 A 
ATOM     16  N   UNL A   1      43.032  27.839  28.834  1.00  0.00    -0.248 NA
ATOM     17  C   UNL A   1      41.883  27.748  26.818  1.00  0.00     0.031 C 
ATOM     18  C   UNL A   1      38.688  27.018  30.359  1.00  0.00     0.029 A 
ATOM     19  N   UNL A   1      40.294  28.528  30.597  1.00  0.00    -0.354 N 
ATOM     20  C   UNL A   1      43.776  28.496  27.852  1.00  0.00     0.074 A 
ATOM     21  C   UNL A   1      43.079  28.292  26.607  1.00  0.00     0.031 C 
ATOM     22  C   UNL A   1      38.170  28.037  31.080  1.00  0.00     0.029 A 
ATOM     23  C   UNL A   1      39.179  29.074  31.218  1.00  0.00     0.049 A 
ATOM     24  H   UNL A   1      41.196  28.917  30.667  1.00  0.00     0.167 HD
ATOM     25  C   UNL A   1      44.802  29.341  28.145  1.00  0.00     0.031 A 
ATOM     26  C   UNL A   1      39.058  30.332  31.708  1.00  0.00     0.031 A 
ATOM     27  C   UNL A   1      45.315  29.141  29.470  1.00  0.00     0.049 A 
ATOM     28  C   UNL A   1      40.424  30.875  31.897  1.00  0.00     0.074 A 
ATOM     29  C   UNL A   1      45.916  28.092  30.135  1.00  0.00     0.029 A 
ATOM     30  N   UNL A   1      44.941  30.037  30.442  1.00  0.00    -0.354 N 
ATOM     31  N   UNL A   1      41.275  30.406  32.766  1.00  0.00    -0.248 NA
ATOM     32  C   UNL A   1      41.003  31.675  30.829  1.00  0.00     0.031 C 
ATOM     33  C   UNL A   1      45.442  28.185  31.476  1.00  0.00     0.029 A 
ATOM     34  C   UNL A   1      44.614  29.307  31.555  1.00  0.00     0.049 A 
ATOM     35  H   UNL A   1      44.914  31.018  30.357  1.00  0.00     0.167 HD
ATOM     36  C   UNL A   1      42.512  30.498  32.143  1.00  0.00     0.074 A 
ATOM     37  C   UNL A   1      42.294  31.381  31.000  1.00  0.00     0.031 C 
ATOM     38  C   UNL A   1      43.527  29.637  32.453  1.00  0.00     0.031 A 
BRANCH  25  39
ATOM     39  C   UNL A   1      45.072  30.606  27.361  1.00  0.00    -0.014 A 
ATOM     40  C   UNL A   1      46.379  30.860  26.895  1.00  0.00     0.010 A 
ATOM     41  C   UNL A   1      44.162  31.685  27.327  1.00  0.00     0.010 A 
ATOM     42  C   UNL A   1      46.777  32.150  26.516  1.00  0.00     0.020 A 
ATOM     43  C   UNL A   1      44.537  32.962  26.907  1.00  0.00     0.020 A 
ATOM     44  C   UNL A   1      45.856  33.196  26.550  1.00  0.00     0.054 A 
BRANCH  44  45
ATOM     45  S   UNL A   1      46.416  34.887  26.225  1.00  0.00     0.124 S 
ATOM     46  O   UNL A   1      47.217  34.707  25.018  1.00  0.00    -0.237 OA
ATOM     47  O   UNL A   1      45.155  35.602  26.050  1.00  0.00    -0.237 OA
ATOM     48  O   UNL A   1      47.164  35.236  27.430  1.00  0.00    -0.744 OA
ENDBRANCH  44  45
ENDBRANCH  25  39
BRANCH  26  49
ATOM     49  C   UNL A   1      37.845  31.187  31.658  1.00  0.00    -0.014 A 
ATOM     50  C   UNL A   1      36.897  31.174  32.695  1.00  0.00     0.010 A 
ATOM     51  C   UNL A   1      37.750  32.217  30.697  1.00  0.00     0.010 A 
ATOM     52  C   UNL A   1      35.917  32.178  32.790  1.00  0.00     0.020 A 
ATOM     53  C   UNL A   1      36.772  33.213  30.777  1.00  0.00     0.020 A 
ATOM     54  C   UNL A   1      35.872  33.201  31.837  1.00  0.00     0.054 A 
BRANCH  54  55
ATOM     55  S   UNL A   1      34.707  34.579  32.050  1.00  0.00     0.124 S 
ATOM     56  O   UNL A   1      33.599  33.943  32.755  1.00  0.00    -0.237 OA
ATOM     57  O   UNL A   1      35.487  35.535  32.830  1.00  0.00    -0.237 OA
ATOM     58  O   UNL A   1      34.413  34.996  30.680  1.00  0.00    -0.744 OA
ENDBRANCH  54  55
ENDBRANCH  26  49
BRANCH  38  59
ATOM     59  C   UNL A   1      43.380  28.756  33.671  1.00  0.00    -0.014 A 
ATOM     60  C   UNL A   1      43.702  29.184  34.974  1.00  0.00     0.010 A 
ATOM     61  C   UNL A   1      42.730  27.519  33.514  1.00  0.00     0.010 A 
ATOM     62  C   UNL A   1      43.398  28.387  36.087  1.00  0.00     0.020 A 
ATOM     63  C   UNL A   1      42.409  26.728  34.619  1.00  0.00     0.020 A 
ATOM     64  C   UNL A   1      42.748  27.163  35.902  1.00  0.00     0.054 A 
BRANCH  64  65
ATOM     65  S   UNL A   1      42.291  26.172  37.351  1.00  0.00     0.124 S 
ATOM     66  O   UNL A   1      40.913  26.589  37.599  1.00  0.00    -0.237 OA
ATOM     67  O   UNL A   1      42.458  24.801  36.873  1.00  0.00    -0.237 OA
ATOM     68  O   UNL A   1      43.254  26.583  38.372  1.00  0.00    -0.744 OA
ENDBRANCH  64  65
ENDBRANCH  38  59
ENDBRANCH  12  13
ENDBRANCH   5   7
ENDBRANCH   2   3
ENDBRANCH   1   2
BRANCH   1  69
ATOM     69  C   UNL A   1      34.478  22.822  23.951  1.00  0.00     0.023 C 
BRANCH  69  70
ATOM     70  C   UNL A   1      34.405  24.224  23.371  1.00  0.00     0.116 C 
BRANCH  70  71
ATOM     71  N   UNL A   1      33.398  24.426  22.357  1.00  0.00    -0.351 N 
ATOM     72  C   UNL A   1      32.852  25.630  21.951  1.00  0.00     0.273 C 
ATOM     73  H   UNL A   1      33.062  23.618  21.904  1.00  0.00     0.163 HD
ATOM     74  O   UNL A   1      32.059  25.645  21.021  1.00  0.00    -0.267 OA
BRANCH  72  75
ATOM     75  C   UNL A   1      33.217  26.844  22.679  1.00  0.00     0.178 A 
ATOM     76  N   UNL A   1      33.945  27.839  22.071  1.00  0.00    -0.124 NA
ATOM     77  C   UNL A   1      32.916  27.237  23.978  1.00  0.00     0.122 A 
ATOM     78  N   UNL A   1      34.067  28.847  22.922  1.00  0.00    -0.061 NA
ATOM     79  N   UNL A   1      33.590  28.441  24.112  1.00  0.00    -0.213 N 
BRANCH  77  80
ATOM     80  C   UNL A   1      32.004  26.694  25.036  1.00  0.00     0.262 C 
ATOM     81  C   UNL A   1      30.552  26.604  24.532  1.00  0.00     0.281 C 
ATOM     82  O   UNL A   1      32.538  25.430  25.429  1.00  0.00    -0.477 OA
ATOM     83  O   UNL A   1      29.682  25.991  25.483  1.00  0.00    -0.485 OA
ATOM     84  C   UNL A   1      31.621  24.642  26.067  1.00  0.00     0.162 A 
ATOM     85  C   UNL A   1      30.248  24.890  26.061  1.00  0.00     0.161 A 
ATOM     86  C   UNL A   1      32.123  23.495  26.680  1.00  0.00     0.050 A 
ATOM     87  C   UNL A   1      29.375  23.974  26.642  1.00  0.00     0.050 A 
ATOM     88  C   UNL A   1      31.249  22.574  27.253  1.00  0.00     0.004 A 
ATOM     89  C   UNL A   1      29.874  22.805  27.220  1.00  0.00     0.004 A 
ENDBRANCH  77  80
BRANCH  79  90
ATOM     90  C   UNL A   1      33.682  29.253  25.262  1.00  0.00     0.067 A 
ATOM     91  C   UNL A   1      32.573  29.992  25.675  1.00  0.00     0.028 A 
ATOM     92  C   UNL A   1      34.848  29.220  26.038  1.00  0.00     0.041 A 
ATOM     93  C   UNL A   1      32.599  30.608  26.926  1.00  0.00     0.003 A 
ATOM     94  C   UNL A   1      34.881  29.839  27.293  1.00  0.00     0.058 A 
ATOM     95  C   UNL A   1      33.736  30.518  27.736  1.00  0.00     0.013 A 
BRANCH  94  96
ATOM     96  C   UNL A   1      36.113  29.750  28.161  1.00  0.00     0.416 C 
ATOM     97  F   UNL A   1      35.818  29.709  29.488  1.00  0.00    -0.166 F 
ATOM     98  F   UNL A   1      36.852  28.636  27.902  1.00  0.00    -0.166 F 
ATOM     99  F   UNL A   1      36.962  30.804  28.000  1.00  0.00    -0.166 F 
ENDBRANCH  94  96
ENDBRANCH  79  90
ENDBRANCH  72  75
ENDBRANCH  70  71
ENDBRANCH  69  70
ENDBRANCH   1  69
TORSDOF 17
ENDMDL
MODEL 2
REMARK VINA RESULT:     -12.2      2.308      3.587
REMARK SMILES O=C(NCCCCNC(=O)c1nnn(-c2cccc(C(F)(F)F)c2)c1[C@H]1COc2ccccc2O1)c1ccc(-c2c3nc(c(-c4ccc(S(=O)(=O)[O-])cc4)c4ccc([nH]4)c(-c4ccc(S(=O)(=O)[O-])cc4)c4nc(c(-c5ccc(S(=O)(=O)[O-])cc5)c5ccc2[nH]5)C=C4)C=C3)cc1
REMARK SMILES IDX 5 1 4 2 3 3 1 4 2 5 36 7 37 8 95 9 38 10 94 11 39 12 40 13
REMARK SMILES IDX 41 14 88 15 42 16 93 17 87 18 89 19 43 20 92 21 86 22 85 23
REMARK SMILES IDX 44 25 74 26 55 27 73 28 56 29 59 30 72 31 90 32 57 33 58 34
REMARK SMILES IDX 71 36 91 37 60 38 45 39 46 40 54 41 47 42 53 43 48 44 49 45
REMARK SMILES IDX 50 46 51 47 52 48 75 49 76 50 84 51 77 52 83 53 78 54 79 55
REMARK SMILES IDX 80 56 81 57 82 58 61 59 62 60 70 61 63 62 69 63 64 64 65 65
REMARK SMILES IDX 66 66 67 67 68 68 6 69 7 70 8 71 9 72 10 74 11 75 12 76
REMARK SMILES IDX 25 77 13 78 14 79 26 80 27 81 35 82 28 83 34 84 29 85 33 86
REMARK SMILES IDX 30 87 32 88 31 89 15 90 16 91 24 92 17 93 19 94 18 95 20 96
REMARK SMILES IDX 21 97 22 98 23 99
REMARK H PARENT 3 6 89 24 59 35 8 73
REMARK Flexibility Score: inf
ROOT
ATOM      1  C   UNL A   1      36.486  23.174  23.796  1.00  0.00     0.023 C 
ENDROOT
BRANCH   1   2
ATOM      2  C   UNL A   1      36.985  22.932  25.223  1.00  0.00     0.116 C 
BRANCH   2   3
ATOM      3  N   UNL A   1      38.110  22.030  25.362  1.00  0.00    -0.352 N 
ATOM      4  O   UNL A   1      39.779  20.942  26.348  1.00  0.00    -0.269 OA
ATOM      5  C   UNL A   1      39.220  22.026  26.163  1.00  0.00     0.251 C 
ATOM      6  H   UNL A   1      38.067  21.259  24.752  1.00  0.00     0.163 HD
BRANCH   5   7
ATOM      7  C   UNL A   1      39.846  23.256  26.702  1.00  0.00     0.039 A 
ATOM      8  C   UNL A   1      40.940  23.281  27.564  1.00  0.00     0.014 A 
ATOM      9  C   UNL A   1      39.203  24.465  26.379  1.00  0.00     0.014 A 
ATOM     10  C   UNL A   1      41.287  24.449  28.222  1.00  0.00     0.010 A 
ATOM     11  C   UNL A   1      39.574  25.647  27.001  1.00  0.00     0.010 A 
ATOM     12  C   UNL A   1      40.576  25.620  27.968  1.00  0.00    -0.014 A 
BRANCH  12  13
ATOM     13  C   UNL A   1      40.993  26.825  28.671  1.00  0.00     0.031 A 
ATOM     14  C   UNL A   1      42.217  27.487  28.130  1.00  0.00     0.074 A 
ATOM     15  C   UNL A   1      40.240  27.383  29.639  1.00  0.00     0.049 A 
ATOM     16  N   UNL A   1      43.302  27.827  28.748  1.00  0.00    -0.248 NA
ATOM     17  C   UNL A   1      42.262  27.712  26.675  1.00  0.00     0.031 C 
ATOM     18  C   UNL A   1      38.886  26.996  30.047  1.00  0.00     0.029 A 
ATOM     19  N   UNL A   1      40.470  28.516  30.357  1.00  0.00    -0.354 N 
ATOM     20  C   UNL A   1      44.093  28.479  27.802  1.00  0.00     0.074 A 
ATOM     21  C   UNL A   1      43.465  28.261  26.524  1.00  0.00     0.031 C 
ATOM     22  C   UNL A   1      38.326  28.018  30.730  1.00  0.00     0.029 A 
ATOM     23  C   UNL A   1      39.321  29.061  30.913  1.00  0.00     0.049 A 
ATOM     24  H   UNL A   1      41.365  28.910  30.472  1.00  0.00     0.167 HD
ATOM     25  C   UNL A   1      45.098  29.332  28.141  1.00  0.00     0.031 A 
ATOM     26  C   UNL A   1      39.168  30.323  31.384  1.00  0.00     0.031 A 
ATOM     27  C   UNL A   1      45.541  29.146  29.494  1.00  0.00     0.049 A 
ATOM     28  C   UNL A   1      40.520  30.874  31.642  1.00  0.00     0.074 A 
ATOM     29  C   UNL A   1      46.111  28.105  30.199  1.00  0.00     0.029 A 
ATOM     30  N   UNL A   1      45.111  30.048  30.437  1.00  0.00    -0.354 N 
ATOM     31  N   UNL A   1      41.325  30.417  32.558  1.00  0.00    -0.248 NA
ATOM     32  C   UNL A   1      41.151  31.668  30.599  1.00  0.00     0.031 C 
ATOM     33  C   UNL A   1      45.565  28.207  31.512  1.00  0.00     0.029 A 
ATOM     34  C   UNL A   1      44.729  29.325  31.537  1.00  0.00     0.049 A 
ATOM     35  H   UNL A   1      45.084  31.027  30.342  1.00  0.00     0.167 HD
ATOM     36  C   UNL A   1      42.593  30.510  32.001  1.00  0.00     0.074 A 
ATOM     37  C   UNL A   1      42.432  31.383  30.842  1.00  0.00     0.031 C 
ATOM     38  C   UNL A   1      43.594  29.657  32.373  1.00  0.00     0.031 A 
BRANCH  25  39
ATOM     39  C   UNL A   1      45.404  30.591  27.362  1.00  0.00    -0.014 A 
ATOM     40  C   UNL A   1      46.749  30.956  27.145  1.00  0.00     0.010 A 
ATOM     41  C   UNL A   1      44.426  31.576  27.100  1.00  0.00     0.010 A 
ATOM     42  C   UNL A   1      47.098  32.265  26.786  1.00  0.00     0.020 A 
ATOM     43  C   UNL A   1      44.761  32.869  26.697  1.00  0.00     0.020 A 
ATOM     44  C   UNL A   1      46.099  33.218  26.589  1.00  0.00     0.054 A 
BRANCH  44  45
ATOM     45  S   UNL A   1      46.559  34.944  26.294  1.00  0.00     0.124 S 
ATOM     46  O   UNL A   1      47.087  34.882  24.935  1.00  0.00    -0.237 OA
ATOM     47  O   UNL A   1      45.283  35.636  26.449  1.00  0.00    -0.237 OA
ATOM     48  O   UNL A   1      47.544  35.218  27.338  1.00  0.00    -0.744 OA
ENDBRANCH  44  45
ENDBRANCH  25  39
BRANCH  26  49
ATOM     49  C   UNL A   1      37.956  31.171  31.263  1.00  0.00    -0.014 A 
ATOM     50  C   UNL A   1      36.696  30.712  31.684  1.00  0.00     0.010 A 
ATOM     51  C   UNL A   1      38.086  32.544  30.963  1.00  0.00     0.010 A 
ATOM     52  C   UNL A   1      35.619  31.603  31.841  1.00  0.00     0.020 A 
ATOM     53  C   UNL A   1      37.017  33.435  31.105  1.00  0.00     0.020 A 
ATOM     54  C   UNL A   1      35.792  32.963  31.564  1.00  0.00     0.054 A 
BRANCH  54  55
ATOM     55  S   UNL A   1      34.447  34.133  31.916  1.00  0.00     0.124 S 
ATOM     56  O   UNL A   1      35.170  35.289  32.437  1.00  0.00    -0.237 OA
ATOM     57  O   UNL A   1      33.830  34.311  30.605  1.00  0.00    -0.237 OA
ATOM     58  O   UNL A   1      33.623  33.425  32.893  1.00  0.00    -0.744 OA
ENDBRANCH  54  55
ENDBRANCH  26  49
BRANCH  38  59
ATOM     59  C   UNL A   1      43.387  28.786  33.589  1.00  0.00    -0.014 A 
ATOM     60  C   UNL A   1      43.522  29.260  34.908  1.00  0.00     0.010 A 
ATOM     61  C   UNL A   1      42.867  27.494  33.392  1.00  0.00     0.010 A 
ATOM     62  C   UNL A   1      43.164  28.457  36.001  1.00  0.00     0.020 A 
ATOM     63  C   UNL A   1      42.492  26.695  34.474  1.00  0.00     0.020 A 
ATOM     64  C   UNL A   1      42.646  27.178  35.775  1.00  0.00     0.054 A 
BRANCH  64  65
ATOM     65  S   UNL A   1      42.114  26.174  37.189  1.00  0.00     0.124 S 
ATOM     66  O   UNL A   1      43.183  26.398  38.159  1.00  0.00    -0.237 OA
ATOM     67  O   UNL A   1      40.819  26.757  37.534  1.00  0.00    -0.237 OA
ATOM     68  O   UNL A   1      42.045  24.817  36.647  1.00  0.00    -0.744 OA
ENDBRANCH  64  65
ENDBRANCH  38  59
ENDBRANCH  12  13
ENDBRANCH   5   7
ENDBRANCH   2   3
ENDBRANCH   1   2
BRANCH   1  69
ATOM     69  C   UNL A   1      35.014  23.563  23.642  1.00  0.00     0.023 C 
BRANCH  69  70
ATOM     70  C   UNL A   1      34.013  22.422  23.711  1.00  0.00     0.116 C 
BRANCH  70  71
ATOM     71  N   UNL A   1      33.408  22.204  25.003  1.00  0.00    -0.351 N 
ATOM     72  C   UNL A   1      32.264  22.801  25.500  1.00  0.00     0.273 C 
ATOM     73  H   UNL A   1      33.860  21.560  25.597  1.00  0.00     0.163 HD
ATOM     74  O   UNL A   1      31.832  22.453  26.589  1.00  0.00    -0.267 OA
BRANCH  72  75
ATOM     75  C   UNL A   1      31.630  23.859  24.716  1.00  0.00     0.178 A 
ATOM     76  N   UNL A   1      30.747  23.557  23.707  1.00  0.00    -0.124 NA
ATOM     77  C   UNL A   1      31.735  25.241  24.823  1.00  0.00     0.122 A 
ATOM     78  N   UNL A   1      30.267  24.691  23.218  1.00  0.00    -0.061 NA
ATOM     79  N   UNL A   1      30.959  25.703  23.770  1.00  0.00    -0.213 N 
BRANCH  77  80
ATOM     80  C   UNL A   1      32.359  26.154  25.834  1.00  0.00     0.262 C 
ATOM     81  C   UNL A   1      33.867  26.327  25.578  1.00  0.00     0.281 C 
ATOM     82  O   UNL A   1      31.638  27.384  25.777  1.00  0.00    -0.477 OA
ATOM     83  O   UNL A   1      34.466  27.274  26.462  1.00  0.00    -0.485 OA
ATOM     84  C   UNL A   1      32.328  28.429  26.325  1.00  0.00     0.162 A 
ATOM     85  C   UNL A   1      33.692  28.389  26.619  1.00  0.00     0.161 A 
ATOM     86  C   UNL A   1      31.605  29.606  26.514  1.00  0.00     0.050 A 
ATOM     87  C   UNL A   1      34.339  29.537  27.070  1.00  0.00     0.050 A 
ATOM     88  C   UNL A   1      32.255  30.757  26.957  1.00  0.00     0.004 A 
ATOM     89  C   UNL A   1      33.624  30.726  27.220  1.00  0.00     0.004 A 
ENDBRANCH  77  80
BRANCH  79  90
ATOM     90  C   UNL A   1      30.762  27.041  23.368  1.00  0.00     0.067 A 
ATOM     91  C   UNL A   1      31.820  27.754  22.802  1.00  0.00     0.028 A 
ATOM     92  C   UNL A   1      29.479  27.600  23.438  1.00  0.00     0.041 A 
ATOM     93  C   UNL A   1      31.560  28.987  22.205  1.00  0.00     0.003 A 
ATOM     94  C   UNL A   1      29.214  28.839  22.843  1.00  0.00     0.058 A 
ATOM     95  C   UNL A   1      30.265  29.518  22.209  1.00  0.00     0.013 A 
BRANCH  94  96
ATOM     96  C   UNL A   1      27.818  29.414  22.859  1.00  0.00     0.416 C 
ATOM     97  F   UNL A   1      27.446  29.921  21.652  1.00  0.00    -0.166 F 
ATOM     98  F   UNL A   1      26.877  28.487  23.186  1.00  0.00    -0.166 F 
ATOM     99  F   UNL A   1      27.665  30.431  23.753  1.00  0.00    -0.166 F 
ENDBRANCH  94  96
ENDBRANCH  79  90
ENDBRANCH  72  75
ENDBRANCH  70  71
ENDBRANCH  69  70
ENDBRANCH   1  69
TORSDOF 17
ENDMDL
MODEL 3
REMARK VINA RESULT:     -12.0      3.360      7.907
REMARK SMILES O=C(NCCCCNC(=O)c1nnn(-c2cccc(C(F)(F)F)c2)c1[C@H]1COc2ccccc2O1)c1ccc(-c2c3nc(c(-c4ccc(S(=O)(=O)[O-])cc4)c4ccc([nH]4)c(-c4ccc(S(=O)(=O)[O-])cc4)c4nc(c(-c5ccc(S(=O)(=O)[O-])cc5)c5ccc2[nH]5)C=C4)C=C3)cc1
REMARK SMILES IDX 5 1 4 2 3 3 1 4 2 5 36 7 37 8 95 9 38 10 94 11 39 12 40 13
REMARK SMILES IDX 41 14 88 15 42 16 93 17 87 18 89 19 43 20 92 21 86 22 85 23
REMARK SMILES IDX 44 25 74 26 55 27 73 28 56 29 59 30 72 31 90 32 57 33 58 34
REMARK SMILES IDX 71 36 91 37 60 38 45 39 46 40 54 41 47 42 53 43 48 44 49 45
REMARK SMILES IDX 50 46 51 47 52 48 75 49 76 50 84 51 77 52 83 53 78 54 79 55
REMARK SMILES IDX 80 56 81 57 82 58 61 59 62 60 70 61 63 62 69 63 64 64 65 65
REMARK SMILES IDX 66 66 67 67 68 68 6 69 7 70 8 71 9 72 10 74 11 75 12 76
REMARK SMILES IDX 25 77 13 78 14 79 26 80 27 81 35 82 28 83 34 84 29 85 33 86
REMARK SMILES IDX 30 87 32 88 31 89 15 90 16 91 24 92 17 93 19 94 18 95 20 96
REMARK SMILES IDX 21 97 22 98 23 99
REMARK H PARENT 3 6 89 24 59 35 8 73
REMARK Flexibility Score: inf
ROOT
ATOM      1  C   UNL A   1      34.766  23.141  23.953  1.00  0.00     0.023 C 
ENDROOT
BRANCH   1   2
ATOM      2  C   UNL A   1      36.282  23.203  23.755  1.00  0.00     0.116 C 
BRANCH   2   3
ATOM      3  N   UNL A   1      37.008  21.972  23.996  1.00  0.00    -0.352 N 
ATOM      4  O   UNL A   1      37.899  20.286  25.138  1.00  0.00    -0.269 OA
ATOM      5  C   UNL A   1      37.751  21.508  25.047  1.00  0.00     0.251 C 
ATOM      6  H   UNL A   1      36.956  21.338  23.245  1.00  0.00     0.163 HD
BRANCH   5   7
ATOM      7  C   UNL A   1      38.480  22.390  25.989  1.00  0.00     0.039 A 
ATOM      8  C   UNL A   1      38.199  23.739  26.194  1.00  0.00     0.014 A 
ATOM      9  C   UNL A   1      39.592  21.817  26.631  1.00  0.00     0.014 A 
ATOM     10  C   UNL A   1      39.090  24.542  26.886  1.00  0.00     0.010 A 
ATOM     11  C   UNL A   1      40.466  22.607  27.362  1.00  0.00     0.010 A 
ATOM     12  C   UNL A   1      40.242  23.981  27.432  1.00  0.00    -0.014 A 
BRANCH  12  13
ATOM     13  C   UNL A   1      41.137  24.865  28.166  1.00  0.00     0.031 A 
ATOM     14  C   UNL A   1      40.633  26.254  28.372  1.00  0.00     0.074 A 
ATOM     15  C   UNL A   1      42.266  24.414  28.748  1.00  0.00     0.049 A 
ATOM     16  N   UNL A   1      41.203  27.380  28.088  1.00  0.00    -0.248 NA
ATOM     17  C   UNL A   1      39.258  26.393  28.884  1.00  0.00     0.031 C 
ATOM     18  C   UNL A   1      42.710  23.022  28.868  1.00  0.00     0.029 A 
ATOM     19  N   UNL A   1      43.178  25.098  29.491  1.00  0.00    -0.354 N 
ATOM     20  C   UNL A   1      40.342  28.375  28.554  1.00  0.00     0.074 A 
ATOM     21  C   UNL A   1      39.111  27.716  28.910  1.00  0.00     0.031 C 
ATOM     22  C   UNL A   1      43.639  22.942  29.845  1.00  0.00     0.029 A 
ATOM     23  C   UNL A   1      43.940  24.283  30.318  1.00  0.00     0.049 A 
ATOM     24  H   UNL A   1      43.287  26.075  29.446  1.00  0.00     0.167 HD
ATOM     25  C   UNL A   1      40.755  29.644  28.819  1.00  0.00     0.031 A 
ATOM     26  C   UNL A   1      44.675  24.673  31.388  1.00  0.00     0.031 A 
ATOM     27  C   UNL A   1      41.993  29.965  28.166  1.00  0.00     0.049 A 
ATOM     28  C   UNL A   1      44.913  26.131  31.262  1.00  0.00     0.074 A 
ATOM     29  C   UNL A   1      42.410  30.043  26.853  1.00  0.00     0.029 A 
ATOM     30  N   UNL A   1      43.138  29.952  28.924  1.00  0.00    -0.354 N 
ATOM     31  N   UNL A   1      45.635  26.668  30.320  1.00  0.00    -0.248 NA
ATOM     32  C   UNL A   1      44.003  27.040  31.942  1.00  0.00     0.031 C 
ATOM     33  C   UNL A   1      43.761  29.588  26.868  1.00  0.00     0.029 A 
ATOM     34  C   UNL A   1      44.095  29.300  28.193  1.00  0.00     0.049 A 
ATOM     35  H   UNL A   1      43.251  30.340  29.822  1.00  0.00     0.167 HD
ATOM     36  C   UNL A   1      44.993  27.859  30.009  1.00  0.00     0.074 A 
ATOM     37  C   UNL A   1      44.060  28.082  31.110  1.00  0.00     0.031 C 
ATOM     38  C   UNL A   1      45.084  28.408  28.761  1.00  0.00     0.031 A 
BRANCH  25  39
ATOM     39  C   UNL A   1      40.229  30.453  29.983  1.00  0.00    -0.014 A 
ATOM     40  C   UNL A   1      40.416  29.971  31.295  1.00  0.00     0.010 A 
ATOM     41  C   UNL A   1      39.302  31.505  29.817  1.00  0.00     0.010 A 
ATOM     42  C   UNL A   1      39.641  30.447  32.362  1.00  0.00     0.020 A 
ATOM     43  C   UNL A   1      38.560  32.019  30.881  1.00  0.00     0.020 A 
ATOM     44  C   UNL A   1      38.700  31.452  32.139  1.00  0.00     0.054 A 
BRANCH  44  45
ATOM     45  S   UNL A   1      37.587  31.944  33.479  1.00  0.00     0.124 S 
ATOM     46  O   UNL A   1      38.044  31.092  34.572  1.00  0.00    -0.237 OA
ATOM     47  O   UNL A   1      37.879  33.368  33.618  1.00  0.00    -0.237 OA
ATOM     48  O   UNL A   1      36.260  31.632  32.952  1.00  0.00    -0.744 OA
ENDBRANCH  44  45
ENDBRANCH  25  39
BRANCH  26  49
ATOM     49  C   UNL A   1      44.846  23.930  32.662  1.00  0.00    -0.014 A 
ATOM     50  C   UNL A   1      44.035  22.826  32.979  1.00  0.00     0.010 A 
ATOM     51  C   UNL A   1      45.989  24.155  33.458  1.00  0.00     0.010 A 
ATOM     52  C   UNL A   1      44.381  21.956  34.028  1.00  0.00     0.020 A 
ATOM     53  C   UNL A   1      46.334  23.301  34.511  1.00  0.00     0.020 A 
ATOM     54  C   UNL A   1      45.539  22.192  34.778  1.00  0.00     0.054 A 
BRANCH  54  55
ATOM     55  S   UNL A   1      46.065  20.982  36.027  1.00  0.00     0.124 S 
ATOM     56  O   UNL A   1      45.758  21.672  37.276  1.00  0.00    -0.237 OA
ATOM     57  O   UNL A   1      45.227  19.826  35.721  1.00  0.00    -0.237 OA
ATOM     58  O   UNL A   1      47.489  20.801  35.752  1.00  0.00    -0.744 OA
ENDBRANCH  54  55
ENDBRANCH  26  49
BRANCH  38  59
ATOM     59  C   UNL A   1      46.108  27.851  27.800  1.00  0.00    -0.014 A 
ATOM     60  C   UNL A   1      45.851  26.755  26.952  1.00  0.00     0.010 A 
ATOM     61  C   UNL A   1      47.305  28.567  27.625  1.00  0.00     0.010 A 
ATOM     62  C   UNL A   1      46.776  26.378  25.967  1.00  0.00     0.020 A 
ATOM     63  C   UNL A   1      48.222  28.207  26.635  1.00  0.00     0.020 A 
ATOM     64  C   UNL A   1      47.955  27.111  25.812  1.00  0.00     0.054 A 
BRANCH  64  65
ATOM     65  S   UNL A   1      49.112  26.663  24.487  1.00  0.00     0.124 S 
ATOM     66  O   UNL A   1      50.169  25.964  25.211  1.00  0.00    -0.237 OA
ATOM     67  O   UNL A   1      48.293  25.830  23.609  1.00  0.00    -0.237 OA
ATOM     68  O   UNL A   1      49.502  27.952  23.915  1.00  0.00    -0.744 OA
ENDBRANCH  64  65
ENDBRANCH  38  59
ENDBRANCH  12  13
ENDBRANCH   5   7
ENDBRANCH   2   3
ENDBRANCH   1   2
BRANCH   1  69
ATOM     69  C   UNL A   1      33.907  23.204  22.689  1.00  0.00     0.023 C 
BRANCH  69  70
ATOM     70  C   UNL A   1      33.161  24.508  22.455  1.00  0.00     0.116 C 
BRANCH  70  71
ATOM     71  N   UNL A   1      31.746  24.474  22.735  1.00  0.00    -0.351 N 
ATOM     72  C   UNL A   1      31.063  25.227  23.673  1.00  0.00     0.273 C 
ATOM     73  H   UNL A   1      31.208  23.845  22.201  1.00  0.00     0.163 HD
ATOM     74  O   UNL A   1      29.846  25.140  23.739  1.00  0.00    -0.267 OA
BRANCH  72  75
ATOM     75  C   UNL A   1      31.830  26.077  24.581  1.00  0.00     0.178 A 
ATOM     76  N   UNL A   1      32.593  25.529  25.585  1.00  0.00    -0.124 NA
ATOM     77  C   UNL A   1      31.974  27.459  24.610  1.00  0.00     0.122 A 
ATOM     78  N   UNL A   1      33.237  26.508  26.202  1.00  0.00    -0.061 NA
ATOM     79  N   UNL A   1      32.762  27.675  25.730  1.00  0.00    -0.213 N 
BRANCH  77  80
ATOM     80  C   UNL A   1      31.573  28.559  23.675  1.00  0.00     0.262 C 
ATOM     81  C   UNL A   1      31.079  27.997  22.328  1.00  0.00     0.281 C 
ATOM     82  O   UNL A   1      30.585  29.335  24.352  1.00  0.00    -0.477 OA
ATOM     83  O   UNL A   1      30.591  29.017  21.458  1.00  0.00    -0.485 OA
ATOM     84  C   UNL A   1      29.838  30.102  23.502  1.00  0.00     0.162 A 
ATOM     85  C   UNL A   1      29.813  29.926  22.118  1.00  0.00     0.161 A 
ATOM     86  C   UNL A   1      29.014  31.052  24.103  1.00  0.00     0.050 A 
ATOM     87  C   UNL A   1      28.938  30.679  21.339  1.00  0.00     0.050 A 
ATOM     88  C   UNL A   1      28.132  31.799  23.324  1.00  0.00     0.004 A 
ATOM     89  C   UNL A   1      28.083  31.601  21.945  1.00  0.00     0.004 A 
ENDBRANCH  77  80
BRANCH  79  90
ATOM     90  C   UNL A   1      33.169  28.913  26.272  1.00  0.00     0.067 A 
ATOM     91  C   UNL A   1      32.217  29.904  26.516  1.00  0.00     0.028 A 
ATOM     92  C   UNL A   1      34.502  29.091  26.662  1.00  0.00     0.041 A 
ATOM     93  C   UNL A   1      32.587  31.028  27.254  1.00  0.00     0.003 A 
ATOM     94  C   UNL A   1      34.880  30.219  27.399  1.00  0.00     0.058 A 
ATOM     95  C   UNL A   1      33.903  31.177  27.707  1.00  0.00     0.013 A 
BRANCH  94  96
ATOM     96  C   UNL A   1      36.303  30.381  27.878  1.00  0.00     0.416 C 
ATOM     97  F   UNL A   1      37.210  29.843  27.019  1.00  0.00    -0.166 F 
ATOM     98  F   UNL A   1      36.655  31.687  28.030  1.00  0.00    -0.166 F 
ATOM     99  F   UNL A   1      36.536  29.791  29.084  1.00  0.00    -0.166 F 
ENDBRANCH  94  96
ENDBRANCH  79  90
ENDBRANCH  72  75
ENDBRANCH  70  71
ENDBRANCH  69  70
ENDBRANCH   1  69
TORSDOF 17
ENDMDL
