MODEL 1
REMARK VINA RESULT:     -12.0      0.000      0.000
REMARK SMILES Cc1ccc(S(=O)(=O)N2CCCC2)cc1C(=O)N[C@H](CC1=c2ccccc2=NC1)C(=O)NCCCCNC(=O)c1ccc(-c2c3nc(c(-c4ccc(S(=O)(=O)[O-])cc4)c4ccc([nH]4)c(-c4ccc(S(=O)(=O)[O-])cc4)c4nc(c(-c5ccc(S(=O)(=O)[O-])cc5)c5ccc2[nH]5)C=C4)C=C3)cc1
REMARK SMILES IDX 34 1 33 2 32 3 30 4 31 5 19 7 18 8 16 9 17 10 15 12 1 13
REMARK SMILES IDX 2 14 3 15 4 16 14 17 5 18 6 19 7 20 8 21 9 22 10 23 13 24
REMARK SMILES IDX 11 25 12 26 20 27 21 28 22 29 29 30 23 31 27 32 28 33 24 34
REMARK SMILES IDX 26 35 25 36 35 37 36 38 37 39 38 40 39 42 40 43 41 44 99 45
REMARK SMILES IDX 42 46 98 47 43 48 44 49 45 50 92 51 46 52 97 53 91 54 93 55
REMARK SMILES IDX 47 56 96 57 90 58 89 59 48 61 78 62 59 63 77 64 60 65 63 66
REMARK SMILES IDX 76 67 94 68 61 69 62 70 75 72 95 73 64 74 49 75 50 76 58 77
REMARK SMILES IDX 51 78 57 79 52 80 53 81 54 82 55 83 56 84 79 85 80 86 88 87
REMARK SMILES IDX 81 88 87 89 82 90 83 91 84 92 85 93 86 94 65 95 66 96 74 97
REMARK SMILES IDX 67 98 73 99 68 100 69 101 70 102 71 103 72 104
REMARK H PARENT 32 6 18 11 37 41 93 60 63 71
REMARK Flexibility Score: inf
ROOT
ATOM      1  C   UNL A   1      37.884  23.548  26.446  1.00  0.00     0.023 C 
ENDROOT
BRANCH   1   2
ATOM      2  C   UNL A   1      36.774  22.721  25.791  1.00  0.00     0.116 C 
BRANCH   2   3
ATOM      3  N   UNL A   1      35.777  22.280  26.745  1.00  0.00    -0.354 N 
ATOM      4  C   UNL A   1      34.542  22.720  27.074  1.00  0.00     0.242 C 
ATOM      5  O   UNL A   1      33.921  21.972  27.842  1.00  0.00    -0.273 OA
ATOM      6  H   UNL A   1      36.058  21.491  27.263  1.00  0.00     0.163 HD
BRANCH   4   7
ATOM      7  C   UNL A   1      33.876  24.045  26.595  1.00  0.00     0.175 C 
BRANCH   7   8
ATOM      8  N   UNL A   1      32.398  24.283  26.602  1.00  0.00    -0.340 N 
ATOM      9  C   UNL A   1      31.363  25.158  26.427  1.00  0.00     0.252 C 
ATOM     10  O   UNL A   1      30.268  24.618  26.652  1.00  0.00    -0.269 OA
ATOM     11  H   UNL A   1      31.986  23.420  26.839  1.00  0.00     0.164 HD
BRANCH   9  12
ATOM     12  C   UNL A   1      31.308  26.597  25.984  1.00  0.00     0.044 A 
ATOM     13  C   UNL A   1      32.344  27.746  27.998  1.00  0.00     0.045 C 
ATOM     14  C   UNL A   1      31.750  27.745  26.650  1.00  0.00    -0.038 A 
ATOM     15  C   UNL A   1      31.618  29.027  26.072  1.00  0.00     0.005 A 
ATOM     16  C   UNL A   1      30.953  29.213  24.881  1.00  0.00     0.022 A 
ATOM     17  C   UNL A   1      30.649  26.815  24.747  1.00  0.00     0.035 A 
ATOM     18  C   UNL A   1      30.407  28.106  24.250  1.00  0.00     0.083 A 
BRANCH  18  19
ATOM     19  S   UNL A   1      29.309  28.451  22.892  1.00  0.00     0.243 S 
ATOM     20  O   UNL A   1      30.090  28.191  21.686  1.00  0.00    -0.207 OA
ATOM     21  O   UNL A   1      28.094  27.738  23.143  1.00  0.00    -0.207 OA
BRANCH  19  22
ATOM     22  N   UNL A   1      29.040  30.103  22.973  1.00  0.00    -0.198 NA
ATOM     23  C   UNL A   1      29.238  30.915  21.765  1.00  0.00     0.102 C 
ATOM     24  C   UNL A   1      27.772  30.559  23.589  1.00  0.00     0.102 C 
ATOM     25  C   UNL A   1      28.883  32.294  22.283  1.00  0.00     0.018 C 
ATOM     26  C   UNL A   1      27.660  32.027  23.156  1.00  0.00     0.018 C 
ENDBRANCH  19  22
ENDBRANCH  18  19
ENDBRANCH   9  12
ENDBRANCH   7   8
BRANCH   7  27
ATOM     27  C   UNL A   1      34.707  24.935  25.585  1.00  0.00     0.068 C 
BRANCH  27  28
ATOM     28  C   UNL A   1      34.193  25.243  24.190  1.00  0.00    -0.037 C 
ATOM     29  C   UNL A   1      33.997  26.433  23.618  1.00  0.00     0.001 A 
ATOM     30  C   UNL A   1      33.722  24.175  23.240  1.00  0.00     0.174 C 
ATOM     31  C   UNL A   1      34.185  27.792  24.009  1.00  0.00     0.010 A 
ATOM     32  C   UNL A   1      33.493  26.095  22.275  1.00  0.00     0.065 A 
ATOM     33  N   UNL A   1      33.231  24.852  22.020  1.00  0.00    -0.280 NA
ATOM     34  C   UNL A   1      33.993  28.758  23.095  1.00  0.00     0.001 A 
ATOM     35  C   UNL A   1      33.343  27.201  21.314  1.00  0.00     0.028 A 
ATOM     36  C   UNL A   1      33.609  28.450  21.727  1.00  0.00     0.002 A 
ENDBRANCH  27  28
ENDBRANCH   7  27
ENDBRANCH   4   7
ENDBRANCH   2   3
ENDBRANCH   1   2
BRANCH   1  37
ATOM     37  C   UNL A   1      39.214  22.847  26.684  1.00  0.00     0.023 C 
BRANCH  37  38
ATOM     38  C   UNL A   1      40.203  23.729  27.411  1.00  0.00     0.116 C 
BRANCH  38  39
ATOM     39  N   UNL A   1      40.715  24.873  26.675  1.00  0.00    -0.352 N 
ATOM     40  C   UNL A   1      40.570  26.208  27.043  1.00  0.00     0.251 C 
ATOM     41  H   UNL A   1      41.206  24.687  25.842  1.00  0.00     0.163 HD
ATOM     42  O   UNL A   1      40.626  27.128  26.237  1.00  0.00    -0.269 OA
BRANCH  40  43
ATOM     43  C   UNL A   1      40.497  26.482  28.498  1.00  0.00     0.039 A 
ATOM     44  C   UNL A   1      39.224  26.550  29.075  1.00  0.00     0.014 A 
ATOM     45  C   UNL A   1      41.594  27.044  29.134  1.00  0.00     0.014 A 
ATOM     46  C   UNL A   1      39.010  27.386  30.164  1.00  0.00     0.010 A 
ATOM     47  C   UNL A   1      41.358  27.998  30.092  1.00  0.00     0.010 A 
ATOM     48  C   UNL A   1      40.064  28.182  30.593  1.00  0.00    -0.014 A 
BRANCH  48  49
ATOM     49  C   UNL A   1      39.987  29.164  31.657  1.00  0.00     0.031 A 
ATOM     50  C   UNL A   1      39.288  30.421  31.357  1.00  0.00     0.074 A 
ATOM     51  C   UNL A   1      40.363  28.847  32.913  1.00  0.00     0.049 A 
ATOM     52  N   UNL A   1      39.369  31.486  32.070  1.00  0.00    -0.248 NA
ATOM     53  C   UNL A   1      38.439  30.578  30.179  1.00  0.00     0.031 C 
ATOM     54  C   UNL A   1      40.080  29.560  34.155  1.00  0.00     0.029 A 
ATOM     55  N   UNL A   1      41.334  27.919  33.269  1.00  0.00    -0.354 N 
ATOM     56  C   UNL A   1      38.336  32.304  31.675  1.00  0.00     0.074 A 
ATOM     57  C   UNL A   1      37.866  31.754  30.429  1.00  0.00     0.031 C 
ATOM     58  C   UNL A   1      41.049  29.272  35.042  1.00  0.00     0.029 A 
ATOM     59  C   UNL A   1      42.056  28.507  34.328  1.00  0.00     0.049 A 
ATOM     60  H   UNL A   1      41.486  27.034  32.864  1.00  0.00     0.167 HD
ATOM     61  C   UNL A   1      37.893  33.249  32.547  1.00  0.00     0.031 A 
ATOM     62  C   UNL A   1      43.352  28.897  34.110  1.00  0.00     0.031 A 
ATOM     63  C   UNL A   1      38.775  33.350  33.714  1.00  0.00     0.049 A 
ATOM     64  C   UNL A   1      43.572  30.392  34.257  1.00  0.00     0.074 A 
ATOM     65  C   UNL A   1      38.689  32.955  35.038  1.00  0.00     0.029 A 
ATOM     66  N   UNL A   1      40.111  33.643  33.491  1.00  0.00    -0.354 N 
ATOM     67  N   UNL A   1      42.607  31.257  34.413  1.00  0.00    -0.248 NA
ATOM     68  C   UNL A   1      44.880  31.044  34.180  1.00  0.00     0.031 C 
ATOM     69  C   UNL A   1      40.006  32.981  35.593  1.00  0.00     0.029 A 
ATOM     70  C   UNL A   1      40.880  33.415  34.613  1.00  0.00     0.049 A 
ATOM     71  H   UNL A   1      40.468  33.975  32.635  1.00  0.00     0.167 HD
ATOM     72  C   UNL A   1      43.112  32.527  34.423  1.00  0.00     0.074 A 
ATOM     73  C   UNL A   1      44.545  32.344  34.270  1.00  0.00     0.031 C 
ATOM     74  C   UNL A   1      42.315  33.631  34.525  1.00  0.00     0.031 A 
BRANCH  61  75
ATOM     75  C   UNL A   1      36.530  33.892  32.457  1.00  0.00    -0.014 A 
ATOM     76  C   UNL A   1      35.793  33.765  31.263  1.00  0.00     0.010 A 
ATOM     77  C   UNL A   1      35.939  34.676  33.466  1.00  0.00     0.010 A 
ATOM     78  C   UNL A   1      34.580  34.438  31.061  1.00  0.00     0.020 A 
ATOM     79  C   UNL A   1      34.741  35.378  33.272  1.00  0.00     0.020 A 
ATOM     80  C   UNL A   1      34.070  35.257  32.064  1.00  0.00     0.054 A 
BRANCH  80  81
ATOM     81  S   UNL A   1      32.519  36.142  31.776  1.00  0.00     0.124 S 
ATOM     82  O   UNL A   1      32.735  37.395  32.492  1.00  0.00    -0.237 OA
ATOM     83  O   UNL A   1      32.484  36.243  30.320  1.00  0.00    -0.237 OA
ATOM     84  O   UNL A   1      31.506  35.265  32.361  1.00  0.00    -0.744 OA
ENDBRANCH  80  81
ENDBRANCH  61  75
BRANCH  62  85
ATOM     85  C   UNL A   1      44.058  27.978  33.157  1.00  0.00    -0.014 A 
ATOM     86  C   UNL A   1      44.410  28.532  31.902  1.00  0.00     0.010 A 
ATOM     87  C   UNL A   1      44.717  26.811  33.575  1.00  0.00     0.010 A 
ATOM     88  C   UNL A   1      45.521  28.072  31.201  1.00  0.00     0.020 A 
ATOM     89  C   UNL A   1      45.786  26.291  32.818  1.00  0.00     0.020 A 
ATOM     90  C   UNL A   1      46.212  26.958  31.666  1.00  0.00     0.054 A 
BRANCH  90  91
ATOM     91  S   UNL A   1      47.747  26.493  30.811  1.00  0.00     0.124 S 
ATOM     92  O   UNL A   1      48.271  27.796  30.422  1.00  0.00    -0.237 OA
ATOM     93  O   UNL A   1      48.487  25.785  31.858  1.00  0.00    -0.237 OA
ATOM     94  O   UNL A   1      47.275  25.664  29.706  1.00  0.00    -0.744 OA
ENDBRANCH  90  91
ENDBRANCH  62  85
BRANCH  74  95
ATOM     95  C   UNL A   1      42.835  35.042  34.508  1.00  0.00    -0.014 A 
ATOM     96  C   UNL A   1      42.812  35.842  33.358  1.00  0.00     0.010 A 
ATOM     97  C   UNL A   1      43.476  35.566  35.653  1.00  0.00     0.010 A 
ATOM     98  C   UNL A   1      43.342  37.140  33.374  1.00  0.00     0.020 A 
ATOM     99  C   UNL A   1      44.029  36.846  35.675  1.00  0.00     0.020 A 
ATOM    100  C   UNL A   1      43.934  37.638  34.539  1.00  0.00     0.054 A 
BRANCH 100 101
ATOM    101  S   UNL A   1      44.614  39.313  34.546  1.00  0.00     0.124 S 
ATOM    102  O   UNL A   1      43.512  40.108  34.009  1.00  0.00    -0.237 OA
ATOM    103  O   UNL A   1      44.900  39.513  35.964  1.00  0.00    -0.237 OA
ATOM    104  O   UNL A   1      45.786  39.218  33.680  1.00  0.00    -0.744 OA
ENDBRANCH 100 101
ENDBRANCH  74  95
ENDBRANCH  48  49
ENDBRANCH  40  43
ENDBRANCH  38  39
ENDBRANCH  37  38
ENDBRANCH   1  37
TORSDOF 20
ENDMDL
MODEL 2
REMARK VINA RESULT:     -11.8      3.094      3.981
REMARK SMILES Cc1ccc(S(=O)(=O)N2CCCC2)cc1C(=O)N[C@H](CC1=c2ccccc2=NC1)C(=O)NCCCCNC(=O)c1ccc(-c2c3nc(c(-c4ccc(S(=O)(=O)[O-])cc4)c4ccc([nH]4)c(-c4ccc(S(=O)(=O)[O-])cc4)c4nc(c(-c5ccc(S(=O)(=O)[O-])cc5)c5ccc2[nH]5)C=C4)C=C3)cc1
REMARK SMILES IDX 34 1 33 2 32 3 30 4 31 5 19 7 18 8 16 9 17 10 15 12 1 13
REMARK SMILES IDX 2 14 3 15 4 16 14 17 5 18 6 19 7 20 8 21 9 22 10 23 13 24
REMARK SMILES IDX 11 25 12 26 20 27 21 28 22 29 29 30 23 31 27 32 28 33 24 34
REMARK SMILES IDX 26 35 25 36 35 37 36 38 37 39 38 40 39 42 40 43 41 44 99 45
REMARK SMILES IDX 42 46 98 47 43 48 44 49 45 50 92 51 46 52 97 53 91 54 93 55
REMARK SMILES IDX 47 56 96 57 90 58 89 59 48 61 78 62 59 63 77 64 60 65 63 66
REMARK SMILES IDX 76 67 94 68 61 69 62 70 75 72 95 73 64 74 49 75 50 76 58 77
REMARK SMILES IDX 51 78 57 79 52 80 53 81 54 82 55 83 56 84 79 85 80 86 88 87
REMARK SMILES IDX 81 88 87 89 82 90 83 91 84 92 85 93 86 94 65 95 66 96 74 97
REMARK SMILES IDX 67 98 73 99 68 100 69 101 70 102 71 103 72 104
REMARK H PARENT 32 6 18 11 37 41 93 60 63 71
REMARK Flexibility Score: inf
ROOT
ATOM      1  C   UNL A   1      37.705  23.220  26.086  1.00  0.00     0.023 C 
ENDROOT
BRANCH   1   2
ATOM      2  C   UNL A   1      36.469  22.751  25.314  1.00  0.00     0.116 C 
BRANCH   2   3
ATOM      3  N   UNL A   1      35.462  22.172  26.179  1.00  0.00    -0.354 N 
ATOM      4  C   UNL A   1      34.270  22.608  26.645  1.00  0.00     0.242 C 
ATOM      5  O   UNL A   1      33.611  21.747  27.247  1.00  0.00    -0.273 OA
ATOM      6  H   UNL A   1      35.694  21.269  26.494  1.00  0.00     0.163 HD
BRANCH   4   7
ATOM      7  C   UNL A   1      33.694  24.049  26.503  1.00  0.00     0.175 C 
BRANCH   7   8
ATOM      8  N   UNL A   1      32.238  24.377  26.618  1.00  0.00    -0.340 N 
ATOM      9  C   UNL A   1      31.246  25.309  26.492  1.00  0.00     0.252 C 
ATOM     10  O   UNL A   1      30.142  24.845  26.824  1.00  0.00    -0.269 OA
ATOM     11  H   UNL A   1      31.797  23.550  26.920  1.00  0.00     0.164 HD
BRANCH   9  12
ATOM     12  C   UNL A   1      31.239  26.733  26.000  1.00  0.00     0.044 A 
ATOM     13  C   UNL A   1      32.257  27.922  28.000  1.00  0.00     0.045 C 
ATOM     14  C   UNL A   1      31.695  27.891  26.638  1.00  0.00    -0.038 A 
ATOM     15  C   UNL A   1      31.612  29.156  26.014  1.00  0.00     0.005 A 
ATOM     16  C   UNL A   1      30.980  29.318  24.802  1.00  0.00     0.022 A 
ATOM     17  C   UNL A   1      30.616  26.925  24.741  1.00  0.00     0.035 A 
ATOM     18  C   UNL A   1      30.421  28.204  24.195  1.00  0.00     0.083 A 
BRANCH  18  19
ATOM     19  S   UNL A   1      29.366  28.530  22.799  1.00  0.00     0.243 S 
ATOM     20  O   UNL A   1      30.194  28.289  21.621  1.00  0.00    -0.207 OA
ATOM     21  O   UNL A   1      28.156  27.794  23.005  1.00  0.00    -0.207 OA
BRANCH  19  22
ATOM     22  N   UNL A   1      29.061  30.177  22.873  1.00  0.00    -0.198 NA
ATOM     23  C   UNL A   1      29.150  30.972  21.641  1.00  0.00     0.102 C 
ATOM     24  C   UNL A   1      27.831  30.613  23.573  1.00  0.00     0.102 C 
ATOM     25  C   UNL A   1      28.798  32.350  22.161  1.00  0.00     0.018 C 
ATOM     26  C   UNL A   1      27.650  32.071  23.127  1.00  0.00     0.018 C 
ENDBRANCH  19  22
ENDBRANCH  18  19
ENDBRANCH   9  12
ENDBRANCH   7   8
BRANCH   7  27
ATOM     27  C   UNL A   1      34.568  25.088  25.691  1.00  0.00     0.068 C 
BRANCH  27  28
ATOM     28  C   UNL A   1      34.114  25.627  24.346  1.00  0.00    -0.037 C 
ATOM     29  C   UNL A   1      33.813  24.951  23.236  1.00  0.00     0.001 A 
ATOM     30  C   UNL A   1      34.027  27.099  24.045  1.00  0.00     0.174 C 
ATOM     31  C   UNL A   1      33.764  23.575  22.866  1.00  0.00     0.010 A 
ATOM     32  C   UNL A   1      33.446  26.005  22.275  1.00  0.00     0.065 A 
ATOM     33  N   UNL A   1      33.624  27.239  22.629  1.00  0.00    -0.280 NA
ATOM     34  C   UNL A   1      33.277  23.248  21.657  1.00  0.00     0.001 A 
ATOM     35  C   UNL A   1      32.884  25.574  20.983  1.00  0.00     0.028 A 
ATOM     36  C   UNL A   1      32.797  24.259  20.729  1.00  0.00     0.002 A 
ENDBRANCH  27  28
ENDBRANCH   7  27
ENDBRANCH   4   7
ENDBRANCH   2   3
ENDBRANCH   1   2
BRANCH   1  37
ATOM     37  C   UNL A   1      38.894  22.269  26.123  1.00  0.00     0.023 C 
BRANCH  37  38
ATOM     38  C   UNL A   1      39.943  22.706  27.120  1.00  0.00     0.116 C 
BRANCH  38  39
ATOM     39  N   UNL A   1      41.250  23.041  26.580  1.00  0.00    -0.352 N 
ATOM     40  C   UNL A   1      41.686  24.319  26.238  1.00  0.00     0.251 C 
ATOM     41  H   UNL A   1      41.883  22.299  26.442  1.00  0.00     0.163 HD
ATOM     42  O   UNL A   1      42.580  24.520  25.426  1.00  0.00    -0.269 OA
BRANCH  40  43
ATOM     43  C   UNL A   1      41.116  25.437  27.026  1.00  0.00     0.039 A 
ATOM     44  C   UNL A   1      40.734  26.587  26.326  1.00  0.00     0.014 A 
ATOM     45  C   UNL A   1      41.345  25.484  28.395  1.00  0.00     0.014 A 
ATOM     46  C   UNL A   1      40.818  27.827  26.949  1.00  0.00     0.010 A 
ATOM     47  C   UNL A   1      41.596  26.709  28.959  1.00  0.00     0.010 A 
ATOM     48  C   UNL A   1      41.351  27.880  28.231  1.00  0.00    -0.014 A 
BRANCH  48  49
ATOM     49  C   UNL A   1      41.584  29.094  28.988  1.00  0.00     0.031 A 
ATOM     50  C   UNL A   1      40.489  30.073  29.033  1.00  0.00     0.074 A 
ATOM     51  C   UNL A   1      42.674  29.216  29.772  1.00  0.00     0.049 A 
ATOM     52  N   UNL A   1      40.620  31.293  29.410  1.00  0.00    -0.248 NA
ATOM     53  C   UNL A   1      39.128  29.739  28.621  1.00  0.00     0.031 C 
ATOM     54  C   UNL A   1      42.932  30.192  30.827  1.00  0.00     0.029 A 
ATOM     55  N   UNL A   1      43.907  28.611  29.562  1.00  0.00    -0.354 N 
ATOM     56  C   UNL A   1      39.352  31.773  29.641  1.00  0.00     0.074 A 
ATOM     57  C   UNL A   1      38.463  30.820  29.027  1.00  0.00     0.031 C 
ATOM     58  C   UNL A   1      44.262  30.340  30.956  1.00  0.00     0.029 A 
ATOM     59  C   UNL A   1      44.873  29.591  29.871  1.00  0.00     0.049 A 
ATOM     60  H   UNL A   1      44.071  27.688  29.260  1.00  0.00     0.167 HD
ATOM     61  C   UNL A   1      39.207  32.835  30.479  1.00  0.00     0.031 A 
ATOM     62  C   UNL A   1      45.625  30.122  28.857  1.00  0.00     0.031 A 
ATOM     63  C   UNL A   1      40.507  33.414  30.831  1.00  0.00     0.049 A 
ATOM     64  C   UNL A   1      45.413  31.612  28.655  1.00  0.00     0.074 A 
ATOM     65  C   UNL A   1      41.305  33.402  31.963  1.00  0.00     0.029 A 
ATOM     66  N   UNL A   1      41.318  33.860  29.799  1.00  0.00    -0.354 N 
ATOM     67  N   UNL A   1      44.491  32.305  29.266  1.00  0.00    -0.248 NA
ATOM     68  C   UNL A   1      46.173  32.432  27.711  1.00  0.00     0.031 C 
ATOM     69  C   UNL A   1      42.619  33.813  31.580  1.00  0.00     0.029 A 
ATOM     70  C   UNL A   1      42.608  34.096  30.226  1.00  0.00     0.049 A 
ATOM     71  H   UNL A   1      41.010  33.992  28.873  1.00  0.00     0.167 HD
ATOM     72  C   UNL A   1      44.491  33.592  28.810  1.00  0.00     0.074 A 
ATOM     73  C   UNL A   1      45.563  33.626  27.830  1.00  0.00     0.031 C 
ATOM     74  C   UNL A   1      43.594  34.524  29.248  1.00  0.00     0.031 A 
BRANCH  61  75
ATOM     75  C   UNL A   1      37.910  33.178  31.171  1.00  0.00    -0.014 A 
ATOM     76  C   UNL A   1      36.735  32.501  30.793  1.00  0.00     0.010 A 
ATOM     77  C   UNL A   1      37.757  34.183  32.146  1.00  0.00     0.010 A 
ATOM     78  C   UNL A   1      35.476  32.853  31.300  1.00  0.00     0.020 A 
ATOM     79  C   UNL A   1      36.504  34.567  32.644  1.00  0.00     0.020 A 
ATOM     80  C   UNL A   1      35.367  33.900  32.211  1.00  0.00     0.054 A 
BRANCH  80  81
ATOM     81  S   UNL A   1      33.732  34.362  32.832  1.00  0.00     0.124 S 
ATOM     82  O   UNL A   1      33.182  33.076  33.251  1.00  0.00    -0.237 OA
ATOM     83  O   UNL A   1      34.061  35.291  33.910  1.00  0.00    -0.237 OA
ATOM     84  O   UNL A   1      33.077  34.964  31.672  1.00  0.00    -0.744 OA
ENDBRANCH  80  81
ENDBRANCH  61  75
BRANCH  62  85
ATOM     85  C   UNL A   1      45.919  29.108  27.790  1.00  0.00    -0.014 A 
ATOM     86  C   UNL A   1      47.047  28.280  28.009  1.00  0.00     0.010 A 
ATOM     87  C   UNL A   1      44.957  28.685  26.859  1.00  0.00     0.010 A 
ATOM     88  C   UNL A   1      47.100  26.988  27.493  1.00  0.00     0.020 A 
ATOM     89  C   UNL A   1      45.057  27.411  26.266  1.00  0.00     0.020 A 
ATOM     90  C   UNL A   1      46.099  26.554  26.630  1.00  0.00     0.054 A 
BRANCH  90  91
ATOM     91  S   UNL A   1      46.124  24.812  26.110  1.00  0.00     0.124 S 
ATOM     92  O   UNL A   1      45.549  24.898  24.774  1.00  0.00    -0.237 OA
ATOM     93  O   UNL A   1      47.550  24.485  26.181  1.00  0.00    -0.237 OA
ATOM     94  O   UNL A   1      45.280  24.156  27.103  1.00  0.00    -0.744 OA
ENDBRANCH  90  91
ENDBRANCH  62  85
BRANCH  74  95
ATOM     95  C   UNL A   1      43.546  35.940  28.745  1.00  0.00    -0.014 A 
ATOM     96  C   UNL A   1      43.674  37.048  29.593  1.00  0.00     0.010 A 
ATOM     97  C   UNL A   1      43.250  36.191  27.386  1.00  0.00     0.010 A 
ATOM     98  C   UNL A   1      43.585  38.354  29.089  1.00  0.00     0.020 A 
ATOM     99  C   UNL A   1      43.135  37.484  26.877  1.00  0.00     0.020 A 
ATOM    100  C   UNL A   1      43.330  38.561  27.730  1.00  0.00     0.054 A 
BRANCH 100 101
ATOM    101  S   UNL A   1      43.217  40.250  27.093  1.00  0.00     0.124 S 
ATOM    102  O   UNL A   1      43.854  41.034  28.149  1.00  0.00    -0.237 OA
ATOM    103  O   UNL A   1      43.968  40.150  25.846  1.00  0.00    -0.237 OA
ATOM    104  O   UNL A   1      41.780  40.470  26.942  1.00  0.00    -0.744 OA
ENDBRANCH 100 101
ENDBRANCH  74  95
ENDBRANCH  48  49
ENDBRANCH  40  43
ENDBRANCH  38  39
ENDBRANCH  37  38
ENDBRANCH   1  37
TORSDOF 20
ENDMDL
MODEL 3
REMARK VINA RESULT:     -11.6      4.197      5.732
REMARK SMILES Cc1ccc(S(=O)(=O)N2CCCC2)cc1C(=O)N[C@H](CC1=c2ccccc2=NC1)C(=O)NCCCCNC(=O)c1ccc(-c2c3nc(c(-c4ccc(S(=O)(=O)[O-])cc4)c4ccc([nH]4)c(-c4ccc(S(=O)(=O)[O-])cc4)c4nc(c(-c5ccc(S(=O)(=O)[O-])cc5)c5ccc2[nH]5)C=C4)C=C3)cc1
REMARK SMILES IDX 34 1 33 2 32 3 30 4 31 5 19 7 18 8 16 9 17 10 15 12 1 13
REMARK SMILES IDX 2 14 3 15 4 16 14 17 5 18 6 19 7 20 8 21 9 22 10 23 13 24
REMARK SMILES IDX 11 25 12 26 20 27 21 28 22 29 29 30 23 31 27 32 28 33 24 34
REMARK SMILES IDX 26 35 25 36 35 37 36 38 37 39 38 40 39 42 40 43 41 44 99 45
REMARK SMILES IDX 42 46 98 47 43 48 44 49 45 50 92 51 46 52 97 53 91 54 93 55
REMARK SMILES IDX 47 56 96 57 90 58 89 59 48 61 78 62 59 63 77 64 60 65 63 66
REMARK SMILES IDX 76 67 94 68 61 69 62 70 75 72 95 73 64 74 49 75 50 76 58 77
REMARK SMILES IDX 51 78 57 79 52 80 53 81 54 82 55 83 56 84 79 85 80 86 88 87
REMARK SMILES IDX 81 88 87 89 82 90 83 91 84 92 85 93 86 94 65 95 66 96 74 97
REMARK SMILES IDX 67 98 73 99 68 100 69 101 70 102 71 103 72 104
REMARK H PARENT 32 6 18 11 37 41 93 60 63 71
REMARK Flexibility Score: inf
ROOT
ATOM      1  C   UNL A   1      39.867  21.509  26.311  1.00  0.00     0.023 C 
ENDROOT
BRANCH   1   2
ATOM      2  C   UNL A   1      38.468  21.456  25.692  1.00  0.00     0.116 C 
BRANCH   2   3
ATOM      3  N   UNL A   1      37.891  22.772  25.511  1.00  0.00    -0.354 N 
ATOM      4  C   UNL A   1      36.626  23.246  25.523  1.00  0.00     0.242 C 
ATOM      5  O   UNL A   1      36.542  24.482  25.485  1.00  0.00    -0.273 OA
ATOM      6  H   UNL A   1      38.565  23.471  25.347  1.00  0.00     0.163 HD
BRANCH   4   7
ATOM      7  C   UNL A   1      35.321  22.394  25.560  1.00  0.00     0.175 C 
BRANCH   7   8
ATOM      8  N   UNL A   1      34.323  22.450  26.675  1.00  0.00    -0.340 N 
ATOM      9  C   UNL A   1      33.186  23.010  27.186  1.00  0.00     0.252 C 
ATOM     10  O   UNL A   1      32.914  22.545  28.305  1.00  0.00    -0.269 OA
ATOM     11  H   UNL A   1      34.619  21.784  27.337  1.00  0.00     0.164 HD
BRANCH   9  12
ATOM     12  C   UNL A   1      32.212  24.021  26.641  1.00  0.00     0.044 A 
ATOM     13  C   UNL A   1      30.093  22.625  26.548  1.00  0.00     0.045 C 
ATOM     14  C   UNL A   1      30.847  23.878  26.371  1.00  0.00    -0.038 A 
ATOM     15  C   UNL A   1      30.082  24.950  25.860  1.00  0.00     0.005 A 
ATOM     16  C   UNL A   1      30.668  26.144  25.503  1.00  0.00     0.022 A 
ATOM     17  C   UNL A   1      32.785  25.270  26.287  1.00  0.00     0.035 A 
ATOM     18  C   UNL A   1      32.038  26.279  25.656  1.00  0.00     0.083 A 
BRANCH  18  19
ATOM     19  S   UNL A   1      32.766  27.716  24.897  1.00  0.00     0.243 S 
ATOM     20  O   UNL A   1      33.922  27.220  24.157  1.00  0.00    -0.207 OA
ATOM     21  O   UNL A   1      31.713  28.415  24.225  1.00  0.00    -0.207 OA
BRANCH  19  22
ATOM     22  N   UNL A   1      33.339  28.628  26.181  1.00  0.00    -0.198 NA
ATOM     23  C   UNL A   1      34.778  28.609  26.478  1.00  0.00     0.102 C 
ATOM     24  C   UNL A   1      32.907  30.042  26.262  1.00  0.00     0.102 C 
ATOM     25  C   UNL A   1      34.840  29.549  27.665  1.00  0.00     0.018 C 
ATOM     26  C   UNL A   1      33.884  30.670  27.265  1.00  0.00     0.018 C 
ENDBRANCH  19  22
ENDBRANCH  18  19
ENDBRANCH   9  12
ENDBRANCH   7   8
BRANCH   7  27
ATOM     27  C   UNL A   1      35.314  21.066  24.701  1.00  0.00     0.068 C 
BRANCH  27  28
ATOM     28  C   UNL A   1      34.133  20.112  24.725  1.00  0.00    -0.037 C 
ATOM     29  C   UNL A   1      34.136  18.780  24.642  1.00  0.00     0.001 A 
ATOM     30  C   UNL A   1      32.703  20.583  24.756  1.00  0.00     0.174 C 
ATOM     31  C   UNL A   1      35.137  17.770  24.532  1.00  0.00     0.010 A 
ATOM     32  C   UNL A   1      32.708  18.423  24.719  1.00  0.00     0.065 A 
ATOM     33  N   UNL A   1      31.840  19.385  24.698  1.00  0.00    -0.280 NA
ATOM     34  C   UNL A   1      34.764  16.481  24.605  1.00  0.00     0.001 A 
ATOM     35  C   UNL A   1      32.376  16.993  24.834  1.00  0.00     0.028 A 
ATOM     36  C   UNL A   1      33.375  16.098  24.798  1.00  0.00     0.002 A 
ENDBRANCH  27  28
ENDBRANCH   7  27
ENDBRANCH   4   7
ENDBRANCH   2   3
ENDBRANCH   1   2
BRANCH   1  37
ATOM     37  C   UNL A   1      40.499  22.887  26.461  1.00  0.00     0.023 C 
BRANCH  37  38
ATOM     38  C   UNL A   1      41.437  22.958  27.645  1.00  0.00     0.116 C 
BRANCH  38  39
ATOM     39  N   UNL A   1      42.840  23.195  27.347  1.00  0.00    -0.352 N 
ATOM     40  C   UNL A   1      43.392  24.408  26.941  1.00  0.00     0.251 C 
ATOM     41  H   UNL A   1      43.453  22.431  27.439  1.00  0.00     0.163 HD
ATOM     42  O   UNL A   1      44.439  24.483  26.311  1.00  0.00    -0.269 OA
BRANCH  40  43
ATOM     43  C   UNL A   1      42.724  25.632  27.445  1.00  0.00     0.039 A 
ATOM     44  C   UNL A   1      42.572  26.695  26.548  1.00  0.00     0.014 A 
ATOM     45  C   UNL A   1      42.647  25.842  28.815  1.00  0.00     0.014 A 
ATOM     46  C   UNL A   1      42.585  28.001  27.026  1.00  0.00     0.010 A 
ATOM     47  C   UNL A   1      42.835  27.122  29.275  1.00  0.00     0.010 A 
ATOM     48  C   UNL A   1      42.823  28.198  28.380  1.00  0.00    -0.014 A 
BRANCH  48  49
ATOM     49  C   UNL A   1      42.950  29.491  29.025  1.00  0.00     0.031 A 
ATOM     50  C   UNL A   1      41.715  30.260  29.226  1.00  0.00     0.074 A 
ATOM     51  C   UNL A   1      44.116  29.866  29.588  1.00  0.00     0.049 A 
ATOM     52  N   UNL A   1      41.676  31.511  29.515  1.00  0.00    -0.248 NA
ATOM     53  C   UNL A   1      40.391  29.659  29.088  1.00  0.00     0.031 C 
ATOM     54  C   UNL A   1      44.364  30.952  30.531  1.00  0.00     0.029 A 
ATOM     55  N   UNL A   1      45.386  29.474  29.182  1.00  0.00    -0.354 N 
ATOM     56  C   UNL A   1      40.400  31.775  29.954  1.00  0.00     0.074 A 
ATOM     57  C   UNL A   1      39.615  30.634  29.559  1.00  0.00     0.031 C 
ATOM     58  C   UNL A   1      45.644  31.344  30.405  1.00  0.00     0.029 A 
ATOM     59  C   UNL A   1      46.188  30.631  29.261  1.00  0.00     0.049 A 
ATOM     60  H   UNL A   1      45.667  28.574  28.898  1.00  0.00     0.167 HD
ATOM     61  C   UNL A   1      40.204  32.858  30.754  1.00  0.00     0.031 A 
ATOM     62  C   UNL A   1      46.640  31.205  28.102  1.00  0.00     0.031 A 
ATOM     63  C   UNL A   1      41.412  33.684  30.833  1.00  0.00     0.049 A 
ATOM     64  C   UNL A   1      46.119  32.613  27.874  1.00  0.00     0.074 A 
ATOM     65  C   UNL A   1      42.382  33.904  31.798  1.00  0.00     0.029 A 
ATOM     66  N   UNL A   1      41.934  34.183  29.650  1.00  0.00    -0.354 N 
ATOM     67  N   UNL A   1      45.203  33.178  28.613  1.00  0.00    -0.248 NA
ATOM     68  C   UNL A   1      46.536  33.477  26.769  1.00  0.00     0.031 C 
ATOM     69  C   UNL A   1      43.509  34.509  31.161  1.00  0.00     0.029 A 
ATOM     70  C   UNL A   1      43.210  34.677  29.820  1.00  0.00     0.049 A 
ATOM     71  H   UNL A   1      41.451  34.184  28.792  1.00  0.00     0.167 HD
ATOM     72  C   UNL A   1      44.881  34.405  28.106  1.00  0.00     0.074 A 
ATOM     73  C   UNL A   1      45.742  34.549  26.944  1.00  0.00     0.031 C 
ATOM     74  C   UNL A   1      43.914  35.195  28.658  1.00  0.00     0.031 A 
BRANCH  61  75
ATOM     75  C   UNL A   1      39.006  33.019  31.658  1.00  0.00    -0.014 A 
ATOM     76  C   UNL A   1      37.836  33.609  31.140  1.00  0.00     0.010 A 
ATOM     77  C   UNL A   1      38.972  32.678  33.023  1.00  0.00     0.010 A 
ATOM     78  C   UNL A   1      36.731  33.907  31.950  1.00  0.00     0.020 A 
ATOM     79  C   UNL A   1      37.888  32.992  33.854  1.00  0.00     0.020 A 
ATOM     80  C   UNL A   1      36.772  33.613  33.310  1.00  0.00     0.054 A 
BRANCH  80  81
ATOM     81  S   UNL A   1      35.350  34.031  34.346  1.00  0.00     0.124 S 
ATOM     82  O   UNL A   1      35.858  33.779  35.692  1.00  0.00    -0.237 OA
ATOM     83  O   UNL A   1      35.120  35.433  34.008  1.00  0.00    -0.237 OA
ATOM     84  O   UNL A   1      34.310  33.106  33.897  1.00  0.00    -0.744 OA
ENDBRANCH  80  81
ENDBRANCH  61  75
BRANCH  62  85
ATOM     85  C   UNL A   1      46.931  30.177  27.047  1.00  0.00    -0.014 A 
ATOM     86  C   UNL A   1      48.226  29.604  27.075  1.00  0.00     0.010 A 
ATOM     87  C   UNL A   1      45.919  29.498  26.350  1.00  0.00     0.010 A 
ATOM     88  C   UNL A   1      48.446  28.307  26.620  1.00  0.00     0.020 A 
ATOM     89  C   UNL A   1      46.166  28.221  25.810  1.00  0.00     0.020 A 
ATOM     90  C   UNL A   1      47.412  27.615  25.998  1.00  0.00     0.054 A 
BRANCH  90  91
ATOM     91  S   UNL A   1      47.697  25.872  25.567  1.00  0.00     0.124 S 
ATOM     92  O   UNL A   1      47.595  25.228  26.871  1.00  0.00    -0.237 OA
ATOM     93  O   UNL A   1      46.609  25.600  24.626  1.00  0.00    -0.237 OA
ATOM     94  O   UNL A   1      49.037  25.886  24.990  1.00  0.00    -0.744 OA
ENDBRANCH  90  91
ENDBRANCH  62  85
BRANCH  74  95
ATOM     95  C   UNL A   1      43.513  36.535  28.108  1.00  0.00    -0.014 A 
ATOM     96  C   UNL A   1      42.406  36.706  27.266  1.00  0.00     0.010 A 
ATOM     97  C   UNL A   1      44.333  37.662  28.342  1.00  0.00     0.010 A 
ATOM     98  C   UNL A   1      42.089  37.968  26.743  1.00  0.00     0.020 A 
ATOM     99  C   UNL A   1      44.043  38.917  27.808  1.00  0.00     0.020 A 
ATOM    100  C   UNL A   1      42.903  39.068  27.031  1.00  0.00     0.054 A 
BRANCH 100 101
ATOM    101  S   UNL A   1      42.483  40.689  26.349  1.00  0.00     0.124 S 
ATOM    102  O   UNL A   1      41.023  40.650  26.305  1.00  0.00    -0.237 OA
ATOM    103  O   UNL A   1      43.058  41.590  27.344  1.00  0.00    -0.237 OA
ATOM    104  O   UNL A   1      43.140  40.699  25.044  1.00  0.00    -0.744 OA
ENDBRANCH 100 101
ENDBRANCH  74  95
ENDBRANCH  48  49
ENDBRANCH  40  43
ENDBRANCH  38  39
ENDBRANCH  37  38
ENDBRANCH   1  37
TORSDOF 20
ENDMDL
