MODEL 1
REMARK VINA RESULT:     -13.0      0.000      0.000
REMARK SMILES NS(=O)(=O)c1ccc(-n2nc(C(=O)NCCCCNC(=O)c3ccc(-c4c5nc(c(-c6ccc(S(=O)(=O)[O-])cc6)c6ccc([nH]6)c(-c6ccc(S(=O)(=O)[O-])cc6)c6nc(c(-c7ccc(S(=O)(=O)[O-])cc7)c7ccc4[nH]7)C=C6)C=C5)cc3)cc2-c2ccc(Cl)s2)cc1
REMARK SMILES IDX 16 1 15 2 14 3 12 4 13 5 11 7 9 8 10 9 83 10 82 11 8 12 5 13
REMARK SMILES IDX 6 14 91 15 7 16 90 17 2 18 3 19 4 20 1 21 84 24 85 25 89 26
REMARK SMILES IDX 86 27 87 28 88 29 17 30 18 31 19 32 20 33 21 35 22 36 23 37
REMARK SMILES IDX 81 38 24 39 80 40 25 41 26 42 27 43 74 44 28 45 79 46 73 47
REMARK SMILES IDX 75 48 29 49 78 50 72 51 71 52 30 54 60 55 41 56 59 57 42 58
REMARK SMILES IDX 45 59 58 60 76 61 43 62 44 63 57 65 77 66 46 67 31 68 32 69
REMARK SMILES IDX 40 70 33 71 39 72 34 73 35 74 36 75 37 76 38 77 61 78 62 79
REMARK SMILES IDX 70 80 63 81 69 82 64 83 65 84 66 85 67 86 68 87 47 88 48 89
REMARK SMILES IDX 56 90 49 91 55 92 50 93 51 94 52 95 53 96 54 97
REMARK H PARENT 14 6 1 22 1 23 19 34 75 53 45 64
REMARK Flexibility Score: inf
ROOT
ATOM      1  C   UNL A   1      34.985  21.579  25.029  1.00  0.00     0.023 C 
ENDROOT
BRANCH   1   2
ATOM      2  C   UNL A   1      33.597  21.933  24.483  1.00  0.00     0.116 C 
BRANCH   2   3
ATOM      3  N   UNL A   1      33.643  22.331  23.091  1.00  0.00    -0.351 N 
ATOM      4  C   UNL A   1      33.327  23.492  22.416  1.00  0.00     0.271 C 
ATOM      5  O   UNL A   1      33.475  23.439  21.191  1.00  0.00    -0.267 OA
ATOM      6  H   UNL A   1      33.972  21.619  22.497  1.00  0.00     0.163 HD
BRANCH   4   7
ATOM      7  C   UNL A   1      32.856  24.724  23.094  1.00  0.00     0.151 A 
ATOM      8  N   UNL A   1      31.722  26.551  23.305  1.00  0.00    -0.231 N 
ATOM      9  N   UNL A   1      31.799  25.404  22.592  1.00  0.00    -0.162 NA
ATOM     10  C   UNL A   1      32.556  26.519  24.407  1.00  0.00     0.085 A 
ATOM     11  C   UNL A   1      33.300  25.366  24.277  1.00  0.00     0.066 A 
BRANCH   8  12
ATOM     12  C   UNL A   1      30.816  27.580  22.940  1.00  0.00     0.065 A 
ATOM     13  C   UNL A   1      29.096  29.726  22.515  1.00  0.00     0.082 A 
ATOM     14  C   UNL A   1      30.420  29.807  22.076  1.00  0.00     0.024 A 
ATOM     15  C   UNL A   1      28.609  28.555  23.109  1.00  0.00     0.024 A 
ATOM     16  C   UNL A   1      31.286  28.739  22.304  1.00  0.00     0.030 A 
ATOM     17  C   UNL A   1      29.466  27.465  23.294  1.00  0.00     0.030 A 
BRANCH  13  18
ATOM     18  S   UNL A   1      28.056  31.138  22.294  1.00  0.00     0.238 S 
ATOM     19  O   UNL A   1      27.148  31.232  23.411  1.00  0.00    -0.207 OA
ATOM     20  O   UNL A   1      27.604  31.161  20.921  1.00  0.00    -0.207 OA
BRANCH  18  21
ATOM     21  N   UNL A   1      29.090  32.452  22.457  1.00  0.00    -0.225 NA
ATOM     22  H   UNL A   1      29.799  32.241  23.159  1.00  0.00     0.137 HD
ATOM     23  H   UNL A   1      28.555  33.270  22.749  1.00  0.00     0.137 HD
ENDBRANCH  18  21
ENDBRANCH  13  18
ENDBRANCH   8  12
BRANCH  10  24
ATOM     24  C   UNL A   1      32.557  27.434  25.508  1.00  0.00     0.054 A 
ATOM     25  C   UNL A   1      31.818  27.336  26.671  1.00  0.00     0.024 A 
ATOM     26  S   UNL A   1      33.463  28.893  25.457  1.00  0.00    -0.122 S 
ATOM     27  C   UNL A   1      32.018  28.457  27.532  1.00  0.00     0.033 A 
ATOM     28  C   UNL A   1      32.887  29.359  26.975  1.00  0.00     0.094 A 
ATOM     29  Cl  UNL A   1      33.395  30.852  27.656  1.00  0.00    -0.072 Cl
ENDBRANCH  10  24
ENDBRANCH   4   7
ENDBRANCH   2   3
ENDBRANCH   1   2
BRANCH   1  30
ATOM     30  C   UNL A   1      35.748  22.760  25.657  1.00  0.00     0.023 C 
BRANCH  30  31
ATOM     31  C   UNL A   1      37.218  22.873  25.252  1.00  0.00     0.116 C 
BRANCH  31  32
ATOM     32  N   UNL A   1      38.060  21.850  25.869  1.00  0.00    -0.352 N 
ATOM     33  C   UNL A   1      39.315  21.997  26.426  1.00  0.00     0.251 C 
ATOM     34  H   UNL A   1      37.684  20.939  25.890  1.00  0.00     0.163 HD
ATOM     35  O   UNL A   1      40.057  21.031  26.564  1.00  0.00    -0.269 OA
BRANCH  33  36
ATOM     36  C   UNL A   1      39.745  23.339  26.858  1.00  0.00     0.039 A 
ATOM     37  C   UNL A   1      38.874  24.429  26.805  1.00  0.00     0.014 A 
ATOM     38  C   UNL A   1      41.033  23.478  27.370  1.00  0.00     0.014 A 
ATOM     39  C   UNL A   1      39.274  25.642  27.367  1.00  0.00     0.010 A 
ATOM     40  C   UNL A   1      41.383  24.641  28.020  1.00  0.00     0.010 A 
ATOM     41  C   UNL A   1      40.522  25.738  28.001  1.00  0.00    -0.014 A 
BRANCH  41  42
ATOM     42  C   UNL A   1      40.883  26.948  28.744  1.00  0.00     0.031 A 
ATOM     43  C   UNL A   1      41.922  27.819  28.115  1.00  0.00     0.074 A 
ATOM     44  C   UNL A   1      40.166  27.414  29.789  1.00  0.00     0.049 A 
ATOM     45  N   UNL A   1      43.091  28.127  28.571  1.00  0.00    -0.248 NA
ATOM     46  C   UNL A   1      41.652  28.350  26.769  1.00  0.00     0.031 C 
ATOM     47  C   UNL A   1      38.909  26.878  30.327  1.00  0.00     0.029 A 
ATOM     48  N   UNL A   1      40.335  28.562  30.503  1.00  0.00    -0.354 N 
ATOM     49  C   UNL A   1      43.635  29.044  27.670  1.00  0.00     0.074 A 
ATOM     50  C   UNL A   1      42.777  29.020  26.512  1.00  0.00     0.031 C 
ATOM     51  C   UNL A   1      38.305  27.821  31.082  1.00  0.00     0.029 A 
ATOM     52  C   UNL A   1      39.215  28.941  31.233  1.00  0.00     0.049 A 
ATOM     53  H   UNL A   1      41.174  29.076  30.503  1.00  0.00     0.167 HD
ATOM     54  C   UNL A   1      44.622  29.916  28.023  1.00  0.00     0.031 A 
ATOM     55  C   UNL A   1      39.022  30.104  31.897  1.00  0.00     0.031 A 
ATOM     56  C   UNL A   1      45.208  29.575  29.293  1.00  0.00     0.049 A 
ATOM     57  C   UNL A   1      40.354  30.705  32.137  1.00  0.00     0.074 A 
ATOM     58  C   UNL A   1      45.892  28.491  29.799  1.00  0.00     0.029 A 
ATOM     59  N   UNL A   1      44.792  30.309  30.379  1.00  0.00    -0.354 N 
ATOM     60  N   UNL A   1      41.259  30.163  32.904  1.00  0.00    -0.248 NA
ATOM     61  C   UNL A   1      40.848  31.708  31.208  1.00  0.00     0.031 C 
ATOM     62  C   UNL A   1      45.458  28.382  31.152  1.00  0.00     0.029 A 
ATOM     63  C   UNL A   1      44.579  29.436  31.412  1.00  0.00     0.049 A 
ATOM     64  H   UNL A   1      44.669  31.286  30.408  1.00  0.00     0.167 HD
ATOM     65  C   UNL A   1      42.466  30.434  32.278  1.00  0.00     0.074 A 
ATOM     66  C   UNL A   1      42.160  31.489  31.316  1.00  0.00     0.031 C 
ATOM     67  C   UNL A   1      43.532  29.588  32.404  1.00  0.00     0.031 A 
BRANCH  54  68
ATOM     68  C   UNL A   1      44.802  31.298  27.430  1.00  0.00    -0.014 A 
ATOM     69  C   UNL A   1      46.053  31.644  26.874  1.00  0.00     0.010 A 
ATOM     70  C   UNL A   1      43.894  32.351  27.656  1.00  0.00     0.010 A 
ATOM     71  C   UNL A   1      46.406  32.981  26.643  1.00  0.00     0.020 A 
ATOM     72  C   UNL A   1      44.219  33.683  27.386  1.00  0.00     0.020 A 
ATOM     73  C   UNL A   1      45.489  33.994  26.921  1.00  0.00     0.054 A 
BRANCH  73  74
ATOM     74  S   UNL A   1      45.994  35.724  26.751  1.00  0.00     0.124 S 
ATOM     75  O   UNL A   1      46.788  35.923  27.960  1.00  0.00    -0.237 OA
ATOM     76  O   UNL A   1      46.741  35.709  25.497  1.00  0.00    -0.237 OA
ATOM     77  O   UNL A   1      44.725  36.447  26.707  1.00  0.00    -0.744 OA
ENDBRANCH  73  74
ENDBRANCH  54  68
BRANCH  55  78
ATOM     78  C   UNL A   1      37.747  30.828  32.102  1.00  0.00    -0.014 A 
ATOM     79  C   UNL A   1      37.445  31.453  33.325  1.00  0.00     0.010 A 
ATOM     80  C   UNL A   1      36.923  31.118  30.994  1.00  0.00     0.010 A 
ATOM     81  C   UNL A   1      36.384  32.370  33.423  1.00  0.00     0.020 A 
ATOM     82  C   UNL A   1      35.862  32.026  31.084  1.00  0.00     0.020 A 
ATOM     83  C   UNL A   1      35.610  32.663  32.296  1.00  0.00     0.054 A 
BRANCH  83  84
ATOM     84  S   UNL A   1      34.345  33.965  32.395  1.00  0.00     0.124 S 
ATOM     85  O   UNL A   1      33.350  33.362  33.277  1.00  0.00    -0.237 OA
ATOM     86  O   UNL A   1      35.091  35.088  32.956  1.00  0.00    -0.237 OA
ATOM     87  O   UNL A   1      33.920  34.138  31.007  1.00  0.00    -0.744 OA
ENDBRANCH  83  84
ENDBRANCH  55  78
BRANCH  67  88
ATOM     88  C   UNL A   1      43.512  28.556  33.506  1.00  0.00    -0.014 A 
ATOM     89  C   UNL A   1      44.135  28.733  34.756  1.00  0.00     0.010 A 
ATOM     90  C   UNL A   1      42.681  27.436  33.323  1.00  0.00     0.010 A 
ATOM     91  C   UNL A   1      43.938  27.805  35.791  1.00  0.00     0.020 A 
ATOM     92  C   UNL A   1      42.467  26.519  34.353  1.00  0.00     0.020 A 
ATOM     93  C   UNL A   1      43.100  26.705  35.582  1.00  0.00     0.054 A 
BRANCH  93  94
ATOM     94  S   UNL A   1      42.787  25.547  36.945  1.00  0.00     0.124 S 
ATOM     95  O   UNL A   1      43.951  24.667  36.887  1.00  0.00    -0.237 OA
ATOM     96  O   UNL A   1      42.722  26.427  38.110  1.00  0.00    -0.237 OA
ATOM     97  O   UNL A   1      41.517  24.919  36.584  1.00  0.00    -0.744 OA
ENDBRANCH  93  94
ENDBRANCH  67  88
ENDBRANCH  41  42
ENDBRANCH  33  36
ENDBRANCH  31  32
ENDBRANCH  30  31
ENDBRANCH   1  30
TORSDOF 18
ENDMDL
MODEL 2
REMARK VINA RESULT:     -12.4      2.957      7.384
REMARK SMILES NS(=O)(=O)c1ccc(-n2nc(C(=O)NCCCCNC(=O)c3ccc(-c4c5nc(c(-c6ccc(S(=O)(=O)[O-])cc6)c6ccc([nH]6)c(-c6ccc(S(=O)(=O)[O-])cc6)c6nc(c(-c7ccc(S(=O)(=O)[O-])cc7)c7ccc4[nH]7)C=C6)C=C5)cc3)cc2-c2ccc(Cl)s2)cc1
REMARK SMILES IDX 16 1 15 2 14 3 12 4 13 5 11 7 9 8 10 9 83 10 82 11 8 12 5 13
REMARK SMILES IDX 6 14 91 15 7 16 90 17 2 18 3 19 4 20 1 21 84 24 85 25 89 26
REMARK SMILES IDX 86 27 87 28 88 29 17 30 18 31 19 32 20 33 21 35 22 36 23 37
REMARK SMILES IDX 81 38 24 39 80 40 25 41 26 42 27 43 74 44 28 45 79 46 73 47
REMARK SMILES IDX 75 48 29 49 78 50 72 51 71 52 30 54 60 55 41 56 59 57 42 58
REMARK SMILES IDX 45 59 58 60 76 61 43 62 44 63 57 65 77 66 46 67 31 68 32 69
REMARK SMILES IDX 40 70 33 71 39 72 34 73 35 74 36 75 37 76 38 77 61 78 62 79
REMARK SMILES IDX 70 80 63 81 69 82 64 83 65 84 66 85 67 86 68 87 47 88 48 89
REMARK SMILES IDX 56 90 49 91 55 92 50 93 51 94 52 95 53 96 54 97
REMARK H PARENT 14 6 1 22 1 23 19 34 75 53 45 64
REMARK Flexibility Score: inf
ROOT
ATOM      1  C   UNL A   1      34.640  20.783  24.626  1.00  0.00     0.023 C 
ENDROOT
BRANCH   1   2
ATOM      2  C   UNL A   1      33.836  22.069  24.409  1.00  0.00     0.116 C 
BRANCH   2   3
ATOM      3  N   UNL A   1      33.799  22.462  23.015  1.00  0.00    -0.351 N 
ATOM      4  C   UNL A   1      33.412  23.608  22.352  1.00  0.00     0.271 C 
ATOM      5  O   UNL A   1      33.500  23.552  21.122  1.00  0.00    -0.267 OA
ATOM      6  H   UNL A   1      34.121  21.757  22.408  1.00  0.00     0.163 HD
BRANCH   4   7
ATOM      7  C   UNL A   1      32.934  24.828  23.048  1.00  0.00     0.151 A 
ATOM      8  N   UNL A   1      31.799  26.650  23.282  1.00  0.00    -0.231 N 
ATOM      9  N   UNL A   1      31.883  25.518  22.549  1.00  0.00    -0.162 NA
ATOM     10  C   UNL A   1      32.623  26.598  24.391  1.00  0.00     0.085 A 
ATOM     11  C   UNL A   1      33.367  25.447  24.247  1.00  0.00     0.066 A 
BRANCH   8  12
ATOM     12  C   UNL A   1      30.897  27.687  22.928  1.00  0.00     0.065 A 
ATOM     13  C   UNL A   1      29.201  29.855  22.516  1.00  0.00     0.082 A 
ATOM     14  C   UNL A   1      30.505  29.895  22.015  1.00  0.00     0.024 A 
ATOM     15  C   UNL A   1      28.720  28.712  23.167  1.00  0.00     0.024 A 
ATOM     16  C   UNL A   1      31.360  28.816  22.235  1.00  0.00     0.030 A 
ATOM     17  C   UNL A   1      29.563  27.610  23.347  1.00  0.00     0.030 A 
BRANCH  13  18
ATOM     18  S   UNL A   1      28.179  31.280  22.299  1.00  0.00     0.238 S 
ATOM     19  O   UNL A   1      29.019  32.449  22.199  1.00  0.00    -0.207 OA
ATOM     20  O   UNL A   1      27.075  31.195  23.228  1.00  0.00    -0.207 OA
BRANCH  18  21
ATOM     21  N   UNL A   1      27.508  31.089  20.771  1.00  0.00    -0.225 NA
ATOM     22  H   UNL A   1      28.215  31.289  20.063  1.00  0.00     0.137 HD
ATOM     23  H   UNL A   1      26.725  31.733  20.662  1.00  0.00     0.137 HD
ENDBRANCH  18  21
ENDBRANCH  13  18
ENDBRANCH   8  12
BRANCH  10  24
ATOM     24  C   UNL A   1      32.613  27.492  25.509  1.00  0.00     0.054 A 
ATOM     25  C   UNL A   1      31.730  27.487  26.571  1.00  0.00     0.024 A 
ATOM     26  S   UNL A   1      33.711  28.810  25.608  1.00  0.00    -0.122 S 
ATOM     27  C   UNL A   1      31.975  28.560  27.481  1.00  0.00     0.033 A 
ATOM     28  C   UNL A   1      33.022  29.337  27.057  1.00  0.00     0.094 A 
ATOM     29  Cl  UNL A   1      33.643  30.737  27.835  1.00  0.00    -0.072 Cl
ENDBRANCH  10  24
ENDBRANCH   4   7
ENDBRANCH   2   3
ENDBRANCH   1   2
BRANCH   1  30
ATOM     30  C   UNL A   1      35.877  20.945  25.528  1.00  0.00     0.023 C 
BRANCH  30  31
ATOM     31  C   UNL A   1      37.216  21.005  24.791  1.00  0.00     0.116 C 
BRANCH  31  32
ATOM     32  N   UNL A   1      38.049  19.826  25.022  1.00  0.00    -0.352 N 
ATOM     33  C   UNL A   1      39.313  19.768  25.575  1.00  0.00     0.251 C 
ATOM     34  H   UNL A   1      37.658  18.964  24.750  1.00  0.00     0.163 HD
ATOM     35  O   UNL A   1      40.041  18.802  25.375  1.00  0.00    -0.269 OA
BRANCH  33  36
ATOM     36  C   UNL A   1      39.771  20.888  26.416  1.00  0.00     0.039 A 
ATOM     37  C   UNL A   1      40.779  20.713  27.366  1.00  0.00     0.014 A 
ATOM     38  C   UNL A   1      39.203  22.141  26.201  1.00  0.00     0.014 A 
ATOM     39  C   UNL A   1      41.285  21.832  28.029  1.00  0.00     0.010 A 
ATOM     40  C   UNL A   1      39.777  23.255  26.773  1.00  0.00     0.010 A 
ATOM     41  C   UNL A   1      40.800  23.109  27.709  1.00  0.00    -0.014 A 
BRANCH  41  42
ATOM     42  C   UNL A   1      41.439  24.304  28.267  1.00  0.00     0.031 A 
ATOM     43  C   UNL A   1      40.628  25.559  28.232  1.00  0.00     0.074 A 
ATOM     44  C   UNL A   1      42.568  24.260  29.006  1.00  0.00     0.049 A 
ATOM     45  N   UNL A   1      40.885  26.662  27.610  1.00  0.00    -0.248 NA
ATOM     46  C   UNL A   1      39.324  25.554  28.917  1.00  0.00     0.031 C 
ATOM     47  C   UNL A   1      43.313  23.072  29.440  1.00  0.00     0.029 A 
ATOM     48  N   UNL A   1      43.210  25.272  29.654  1.00  0.00    -0.354 N 
ATOM     49  C   UNL A   1      39.881  27.561  27.973  1.00  0.00     0.074 A 
ATOM     50  C   UNL A   1      38.873  26.781  28.647  1.00  0.00     0.031 C 
ATOM     51  C   UNL A   1      44.123  23.399  30.469  1.00  0.00     0.029 A 
ATOM     52  C   UNL A   1      44.094  24.841  30.636  1.00  0.00     0.049 A 
ATOM     53  H   UNL A   1      43.062  26.223  29.447  1.00  0.00     0.167 HD
ATOM     54  C   UNL A   1      40.048  28.912  27.891  1.00  0.00     0.031 A 
ATOM     55  C   UNL A   1      44.743  25.600  31.549  1.00  0.00     0.031 A 
ATOM     56  C   UNL A   1      41.220  29.261  27.132  1.00  0.00     0.049 A 
ATOM     57  C   UNL A   1      44.753  26.991  31.043  1.00  0.00     0.074 A 
ATOM     58  C   UNL A   1      41.646  29.062  25.837  1.00  0.00     0.029 A 
ATOM     59  N   UNL A   1      42.334  29.622  27.853  1.00  0.00    -0.354 N 
ATOM     60  N   UNL A   1      45.385  27.360  29.964  1.00  0.00    -0.248 NA
ATOM     61  C   UNL A   1      43.726  27.911  31.505  1.00  0.00     0.031 C 
ATOM     62  C   UNL A   1      43.054  28.861  25.940  1.00  0.00     0.029 A 
ATOM     63  C   UNL A   1      43.414  29.005  27.283  1.00  0.00     0.049 A 
ATOM     64  H   UNL A   1      42.351  30.216  28.638  1.00  0.00     0.167 HD
ATOM     65  C   UNL A   1      44.569  28.318  29.381  1.00  0.00     0.074 A 
ATOM     66  C   UNL A   1      43.634  28.703  30.434  1.00  0.00     0.031 C 
ATOM     67  C   UNL A   1      44.553  28.503  28.028  1.00  0.00     0.031 A 
BRANCH  54  68
ATOM     68  C   UNL A   1      39.390  29.917  28.812  1.00  0.00    -0.014 A 
ATOM     69  C   UNL A   1      39.781  29.956  30.169  1.00  0.00     0.010 A 
ATOM     70  C   UNL A   1      38.216  30.616  28.469  1.00  0.00     0.010 A 
ATOM     71  C   UNL A   1      38.989  30.584  31.141  1.00  0.00     0.020 A 
ATOM     72  C   UNL A   1      37.444  31.284  29.423  1.00  0.00     0.020 A 
ATOM     73  C   UNL A   1      37.812  31.228  30.759  1.00  0.00     0.054 A 
BRANCH  73  74
ATOM     74  S   UNL A   1      36.724  31.919  32.031  1.00  0.00     0.124 S 
ATOM     75  O   UNL A   1      36.865  30.943  33.107  1.00  0.00    -0.237 OA
ATOM     76  O   UNL A   1      37.324  33.227  32.278  1.00  0.00    -0.237 OA
ATOM     77  O   UNL A   1      35.416  31.950  31.380  1.00  0.00    -0.744 OA
ENDBRANCH  73  74
ENDBRANCH  54  68
BRANCH  55  78
ATOM     78  C   UNL A   1      45.123  25.227  32.931  1.00  0.00    -0.014 A 
ATOM     79  C   UNL A   1      44.156  25.045  33.934  1.00  0.00     0.010 A 
ATOM     80  C   UNL A   1      46.441  24.800  33.201  1.00  0.00     0.010 A 
ATOM     81  C   UNL A   1      44.487  24.418  35.148  1.00  0.00     0.020 A 
ATOM     82  C   UNL A   1      46.779  24.180  34.408  1.00  0.00     0.020 A 
ATOM     83  C   UNL A   1      45.794  23.975  35.370  1.00  0.00     0.054 A 
BRANCH  83  84
ATOM     84  S   UNL A   1      46.172  23.026  36.874  1.00  0.00     0.124 S 
ATOM     85  O   UNL A   1      45.727  21.683  36.511  1.00  0.00    -0.237 OA
ATOM     86  O   UNL A   1      47.616  23.201  37.003  1.00  0.00    -0.237 OA
ATOM     87  O   UNL A   1      45.376  23.685  37.907  1.00  0.00    -0.744 OA
ENDBRANCH  83  84
ENDBRANCH  55  78
BRANCH  67  88
ATOM     88  C   UNL A   1      45.677  27.921  27.203  1.00  0.00    -0.014 A 
ATOM     89  C   UNL A   1      45.654  26.625  26.652  1.00  0.00     0.010 A 
ATOM     90  C   UNL A   1      46.717  28.790  26.831  1.00  0.00     0.010 A 
ATOM     91  C   UNL A   1      46.656  26.210  25.761  1.00  0.00     0.020 A 
ATOM     92  C   UNL A   1      47.707  28.390  25.932  1.00  0.00     0.020 A 
ATOM     93  C   UNL A   1      47.675  27.099  25.405  1.00  0.00     0.054 A 
BRANCH  93  94
ATOM     94  S   UNL A   1      48.928  26.585  24.194  1.00  0.00     0.124 S 
ATOM     95  O   UNL A   1      50.031  26.150  25.045  1.00  0.00    -0.237 OA
ATOM     96  O   UNL A   1      48.248  25.524  23.454  1.00  0.00    -0.237 OA
ATOM     97  O   UNL A   1      49.184  27.800  23.422  1.00  0.00    -0.744 OA
ENDBRANCH  93  94
ENDBRANCH  67  88
ENDBRANCH  41  42
ENDBRANCH  33  36
ENDBRANCH  31  32
ENDBRANCH  30  31
ENDBRANCH   1  30
TORSDOF 18
ENDMDL
MODEL 3
REMARK VINA RESULT:     -12.2      2.067      3.070
REMARK SMILES NS(=O)(=O)c1ccc(-n2nc(C(=O)NCCCCNC(=O)c3ccc(-c4c5nc(c(-c6ccc(S(=O)(=O)[O-])cc6)c6ccc([nH]6)c(-c6ccc(S(=O)(=O)[O-])cc6)c6nc(c(-c7ccc(S(=O)(=O)[O-])cc7)c7ccc4[nH]7)C=C6)C=C5)cc3)cc2-c2ccc(Cl)s2)cc1
REMARK SMILES IDX 16 1 15 2 14 3 12 4 13 5 11 7 9 8 10 9 83 10 82 11 8 12 5 13
REMARK SMILES IDX 6 14 91 15 7 16 90 17 2 18 3 19 4 20 1 21 84 24 85 25 89 26
REMARK SMILES IDX 86 27 87 28 88 29 17 30 18 31 19 32 20 33 21 35 22 36 23 37
REMARK SMILES IDX 81 38 24 39 80 40 25 41 26 42 27 43 74 44 28 45 79 46 73 47
REMARK SMILES IDX 75 48 29 49 78 50 72 51 71 52 30 54 60 55 41 56 59 57 42 58
REMARK SMILES IDX 45 59 58 60 76 61 43 62 44 63 57 65 77 66 46 67 31 68 32 69
REMARK SMILES IDX 40 70 33 71 39 72 34 73 35 74 36 75 37 76 38 77 61 78 62 79
REMARK SMILES IDX 70 80 63 81 69 82 64 83 65 84 66 85 67 86 68 87 47 88 48 89
REMARK SMILES IDX 56 90 49 91 55 92 50 93 51 94 52 95 53 96 54 97
REMARK H PARENT 14 6 1 22 1 23 19 34 75 53 45 64
REMARK Flexibility Score: inf
ROOT
ATOM      1  C   UNL A   1      35.024  23.088  24.127  1.00  0.00     0.023 C 
ENDROOT
BRANCH   1   2
ATOM      2  C   UNL A   1      34.659  22.753  25.578  1.00  0.00     0.116 C 
BRANCH   2   3
ATOM      3  N   UNL A   1      33.274  22.350  25.713  1.00  0.00    -0.351 N 
ATOM      4  C   UNL A   1      32.070  23.017  25.626  1.00  0.00     0.271 C 
ATOM      5  O   UNL A   1      31.072  22.321  25.838  1.00  0.00    -0.267 OA
ATOM      6  H   UNL A   1      33.169  21.392  25.910  1.00  0.00     0.163 HD
BRANCH   4   7
ATOM      7  C   UNL A   1      31.961  24.459  25.293  1.00  0.00     0.151 A 
ATOM      8  N   UNL A   1      32.244  26.580  25.586  1.00  0.00    -0.231 N 
ATOM      9  N   UNL A   1      32.680  25.366  25.993  1.00  0.00    -0.162 NA
ATOM     10  C   UNL A   1      31.429  26.479  24.474  1.00  0.00     0.085 A 
ATOM     11  C   UNL A   1      31.225  25.130  24.284  1.00  0.00     0.066 A 
BRANCH   8  12
ATOM     12  C   UNL A   1      32.676  27.767  26.233  1.00  0.00     0.065 A 
ATOM     13  C   UNL A   1      33.546  30.225  27.206  1.00  0.00     0.082 A 
ATOM     14  C   UNL A   1      32.176  29.959  27.132  1.00  0.00     0.024 A 
ATOM     15  C   UNL A   1      34.485  29.247  26.856  1.00  0.00     0.024 A 
ATOM     16  C   UNL A   1      31.740  28.734  26.629  1.00  0.00     0.030 A 
ATOM     17  C   UNL A   1      34.048  28.000  26.396  1.00  0.00     0.030 A 
BRANCH  13  18
ATOM     18  S   UNL A   1      34.056  31.824  27.759  1.00  0.00     0.238 S 
ATOM     19  O   UNL A   1      32.970  32.755  27.570  1.00  0.00    -0.207 OA
ATOM     20  O   UNL A   1      35.389  32.075  27.260  1.00  0.00    -0.207 OA
BRANCH  18  21
ATOM     21  N   UNL A   1      34.213  31.664  29.423  1.00  0.00    -0.225 NA
ATOM     22  H   UNL A   1      33.370  31.235  29.804  1.00  0.00     0.137 HD
ATOM     23  H   UNL A   1      34.345  32.584  29.842  1.00  0.00     0.137 HD
ENDBRANCH  18  21
ENDBRANCH  13  18
ENDBRANCH   8  12
BRANCH  10  24
ATOM     24  C   UNL A   1      30.993  27.551  23.632  1.00  0.00     0.054 A 
ATOM     25  C   UNL A   1      31.783  28.514  23.034  1.00  0.00     0.024 A 
ATOM     26  S   UNL A   1      29.324  27.829  23.331  1.00  0.00    -0.122 S 
ATOM     27  C   UNL A   1      31.010  29.470  22.307  1.00  0.00     0.033 A 
ATOM     28  C   UNL A   1      29.670  29.196  22.401  1.00  0.00     0.094 A 
ATOM     29  Cl  UNL A   1      28.386  30.093  21.698  1.00  0.00    -0.072 Cl
ENDBRANCH  10  24
ENDBRANCH   4   7
ENDBRANCH   2   3
ENDBRANCH   1   2
BRANCH   1  30
ATOM     30  C   UNL A   1      36.536  23.165  23.849  1.00  0.00     0.023 C 
BRANCH  30  31
ATOM     31  C   UNL A   1      37.414  23.388  25.081  1.00  0.00     0.116 C 
BRANCH  31  32
ATOM     32  N   UNL A   1      38.241  22.228  25.410  1.00  0.00    -0.352 N 
ATOM     33  C   UNL A   1      39.432  22.198  26.108  1.00  0.00     0.251 C 
ATOM     34  H   UNL A   1      37.906  21.358  25.092  1.00  0.00     0.163 HD
ATOM     35  O   UNL A   1      40.201  21.250  25.996  1.00  0.00    -0.269 OA
BRANCH  33  36
ATOM     36  C   UNL A   1      39.759  23.325  26.999  1.00  0.00     0.039 A 
ATOM     37  C   UNL A   1      40.975  23.374  27.685  1.00  0.00     0.014 A 
ATOM     38  C   UNL A   1      38.841  24.367  27.098  1.00  0.00     0.014 A 
ATOM     39  C   UNL A   1      41.305  24.530  28.392  1.00  0.00     0.010 A 
ATOM     40  C   UNL A   1      39.215  25.547  27.703  1.00  0.00     0.010 A 
ATOM     41  C   UNL A   1      40.433  25.630  28.377  1.00  0.00    -0.014 A 
BRANCH  41  42
ATOM     42  C   UNL A   1      40.842  26.907  28.968  1.00  0.00     0.031 A 
ATOM     43  C   UNL A   1      41.994  27.596  28.311  1.00  0.00     0.074 A 
ATOM     44  C   UNL A   1      40.092  27.574  29.872  1.00  0.00     0.049 A 
ATOM     45  N   UNL A   1      43.149  27.882  28.815  1.00  0.00    -0.248 NA
ATOM     46  C   UNL A   1      41.868  27.940  26.885  1.00  0.00     0.031 C 
ATOM     47  C   UNL A   1      38.759  27.218  30.373  1.00  0.00     0.029 A 
ATOM     48  N   UNL A   1      40.306  28.800  30.427  1.00  0.00    -0.354 N 
ATOM     49  C   UNL A   1      43.832  28.613  27.842  1.00  0.00     0.074 A 
ATOM     50  C   UNL A   1      43.061  28.481  26.631  1.00  0.00     0.031 C 
ATOM     51  C   UNL A   1      38.184  28.304  30.932  1.00  0.00     0.029 A 
ATOM     52  C   UNL A   1      39.173  29.365  30.999  1.00  0.00     0.049 A 
ATOM     53  H   UNL A   1      41.184  29.246  30.424  1.00  0.00     0.167 HD
ATOM     54  C   UNL A   1      44.861  29.453  28.150  1.00  0.00     0.031 A 
ATOM     55  C   UNL A   1      39.031  30.625  31.472  1.00  0.00     0.031 A 
ATOM     56  C   UNL A   1      45.323  29.262  29.500  1.00  0.00     0.049 A 
ATOM     57  C   UNL A   1      40.388  31.154  31.736  1.00  0.00     0.074 A 
ATOM     58  C   UNL A   1      45.874  28.217  30.210  1.00  0.00     0.029 A 
ATOM     59  N   UNL A   1      44.892  30.177  30.431  1.00  0.00    -0.354 N 
ATOM     60  N   UNL A   1      41.186  30.668  32.646  1.00  0.00    -0.248 NA
ATOM     61  C   UNL A   1      41.032  31.969  30.718  1.00  0.00     0.031 C 
ATOM     62  C   UNL A   1      45.335  28.342  31.524  1.00  0.00     0.029 A 
ATOM     63  C   UNL A   1      44.532  29.485  31.556  1.00  0.00     0.049 A 
ATOM     64  H   UNL A   1      44.851  31.154  30.311  1.00  0.00     0.167 HD
ATOM     65  C   UNL A   1      42.455  30.753  32.091  1.00  0.00     0.074 A 
ATOM     66  C   UNL A   1      42.310  31.673  30.966  1.00  0.00     0.031 C 
ATOM     67  C   UNL A   1      43.432  29.859  32.425  1.00  0.00     0.031 A 
BRANCH  54  68
ATOM     68  C   UNL A   1      45.200  30.714  27.384  1.00  0.00    -0.014 A 
ATOM     69  C   UNL A   1      46.552  30.981  27.072  1.00  0.00     0.010 A 
ATOM     70  C   UNL A   1      44.289  31.774  27.216  1.00  0.00     0.010 A 
ATOM     71  C   UNL A   1      46.978  32.263  26.699  1.00  0.00     0.020 A 
ATOM     72  C   UNL A   1      44.696  33.045  26.800  1.00  0.00     0.020 A 
ATOM     73  C   UNL A   1      46.044  33.293  26.586  1.00  0.00     0.054 A 
BRANCH  73  74
ATOM     74  S   UNL A   1      46.614  34.977  26.238  1.00  0.00     0.124 S 
ATOM     75  O   UNL A   1      45.352  35.705  26.149  1.00  0.00    -0.237 OA
ATOM     76  O   UNL A   1      47.437  35.274  27.407  1.00  0.00    -0.237 OA
ATOM     77  O   UNL A   1      47.347  34.836  24.983  1.00  0.00    -0.744 OA
ENDBRANCH  73  74
ENDBRANCH  54  68
BRANCH  55  78
ATOM     78  C   UNL A   1      37.811  31.463  31.465  1.00  0.00    -0.014 A 
ATOM     79  C   UNL A   1      36.815  31.319  32.446  1.00  0.00     0.010 A 
ATOM     80  C   UNL A   1      37.745  32.591  30.619  1.00  0.00     0.010 A 
ATOM     81  C   UNL A   1      35.814  32.293  32.605  1.00  0.00     0.020 A 
ATOM     82  C   UNL A   1      36.749  33.562  30.768  1.00  0.00     0.020 A 
ATOM     83  C   UNL A   1      35.798  33.418  31.774  1.00  0.00     0.054 A 
BRANCH  83  84
ATOM     84  S   UNL A   1      34.598  34.746  32.091  1.00  0.00     0.124 S 
ATOM     85  O   UNL A   1      33.517  34.031  32.763  1.00  0.00    -0.237 OA
ATOM     86  O   UNL A   1      35.361  35.669  32.926  1.00  0.00    -0.237 OA
ATOM     87  O   UNL A   1      34.275  35.245  30.756  1.00  0.00    -0.744 OA
ENDBRANCH  83  84
ENDBRANCH  55  78
BRANCH  67  88
ATOM     88  C   UNL A   1      43.245  29.006  33.657  1.00  0.00    -0.014 A 
ATOM     89  C   UNL A   1      42.582  27.764  33.656  1.00  0.00     0.010 A 
ATOM     90  C   UNL A   1      43.921  29.405  34.823  1.00  0.00     0.010 A 
ATOM     91  C   UNL A   1      42.588  26.949  34.799  1.00  0.00     0.020 A 
ATOM     92  C   UNL A   1      43.946  28.592  35.958  1.00  0.00     0.020 A 
ATOM     93  C   UNL A   1      43.275  27.369  35.943  1.00  0.00     0.054 A 
BRANCH  93  94
ATOM     94  S   UNL A   1      43.345  26.280  37.394  1.00  0.00     0.124 S 
ATOM     95  O   UNL A   1      41.938  26.145  37.757  1.00  0.00    -0.237 OA
ATOM     96  O   UNL A   1      43.977  25.073  36.865  1.00  0.00    -0.237 OA
ATOM     97  O   UNL A   1      44.161  27.027  38.350  1.00  0.00    -0.744 OA
ENDBRANCH  93  94
ENDBRANCH  67  88
ENDBRANCH  41  42
ENDBRANCH  33  36
ENDBRANCH  31  32
ENDBRANCH  30  31
ENDBRANCH   1  30
TORSDOF 18
ENDMDL
