MODEL 1
REMARK VINA RESULT:     -12.9      0.000      0.000
REMARK SMILES O=C(NCCCCNC(=O)[C@H]1Sc2[nH]c(=O)sc2[C@H]2c3cc(Br)cc(Br)c3OC(=O)[C@H]21)c1ccc(-c2c3nc(c(-c4ccc(S(=O)(=O)[O-])cc4)c4ccc([nH]4)c(-c4ccc(S(=O)(=O)[O-])cc4)c4nc(c(-c5ccc(S(=O)(=O)[O-])cc5)c5ccc2[nH]5)C=C4)C=C3)cc1
REMARK SMILES IDX 4 1 3 2 1 3 2 4 32 6 33 7 91 8 34 9 90 10 35 11 36 12 37 13
REMARK SMILES IDX 84 14 38 15 89 16 83 17 85 18 39 19 88 20 82 21 81 22 40 24
REMARK SMILES IDX 70 25 51 26 69 27 52 28 55 29 68 30 86 31 53 32 54 33 67 35
REMARK SMILES IDX 87 36 56 37 41 38 42 39 50 40 43 41 49 42 44 43 45 44 46 45
REMARK SMILES IDX 47 46 48 47 71 48 72 49 80 50 73 51 79 52 74 53 75 54 76 55
REMARK SMILES IDX 77 56 78 57 57 58 58 59 66 60 59 61 65 62 60 63 61 64 62 65
REMARK SMILES IDX 63 66 64 67 5 68 6 69 7 70 8 71 9 72 10 74 11 75 12 76 31 77
REMARK SMILES IDX 13 78 19 79 29 80 14 81 18 82 20 83 28 84 30 85 15 86 17 88
REMARK SMILES IDX 21 89 27 90 16 91 22 92 25 93 23 94 24 95 26 96
REMARK H PARENT 3 5 85 23 55 34 8 73 14 87
REMARK Flexibility Score: inf
ROOT
ATOM      1  C   UNL A   1      36.728  22.508  25.761  1.00  0.00     0.116 C 
ENDROOT
BRANCH   1   2
ATOM      2  N   UNL A   1      37.986  21.797  25.899  1.00  0.00    -0.352 N 
ATOM      3  O   UNL A   1      40.060  21.169  26.232  1.00  0.00    -0.269 OA
ATOM      4  C   UNL A   1      39.234  22.077  26.382  1.00  0.00     0.251 C 
ATOM      5  H   UNL A   1      37.924  20.875  25.557  1.00  0.00     0.163 HD
BRANCH   4   6
ATOM      6  C   UNL A   1      39.671  23.336  27.053  1.00  0.00     0.039 A 
ATOM      7  C   UNL A   1      40.813  23.503  27.836  1.00  0.00     0.014 A 
ATOM      8  C   UNL A   1      38.851  24.464  26.834  1.00  0.00     0.014 A 
ATOM      9  C   UNL A   1      41.121  24.755  28.381  1.00  0.00     0.010 A 
ATOM     10  C   UNL A   1      39.156  25.715  27.373  1.00  0.00     0.010 A 
ATOM     11  C   UNL A   1      40.294  25.866  28.158  1.00  0.00    -0.014 A 
BRANCH  11  12
ATOM     12  C   UNL A   1      40.717  27.169  28.681  1.00  0.00     0.031 A 
ATOM     13  C   UNL A   1      41.957  27.751  28.084  1.00  0.00     0.074 A 
ATOM     14  C   UNL A   1      40.026  27.925  29.559  1.00  0.00     0.049 A 
ATOM     15  N   UNL A   1      43.101  27.946  28.657  1.00  0.00    -0.248 NA
ATOM     16  C   UNL A   1      41.933  28.110  26.660  1.00  0.00     0.031 C 
ATOM     17  C   UNL A   1      38.662  27.738  30.057  1.00  0.00     0.029 A 
ATOM     18  N   UNL A   1      40.408  29.102  30.139  1.00  0.00    -0.354 N 
ATOM     19  C   UNL A   1      43.907  28.596  27.721  1.00  0.00     0.074 A 
ATOM     20  C   UNL A   1      43.169  28.584  26.481  1.00  0.00     0.031 C 
ATOM     21  C   UNL A   1      38.260  28.865  30.693  1.00  0.00     0.029 A 
ATOM     22  C   UNL A   1      39.385  29.781  30.783  1.00  0.00     0.049 A 
ATOM     23  H   UNL A   1      41.331  29.440  30.103  1.00  0.00     0.167 HD
ATOM     24  C   UNL A   1      45.064  29.232  28.063  1.00  0.00     0.031 A 
ATOM     25  C   UNL A   1      39.449  31.022  31.324  1.00  0.00     0.031 A 
ATOM     26  C   UNL A   1      45.494  28.904  29.396  1.00  0.00     0.049 A 
ATOM     27  C   UNL A   1      40.871  31.318  31.609  1.00  0.00     0.074 A 
ATOM     28  C   UNL A   1      45.897  27.756  30.047  1.00  0.00     0.029 A 
ATOM     29  N   UNL A   1      45.240  29.825  30.384  1.00  0.00    -0.354 N 
ATOM     30  N   UNL A   1      41.569  30.693  32.514  1.00  0.00    -0.248 NA
ATOM     31  C   UNL A   1      41.646  32.077  30.642  1.00  0.00     0.031 C 
ATOM     32  C   UNL A   1      45.410  27.896  31.381  1.00  0.00     0.029 A 
ATOM     33  C   UNL A   1      44.764  29.131  31.466  1.00  0.00     0.049 A 
ATOM     34  H   UNL A   1      45.374  30.799  30.325  1.00  0.00     0.167 HD
ATOM     35  C   UNL A   1      42.852  30.628  31.995  1.00  0.00     0.074 A 
ATOM     36  C   UNL A   1      42.867  31.604  30.911  1.00  0.00     0.031 C 
ATOM     37  C   UNL A   1      43.692  29.599  32.320  1.00  0.00     0.031 A 
BRANCH  24  38
ATOM     38  C   UNL A   1      45.658  30.407  27.321  1.00  0.00    -0.014 A 
ATOM     39  C   UNL A   1      47.064  30.532  27.256  1.00  0.00     0.010 A 
ATOM     40  C   UNL A   1      44.898  31.530  26.937  1.00  0.00     0.010 A 
ATOM     41  C   UNL A   1      47.675  31.747  26.913  1.00  0.00     0.020 A 
ATOM     42  C   UNL A   1      45.499  32.733  26.550  1.00  0.00     0.020 A 
ATOM     43  C   UNL A   1      46.884  32.846  26.584  1.00  0.00     0.054 A 
BRANCH  43  44
ATOM     44  S   UNL A   1      47.677  34.451  26.304  1.00  0.00     0.124 S 
ATOM     45  O   UNL A   1      47.135  35.249  27.399  1.00  0.00    -0.237 OA
ATOM     46  O   UNL A   1      49.096  34.119  26.404  1.00  0.00    -0.237 OA
ATOM     47  O   UNL A   1      47.224  34.828  24.967  1.00  0.00    -0.744 OA
ENDBRANCH  43  44
ENDBRANCH  24  38
BRANCH  25  48
ATOM     48  C   UNL A   1      38.399  32.067  31.357  1.00  0.00    -0.014 A 
ATOM     49  C   UNL A   1      37.475  32.201  30.304  1.00  0.00     0.010 A 
ATOM     50  C   UNL A   1      38.120  32.734  32.567  1.00  0.00     0.010 A 
ATOM     51  C   UNL A   1      36.279  32.915  30.480  1.00  0.00     0.020 A 
ATOM     52  C   UNL A   1      36.934  33.454  32.747  1.00  0.00     0.020 A 
ATOM     53  C   UNL A   1      36.004  33.516  31.711  1.00  0.00     0.054 A 
BRANCH  53  54
ATOM     54  S   UNL A   1      34.374  34.266  31.994  1.00  0.00     0.124 S 
ATOM     55  O   UNL A   1      33.738  33.303  32.887  1.00  0.00    -0.237 OA
ATOM     56  O   UNL A   1      34.717  35.553  32.592  1.00  0.00    -0.237 OA
ATOM     57  O   UNL A   1      33.794  34.345  30.654  1.00  0.00    -0.744 OA
ENDBRANCH  53  54
ENDBRANCH  25  48
BRANCH  37  58
ATOM     58  C   UNL A   1      43.312  28.714  33.487  1.00  0.00    -0.014 A 
ATOM     59  C   UNL A   1      43.929  28.798  34.751  1.00  0.00     0.010 A 
ATOM     60  C   UNL A   1      42.211  27.852  33.338  1.00  0.00     0.010 A 
ATOM     61  C   UNL A   1      43.488  28.008  35.822  1.00  0.00     0.020 A 
ATOM     62  C   UNL A   1      41.752  27.077  34.408  1.00  0.00     0.020 A 
ATOM     63  C   UNL A   1      42.401  27.149  35.642  1.00  0.00     0.054 A 
BRANCH  63  64
ATOM     64  S   UNL A   1      41.818  26.153  37.043  1.00  0.00     0.124 S 
ATOM     65  O   UNL A   1      42.915  26.274  37.998  1.00  0.00    -0.237 OA
ATOM     66  O   UNL A   1      40.577  26.824  37.425  1.00  0.00    -0.237 OA
ATOM     67  O   UNL A   1      41.639  24.819  36.472  1.00  0.00    -0.744 OA
ENDBRANCH  63  64
ENDBRANCH  37  58
ENDBRANCH  11  12
ENDBRANCH   4   6
ENDBRANCH   1   2
BRANCH   1  68
ATOM     68  C   UNL A   1      36.245  22.575  24.316  1.00  0.00     0.023 C 
BRANCH  68  69
ATOM     69  C   UNL A   1      35.273  23.728  24.021  1.00  0.00     0.023 C 
BRANCH  69  70
ATOM     70  C   UNL A   1      33.796  23.371  23.823  1.00  0.00     0.116 C 
BRANCH  70  71
ATOM     71  N   UNL A   1      32.934  23.549  24.978  1.00  0.00    -0.355 N 
ATOM     72  C   UNL A   1      31.823  24.324  25.181  1.00  0.00     0.234 C 
ATOM     73  H   UNL A   1      33.199  23.014  25.760  1.00  0.00     0.163 HD
ATOM     74  O   UNL A   1      31.080  23.975  26.104  1.00  0.00    -0.274 OA
BRANCH  72  75
ATOM     75  C   UNL A   1      31.523  25.544  24.270  1.00  0.00     0.157 C 
ATOM     76  S   UNL A   1      29.826  26.191  24.652  1.00  0.00    -0.093 SA
ATOM     77  C   UNL A   1      32.608  26.640  24.273  1.00  0.00     0.135 C 
ATOM     78  C   UNL A   1      29.798  27.549  23.637  1.00  0.00     0.091 A 
ATOM     79  C   UNL A   1      32.245  28.113  23.878  1.00  0.00     0.082 C 
ATOM     80  C   UNL A   1      33.420  26.695  25.562  1.00  0.00     0.317 C 
ATOM     81  N   UNL A   1      28.632  27.989  23.087  1.00  0.00    -0.307 N 
ATOM     82  C   UNL A   1      30.860  28.301  23.347  1.00  0.00     0.049 A 
ATOM     83  C   UNL A   1      32.644  29.067  25.007  1.00  0.00     0.007 A 
ATOM     84  O   UNL A   1      34.469  27.564  25.393  1.00  0.00    -0.425 OA
ATOM     85  O   UNL A   1      33.215  26.083  26.596  1.00  0.00    -0.251 OA
ATOM     86  C   UNL A   1      28.719  29.107  22.306  1.00  0.00     0.305 A 
ATOM     87  H   UNL A   1      27.776  27.529  23.245  1.00  0.00     0.171 HD
ATOM     88  S   UNL A   1      30.421  29.581  22.229  1.00  0.00    -0.078 S 
ATOM     89  C   UNL A   1      31.917  30.172  25.456  1.00  0.00     0.024 A 
ATOM     90  C   UNL A   1      33.841  28.760  25.688  1.00  0.00     0.148 A 
ATOM     91  O   UNL A   1      27.802  29.698  21.746  1.00  0.00    -0.257 OA
ATOM     92  C   UNL A   1      32.393  30.935  26.532  1.00  0.00     0.019 A 
ATOM     93  C   UNL A   1      34.347  29.553  26.718  1.00  0.00     0.062 A 
ATOM     94  Br  UNL A   1      31.334  32.358  27.192  1.00  0.00    -0.051 Br
ATOM     95  C   UNL A   1      33.612  30.648  27.149  1.00  0.00     0.035 A 
ATOM     96  Br  UNL A   1      35.966  29.111  27.590  1.00  0.00    -0.047 Br
ENDBRANCH  72  75
ENDBRANCH  70  71
ENDBRANCH  69  70
ENDBRANCH  68  69
ENDBRANCH   1  68
TORSDOF 14
ENDMDL
MODEL 2
REMARK VINA RESULT:     -12.4      3.211      9.453
REMARK SMILES O=C(NCCCCNC(=O)[C@H]1Sc2[nH]c(=O)sc2[C@H]2c3cc(Br)cc(Br)c3OC(=O)[C@H]21)c1ccc(-c2c3nc(c(-c4ccc(S(=O)(=O)[O-])cc4)c4ccc([nH]4)c(-c4ccc(S(=O)(=O)[O-])cc4)c4nc(c(-c5ccc(S(=O)(=O)[O-])cc5)c5ccc2[nH]5)C=C4)C=C3)cc1
REMARK SMILES IDX 4 1 3 2 1 3 2 4 32 6 33 7 91 8 34 9 90 10 35 11 36 12 37 13
REMARK SMILES IDX 84 14 38 15 89 16 83 17 85 18 39 19 88 20 82 21 81 22 40 24
REMARK SMILES IDX 70 25 51 26 69 27 52 28 55 29 68 30 86 31 53 32 54 33 67 35
REMARK SMILES IDX 87 36 56 37 41 38 42 39 50 40 43 41 49 42 44 43 45 44 46 45
REMARK SMILES IDX 47 46 48 47 71 48 72 49 80 50 73 51 79 52 74 53 75 54 76 55
REMARK SMILES IDX 77 56 78 57 57 58 58 59 66 60 59 61 65 62 60 63 61 64 62 65
REMARK SMILES IDX 63 66 64 67 5 68 6 69 7 70 8 71 9 72 10 74 11 75 12 76 31 77
REMARK SMILES IDX 13 78 19 79 29 80 14 81 18 82 20 83 28 84 30 85 15 86 17 88
REMARK SMILES IDX 21 89 27 90 16 91 22 92 25 93 23 94 24 95 26 96
REMARK H PARENT 3 5 85 23 55 34 8 73 14 87
REMARK Flexibility Score: inf
ROOT
ATOM      1  C   UNL A   1      32.819  29.721  27.277  1.00  0.00     0.116 C 
ENDROOT
BRANCH   1   2
ATOM      2  N   UNL A   1      33.389  31.054  27.332  1.00  0.00    -0.352 N 
ATOM      3  O   UNL A   1      34.634  32.835  27.624  1.00  0.00    -0.269 OA
ATOM      4  C   UNL A   1      34.606  31.599  27.635  1.00  0.00     0.251 C 
ATOM      5  H   UNL A   1      32.730  31.744  27.088  1.00  0.00     0.163 HD
BRANCH   4   6
ATOM      6  C   UNL A   1      35.860  30.859  27.964  1.00  0.00     0.039 A 
ATOM      7  C   UNL A   1      36.080  29.492  27.805  1.00  0.00     0.014 A 
ATOM      8  C   UNL A   1      36.924  31.646  28.455  1.00  0.00     0.014 A 
ATOM      9  C   UNL A   1      37.322  28.932  28.127  1.00  0.00     0.010 A 
ATOM     10  C   UNL A   1      38.166  31.093  28.773  1.00  0.00     0.010 A 
ATOM     11  C   UNL A   1      38.369  29.726  28.617  1.00  0.00    -0.014 A 
BRANCH  11  12
ATOM     12  C   UNL A   1      39.674  29.097  28.851  1.00  0.00     0.031 A 
ATOM     13  C   UNL A   1      40.060  28.888  30.280  1.00  0.00     0.074 A 
ATOM     14  C   UNL A   1      40.488  28.597  27.900  1.00  0.00     0.049 A 
ATOM     15  N   UNL A   1      41.012  29.463  30.940  1.00  0.00    -0.248 NA
ATOM     16  C   UNL A   1      39.249  27.963  31.084  1.00  0.00     0.031 C 
ATOM     17  C   UNL A   1      40.219  28.398  26.474  1.00  0.00     0.029 A 
ATOM     18  N   UNL A   1      41.742  28.078  28.053  1.00  0.00    -0.354 N 
ATOM     19  C   UNL A   1      41.034  28.869  32.203  1.00  0.00     0.074 A 
ATOM     20  C   UNL A   1      39.866  28.023  32.267  1.00  0.00     0.031 C 
ATOM     21  C   UNL A   1      41.190  27.616  25.942  1.00  0.00     0.029 A 
ATOM     22  C   UNL A   1      42.220  27.397  26.944  1.00  0.00     0.049 A 
ATOM     23  H   UNL A   1      42.264  28.178  28.882  1.00  0.00     0.167 HD
ATOM     24  C   UNL A   1      42.089  28.997  33.058  1.00  0.00     0.031 A 
ATOM     25  C   UNL A   1      43.366  26.677  26.864  1.00  0.00     0.031 A 
ATOM     26  C   UNL A   1      43.005  30.026  32.643  1.00  0.00     0.049 A 
ATOM     27  C   UNL A   1      44.278  27.160  27.926  1.00  0.00     0.074 A 
ATOM     28  C   UNL A   1      42.939  31.393  32.473  1.00  0.00     0.029 A 
ATOM     29  N   UNL A   1      44.160  29.625  32.015  1.00  0.00    -0.354 N 
ATOM     30  N   UNL A   1      44.813  28.348  27.928  1.00  0.00    -0.248 NA
ATOM     31  C   UNL A   1      44.331  26.453  29.194  1.00  0.00     0.031 C 
ATOM     32  C   UNL A   1      43.789  31.669  31.360  1.00  0.00     0.029 A 
ATOM     33  C   UNL A   1      44.340  30.457  30.940  1.00  0.00     0.049 A 
ATOM     34  H   UNL A   1      44.746  28.882  32.286  1.00  0.00     0.167 HD
ATOM     35  C   UNL A   1      44.887  28.705  29.265  1.00  0.00     0.074 A 
ATOM     36  C   UNL A   1      44.700  27.456  29.995  1.00  0.00     0.031 C 
ATOM     37  C   UNL A   1      44.823  30.015  29.648  1.00  0.00     0.031 A 
BRANCH  24  38
ATOM     38  C   UNL A   1      42.481  27.983  34.108  1.00  0.00    -0.014 A 
ATOM     39  C   UNL A   1      41.937  28.101  35.406  1.00  0.00     0.010 A 
ATOM     40  C   UNL A   1      43.569  27.101  33.948  1.00  0.00     0.010 A 
ATOM     41  C   UNL A   1      42.511  27.441  36.502  1.00  0.00     0.020 A 
ATOM     42  C   UNL A   1      44.121  26.404  35.029  1.00  0.00     0.020 A 
ATOM     43  C   UNL A   1      43.615  26.614  36.307  1.00  0.00     0.054 A 
BRANCH  43  44
ATOM     44  S   UNL A   1      44.448  25.899  37.748  1.00  0.00     0.124 S 
ATOM     45  O   UNL A   1      43.688  26.478  38.851  1.00  0.00    -0.237 OA
ATOM     46  O   UNL A   1      44.264  24.466  37.535  1.00  0.00    -0.237 OA
ATOM     47  O   UNL A   1      45.825  26.372  37.618  1.00  0.00    -0.744 OA
ENDBRANCH  43  44
ENDBRANCH  24  38
BRANCH  25  48
ATOM     48  C   UNL A   1      43.615  25.424  26.114  1.00  0.00    -0.014 A 
ATOM     49  C   UNL A   1      44.891  25.129  25.599  1.00  0.00     0.010 A 
ATOM     50  C   UNL A   1      42.669  24.382  26.168  1.00  0.00     0.010 A 
ATOM     51  C   UNL A   1      45.232  23.819  25.223  1.00  0.00     0.020 A 
ATOM     52  C   UNL A   1      42.998  23.076  25.788  1.00  0.00     0.020 A 
ATOM     53  C   UNL A   1      44.289  22.795  25.344  1.00  0.00     0.054 A 
BRANCH  53  54
ATOM     54  S   UNL A   1      44.795  21.076  25.045  1.00  0.00     0.124 S 
ATOM     55  O   UNL A   1      44.700  20.970  23.593  1.00  0.00    -0.237 OA
ATOM     56  O   UNL A   1      46.148  21.045  25.594  1.00  0.00    -0.237 OA
ATOM     57  O   UNL A   1      43.811  20.292  25.790  1.00  0.00    -0.744 OA
ENDBRANCH  53  54
ENDBRANCH  25  48
BRANCH  37  58
ATOM     58  C   UNL A   1      44.986  31.076  28.581  1.00  0.00    -0.014 A 
ATOM     59  C   UNL A   1      43.973  31.401  27.656  1.00  0.00     0.010 A 
ATOM     60  C   UNL A   1      46.156  31.855  28.590  1.00  0.00     0.010 A 
ATOM     61  C   UNL A   1      44.145  32.445  26.737  1.00  0.00     0.020 A 
ATOM     62  C   UNL A   1      46.325  32.912  27.689  1.00  0.00     0.020 A 
ATOM     63  C   UNL A   1      45.324  33.193  26.758  1.00  0.00     0.054 A 
BRANCH  63  64
ATOM     64  S   UNL A   1      45.524  34.563  25.583  1.00  0.00     0.124 S 
ATOM     65  O   UNL A   1      45.007  35.704  26.332  1.00  0.00    -0.237 OA
ATOM     66  O   UNL A   1      46.966  34.574  25.340  1.00  0.00    -0.237 OA
ATOM     67  O   UNL A   1      44.715  34.158  24.434  1.00  0.00    -0.744 OA
ENDBRANCH  63  64
ENDBRANCH  37  58
ENDBRANCH  11  12
ENDBRANCH   4   6
ENDBRANCH   1   2
BRANCH   1  68
ATOM     68  C   UNL A   1      32.976  29.070  25.906  1.00  0.00     0.023 C 
BRANCH  68  69
ATOM     69  C   UNL A   1      32.919  27.534  25.919  1.00  0.00     0.023 C 
BRANCH  69  70
ATOM     70  C   UNL A   1      32.105  26.851  24.815  1.00  0.00     0.116 C 
BRANCH  70  71
ATOM     71  N   UNL A   1      32.840  26.466  23.624  1.00  0.00    -0.355 N 
ATOM     72  C   UNL A   1      33.047  25.250  23.027  1.00  0.00     0.234 C 
ATOM     73  H   UNL A   1      33.270  27.219  23.159  1.00  0.00     0.163 HD
ATOM     74  O   UNL A   1      33.364  25.278  21.835  1.00  0.00    -0.274 OA
BRANCH  72  75
ATOM     75  C   UNL A   1      32.857  23.929  23.820  1.00  0.00     0.157 C 
ATOM     76  S   UNL A   1      32.964  22.492  22.651  1.00  0.00    -0.093 SA
ATOM     77  C   UNL A   1      33.765  23.778  25.059  1.00  0.00     0.135 C 
ATOM     78  C   UNL A   1      32.847  21.210  23.756  1.00  0.00     0.091 A 
ATOM     79  C   UNL A   1      34.096  22.354  25.626  1.00  0.00     0.082 C 
ATOM     80  C   UNL A   1      35.074  24.550  24.957  1.00  0.00     0.317 C 
ATOM     81  N   UNL A   1      32.271  20.029  23.399  1.00  0.00    -0.307 N 
ATOM     82  C   UNL A   1      33.337  21.230  24.996  1.00  0.00     0.049 A 
ATOM     83  C   UNL A   1      35.614  22.160  25.687  1.00  0.00     0.007 A 
ATOM     84  O   UNL A   1      35.717  24.504  26.168  1.00  0.00    -0.425 OA
ATOM     85  O   UNL A   1      35.519  25.134  23.982  1.00  0.00    -0.251 OA
ATOM     86  C   UNL A   1      32.253  19.054  24.359  1.00  0.00     0.305 A 
ATOM     87  H   UNL A   1      31.892  19.884  22.502  1.00  0.00     0.171 HD
ATOM     88  S   UNL A   1      32.969  19.730  25.827  1.00  0.00    -0.078 S 
ATOM     89  C   UNL A   1      36.315  20.993  25.372  1.00  0.00     0.024 A 
ATOM     90  C   UNL A   1      36.373  23.293  26.048  1.00  0.00     0.148 A 
ATOM     91  O   UNL A   1      31.825  17.911  24.250  1.00  0.00    -0.257 OA
ATOM     92  C   UNL A   1      37.716  20.977  25.439  1.00  0.00     0.019 A 
ATOM     93  C   UNL A   1      37.762  23.262  26.174  1.00  0.00     0.062 A 
ATOM     94  Br  UNL A   1      38.645  19.419  24.898  1.00  0.00    -0.051 Br
ATOM     95  C   UNL A   1      38.441  22.094  25.859  1.00  0.00     0.035 A 
ATOM     96  Br  UNL A   1      38.735  24.803  26.679  1.00  0.00    -0.047 Br
ENDBRANCH  72  75
ENDBRANCH  70  71
ENDBRANCH  69  70
ENDBRANCH  68  69
ENDBRANCH   1  68
TORSDOF 14
ENDMDL
MODEL 3
REMARK VINA RESULT:     -12.3      5.081      9.105
REMARK SMILES O=C(NCCCCNC(=O)[C@H]1Sc2[nH]c(=O)sc2[C@H]2c3cc(Br)cc(Br)c3OC(=O)[C@H]21)c1ccc(-c2c3nc(c(-c4ccc(S(=O)(=O)[O-])cc4)c4ccc([nH]4)c(-c4ccc(S(=O)(=O)[O-])cc4)c4nc(c(-c5ccc(S(=O)(=O)[O-])cc5)c5ccc2[nH]5)C=C4)C=C3)cc1
REMARK SMILES IDX 4 1 3 2 1 3 2 4 32 6 33 7 91 8 34 9 90 10 35 11 36 12 37 13
REMARK SMILES IDX 84 14 38 15 89 16 83 17 85 18 39 19 88 20 82 21 81 22 40 24
REMARK SMILES IDX 70 25 51 26 69 27 52 28 55 29 68 30 86 31 53 32 54 33 67 35
REMARK SMILES IDX 87 36 56 37 41 38 42 39 50 40 43 41 49 42 44 43 45 44 46 45
REMARK SMILES IDX 47 46 48 47 71 48 72 49 80 50 73 51 79 52 74 53 75 54 76 55
REMARK SMILES IDX 77 56 78 57 57 58 58 59 66 60 59 61 65 62 60 63 61 64 62 65
REMARK SMILES IDX 63 66 64 67 5 68 6 69 7 70 8 71 9 72 10 74 11 75 12 76 31 77
REMARK SMILES IDX 13 78 19 79 29 80 14 81 18 82 20 83 28 84 30 85 15 86 17 88
REMARK SMILES IDX 21 89 27 90 16 91 22 92 25 93 23 94 24 95 26 96
REMARK H PARENT 3 5 85 23 55 34 8 73 14 87
REMARK Flexibility Score: inf
ROOT
ATOM      1  C   UNL A   1      42.709  21.579  26.315  1.00  0.00     0.116 C 
ENDROOT
BRANCH   1   2
ATOM      2  N   UNL A   1      41.261  21.508  26.255  1.00  0.00    -0.352 N 
ATOM      3  O   UNL A   1      39.098  21.821  26.423  1.00  0.00    -0.269 OA
ATOM      4  C   UNL A   1      40.215  22.329  26.574  1.00  0.00     0.251 C 
ATOM      5  H   UNL A   1      40.952  20.647  25.889  1.00  0.00     0.163 HD
BRANCH   4   6
ATOM      6  C   UNL A   1      40.300  23.734  27.069  1.00  0.00     0.039 A 
ATOM      7  C   UNL A   1      39.430  24.776  26.753  1.00  0.00     0.014 A 
ATOM      8  C   UNL A   1      41.353  24.004  27.969  1.00  0.00     0.014 A 
ATOM      9  C   UNL A   1      39.610  26.045  27.318  1.00  0.00     0.010 A 
ATOM     10  C   UNL A   1      41.534  25.266  28.538  1.00  0.00     0.010 A 
ATOM     11  C   UNL A   1      40.663  26.299  28.208  1.00  0.00    -0.014 A 
BRANCH  11  12
ATOM     12  C   UNL A   1      40.747  27.622  28.834  1.00  0.00     0.031 A 
ATOM     13  C   UNL A   1      41.803  28.538  28.307  1.00  0.00     0.074 A 
ATOM     14  C   UNL A   1      39.889  28.113  29.753  1.00  0.00     0.049 A 
ATOM     15  N   UNL A   1      42.862  28.967  28.914  1.00  0.00    -0.248 NA
ATOM     16  C   UNL A   1      41.690  28.989  26.913  1.00  0.00     0.031 C 
ATOM     17  C   UNL A   1      38.615  27.554  30.209  1.00  0.00     0.029 A 
ATOM     18  N   UNL A   1      39.965  29.299  30.426  1.00  0.00    -0.354 N 
ATOM     19  C   UNL A   1      43.481  29.867  28.045  1.00  0.00     0.074 A 
ATOM     20  C   UNL A   1      42.769  29.767  26.793  1.00  0.00     0.031 C 
ATOM     21  C   UNL A   1      37.945  28.493  30.919  1.00  0.00     0.029 A 
ATOM     22  C   UNL A   1      38.805  29.651  31.098  1.00  0.00     0.049 A 
ATOM     23  H   UNL A   1      40.775  29.858  30.433  1.00  0.00     0.167 HD
ATOM     24  C   UNL A   1      44.442  30.742  28.456  1.00  0.00     0.031 A 
ATOM     25  C   UNL A   1      38.557  30.823  31.732  1.00  0.00     0.031 A 
ATOM     26  C   UNL A   1      44.940  30.430  29.769  1.00  0.00     0.049 A 
ATOM     27  C   UNL A   1      39.861  31.441  32.065  1.00  0.00     0.074 A 
ATOM     28  C   UNL A   1      45.617  29.373  30.340  1.00  0.00     0.029 A 
ATOM     29  N   UNL A   1      44.464  31.181  30.818  1.00  0.00    -0.354 N 
ATOM     30  N   UNL A   1      40.693  30.941  32.935  1.00  0.00    -0.248 NA
ATOM     31  C   UNL A   1      40.422  32.441  31.173  1.00  0.00     0.031 C 
ATOM     32  C   UNL A   1      45.110  29.283  31.671  1.00  0.00     0.029 A 
ATOM     33  C   UNL A   1      44.176  30.309  31.836  1.00  0.00     0.049 A 
ATOM     34  H   UNL A   1      44.352  32.159  30.834  1.00  0.00     0.167 HD
ATOM     35  C   UNL A   1      41.951  31.237  32.437  1.00  0.00     0.074 A 
ATOM     36  C   UNL A   1      41.722  32.268  31.430  1.00  0.00     0.031 C 
ATOM     37  C   UNL A   1      43.021  30.428  32.701  1.00  0.00     0.031 A 
BRANCH  24  38
ATOM     38  C   UNL A   1      44.725  32.082  27.815  1.00  0.00    -0.014 A 
ATOM     39  C   UNL A   1      46.024  32.345  27.329  1.00  0.00     0.010 A 
ATOM     40  C   UNL A   1      43.851  33.182  27.930  1.00  0.00     0.010 A 
ATOM     41  C   UNL A   1      46.454  33.652  27.059  1.00  0.00     0.020 A 
ATOM     42  C   UNL A   1      44.257  34.485  27.621  1.00  0.00     0.020 A 
ATOM     43  C   UNL A   1      45.571  34.716  27.230  1.00  0.00     0.054 A 
BRANCH  43  44
ATOM     44  S   UNL A   1      46.183  36.410  27.039  1.00  0.00     0.124 S 
ATOM     45  O   UNL A   1      44.939  37.172  26.966  1.00  0.00    -0.237 OA
ATOM     46  O   UNL A   1      46.969  36.597  28.256  1.00  0.00    -0.237 OA
ATOM     47  O   UNL A   1      46.960  36.357  25.803  1.00  0.00    -0.744 OA
ENDBRANCH  43  44
ENDBRANCH  24  38
BRANCH  25  48
ATOM     48  C   UNL A   1      37.280  31.569  31.823  1.00  0.00    -0.014 A 
ATOM     49  C   UNL A   1      36.667  31.808  33.067  1.00  0.00     0.010 A 
ATOM     50  C   UNL A   1      36.825  32.305  30.711  1.00  0.00     0.010 A 
ATOM     51  C   UNL A   1      35.684  32.802  33.207  1.00  0.00     0.020 A 
ATOM     52  C   UNL A   1      35.842  33.291  30.841  1.00  0.00     0.020 A 
ATOM     53  C   UNL A   1      35.296  33.556  32.096  1.00  0.00     0.054 A 
BRANCH  53  54
ATOM     54  S   UNL A   1      34.176  34.967  32.323  1.00  0.00     0.124 S 
ATOM     55  O   UNL A   1      34.969  35.865  33.157  1.00  0.00    -0.237 OA
ATOM     56  O   UNL A   1      33.947  35.414  30.952  1.00  0.00    -0.237 OA
ATOM     57  O   UNL A   1      33.010  34.379  32.981  1.00  0.00    -0.744 OA
ENDBRANCH  53  54
ENDBRANCH  25  48
BRANCH  37  58
ATOM     58  C   UNL A   1      42.874  29.389  33.791  1.00  0.00    -0.014 A 
ATOM     59  C   UNL A   1      43.174  29.644  35.144  1.00  0.00     0.010 A 
ATOM     60  C   UNL A   1      42.297  28.151  33.457  1.00  0.00     0.010 A 
ATOM     61  C   UNL A   1      42.947  28.671  36.128  1.00  0.00     0.020 A 
ATOM     62  C   UNL A   1      42.047  27.185  34.437  1.00  0.00     0.020 A 
ATOM     63  C   UNL A   1      42.386  27.445  35.766  1.00  0.00     0.054 A 
BRANCH  63  64
ATOM     64  S   UNL A   1      42.068  26.203  37.052  1.00  0.00     0.124 S 
ATOM     65  O   UNL A   1      42.412  24.954  36.381  1.00  0.00    -0.237 OA
ATOM     66  O   UNL A   1      42.974  26.608  38.126  1.00  0.00    -0.237 OA
ATOM     67  O   UNL A   1      40.648  26.371  37.356  1.00  0.00    -0.744 OA
ENDBRANCH  63  64
ENDBRANCH  37  58
ENDBRANCH  11  12
ENDBRANCH   4   6
ENDBRANCH   1   2
BRANCH   1  68
ATOM     68  C   UNL A   1      43.303  22.449  25.211  1.00  0.00     0.023 C 
BRANCH  68  69
ATOM     69  C   UNL A   1      44.493  23.314  25.652  1.00  0.00     0.023 C 
BRANCH  69  70
ATOM     70  C   UNL A   1      45.003  24.367  24.662  1.00  0.00     0.116 C 
BRANCH  70  71
ATOM     71  N   UNL A   1      44.801  25.753  25.042  1.00  0.00    -0.355 N 
ATOM     72  C   UNL A   1      45.677  26.742  25.405  1.00  0.00     0.234 C 
ATOM     73  H   UNL A   1      43.858  26.035  25.039  1.00  0.00     0.163 HD
ATOM     74  O   UNL A   1      45.269  27.900  25.284  1.00  0.00    -0.274 OA
BRANCH  72  75
ATOM     75  C   UNL A   1      47.106  26.398  25.907  1.00  0.00     0.157 C 
ATOM     76  S   UNL A   1      48.104  27.957  26.027  1.00  0.00    -0.093 SA
ATOM     77  C   UNL A   1      47.155  25.540  27.189  1.00  0.00     0.135 C 
ATOM     78  C   UNL A   1      49.536  27.333  26.690  1.00  0.00     0.091 A 
ATOM     79  C   UNL A   1      48.426  25.564  28.106  1.00  0.00     0.082 C 
ATOM     80  C   UNL A   1      45.935  25.708  28.086  1.00  0.00     0.317 C 
ATOM     81  N   UNL A   1      50.742  27.899  26.408  1.00  0.00    -0.307 N 
ATOM     82  C   UNL A   1      49.593  26.316  27.549  1.00  0.00     0.049 A 
ATOM     83  C   UNL A   1      48.028  25.948  29.535  1.00  0.00     0.007 A 
ATOM     84  O   UNL A   1      45.987  24.775  29.091  1.00  0.00    -0.425 OA
ATOM     85  O   UNL A   1      45.032  26.519  27.968  1.00  0.00    -0.251 OA
ATOM     86  C   UNL A   1      51.829  27.333  27.016  1.00  0.00     0.305 A 
ATOM     87  H   UNL A   1      50.827  28.671  25.803  1.00  0.00     0.171 HD
ATOM     88  S   UNL A   1      51.260  25.951  27.960  1.00  0.00    -0.078 S 
ATOM     89  C   UNL A   1      48.738  26.786  30.397  1.00  0.00     0.024 A 
ATOM     90  C   UNL A   1      46.796  25.439  29.995  1.00  0.00     0.148 A 
ATOM     91  O   UNL A   1      52.997  27.697  26.940  1.00  0.00    -0.257 OA
ATOM     92  C   UNL A   1      48.227  27.077  31.671  1.00  0.00     0.019 A 
ATOM     93  C   UNL A   1      46.315  25.678  31.283  1.00  0.00     0.062 A 
ATOM     94  Br  UNL A   1      49.151  28.305  32.775  1.00  0.00    -0.051 Br
ATOM     95  C   UNL A   1      47.034  26.512  32.126  1.00  0.00     0.035 A 
ATOM     96  Br  UNL A   1      44.664  24.959  31.862  1.00  0.00    -0.047 Br
ENDBRANCH  72  75
ENDBRANCH  70  71
ENDBRANCH  69  70
ENDBRANCH  68  69
ENDBRANCH   1  68
TORSDOF 14
ENDMDL
