MODEL 1
REMARK VINA RESULT:     -10.9      0.000      0.000
REMARK SMILES CC[C@H](C(=O)NCCCCNC(=O)c1ccc(-c2c3nc(c(-c4ccc(S(=O)(=O)[O-])cc4)c4ccc([nH]4)c(-c4ccc(S(=O)(=O)[O-])cc4)c4nc(c(-c5ccc(S(=O)(=O)[O-])cc5)c5ccc2[nH]5)C=C4)C=C3)cc1)N1C(=O)/C(=C\c2cc(OC)ccc2OC)SC1=S
REMARK SMILES IDX 8 1 7 2 6 3 4 4 5 5 3 7 2 8 1 9 74 10 75 11 90 12 76 13
REMARK SMILES IDX 77 14 89 15 91 16 78 17 79 18 80 19 86 20 81 21 85 22 84 23
REMARK SMILES IDX 87 24 88 25 82 26 83 27 9 28 10 29 11 30 12 31 13 33 14 34
REMARK SMILES IDX 15 35 73 36 16 37 72 38 17 39 18 40 19 41 66 42 20 43 71 44
REMARK SMILES IDX 65 45 67 46 21 47 70 48 64 49 63 50 22 52 52 53 33 54 51 55
REMARK SMILES IDX 34 56 37 57 50 58 68 59 35 60 36 61 49 63 69 64 38 65 23 66
REMARK SMILES IDX 24 67 32 68 25 69 31 70 26 71 27 72 28 73 29 74 30 75 53 76
REMARK SMILES IDX 54 77 62 78 55 79 61 80 56 81 57 82 58 83 59 84 60 85 39 86
REMARK SMILES IDX 40 87 48 88 41 89 47 90 42 91 43 92 44 93 45 94 46 95
REMARK H PARENT 6 6 11 32 67 51 37 62
REMARK Flexibility Score: inf
ROOT
ATOM      1  C   UNL A   1      31.901  29.060  25.299  1.00  0.00     0.023 C 
ENDROOT
BRANCH   1   2
ATOM      2  C   UNL A   1      32.253  28.196  24.094  1.00  0.00     0.116 C 
BRANCH   2   3
ATOM      3  N   UNL A   1      33.413  27.339  24.255  1.00  0.00    -0.354 N 
ATOM      4  C   UNL A   1      33.541  26.016  23.897  1.00  0.00     0.243 C 
ATOM      5  O   UNL A   1      34.646  25.483  24.020  1.00  0.00    -0.273 OA
ATOM      6  H   UNL A   1      34.203  27.754  24.671  1.00  0.00     0.163 HD
BRANCH   4   7
ATOM      7  C   UNL A   1      32.298  25.229  23.398  1.00  0.00     0.181 C 
BRANCH   7   8
ATOM      8  C   UNL A   1      32.421  24.752  21.932  1.00  0.00     0.032 C 
ATOM      9  C   UNL A   1      32.291  25.842  20.866  1.00  0.00     0.006 C 
ENDBRANCH   7   8
BRANCH   7  10
ATOM     10  N   UNL A   1      31.952  24.160  24.383  1.00  0.00    -0.280 N 
ATOM     11  C   UNL A   1      32.620  22.950  24.403  1.00  0.00     0.266 C 
ATOM     12  C   UNL A   1      30.972  24.300  25.351  1.00  0.00     0.149 C 
ATOM     13  O   UNL A   1      33.307  22.474  23.514  1.00  0.00    -0.268 OA
ATOM     14  C   UNL A   1      32.275  22.173  25.620  1.00  0.00     0.081 C 
ATOM     15  S   UNL A   1      30.868  22.833  26.340  1.00  0.00    -0.054 SA
ATOM     16  S   UNL A   1      29.953  25.596  25.627  1.00  0.00    -0.052 S 
ATOM     17  C   UNL A   1      33.023  21.192  26.145  1.00  0.00     0.033 C 
BRANCH  17  18
ATOM     18  C   UNL A   1      34.353  20.839  25.618  1.00  0.00     0.021 A 
ATOM     19  C   UNL A   1      35.411  21.721  25.925  1.00  0.00     0.058 A 
ATOM     20  C   UNL A   1      34.644  19.643  24.936  1.00  0.00     0.126 A 
ATOM     21  C   UNL A   1      36.737  21.419  25.594  1.00  0.00     0.119 A 
ATOM     22  C   UNL A   1      35.981  19.341  24.639  1.00  0.00     0.051 A 
ATOM     23  C   UNL A   1      37.020  20.211  24.967  1.00  0.00     0.050 A 
BRANCH  20  24
ATOM     24  O   UNL A   1      33.810  18.636  24.536  1.00  0.00    -0.496 OA
ATOM     25  C   UNL A   1      32.536  18.912  23.983  1.00  0.00     0.278 C 
ENDBRANCH  20  24
BRANCH  21  26
ATOM     26  O   UNL A   1      37.663  22.362  25.952  1.00  0.00    -0.497 OA
ATOM     27  C   UNL A   1      37.373  23.705  25.578  1.00  0.00     0.278 C 
ENDBRANCH  21  26
ENDBRANCH  17  18
ENDBRANCH   7  10
ENDBRANCH   4   7
ENDBRANCH   2   3
ENDBRANCH   1   2
BRANCH   1  28
ATOM     28  C   UNL A   1      32.176  28.452  26.672  1.00  0.00     0.023 C 
BRANCH  28  29
ATOM     29  C   UNL A   1      33.513  28.810  27.312  1.00  0.00     0.116 C 
BRANCH  29  30
ATOM     30  N   UNL A   1      33.565  30.168  27.839  1.00  0.00    -0.352 N 
ATOM     31  C   UNL A   1      34.603  30.828  28.463  1.00  0.00     0.251 C 
ATOM     32  H   UNL A   1      32.738  30.691  27.734  1.00  0.00     0.163 HD
ATOM     33  O   UNL A   1      34.426  31.944  28.940  1.00  0.00    -0.269 OA
BRANCH  31  34
ATOM     34  C   UNL A   1      35.917  30.163  28.590  1.00  0.00     0.039 A 
ATOM     35  C   UNL A   1      36.784  30.148  27.495  1.00  0.00     0.014 A 
ATOM     36  C   UNL A   1      36.312  29.614  29.811  1.00  0.00     0.014 A 
ATOM     37  C   UNL A   1      38.093  29.684  27.658  1.00  0.00     0.010 A 
ATOM     38  C   UNL A   1      37.637  29.235  29.993  1.00  0.00     0.010 A 
ATOM     39  C   UNL A   1      38.548  29.280  28.924  1.00  0.00    -0.014 A 
BRANCH  39  40
ATOM     40  C   UNL A   1      39.967  28.914  29.177  1.00  0.00     0.031 A 
ATOM     41  C   UNL A   1      40.928  29.959  29.676  1.00  0.00     0.074 A 
ATOM     42  C   UNL A   1      40.418  27.685  28.853  1.00  0.00     0.049 A 
ATOM     43  N   UNL A   1      42.229  29.895  29.798  1.00  0.00    -0.248 NA
ATOM     44  C   UNL A   1      40.352  31.259  30.057  1.00  0.00     0.031 C 
ATOM     45  C   UNL A   1      39.597  26.585  28.337  1.00  0.00     0.029 A 
ATOM     46  N   UNL A   1      41.687  27.157  28.888  1.00  0.00    -0.354 N 
ATOM     47  C   UNL A   1      42.627  31.150  30.242  1.00  0.00     0.074 A 
ATOM     48  C   UNL A   1      41.438  31.969  30.322  1.00  0.00     0.031 C 
ATOM     49  C   UNL A   1      40.379  25.515  28.119  1.00  0.00     0.029 A 
ATOM     50  C   UNL A   1      41.764  25.864  28.424  1.00  0.00     0.049 A 
ATOM     51  H   UNL A   1      42.469  27.659  29.215  1.00  0.00     0.167 HD
ATOM     52  C   UNL A   1      43.871  31.579  30.568  1.00  0.00     0.031 A 
ATOM     53  C   UNL A   1      42.828  25.056  28.240  1.00  0.00     0.031 A 
ATOM     54  C   UNL A   1      45.049  30.758  30.497  1.00  0.00     0.049 A 
ATOM     55  C   UNL A   1      44.204  25.565  28.577  1.00  0.00     0.074 A 
ATOM     56  C   UNL A   1      46.345  31.085  30.855  1.00  0.00     0.029 A 
ATOM     57  N   UNL A   1      45.078  29.450  30.038  1.00  0.00    -0.354 N 
ATOM     58  N   UNL A   1      44.555  26.739  29.046  1.00  0.00    -0.248 NA
ATOM     59  C   UNL A   1      45.328  24.641  28.366  1.00  0.00     0.031 C 
ATOM     60  C   UNL A   1      47.167  29.995  30.555  1.00  0.00     0.029 A 
ATOM     61  C   UNL A   1      46.373  28.964  30.079  1.00  0.00     0.049 A 
ATOM     62  H   UNL A   1      44.293  28.942  29.728  1.00  0.00     0.167 HD
ATOM     63  C   UNL A   1      45.934  26.680  29.222  1.00  0.00     0.074 A 
ATOM     64  C   UNL A   1      46.353  25.355  28.814  1.00  0.00     0.031 C 
ATOM     65  C   UNL A   1      46.774  27.637  29.686  1.00  0.00     0.031 A 
BRANCH  52  66
ATOM     66  C   UNL A   1      44.020  33.009  31.020  1.00  0.00    -0.014 A 
ATOM     67  C   UNL A   1      44.237  34.047  30.095  1.00  0.00     0.010 A 
ATOM     68  C   UNL A   1      43.898  33.324  32.385  1.00  0.00     0.010 A 
ATOM     69  C   UNL A   1      44.376  35.366  30.532  1.00  0.00     0.020 A 
ATOM     70  C   UNL A   1      44.004  34.646  32.824  1.00  0.00     0.020 A 
ATOM     71  C   UNL A   1      44.260  35.657  31.895  1.00  0.00     0.054 A 
BRANCH  71  72
ATOM     72  S   UNL A   1      44.423  37.382  32.429  1.00  0.00     0.124 S 
ATOM     73  O   UNL A   1      44.230  38.106  31.174  1.00  0.00    -0.237 OA
ATOM     74  O   UNL A   1      43.344  37.519  33.403  1.00  0.00    -0.237 OA
ATOM     75  O   UNL A   1      45.773  37.449  32.983  1.00  0.00    -0.744 OA
ENDBRANCH  71  72
ENDBRANCH  52  66
BRANCH  53  76
ATOM     76  C   UNL A   1      42.635  23.676  27.708  1.00  0.00    -0.014 A 
ATOM     77  C   UNL A   1      42.816  23.408  26.340  1.00  0.00     0.010 A 
ATOM     78  C   UNL A   1      42.274  22.622  28.568  1.00  0.00     0.010 A 
ATOM     79  C   UNL A   1      42.622  22.118  25.838  1.00  0.00     0.020 A 
ATOM     80  C   UNL A   1      42.109  21.324  28.074  1.00  0.00     0.020 A 
ATOM     81  C   UNL A   1      42.271  21.083  26.709  1.00  0.00     0.054 A 
BRANCH  81  82
ATOM     82  S   UNL A   1      42.072  19.408  26.040  1.00  0.00     0.124 S 
ATOM     83  O   UNL A   1      42.867  19.472  24.818  1.00  0.00    -0.237 OA
ATOM     84  O   UNL A   1      42.619  18.575  27.110  1.00  0.00    -0.237 OA
ATOM     85  O   UNL A   1      40.630  19.287  25.844  1.00  0.00    -0.744 OA
ENDBRANCH  81  82
ENDBRANCH  53  76
BRANCH  65  86
ATOM     86  C   UNL A   1      48.231  27.285  29.839  1.00  0.00    -0.014 A 
ATOM     87  C   UNL A   1      49.178  27.632  28.861  1.00  0.00     0.010 A 
ATOM     88  C   UNL A   1      48.669  26.689  31.037  1.00  0.00     0.010 A 
ATOM     89  C   UNL A   1      50.537  27.384  29.076  1.00  0.00     0.020 A 
ATOM     90  C   UNL A   1      50.028  26.464  31.268  1.00  0.00     0.020 A 
ATOM     91  C   UNL A   1      50.954  26.810  30.282  1.00  0.00     0.054 A 
BRANCH  91  92
ATOM     92  S   UNL A   1      52.730  26.581  30.570  1.00  0.00     0.124 S 
ATOM     93  O   UNL A   1      53.220  26.272  29.231  1.00  0.00    -0.237 OA
ATOM     94  O   UNL A   1      53.136  27.879  31.104  1.00  0.00    -0.237 OA
ATOM     95  O   UNL A   1      52.788  25.476  31.524  1.00  0.00    -0.744 OA
ENDBRANCH  91  92
ENDBRANCH  65  86
ENDBRANCH  39  40
ENDBRANCH  31  34
ENDBRANCH  29  30
ENDBRANCH  28  29
ENDBRANCH   1  28
TORSDOF 19
ENDMDL
MODEL 2
REMARK VINA RESULT:     -10.2      4.767      9.678
REMARK SMILES CC[C@H](C(=O)NCCCCNC(=O)c1ccc(-c2c3nc(c(-c4ccc(S(=O)(=O)[O-])cc4)c4ccc([nH]4)c(-c4ccc(S(=O)(=O)[O-])cc4)c4nc(c(-c5ccc(S(=O)(=O)[O-])cc5)c5ccc2[nH]5)C=C4)C=C3)cc1)N1C(=O)/C(=C\c2cc(OC)ccc2OC)SC1=S
REMARK SMILES IDX 8 1 7 2 6 3 4 4 5 5 3 7 2 8 1 9 74 10 75 11 90 12 76 13
REMARK SMILES IDX 77 14 89 15 91 16 78 17 79 18 80 19 86 20 81 21 85 22 84 23
REMARK SMILES IDX 87 24 88 25 82 26 83 27 9 28 10 29 11 30 12 31 13 33 14 34
REMARK SMILES IDX 15 35 73 36 16 37 72 38 17 39 18 40 19 41 66 42 20 43 71 44
REMARK SMILES IDX 65 45 67 46 21 47 70 48 64 49 63 50 22 52 52 53 33 54 51 55
REMARK SMILES IDX 34 56 37 57 50 58 68 59 35 60 36 61 49 63 69 64 38 65 23 66
REMARK SMILES IDX 24 67 32 68 25 69 31 70 26 71 27 72 28 73 29 74 30 75 53 76
REMARK SMILES IDX 54 77 62 78 55 79 61 80 56 81 57 82 58 83 59 84 60 85 39 86
REMARK SMILES IDX 40 87 48 88 41 89 47 90 42 91 43 92 44 93 45 94 46 95
REMARK H PARENT 6 6 11 32 67 51 37 62
REMARK Flexibility Score: inf
ROOT
ATOM      1  C   UNL A   1      38.691  21.751  25.740  1.00  0.00     0.023 C 
ENDROOT
BRANCH   1   2
ATOM      2  C   UNL A   1      37.415  21.286  25.049  1.00  0.00     0.116 C 
BRANCH   2   3
ATOM      3  N   UNL A   1      36.901  22.171  24.020  1.00  0.00    -0.354 N 
ATOM      4  C   UNL A   1      35.697  22.836  24.002  1.00  0.00     0.243 C 
ATOM      5  O   UNL A   1      35.481  23.630  23.084  1.00  0.00    -0.273 OA
ATOM      6  H   UNL A   1      37.486  22.313  23.239  1.00  0.00     0.163 HD
BRANCH   4   7
ATOM      7  C   UNL A   1      34.637  22.540  25.100  1.00  0.00     0.181 C 
BRANCH   7   8
ATOM      8  C   UNL A   1      34.991  23.151  26.475  1.00  0.00     0.032 C 
ATOM      9  C   UNL A   1      34.182  22.625  27.664  1.00  0.00     0.006 C 
ENDBRANCH   7   8
BRANCH   7  10
ATOM     10  N   UNL A   1      33.275  22.881  24.587  1.00  0.00    -0.280 N 
ATOM     11  C   UNL A   1      32.854  24.193  24.472  1.00  0.00     0.266 C 
ATOM     12  C   UNL A   1      32.354  21.935  24.174  1.00  0.00     0.149 C 
ATOM     13  O   UNL A   1      33.340  25.173  25.011  1.00  0.00    -0.268 OA
ATOM     14  C   UNL A   1      31.584  24.276  23.706  1.00  0.00     0.081 C 
ATOM     15  S   UNL A   1      30.868  22.722  23.616  1.00  0.00    -0.054 SA
ATOM     16  S   UNL A   1      32.494  20.269  24.179  1.00  0.00    -0.052 S 
ATOM     17  C   UNL A   1      31.136  25.370  23.075  1.00  0.00     0.033 C 
BRANCH  17  18
ATOM     18  C   UNL A   1      31.924  26.611  22.981  1.00  0.00     0.021 A 
ATOM     19  C   UNL A   1      31.639  27.617  23.930  1.00  0.00     0.058 A 
ATOM     20  C   UNL A   1      32.997  26.805  22.090  1.00  0.00     0.126 A 
ATOM     21  C   UNL A   1      32.414  28.779  24.022  1.00  0.00     0.119 A 
ATOM     22  C   UNL A   1      33.782  27.960  22.216  1.00  0.00     0.051 A 
ATOM     23  C   UNL A   1      33.504  28.936  23.173  1.00  0.00     0.050 A 
BRANCH  20  24
ATOM     24  O   UNL A   1      33.472  25.990  21.101  1.00  0.00    -0.496 OA
ATOM     25  C   UNL A   1      32.682  25.665  19.972  1.00  0.00     0.278 C 
ENDBRANCH  20  24
BRANCH  21  26
ATOM     26  O   UNL A   1      32.028  29.670  24.988  1.00  0.00    -0.497 OA
ATOM     27  C   UNL A   1      32.992  29.965  25.994  1.00  0.00     0.278 C 
ENDBRANCH  21  26
ENDBRANCH  17  18
ENDBRANCH   7  10
ENDBRANCH   4   7
ENDBRANCH   2   3
ENDBRANCH   1   2
BRANCH   1  28
ATOM     28  C   UNL A   1      38.679  23.173  26.297  1.00  0.00     0.023 C 
BRANCH  28  29
ATOM     29  C   UNL A   1      39.986  23.668  26.909  1.00  0.00     0.116 C 
BRANCH  29  30
ATOM     30  N   UNL A   1      40.851  24.358  25.962  1.00  0.00    -0.352 N 
ATOM     31  C   UNL A   1      41.258  25.676  25.942  1.00  0.00     0.251 C 
ATOM     32  H   UNL A   1      41.197  23.802  25.227  1.00  0.00     0.163 HD
ATOM     33  O   UNL A   1      41.909  26.108  24.996  1.00  0.00    -0.269 OA
BRANCH  31  34
ATOM     34  C   UNL A   1      40.868  26.574  27.050  1.00  0.00     0.039 A 
ATOM     35  C   UNL A   1      39.913  26.143  27.974  1.00  0.00     0.014 A 
ATOM     36  C   UNL A   1      41.494  27.811  27.208  1.00  0.00     0.014 A 
ATOM     37  C   UNL A   1      39.670  26.905  29.122  1.00  0.00     0.010 A 
ATOM     38  C   UNL A   1      41.315  28.522  28.388  1.00  0.00     0.010 A 
ATOM     39  C   UNL A   1      40.414  28.071  29.367  1.00  0.00    -0.014 A 
BRANCH  39  40
ATOM     40  C   UNL A   1      40.294  28.836  30.636  1.00  0.00     0.031 A 
ATOM     41  C   UNL A   1      39.288  29.950  30.743  1.00  0.00     0.074 A 
ATOM     42  C   UNL A   1      41.158  28.610  31.648  1.00  0.00     0.049 A 
ATOM     43  N   UNL A   1      39.139  30.841  31.688  1.00  0.00    -0.248 NA
ATOM     44  C   UNL A   1      38.346  30.100  29.621  1.00  0.00     0.031 C 
ATOM     45  C   UNL A   1      42.197  27.576  31.665  1.00  0.00     0.029 A 
ATOM     46  N   UNL A   1      41.315  29.252  32.853  1.00  0.00    -0.354 N 
ATOM     47  C   UNL A   1      38.109  31.672  31.264  1.00  0.00     0.074 A 
ATOM     48  C   UNL A   1      37.703  31.208  29.956  1.00  0.00     0.031 C 
ATOM     49  C   UNL A   1      42.871  27.646  32.825  1.00  0.00     0.029 A 
ATOM     50  C   UNL A   1      42.354  28.762  33.612  1.00  0.00     0.049 A 
ATOM     51  H   UNL A   1      40.738  29.994  33.146  1.00  0.00     0.167 HD
ATOM     52  C   UNL A   1      37.542  32.719  31.911  1.00  0.00     0.031 A 
ATOM     53  C   UNL A   1      42.852  29.177  34.794  1.00  0.00     0.031 A 
ATOM     54  C   UNL A   1      37.942  33.170  33.216  1.00  0.00     0.049 A 
ATOM     55  C   UNL A   1      42.228  30.363  35.479  1.00  0.00     0.074 A 
ATOM     56  C   UNL A   1      37.395  34.188  33.977  1.00  0.00     0.029 A 
ATOM     57  N   UNL A   1      38.987  32.634  33.954  1.00  0.00    -0.354 N 
ATOM     58  N   UNL A   1      41.220  31.105  35.086  1.00  0.00    -0.248 NA
ATOM     59  C   UNL A   1      42.804  30.768  36.770  1.00  0.00     0.031 C 
ATOM     60  C   UNL A   1      38.148  34.308  35.149  1.00  0.00     0.029 A 
ATOM     61  C   UNL A   1      39.117  33.318  35.151  1.00  0.00     0.049 A 
ATOM     62  H   UNL A   1      39.552  31.880  33.670  1.00  0.00     0.167 HD
ATOM     63  C   UNL A   1      41.017  32.037  36.098  1.00  0.00     0.074 A 
ATOM     64  C   UNL A   1      42.003  31.765  37.123  1.00  0.00     0.031 C 
ATOM     65  C   UNL A   1      40.092  33.025  36.171  1.00  0.00     0.031 A 
BRANCH  52  66
ATOM     66  C   UNL A   1      36.433  33.457  31.206  1.00  0.00    -0.014 A 
ATOM     67  C   UNL A   1      36.596  33.938  29.894  1.00  0.00     0.010 A 
ATOM     68  C   UNL A   1      35.196  33.635  31.851  1.00  0.00     0.010 A 
ATOM     69  C   UNL A   1      35.559  34.623  29.258  1.00  0.00     0.020 A 
ATOM     70  C   UNL A   1      34.144  34.291  31.206  1.00  0.00     0.020 A 
ATOM     71  C   UNL A   1      34.339  34.796  29.918  1.00  0.00     0.054 A 
BRANCH  71  72
ATOM     72  S   UNL A   1      33.004  35.671  29.057  1.00  0.00     0.124 S 
ATOM     73  O   UNL A   1      33.745  36.669  28.289  1.00  0.00    -0.237 OA
ATOM     74  O   UNL A   1      32.382  34.609  28.272  1.00  0.00    -0.237 OA
ATOM     75  O   UNL A   1      32.182  36.205  30.140  1.00  0.00    -0.744 OA
ENDBRANCH  71  72
ENDBRANCH  52  66
BRANCH  53  76
ATOM     76  C   UNL A   1      44.008  28.463  35.409  1.00  0.00    -0.014 A 
ATOM     77  C   UNL A   1      45.326  28.859  35.120  1.00  0.00     0.010 A 
ATOM     78  C   UNL A   1      43.797  27.386  36.290  1.00  0.00     0.010 A 
ATOM     79  C   UNL A   1      46.410  28.181  35.685  1.00  0.00     0.020 A 
ATOM     80  C   UNL A   1      44.879  26.725  36.881  1.00  0.00     0.020 A 
ATOM     81  C   UNL A   1      46.180  27.119  36.564  1.00  0.00     0.054 A 
BRANCH  81  82
ATOM     82  S   UNL A   1      47.604  26.288  37.322  1.00  0.00     0.124 S 
ATOM     83  O   UNL A   1      48.200  27.362  38.109  1.00  0.00    -0.237 OA
ATOM     84  O   UNL A   1      46.971  25.216  38.087  1.00  0.00    -0.237 OA
ATOM     85  O   UNL A   1      48.389  25.842  36.173  1.00  0.00    -0.744 OA
ENDBRANCH  81  82
ENDBRANCH  53  76
BRANCH  65  86
ATOM     86  C   UNL A   1      40.050  33.862  37.423  1.00  0.00    -0.014 A 
ATOM     87  C   UNL A   1      39.291  33.474  38.541  1.00  0.00     0.010 A 
ATOM     88  C   UNL A   1      40.871  35.002  37.513  1.00  0.00     0.010 A 
ATOM     89  C   UNL A   1      39.351  34.215  39.725  1.00  0.00     0.020 A 
ATOM     90  C   UNL A   1      40.955  35.729  38.703  1.00  0.00     0.020 A 
ATOM     91  C   UNL A   1      40.190  35.332  39.801  1.00  0.00     0.054 A 
BRANCH  91  92
ATOM     92  S   UNL A   1      40.315  36.223  41.377  1.00  0.00     0.124 S 
ATOM     93  O   UNL A   1      40.847  35.197  42.267  1.00  0.00    -0.237 OA
ATOM     94  O   UNL A   1      41.232  37.314  41.054  1.00  0.00    -0.237 OA
ATOM     95  O   UNL A   1      38.940  36.635  41.653  1.00  0.00    -0.744 OA
ENDBRANCH  91  92
ENDBRANCH  65  86
ENDBRANCH  39  40
ENDBRANCH  31  34
ENDBRANCH  29  30
ENDBRANCH  28  29
ENDBRANCH   1  28
TORSDOF 19
ENDMDL
MODEL 3
REMARK VINA RESULT:     -10.2      1.216      8.233
REMARK SMILES CC[C@H](C(=O)NCCCCNC(=O)c1ccc(-c2c3nc(c(-c4ccc(S(=O)(=O)[O-])cc4)c4ccc([nH]4)c(-c4ccc(S(=O)(=O)[O-])cc4)c4nc(c(-c5ccc(S(=O)(=O)[O-])cc5)c5ccc2[nH]5)C=C4)C=C3)cc1)N1C(=O)/C(=C\c2cc(OC)ccc2OC)SC1=S
REMARK SMILES IDX 8 1 7 2 6 3 4 4 5 5 3 7 2 8 1 9 74 10 75 11 90 12 76 13
REMARK SMILES IDX 77 14 89 15 91 16 78 17 79 18 80 19 86 20 81 21 85 22 84 23
REMARK SMILES IDX 87 24 88 25 82 26 83 27 9 28 10 29 11 30 12 31 13 33 14 34
REMARK SMILES IDX 15 35 73 36 16 37 72 38 17 39 18 40 19 41 66 42 20 43 71 44
REMARK SMILES IDX 65 45 67 46 21 47 70 48 64 49 63 50 22 52 52 53 33 54 51 55
REMARK SMILES IDX 34 56 37 57 50 58 68 59 35 60 36 61 49 63 69 64 38 65 23 66
REMARK SMILES IDX 24 67 32 68 25 69 31 70 26 71 27 72 28 73 29 74 30 75 53 76
REMARK SMILES IDX 54 77 62 78 55 79 61 80 56 81 57 82 58 83 59 84 60 85 39 86
REMARK SMILES IDX 40 87 48 88 41 89 47 90 42 91 43 92 44 93 45 94 46 95
REMARK H PARENT 6 6 11 32 67 51 37 62
REMARK Flexibility Score: inf
ROOT
ATOM      1  C   UNL A   1      33.533  29.165  24.797  1.00  0.00     0.023 C 
ENDROOT
BRANCH   1   2
ATOM      2  C   UNL A   1      33.430  28.738  23.338  1.00  0.00     0.116 C 
BRANCH   2   3
ATOM      3  N   UNL A   1      34.079  27.483  23.005  1.00  0.00    -0.354 N 
ATOM      4  C   UNL A   1      33.527  26.386  22.385  1.00  0.00     0.243 C 
ATOM      5  O   UNL A   1      34.269  25.446  22.091  1.00  0.00    -0.273 OA
ATOM      6  H   UNL A   1      35.029  27.409  23.253  1.00  0.00     0.163 HD
BRANCH   4   7
ATOM      7  C   UNL A   1      31.997  26.342  22.115  1.00  0.00     0.181 C 
BRANCH   7   8
ATOM      8  C   UNL A   1      31.625  25.600  20.811  1.00  0.00     0.032 C 
ATOM      9  C   UNL A   1      32.609  25.762  19.650  1.00  0.00     0.006 C 
ENDBRANCH   7   8
BRANCH   7  10
ATOM     10  N   UNL A   1      31.285  25.865  23.339  1.00  0.00    -0.280 N 
ATOM     11  C   UNL A   1      31.434  24.571  23.804  1.00  0.00     0.266 C 
ATOM     12  C   UNL A   1      30.456  26.667  24.105  1.00  0.00     0.149 C 
ATOM     13  O   UNL A   1      31.864  23.611  23.186  1.00  0.00    -0.268 OA
ATOM     14  C   UNL A   1      30.841  24.423  25.158  1.00  0.00     0.081 C 
ATOM     15  S   UNL A   1      29.814  25.755  25.481  1.00  0.00    -0.054 SA
ATOM     16  S   UNL A   1      30.025  28.262  23.854  1.00  0.00    -0.052 S 
ATOM     17  C   UNL A   1      31.161  23.464  26.038  1.00  0.00     0.033 C 
BRANCH  17  18
ATOM     18  C   UNL A   1      32.240  22.490  25.793  1.00  0.00     0.021 A 
ATOM     19  C   UNL A   1      31.843  21.174  25.468  1.00  0.00     0.058 A 
ATOM     20  C   UNL A   1      33.609  22.814  25.757  1.00  0.00     0.126 A 
ATOM     21  C   UNL A   1      32.775  20.202  25.084  1.00  0.00     0.119 A 
ATOM     22  C   UNL A   1      34.525  21.837  25.340  1.00  0.00     0.051 A 
ATOM     23  C   UNL A   1      34.119  20.547  24.999  1.00  0.00     0.050 A 
BRANCH  20  24
ATOM     24  O   UNL A   1      34.235  24.000  26.018  1.00  0.00    -0.496 OA
ATOM     25  C   UNL A   1      35.507  24.296  25.471  1.00  0.00     0.278 C 
ENDBRANCH  20  24
BRANCH  21  26
ATOM     26  O   UNL A   1      32.254  18.969  24.793  1.00  0.00    -0.497 OA
ATOM     27  C   UNL A   1      32.613  17.910  25.675  1.00  0.00     0.278 C 
ENDBRANCH  21  26
ENDBRANCH  17  18
ENDBRANCH   7  10
ENDBRANCH   4   7
ENDBRANCH   2   3
ENDBRANCH   1   2
BRANCH   1  28
ATOM     28  C   UNL A   1      33.934  28.080  25.794  1.00  0.00     0.023 C 
BRANCH  28  29
ATOM     29  C   UNL A   1      33.517  28.309  27.243  1.00  0.00     0.116 C 
BRANCH  29  30
ATOM     30  N   UNL A   1      33.461  29.715  27.621  1.00  0.00    -0.352 N 
ATOM     31  C   UNL A   1      34.451  30.527  28.133  1.00  0.00     0.251 C 
ATOM     32  H   UNL A   1      32.587  30.150  27.492  1.00  0.00     0.163 HD
ATOM     33  O   UNL A   1      34.188  31.668  28.495  1.00  0.00    -0.269 OA
BRANCH  31  34
ATOM     34  C   UNL A   1      35.822  29.995  28.282  1.00  0.00     0.039 A 
ATOM     35  C   UNL A   1      36.704  30.068  27.201  1.00  0.00     0.014 A 
ATOM     36  C   UNL A   1      36.252  29.487  29.508  1.00  0.00     0.014 A 
ATOM     37  C   UNL A   1      38.051  29.737  27.384  1.00  0.00     0.010 A 
ATOM     38  C   UNL A   1      37.605  29.241  29.711  1.00  0.00     0.010 A 
ATOM     39  C   UNL A   1      38.523  29.378  28.657  1.00  0.00    -0.014 A 
BRANCH  39  40
ATOM     40  C   UNL A   1      39.967  29.156  28.933  1.00  0.00     0.031 A 
ATOM     41  C   UNL A   1      40.588  27.820  28.625  1.00  0.00     0.074 A 
ATOM     42  C   UNL A   1      40.691  30.105  29.562  1.00  0.00     0.049 A 
ATOM     43  N   UNL A   1      41.773  27.367  28.941  1.00  0.00    -0.248 NA
ATOM     44  C   UNL A   1      39.751  26.855  27.892  1.00  0.00     0.031 C 
ATOM     45  C   UNL A   1      40.205  31.436  29.939  1.00  0.00     0.029 A 
ATOM     46  N   UNL A   1      41.988  30.090  30.015  1.00  0.00    -0.354 N 
ATOM     47  C   UNL A   1      41.814  26.060  28.472  1.00  0.00     0.074 A 
ATOM     48  C   UNL A   1      40.520  25.777  27.892  1.00  0.00     0.031 C 
ATOM     49  C   UNL A   1      41.193  32.110  30.551  1.00  0.00     0.029 A 
ATOM     50  C   UNL A   1      42.364  31.245  30.663  1.00  0.00     0.049 A 
ATOM     51  H   UNL A   1      42.593  29.323  29.890  1.00  0.00     0.167 HD
ATOM     52  C   UNL A   1      42.842  25.177  28.506  1.00  0.00     0.031 A 
ATOM     53  C   UNL A   1      43.509  31.566  31.298  1.00  0.00     0.031 A 
ATOM     54  C   UNL A   1      44.131  25.466  29.074  1.00  0.00     0.049 A 
ATOM     55  C   UNL A   1      44.626  30.558  31.353  1.00  0.00     0.074 A 
ATOM     56  C   UNL A   1      45.253  24.657  29.111  1.00  0.00     0.029 A 
ATOM     57  N   UNL A   1      44.472  26.654  29.703  1.00  0.00    -0.354 N 
ATOM     58  N   UNL A   1      44.665  29.344  30.858  1.00  0.00    -0.248 NA
ATOM     59  C   UNL A   1      45.857  30.963  32.049  1.00  0.00     0.031 C 
ATOM     60  C   UNL A   1      46.253  25.332  29.816  1.00  0.00     0.029 A 
ATOM     61  C   UNL A   1      45.779  26.589  30.155  1.00  0.00     0.049 A 
ATOM     62  H   UNL A   1      43.874  27.428  29.813  1.00  0.00     0.167 HD
ATOM     63  C   UNL A   1      45.934  28.856  31.147  1.00  0.00     0.074 A 
ATOM     64  C   UNL A   1      46.635  29.905  31.858  1.00  0.00     0.031 C 
ATOM     65  C   UNL A   1      46.471  27.648  30.845  1.00  0.00     0.031 A 
BRANCH  52  66
ATOM     66  C   UNL A   1      42.606  23.808  27.923  1.00  0.00    -0.014 A 
ATOM     67  C   UNL A   1      42.193  22.733  28.731  1.00  0.00     0.010 A 
ATOM     68  C   UNL A   1      42.760  23.604  26.540  1.00  0.00     0.010 A 
ATOM     69  C   UNL A   1      41.983  21.469  28.175  1.00  0.00     0.020 A 
ATOM     70  C   UNL A   1      42.518  22.350  25.973  1.00  0.00     0.020 A 
ATOM     71  C   UNL A   1      42.148  21.286  26.798  1.00  0.00     0.054 A 
BRANCH  71  72
ATOM     72  S   UNL A   1      41.846  19.639  26.102  1.00  0.00     0.124 S 
ATOM     73  O   UNL A   1      42.229  18.768  27.211  1.00  0.00    -0.237 OA
ATOM     74  O   UNL A   1      40.419  19.677  25.797  1.00  0.00    -0.237 OA
ATOM     75  O   UNL A   1      42.728  19.586  24.938  1.00  0.00    -0.744 OA
ENDBRANCH  71  72
ENDBRANCH  52  66
BRANCH  53  76
ATOM     76  C   UNL A   1      43.661  32.906  31.934  1.00  0.00    -0.014 A 
ATOM     77  C   UNL A   1      43.306  33.100  33.281  1.00  0.00     0.010 A 
ATOM     78  C   UNL A   1      44.164  33.995  31.198  1.00  0.00     0.010 A 
ATOM     79  C   UNL A   1      43.434  34.359  33.874  1.00  0.00     0.020 A 
ATOM     80  C   UNL A   1      44.322  35.249  31.797  1.00  0.00     0.020 A 
ATOM     81  C   UNL A   1      43.944  35.426  33.128  1.00  0.00     0.054 A 
BRANCH  81  82
ATOM     82  S   UNL A   1      44.145  37.039  33.936  1.00  0.00     0.124 S 
ATOM     83  O   UNL A   1      44.905  37.786  32.939  1.00  0.00    -0.237 OA
ATOM     84  O   UNL A   1      42.762  37.467  34.132  1.00  0.00    -0.237 OA
ATOM     85  O   UNL A   1      44.870  36.718  35.164  1.00  0.00    -0.744 OA
ENDBRANCH  81  82
ENDBRANCH  53  76
BRANCH  65  86
ATOM     86  C   UNL A   1      47.908  27.399  31.225  1.00  0.00    -0.014 A 
ATOM     87  C   UNL A   1      48.250  26.777  32.437  1.00  0.00     0.010 A 
ATOM     88  C   UNL A   1      48.923  27.699  30.297  1.00  0.00     0.010 A 
ATOM     89  C   UNL A   1      49.584  26.465  32.718  1.00  0.00     0.020 A 
ATOM     90  C   UNL A   1      50.253  27.364  30.561  1.00  0.00     0.020 A 
ATOM     91  C   UNL A   1      50.575  26.752  31.773  1.00  0.00     0.054 A 
BRANCH  91  92
ATOM     92  S   UNL A   1      52.284  26.256  32.126  1.00  0.00     0.124 S 
ATOM     93  O   UNL A   1      52.103  24.939  32.728  1.00  0.00    -0.237 OA
ATOM     94  O   UNL A   1      52.898  26.263  30.800  1.00  0.00    -0.237 OA
ATOM     95  O   UNL A   1      52.767  27.294  33.034  1.00  0.00    -0.744 OA
ENDBRANCH  91  92
ENDBRANCH  65  86
ENDBRANCH  39  40
ENDBRANCH  31  34
ENDBRANCH  29  30
ENDBRANCH  28  29
ENDBRANCH   1  28
TORSDOF 19
ENDMDL
