MODEL 1
REMARK VINA RESULT:     -12.3      0.000      0.000
REMARK SMILES NS(=O)(=O)c1ccc(-n2nc(C(F)(F)F)cc2-c2ccc(CC(=O)NCCCCNC(=O)c3ccc(-c4c5nc(c(-c6ccc(S(=O)(=O)[O-])cc6)c6ccc([nH]6)c(-c6ccc(S(=O)(=O)[O-])cc6)c6nc(c(-c7ccc(S(=O)(=O)[O-])cc7)c7ccc4[nH]7)C=C6)C=C5)cc3)cc2)cc1
REMARK SMILES IDX 26 1 25 2 23 3 24 4 22 6 21 7 18 8 19 9 94 10 20 11 93 12
REMARK SMILES IDX 17 13 9 14 10 15 11 16 16 17 8 18 5 19 6 20 96 21 7 22 95 23
REMARK SMILES IDX 2 24 3 25 4 26 1 27 12 30 13 31 14 32 15 33 27 34 28 35
REMARK SMILES IDX 29 36 30 37 31 38 32 40 33 41 34 42 92 43 35 44 91 45 36 46
REMARK SMILES IDX 37 47 38 48 85 49 39 50 90 51 84 52 86 53 40 54 89 55 83 56
REMARK SMILES IDX 82 57 41 59 71 60 52 61 70 62 53 63 56 64 69 65 87 66 54 67
REMARK SMILES IDX 55 68 68 70 88 71 57 72 42 73 43 74 51 75 44 76 50 77 45 78
REMARK SMILES IDX 46 79 47 80 48 81 49 82 72 83 73 84 81 85 74 86 80 87 75 88
REMARK SMILES IDX 76 89 77 90 78 91 79 92 58 93 59 94 67 95 60 96 66 97 61 98
REMARK SMILES IDX 62 99 63 100 64 101 65 102
REMARK H PARENT 25 5 1 28 1 29 30 39 86 58 56 69
REMARK Flexibility Score: inf
ROOT
ATOM      1  C   UNL A   1      34.490  21.948  23.879  1.00  0.00     0.116 C 
ENDROOT
BRANCH   1   2
ATOM      2  N   UNL A   1      33.338  21.421  24.586  1.00  0.00    -0.356 N 
ATOM      3  C   UNL A   1      32.073  21.930  24.672  1.00  0.00     0.224 C 
ATOM      4  O   UNL A   1      31.282  21.408  25.459  1.00  0.00    -0.275 OA
ATOM      5  H   UNL A   1      33.490  20.579  25.072  1.00  0.00     0.163 HD
BRANCH   3   6
ATOM      6  C   UNL A   1      31.657  23.100  23.795  1.00  0.00     0.135 C 
BRANCH   6   7
ATOM      7  C   UNL A   1      32.045  24.446  24.357  1.00  0.00    -0.039 A 
ATOM      8  C   UNL A   1      32.904  26.876  25.489  1.00  0.00     0.000 A 
ATOM      9  C   UNL A   1      31.922  26.100  26.123  1.00  0.00     0.010 A 
ATOM     10  C   UNL A   1      33.410  26.455  24.257  1.00  0.00     0.010 A 
ATOM     11  C   UNL A   1      31.497  24.896  25.563  1.00  0.00     0.005 A 
ATOM     12  C   UNL A   1      32.977  25.254  23.692  1.00  0.00     0.005 A 
BRANCH   8  13
ATOM     13  C   UNL A   1      33.355  28.131  26.085  1.00  0.00     0.075 A 
ATOM     14  N   UNL A   1      32.892  29.397  25.750  1.00  0.00    -0.233 N 
ATOM     15  N   UNL A   1      33.707  30.377  26.221  1.00  0.00    -0.163 NA
ATOM     16  C   UNL A   1      34.543  29.747  27.070  1.00  0.00     0.167 A 
ATOM     17  C   UNL A   1      34.373  28.342  26.993  1.00  0.00     0.064 A 
BRANCH  14  18
ATOM     18  C   UNL A   1      31.705  29.738  25.057  1.00  0.00     0.065 A 
ATOM     19  C   UNL A   1      29.418  30.456  23.642  1.00  0.00     0.082 A 
ATOM     20  C   UNL A   1      30.051  29.242  23.372  1.00  0.00     0.024 A 
ATOM     21  C   UNL A   1      29.888  31.285  24.664  1.00  0.00     0.024 A 
ATOM     22  C   UNL A   1      31.227  28.902  24.043  1.00  0.00     0.030 A 
ATOM     23  C   UNL A   1      31.008  30.902  25.407  1.00  0.00     0.030 A 
BRANCH  19  24
ATOM     24  S   UNL A   1      28.030  30.961  22.664  1.00  0.00     0.238 S 
ATOM     25  O   UNL A   1      28.521  31.518  21.415  1.00  0.00    -0.207 OA
ATOM     26  O   UNL A   1      27.099  31.649  23.510  1.00  0.00    -0.207 OA
BRANCH  24  27
ATOM     27  N   UNL A   1      27.299  29.511  22.226  1.00  0.00    -0.225 NA
ATOM     28  H   UNL A   1      27.958  28.744  22.363  1.00  0.00     0.137 HD
ATOM     29  H   UNL A   1      27.024  29.552  21.245  1.00  0.00     0.137 HD
ENDBRANCH  24  27
ENDBRANCH  19  24
ENDBRANCH  14  18
BRANCH  16  30
ATOM     30  C   UNL A   1      35.530  30.472  27.941  1.00  0.00     0.435 C 
ATOM     31  F   UNL A   1      35.498  31.820  27.776  1.00  0.00    -0.164 F 
ATOM     32  F   UNL A   1      35.326  30.226  29.263  1.00  0.00    -0.164 F 
ATOM     33  F   UNL A   1      36.811  30.085  27.679  1.00  0.00    -0.164 F 
ENDBRANCH  16  30
ENDBRANCH   8  13
ENDBRANCH   6   7
ENDBRANCH   3   6
ENDBRANCH   1   2
BRANCH   1  34
ATOM     34  C   UNL A   1      35.380  22.789  24.801  1.00  0.00     0.023 C 
BRANCH  34  35
ATOM     35  C   UNL A   1      36.885  22.622  24.561  1.00  0.00     0.023 C 
BRANCH  35  36
ATOM     36  C   UNL A   1      37.740  22.634  25.812  1.00  0.00     0.116 C 
BRANCH  36  37
ATOM     37  N   UNL A   1      38.984  21.878  25.663  1.00  0.00    -0.352 N 
ATOM     38  C   UNL A   1      40.262  22.301  25.989  1.00  0.00     0.251 C 
ATOM     39  H   UNL A   1      38.905  20.970  25.290  1.00  0.00     0.163 HD
ATOM     40  O   UNL A   1      41.250  21.769  25.503  1.00  0.00    -0.269 OA
BRANCH  38  41
ATOM     41  C   UNL A   1      40.389  23.414  26.946  1.00  0.00     0.039 A 
ATOM     42  C   UNL A   1      41.374  23.432  27.935  1.00  0.00     0.014 A 
ATOM     43  C   UNL A   1      39.537  24.498  26.760  1.00  0.00     0.014 A 
ATOM     44  C   UNL A   1      41.554  24.601  28.673  1.00  0.00     0.010 A 
ATOM     45  C   UNL A   1      39.831  25.694  27.358  1.00  0.00     0.010 A 
ATOM     46  C   UNL A   1      40.795  25.739  28.358  1.00  0.00    -0.014 A 
BRANCH  46  47
ATOM     47  C   UNL A   1      41.070  27.033  28.978  1.00  0.00     0.031 A 
ATOM     48  C   UNL A   1      42.210  27.781  28.379  1.00  0.00     0.074 A 
ATOM     49  C   UNL A   1      40.214  27.617  29.846  1.00  0.00     0.049 A 
ATOM     50  N   UNL A   1      43.348  28.053  28.926  1.00  0.00    -0.248 NA
ATOM     51  C   UNL A   1      42.135  28.151  26.954  1.00  0.00     0.031 C 
ATOM     52  C   UNL A   1      38.891  27.144  30.278  1.00  0.00     0.029 A 
ATOM     53  N   UNL A   1      40.287  28.842  30.429  1.00  0.00    -0.354 N 
ATOM     54  C   UNL A   1      44.043  28.830  28.003  1.00  0.00     0.074 A 
ATOM     55  C   UNL A   1      43.339  28.691  26.753  1.00  0.00     0.031 C 
ATOM     56  C   UNL A   1      38.198  28.166  30.827  1.00  0.00     0.029 A 
ATOM     57  C   UNL A   1      39.086  29.305  30.959  1.00  0.00     0.049 A 
ATOM     58  H   UNL A   1      41.123  29.361  30.473  1.00  0.00     0.167 HD
ATOM     59  C   UNL A   1      44.990  29.729  28.397  1.00  0.00     0.031 A 
ATOM     60  C   UNL A   1      38.832  30.545  31.451  1.00  0.00     0.031 A 
ATOM     61  C   UNL A   1      45.372  29.527  29.772  1.00  0.00     0.049 A 
ATOM     62  C   UNL A   1      40.145  31.148  31.782  1.00  0.00     0.074 A 
ATOM     63  C   UNL A   1      45.915  28.477  30.485  1.00  0.00     0.029 A 
ATOM     64  N   UNL A   1      44.805  30.366  30.703  1.00  0.00    -0.354 N 
ATOM     65  N   UNL A   1      40.931  30.681  32.712  1.00  0.00    -0.248 NA
ATOM     66  C   UNL A   1      40.793  31.968  30.772  1.00  0.00     0.031 C 
ATOM     67  C   UNL A   1      45.221  28.488  31.732  1.00  0.00     0.029 A 
ATOM     68  C   UNL A   1      44.363  29.590  31.744  1.00  0.00     0.049 A 
ATOM     69  H   UNL A   1      44.731  31.345  30.635  1.00  0.00     0.167 HD
ATOM     70  C   UNL A   1      42.207  30.764  32.172  1.00  0.00     0.074 A 
ATOM     71  C   UNL A   1      42.069  31.654  31.019  1.00  0.00     0.031 C 
ATOM     72  C   UNL A   1      43.189  29.888  32.539  1.00  0.00     0.031 A 
BRANCH  59  73
ATOM     73  C   UNL A   1      45.268  31.029  27.681  1.00  0.00    -0.014 A 
ATOM     74  C   UNL A   1      46.567  31.573  27.733  1.00  0.00     0.010 A 
ATOM     75  C   UNL A   1      44.244  31.869  27.194  1.00  0.00     0.010 A 
ATOM     76  C   UNL A   1      46.814  32.908  27.380  1.00  0.00     0.020 A 
ATOM     77  C   UNL A   1      44.487  33.186  26.798  1.00  0.00     0.020 A 
ATOM     78  C   UNL A   1      45.767  33.708  26.925  1.00  0.00     0.054 A 
BRANCH  78  79
ATOM     79  S   UNL A   1      46.074  35.452  26.560  1.00  0.00     0.124 S 
ATOM     80  O   UNL A   1      47.058  35.804  27.579  1.00  0.00    -0.237 OA
ATOM     81  O   UNL A   1      46.574  35.396  25.189  1.00  0.00    -0.237 OA
ATOM     82  O   UNL A   1      44.760  36.071  26.714  1.00  0.00    -0.744 OA
ENDBRANCH  78  79
ENDBRANCH  59  73
BRANCH  60  83
ATOM     83  C   UNL A   1      37.581  31.339  31.354  1.00  0.00    -0.014 A 
ATOM     84  C   UNL A   1      36.570  31.227  32.328  1.00  0.00     0.010 A 
ATOM     85  C   UNL A   1      37.509  32.429  30.461  1.00  0.00     0.010 A 
ATOM     86  C   UNL A   1      35.566  32.204  32.447  1.00  0.00     0.020 A 
ATOM     87  C   UNL A   1      36.508  33.403  30.572  1.00  0.00     0.020 A 
ATOM     88  C   UNL A   1      35.555  33.300  31.581  1.00  0.00     0.054 A 
BRANCH  88  89
ATOM     89  S   UNL A   1      34.371  34.654  31.862  1.00  0.00     0.124 S 
ATOM     90  O   UNL A   1      34.074  35.094  30.501  1.00  0.00    -0.237 OA
ATOM     91  O   UNL A   1      33.280  33.984  32.563  1.00  0.00    -0.237 OA
ATOM     92  O   UNL A   1      35.129  35.609  32.670  1.00  0.00    -0.744 OA
ENDBRANCH  88  89
ENDBRANCH  60  83
BRANCH  72  93
ATOM     93  C   UNL A   1      42.953  29.001  33.743  1.00  0.00    -0.014 A 
ATOM     94  C   UNL A   1      42.078  27.895  33.756  1.00  0.00     0.010 A 
ATOM     95  C   UNL A   1      43.775  29.212  34.864  1.00  0.00     0.010 A 
ATOM     96  C   UNL A   1      42.011  27.045  34.872  1.00  0.00     0.020 A 
ATOM     97  C   UNL A   1      43.727  28.361  35.969  1.00  0.00     0.020 A 
ATOM     98  C   UNL A   1      42.837  27.286  35.975  1.00  0.00     0.054 A 
BRANCH  98  99
ATOM     99  S   UNL A   1      42.776  26.169  37.405  1.00  0.00     0.124 S 
ATOM    100  O   UNL A   1      43.657  26.832  38.362  1.00  0.00    -0.237 OA
ATOM    101  O   UNL A   1      41.357  26.164  37.753  1.00  0.00    -0.237 OA
ATOM    102  O   UNL A   1      43.280  24.900  36.878  1.00  0.00    -0.744 OA
ENDBRANCH  98  99
ENDBRANCH  72  93
ENDBRANCH  46  47
ENDBRANCH  38  41
ENDBRANCH  36  37
ENDBRANCH  35  36
ENDBRANCH  34  35
ENDBRANCH   1  34
TORSDOF 20
ENDMDL
MODEL 2
REMARK VINA RESULT:     -11.0      5.003     10.791
REMARK SMILES NS(=O)(=O)c1ccc(-n2nc(C(F)(F)F)cc2-c2ccc(CC(=O)NCCCCNC(=O)c3ccc(-c4c5nc(c(-c6ccc(S(=O)(=O)[O-])cc6)c6ccc([nH]6)c(-c6ccc(S(=O)(=O)[O-])cc6)c6nc(c(-c7ccc(S(=O)(=O)[O-])cc7)c7ccc4[nH]7)C=C6)C=C5)cc3)cc2)cc1
REMARK SMILES IDX 26 1 25 2 23 3 24 4 22 6 21 7 18 8 19 9 94 10 20 11 93 12
REMARK SMILES IDX 17 13 9 14 10 15 11 16 16 17 8 18 5 19 6 20 96 21 7 22 95 23
REMARK SMILES IDX 2 24 3 25 4 26 1 27 12 30 13 31 14 32 15 33 27 34 28 35
REMARK SMILES IDX 29 36 30 37 31 38 32 40 33 41 34 42 92 43 35 44 91 45 36 46
REMARK SMILES IDX 37 47 38 48 85 49 39 50 90 51 84 52 86 53 40 54 89 55 83 56
REMARK SMILES IDX 82 57 41 59 71 60 52 61 70 62 53 63 56 64 69 65 87 66 54 67
REMARK SMILES IDX 55 68 68 70 88 71 57 72 42 73 43 74 51 75 44 76 50 77 45 78
REMARK SMILES IDX 46 79 47 80 48 81 49 82 72 83 73 84 81 85 74 86 80 87 75 88
REMARK SMILES IDX 76 89 77 90 78 91 79 92 58 93 59 94 67 95 60 96 66 97 61 98
REMARK SMILES IDX 62 99 63 100 64 101 65 102
REMARK H PARENT 25 5 1 28 1 29 30 39 86 58 56 69
REMARK Flexibility Score: inf
ROOT
ATOM      1  C   UNL A   1      42.545  34.364  36.194  1.00  0.00     0.116 C 
ENDROOT
BRANCH   1   2
ATOM      2  N   UNL A   1      41.143  34.737  36.146  1.00  0.00    -0.356 N 
ATOM      3  C   UNL A   1      40.419  35.229  35.097  1.00  0.00     0.224 C 
ATOM      4  O   UNL A   1      39.276  35.634  35.313  1.00  0.00    -0.275 OA
ATOM      5  H   UNL A   1      40.646  34.620  36.987  1.00  0.00     0.163 HD
BRANCH   3   6
ATOM      6  C   UNL A   1      41.013  35.249  33.699  1.00  0.00     0.135 C 
BRANCH   6   7
ATOM      7  C   UNL A   1      40.527  34.124  32.817  1.00  0.00    -0.039 A 
ATOM      8  C   UNL A   1      39.762  31.931  31.228  1.00  0.00     0.000 A 
ATOM      9  C   UNL A   1      40.535  32.969  30.687  1.00  0.00     0.010 A 
ATOM     10  C   UNL A   1      39.327  32.027  32.552  1.00  0.00     0.010 A 
ATOM     11  C   UNL A   1      40.915  34.056  31.475  1.00  0.00     0.005 A 
ATOM     12  C   UNL A   1      39.700  33.119  33.337  1.00  0.00     0.005 A 
BRANCH   8  13
ATOM     13  C   UNL A   1      39.376  30.788  30.402  1.00  0.00     0.075 A 
ATOM     14  N   UNL A   1      38.126  30.592  29.828  1.00  0.00    -0.233 N 
ATOM     15  N   UNL A   1      37.960  29.314  29.399  1.00  0.00    -0.163 NA
ATOM     16  C   UNL A   1      39.190  28.768  29.467  1.00  0.00     0.167 A 
ATOM     17  C   UNL A   1      40.095  29.647  30.111  1.00  0.00     0.064 A 
BRANCH  14  18
ATOM     18  C   UNL A   1      37.102  31.547  29.616  1.00  0.00     0.065 A 
ATOM     19  C   UNL A   1      35.116  33.467  29.269  1.00  0.00     0.082 A 
ATOM     20  C   UNL A   1      36.307  33.559  28.547  1.00  0.00     0.024 A 
ATOM     21  C   UNL A   1      34.889  32.381  30.119  1.00  0.00     0.024 A 
ATOM     22  C   UNL A   1      37.325  32.628  28.756  1.00  0.00     0.030 A 
ATOM     23  C   UNL A   1      35.866  31.392  30.256  1.00  0.00     0.030 A 
BRANCH  19  24
ATOM     24  S   UNL A   1      33.902  34.750  29.131  1.00  0.00     0.238 S 
ATOM     25  O   UNL A   1      33.814  35.444  30.404  1.00  0.00    -0.207 OA
ATOM     26  O   UNL A   1      32.755  34.223  28.450  1.00  0.00    -0.207 OA
BRANCH  24  27
ATOM     27  N   UNL A   1      34.611  35.861  28.086  1.00  0.00    -0.225 NA
ATOM     28  H   UNL A   1      35.332  36.383  28.584  1.00  0.00     0.137 HD
ATOM     29  H   UNL A   1      33.899  36.507  27.744  1.00  0.00     0.137 HD
ENDBRANCH  24  27
ENDBRANCH  19  24
ENDBRANCH  14  18
BRANCH  16  30
ATOM     30  C   UNL A   1      39.510  27.396  28.944  1.00  0.00     0.435 C 
ATOM     31  F   UNL A   1      38.900  26.402  29.642  1.00  0.00    -0.164 F 
ATOM     32  F   UNL A   1      39.153  27.247  27.641  1.00  0.00    -0.164 F 
ATOM     33  F   UNL A   1      40.848  27.136  29.001  1.00  0.00    -0.164 F 
ENDBRANCH  16  30
ENDBRANCH   8  13
ENDBRANCH   6   7
ENDBRANCH   3   6
ENDBRANCH   1   2
BRANCH   1  34
ATOM     34  C   UNL A   1      42.729  32.936  36.721  1.00  0.00     0.023 C 
BRANCH  34  35
ATOM     35  C   UNL A   1      42.765  31.856  35.633  1.00  0.00     0.023 C 
BRANCH  35  36
ATOM     36  C   UNL A   1      41.479  31.074  35.463  1.00  0.00     0.116 C 
BRANCH  36  37
ATOM     37  N   UNL A   1      41.367  29.946  36.390  1.00  0.00    -0.352 N 
ATOM     38  C   UNL A   1      41.432  28.599  36.077  1.00  0.00     0.251 C 
ATOM     39  H   UNL A   1      41.231  30.170  37.340  1.00  0.00     0.163 HD
ATOM     40  O   UNL A   1      40.973  27.750  36.829  1.00  0.00    -0.269 OA
BRANCH  38  41
ATOM     41  C   UNL A   1      42.078  28.223  34.809  1.00  0.00     0.039 A 
ATOM     42  C   UNL A   1      41.360  28.103  33.617  1.00  0.00     0.014 A 
ATOM     43  C   UNL A   1      43.463  28.082  34.830  1.00  0.00     0.014 A 
ATOM     44  C   UNL A   1      42.068  27.935  32.428  1.00  0.00     0.010 A 
ATOM     45  C   UNL A   1      44.158  28.096  33.652  1.00  0.00     0.010 A 
ATOM     46  C   UNL A   1      43.472  27.962  32.451  1.00  0.00    -0.014 A 
BRANCH  46  47
ATOM     47  C   UNL A   1      44.253  27.971  31.217  1.00  0.00     0.031 A 
ATOM     48  C   UNL A   1      44.083  29.192  30.381  1.00  0.00     0.074 A 
ATOM     49  C   UNL A   1      45.236  27.075  30.976  1.00  0.00     0.049 A 
ATOM     50  N   UNL A   1      43.529  29.278  29.217  1.00  0.00    -0.248 NA
ATOM     51  C   UNL A   1      44.444  30.497  30.963  1.00  0.00     0.031 C 
ATOM     52  C   UNL A   1      45.738  26.012  31.859  1.00  0.00     0.029 A 
ATOM     53  N   UNL A   1      46.099  27.011  29.928  1.00  0.00    -0.354 N 
ATOM     54  C   UNL A   1      43.680  30.602  28.817  1.00  0.00     0.074 A 
ATOM     55  C   UNL A   1      44.065  31.335  29.996  1.00  0.00     0.031 C 
ATOM     56  C   UNL A   1      46.951  25.599  31.431  1.00  0.00     0.029 A 
ATOM     57  C   UNL A   1      47.225  26.223  30.151  1.00  0.00     0.049 A 
ATOM     58  H   UNL A   1      45.941  27.484  29.079  1.00  0.00     0.167 HD
ATOM     59  C   UNL A   1      43.728  30.949  27.498  1.00  0.00     0.031 A 
ATOM     60  C   UNL A   1      48.315  26.108  29.351  1.00  0.00     0.031 A 
ATOM     61  C   UNL A   1      43.294  29.866  26.652  1.00  0.00     0.049 A 
ATOM     62  C   UNL A   1      47.902  26.559  28.001  1.00  0.00     0.074 A 
ATOM     63  C   UNL A   1      42.130  29.133  26.530  1.00  0.00     0.029 A 
ATOM     64  N   UNL A   1      44.278  29.118  26.048  1.00  0.00    -0.354 N 
ATOM     65  N   UNL A   1      47.013  25.932  27.280  1.00  0.00    -0.248 NA
ATOM     66  C   UNL A   1      48.117  27.952  27.651  1.00  0.00     0.031 C 
ATOM     67  C   UNL A   1      42.566  27.792  26.313  1.00  0.00     0.029 A 
ATOM     68  C   UNL A   1      43.960  27.795  26.226  1.00  0.00     0.049 A 
ATOM     69  H   UNL A   1      45.067  29.467  25.574  1.00  0.00     0.167 HD
ATOM     70  C   UNL A   1      46.251  26.939  26.705  1.00  0.00     0.074 A 
ATOM     71  C   UNL A   1      47.038  28.158  26.890  1.00  0.00     0.031 C 
ATOM     72  C   UNL A   1      44.937  26.738  26.387  1.00  0.00     0.031 A 
BRANCH  59  73
ATOM     73  C   UNL A   1      44.542  32.099  26.958  1.00  0.00    -0.014 A 
ATOM     74  C   UNL A   1      45.943  31.963  26.873  1.00  0.00     0.010 A 
ATOM     75  C   UNL A   1      44.017  33.397  26.790  1.00  0.00     0.010 A 
ATOM     76  C   UNL A   1      46.775  33.078  26.696  1.00  0.00     0.020 A 
ATOM     77  C   UNL A   1      44.834  34.508  26.569  1.00  0.00     0.020 A 
ATOM     78  C   UNL A   1      46.212  34.346  26.556  1.00  0.00     0.054 A 
BRANCH  78  79
ATOM     79  S   UNL A   1      47.294  35.789  26.422  1.00  0.00     0.124 S 
ATOM     80  O   UNL A   1      47.931  35.811  27.734  1.00  0.00    -0.237 OA
ATOM     81  O   UNL A   1      48.157  35.423  25.302  1.00  0.00    -0.237 OA
ATOM     82  O   UNL A   1      46.367  36.887  26.155  1.00  0.00    -0.744 OA
ENDBRANCH  78  79
ENDBRANCH  59  73
BRANCH  60  83
ATOM     83  C   UNL A   1      49.738  25.942  29.745  1.00  0.00    -0.014 A 
ATOM     84  C   UNL A   1      50.713  26.883  29.362  1.00  0.00     0.010 A 
ATOM     85  C   UNL A   1      50.085  25.015  30.749  1.00  0.00     0.010 A 
ATOM     86  C   UNL A   1      51.962  26.937  30.006  1.00  0.00     0.020 A 
ATOM     87  C   UNL A   1      51.330  25.060  31.392  1.00  0.00     0.020 A 
ATOM     88  C   UNL A   1      52.254  26.038  31.035  1.00  0.00     0.054 A 
BRANCH  88  89
ATOM     89  S   UNL A   1      53.790  26.236  31.991  1.00  0.00     0.124 S 
ATOM     90  O   UNL A   1      54.740  26.661  30.967  1.00  0.00    -0.237 OA
ATOM     91  O   UNL A   1      53.425  27.250  32.976  1.00  0.00    -0.237 OA
ATOM     92  O   UNL A   1      54.026  24.900  32.538  1.00  0.00    -0.744 OA
ENDBRANCH  88  89
ENDBRANCH  60  83
BRANCH  72  93
ATOM     93  C   UNL A   1      44.396  25.324  26.411  1.00  0.00    -0.014 A 
ATOM     94  C   UNL A   1      43.997  24.646  27.582  1.00  0.00     0.010 A 
ATOM     95  C   UNL A   1      44.139  24.715  25.169  1.00  0.00     0.010 A 
ATOM     96  C   UNL A   1      43.385  23.384  27.508  1.00  0.00     0.020 A 
ATOM     97  C   UNL A   1      43.515  23.470  25.088  1.00  0.00     0.020 A 
ATOM     98  C   UNL A   1      43.150  22.802  26.258  1.00  0.00     0.054 A 
BRANCH  98  99
ATOM     99  S   UNL A   1      42.329  21.186  26.158  1.00  0.00     0.124 S 
ATOM    100  O   UNL A   1      42.353  20.732  27.545  1.00  0.00    -0.237 OA
ATOM    101  O   UNL A   1      41.009  21.524  25.628  1.00  0.00    -0.237 OA
ATOM    102  O   UNL A   1      43.176  20.421  25.242  1.00  0.00    -0.744 OA
ENDBRANCH  98  99
ENDBRANCH  72  93
ENDBRANCH  46  47
ENDBRANCH  38  41
ENDBRANCH  36  37
ENDBRANCH  35  36
ENDBRANCH  34  35
ENDBRANCH   1  34
TORSDOF 20
ENDMDL
MODEL 3
REMARK VINA RESULT:     -11.0      4.607     10.893
REMARK SMILES NS(=O)(=O)c1ccc(-n2nc(C(F)(F)F)cc2-c2ccc(CC(=O)NCCCCNC(=O)c3ccc(-c4c5nc(c(-c6ccc(S(=O)(=O)[O-])cc6)c6ccc([nH]6)c(-c6ccc(S(=O)(=O)[O-])cc6)c6nc(c(-c7ccc(S(=O)(=O)[O-])cc7)c7ccc4[nH]7)C=C6)C=C5)cc3)cc2)cc1
REMARK SMILES IDX 26 1 25 2 23 3 24 4 22 6 21 7 18 8 19 9 94 10 20 11 93 12
REMARK SMILES IDX 17 13 9 14 10 15 11 16 16 17 8 18 5 19 6 20 96 21 7 22 95 23
REMARK SMILES IDX 2 24 3 25 4 26 1 27 12 30 13 31 14 32 15 33 27 34 28 35
REMARK SMILES IDX 29 36 30 37 31 38 32 40 33 41 34 42 92 43 35 44 91 45 36 46
REMARK SMILES IDX 37 47 38 48 85 49 39 50 90 51 84 52 86 53 40 54 89 55 83 56
REMARK SMILES IDX 82 57 41 59 71 60 52 61 70 62 53 63 56 64 69 65 87 66 54 67
REMARK SMILES IDX 55 68 68 70 88 71 57 72 42 73 43 74 51 75 44 76 50 77 45 78
REMARK SMILES IDX 46 79 47 80 48 81 49 82 72 83 73 84 81 85 74 86 80 87 75 88
REMARK SMILES IDX 76 89 77 90 78 91 79 92 58 93 59 94 67 95 60 96 66 97 61 98
REMARK SMILES IDX 62 99 63 100 64 101 65 102
REMARK H PARENT 25 5 1 28 1 29 30 39 86 58 56 69
REMARK Flexibility Score: inf
ROOT
ATOM      1  C   UNL A   1      42.655  34.636  32.553  1.00  0.00     0.116 C 
ENDROOT
BRANCH   1   2
ATOM      2  N   UNL A   1      42.191  34.927  31.209  1.00  0.00    -0.356 N 
ATOM      3  C   UNL A   1      41.567  34.103  30.315  1.00  0.00     0.224 C 
ATOM      4  O   UNL A   1      41.401  34.506  29.163  1.00  0.00    -0.275 OA
ATOM      5  H   UNL A   1      42.347  35.848  30.899  1.00  0.00     0.163 HD
BRANCH   3   6
ATOM      6  C   UNL A   1      41.078  32.732  30.751  1.00  0.00     0.135 C 
BRANCH   6   7
ATOM      7  C   UNL A   1      39.725  32.365  30.189  1.00  0.00    -0.039 A 
ATOM      8  C   UNL A   1      37.282  31.665  28.981  1.00  0.00     0.000 A 
ATOM      9  C   UNL A   1      37.638  33.012  29.144  1.00  0.00     0.010 A 
ATOM     10  C   UNL A   1      38.131  30.673  29.478  1.00  0.00     0.010 A 
ATOM     11  C   UNL A   1      38.849  33.359  29.742  1.00  0.00     0.005 A 
ATOM     12  C   UNL A   1      39.338  31.021  30.085  1.00  0.00     0.005 A 
BRANCH   8  13
ATOM     13  C   UNL A   1      36.017  31.306  28.342  1.00  0.00     0.075 A 
ATOM     14  N   UNL A   1      34.770  31.819  28.675  1.00  0.00    -0.233 N 
ATOM     15  N   UNL A   1      33.759  31.077  28.152  1.00  0.00    -0.163 NA
ATOM     16  C   UNL A   1      34.363  30.247  27.278  1.00  0.00     0.167 A 
ATOM     17  C   UNL A   1      35.772  30.341  27.387  1.00  0.00     0.064 A 
BRANCH  14  18
ATOM     18  C   UNL A   1      34.476  32.991  29.414  1.00  0.00     0.065 A 
ATOM     19  C   UNL A   1      33.819  35.267  30.876  1.00  0.00     0.082 A 
ATOM     20  C   UNL A   1      34.450  34.193  31.506  1.00  0.00     0.024 A 
ATOM     21  C   UNL A   1      33.573  35.232  29.501  1.00  0.00     0.024 A 
ATOM     22  C   UNL A   1      34.734  33.030  30.788  1.00  0.00     0.030 A 
ATOM     23  C   UNL A   1      33.946  34.110  28.758  1.00  0.00     0.030 A 
BRANCH  19  24
ATOM     24  S   UNL A   1      33.302  36.667  31.831  1.00  0.00     0.238 S 
ATOM     25  O   UNL A   1      34.356  37.000  32.774  1.00  0.00    -0.207 OA
ATOM     26  O   UNL A   1      31.937  36.472  32.225  1.00  0.00    -0.207 OA
BRANCH  24  27
ATOM     27  N   UNL A   1      33.305  37.931  30.722  1.00  0.00    -0.225 NA
ATOM     28  H   UNL A   1      34.253  38.075  30.374  1.00  0.00     0.137 HD
ATOM     29  H   UNL A   1      32.978  38.783  31.178  1.00  0.00     0.137 HD
ENDBRANCH  24  27
ENDBRANCH  19  24
ENDBRANCH  14  18
BRANCH  16  30
ATOM     30  C   UNL A   1      33.605  29.338  26.351  1.00  0.00     0.435 C 
ATOM     31  F   UNL A   1      32.586  29.963  25.705  1.00  0.00    -0.164 F 
ATOM     32  F   UNL A   1      34.408  28.792  25.398  1.00  0.00    -0.164 F 
ATOM     33  F   UNL A   1      33.048  28.289  27.021  1.00  0.00    -0.164 F 
ENDBRANCH  16  30
ENDBRANCH   8  13
ENDBRANCH   6   7
ENDBRANCH   3   6
ENDBRANCH   1   2
BRANCH   1  34
ATOM     34  C   UNL A   1      41.742  35.265  33.612  1.00  0.00     0.023 C 
BRANCH  34  35
ATOM     35  C   UNL A   1      40.939  34.256  34.441  1.00  0.00     0.023 C 
BRANCH  35  36
ATOM     36  C   UNL A   1      39.676  33.743  33.779  1.00  0.00     0.116 C 
BRANCH  36  37
ATOM     37  N   UNL A   1      38.619  33.416  34.738  1.00  0.00    -0.352 N 
ATOM     38  C   UNL A   1      38.147  32.156  35.062  1.00  0.00     0.251 C 
ATOM     39  H   UNL A   1      38.198  34.176  35.203  1.00  0.00     0.163 HD
ATOM     40  O   UNL A   1      37.047  32.003  35.577  1.00  0.00    -0.269 OA
BRANCH  38  41
ATOM     41  C   UNL A   1      39.017  31.004  34.770  1.00  0.00     0.039 A 
ATOM     42  C   UNL A   1      38.818  30.188  33.654  1.00  0.00     0.014 A 
ATOM     43  C   UNL A   1      40.112  30.819  35.609  1.00  0.00     0.014 A 
ATOM     44  C   UNL A   1      39.792  29.242  33.340  1.00  0.00     0.010 A 
ATOM     45  C   UNL A   1      41.144  30.019  35.200  1.00  0.00     0.010 A 
ATOM     46  C   UNL A   1      40.969  29.183  34.103  1.00  0.00    -0.014 A 
BRANCH  46  47
ATOM     47  C   UNL A   1      42.091  28.338  33.708  1.00  0.00     0.031 A 
ATOM     48  C   UNL A   1      42.565  27.398  34.762  1.00  0.00     0.074 A 
ATOM     49  C   UNL A   1      42.501  28.230  32.424  1.00  0.00     0.049 A 
ATOM     50  N   UNL A   1      43.696  27.420  35.386  1.00  0.00    -0.248 NA
ATOM     51  C   UNL A   1      41.619  26.398  35.287  1.00  0.00     0.031 C 
ATOM     52  C   UNL A   1      41.915  28.848  31.226  1.00  0.00     0.029 A 
ATOM     53  N   UNL A   1      43.460  27.427  31.894  1.00  0.00    -0.354 N 
ATOM     54  C   UNL A   1      43.700  26.301  36.214  1.00  0.00     0.074 A 
ATOM     55  C   UNL A   1      42.339  25.831  36.258  1.00  0.00     0.031 C 
ATOM     56  C   UNL A   1      42.352  28.205  30.121  1.00  0.00     0.029 A 
ATOM     57  C   UNL A   1      43.385  27.266  30.514  1.00  0.00     0.049 A 
ATOM     58  H   UNL A   1      44.153  26.993  32.443  1.00  0.00     0.167 HD
ATOM     59  C   UNL A   1      44.863  25.698  36.593  1.00  0.00     0.031 A 
ATOM     60  C   UNL A   1      44.105  26.406  29.749  1.00  0.00     0.031 A 
ATOM     61  C   UNL A   1      46.007  26.528  36.306  1.00  0.00     0.049 A 
ATOM     62  C   UNL A   1      45.303  26.035  30.540  1.00  0.00     0.074 A 
ATOM     63  C   UNL A   1      46.410  27.792  36.687  1.00  0.00     0.029 A 
ATOM     64  N   UNL A   1      46.722  26.227  35.170  1.00  0.00    -0.354 N 
ATOM     65  N   UNL A   1      46.231  26.889  30.873  1.00  0.00    -0.248 NA
ATOM     66  C   UNL A   1      45.235  24.837  31.359  1.00  0.00     0.031 C 
ATOM     67  C   UNL A   1      46.960  28.369  35.504  1.00  0.00     0.029 A 
ATOM     68  C   UNL A   1      46.942  27.402  34.497  1.00  0.00     0.049 A 
ATOM     69  H   UNL A   1      47.022  25.332  34.891  1.00  0.00     0.167 HD
ATOM     70  C   UNL A   1      46.557  26.563  32.182  1.00  0.00     0.074 A 
ATOM     71  C   UNL A   1      45.984  25.234  32.392  1.00  0.00     0.031 C 
ATOM     72  C   UNL A   1      47.012  27.512  33.054  1.00  0.00     0.031 A 
BRANCH  59  73
ATOM     73  C   UNL A   1      45.003  24.215  36.838  1.00  0.00    -0.014 A 
ATOM     74  C   UNL A   1      45.589  23.774  38.042  1.00  0.00     0.010 A 
ATOM     75  C   UNL A   1      44.834  23.251  35.822  1.00  0.00     0.010 A 
ATOM     76  C   UNL A   1      46.042  22.456  38.194  1.00  0.00     0.020 A 
ATOM     77  C   UNL A   1      45.240  21.925  35.979  1.00  0.00     0.020 A 
ATOM     78  C   UNL A   1      45.872  21.542  37.154  1.00  0.00     0.054 A 
BRANCH  78  79
ATOM     79  S   UNL A   1      46.541  19.870  37.321  1.00  0.00     0.124 S 
ATOM     80  O   UNL A   1      45.772  19.350  38.448  1.00  0.00    -0.237 OA
ATOM     81  O   UNL A   1      46.234  19.285  36.019  1.00  0.00    -0.237 OA
ATOM     82  O   UNL A   1      47.961  20.095  37.580  1.00  0.00    -0.744 OA
ENDBRANCH  78  79
ENDBRANCH  59  73
BRANCH  60  83
ATOM     83  C   UNL A   1      43.671  25.656  28.542  1.00  0.00    -0.014 A 
ATOM     84  C   UNL A   1      44.495  25.571  27.404  1.00  0.00     0.010 A 
ATOM     85  C   UNL A   1      42.572  24.776  28.620  1.00  0.00     0.010 A 
ATOM     86  C   UNL A   1      44.268  24.596  26.415  1.00  0.00     0.020 A 
ATOM     87  C   UNL A   1      42.337  23.806  27.636  1.00  0.00     0.020 A 
ATOM     88  C   UNL A   1      43.202  23.704  26.550  1.00  0.00     0.054 A 
BRANCH  88  89
ATOM     89  S   UNL A   1      43.028  22.328  25.371  1.00  0.00     0.124 S 
ATOM     90  O   UNL A   1      44.017  21.372  25.862  1.00  0.00    -0.237 OA
ATOM     91  O   UNL A   1      41.631  21.938  25.541  1.00  0.00    -0.237 OA
ATOM     92  O   UNL A   1      43.345  22.941  24.081  1.00  0.00    -0.744 OA
ENDBRANCH  88  89
ENDBRANCH  60  83
BRANCH  72  93
ATOM     93  C   UNL A   1      47.421  28.862  32.505  1.00  0.00    -0.014 A 
ATOM     94  C   UNL A   1      48.747  29.220  32.184  1.00  0.00     0.010 A 
ATOM     95  C   UNL A   1      46.389  29.751  32.157  1.00  0.00     0.010 A 
ATOM     96  C   UNL A   1      49.029  30.446  31.557  1.00  0.00     0.020 A 
ATOM     97  C   UNL A   1      46.661  30.963  31.519  1.00  0.00     0.020 A 
ATOM     98  C   UNL A   1      47.980  31.311  31.231  1.00  0.00     0.054 A 
BRANCH  98  99
ATOM     99  S   UNL A   1      48.339  32.881  30.392  1.00  0.00     0.124 S 
ATOM    100  O   UNL A   1      47.233  32.995  29.445  1.00  0.00    -0.237 OA
ATOM    101  O   UNL A   1      48.330  33.846  31.490  1.00  0.00    -0.237 OA
ATOM    102  O   UNL A   1      49.652  32.660  29.785  1.00  0.00    -0.744 OA
ENDBRANCH  98  99
ENDBRANCH  72  93
ENDBRANCH  46  47
ENDBRANCH  38  41
ENDBRANCH  36  37
ENDBRANCH  35  36
ENDBRANCH  34  35
ENDBRANCH   1  34
TORSDOF 20
ENDMDL
