MODEL 1
REMARK VINA RESULT:     -12.7      0.000      0.000
REMARK SMILES CC1(C)[C@H](O)CC[C@]2(C)[C@@H]1CC[C@@]1(C)Oc3oc(C(=O)NCCCCNC(=O)c4ccc(-c5c6nc(c(-c7ccc(S(=O)(=O)[O-])cc7)c7ccc([nH]7)c(-c7ccc(S(=O)(=O)[O-])cc7)c7nc(c(-c8ccc(S(=O)(=O)[O-])cc8)c8ccc5[nH]8)C=C7)C=C6)cc4)cc(=O)c3C[C@H]21
REMARK SMILES IDX 24 1 23 2 22 3 21 4 19 5 20 6 18 8 1 9 2 10 3 11 4 12 10 13
REMARK SMILES IDX 6 14 8 15 11 16 7 17 9 18 94 19 12 20 13 21 93 22 14 23
REMARK SMILES IDX 15 24 92 25 16 26 90 27 17 28 89 29 91 30 5 31 25 33 26 34
REMARK SMILES IDX 27 35 28 37 29 38 30 39 88 40 31 41 87 42 32 43 33 44 34 45
REMARK SMILES IDX 81 46 35 47 86 48 80 49 82 50 36 51 85 52 79 53 78 54 37 56
REMARK SMILES IDX 67 57 48 58 66 59 49 60 52 61 65 62 83 63 50 64 51 65 64 67
REMARK SMILES IDX 84 68 53 69 38 70 39 71 47 72 40 73 46 74 41 75 42 76 43 77
REMARK SMILES IDX 44 78 45 79 68 80 69 81 77 82 70 83 76 84 71 85 72 86 73 87
REMARK SMILES IDX 74 88 75 89 54 90 55 91 63 92 56 93 62 94 57 95 58 96 59 97
REMARK SMILES IDX 60 98 61 99
REMARK H PARENT 21 7 5 32 26 36 82 55 52 66
REMARK Flexibility Score: inf
ROOT
ATOM      1  C   UNL A   1      36.963  33.647  32.621  1.00  0.00     0.023 C 
ENDROOT
BRANCH   1   2
ATOM      2  C   UNL A   1      35.445  33.725  32.534  1.00  0.00     0.023 C 
BRANCH   2   3
ATOM      3  C   UNL A   1      34.897  34.191  31.175  1.00  0.00     0.116 C 
BRANCH   3   4
ATOM      4  N   UNL A   1      35.882  34.061  30.106  1.00  0.00    -0.349 N 
ATOM      5  C   UNL A   1      35.867  33.483  28.864  1.00  0.00     0.287 C 
ATOM      6  O   UNL A   1      36.862  33.654  28.156  1.00  0.00    -0.266 OA
ATOM      7  H   UNL A   1      36.746  34.481  30.325  1.00  0.00     0.163 HD
BRANCH   5   8
ATOM      8  C   UNL A   1      34.699  32.705  28.315  1.00  0.00     0.199 A 
ATOM      9  C   UNL A   1      28.975  26.385  24.109  1.00  0.00     0.014 C 
ATOM     10  C   UNL A   1      30.432  26.498  23.573  1.00  0.00    -0.006 C 
ATOM     11  C   UNL A   1      30.883  25.065  23.225  1.00  0.00     0.014 C 
ATOM     12  C   UNL A   1      30.327  27.325  22.240  1.00  0.00     0.120 C 
ATOM     13  C   UNL A   1      31.318  27.175  24.735  1.00  0.00     0.004 C 
ATOM     14  C   UNL A   1      30.228  28.833  22.408  1.00  0.00     0.033 C 
ATOM     15  C   UNL A   1      31.980  28.503  24.317  1.00  0.00    -0.022 C 
ATOM     16  C   UNL A   1      32.322  26.267  25.506  1.00  0.00     0.009 C 
ATOM     17  C   UNL A   1      30.899  29.384  23.651  1.00  0.00     0.010 C 
ATOM     18  C   UNL A   1      33.168  28.232  23.346  1.00  0.00     0.012 C 
ATOM     19  C   UNL A   1      32.587  29.249  25.555  1.00  0.00     0.044 C 
ATOM     20  C   UNL A   1      33.379  27.012  26.376  1.00  0.00     0.049 C 
ATOM     21  C   UNL A   1      32.952  28.425  26.820  1.00  0.00     0.113 C 
ATOM     22  C   UNL A   1      31.886  30.511  26.037  1.00  0.00     0.055 C 
ATOM     23  C   UNL A   1      31.872  28.243  27.921  1.00  0.00     0.057 C 
ATOM     24  O   UNL A   1      34.064  29.155  27.453  1.00  0.00    -0.458 OA
ATOM     25  C   UNL A   1      32.782  31.149  27.038  1.00  0.00     0.081 A 
ATOM     26  C   UNL A   1      33.853  30.549  27.592  1.00  0.00     0.292 A 
ATOM     27  C   UNL A   1      32.515  32.560  27.291  1.00  0.00     0.192 A 
ATOM     28  O   UNL A   1      34.828  31.302  28.261  1.00  0.00    -0.420 OA
ATOM     29  C   UNL A   1      33.568  33.308  27.947  1.00  0.00     0.105 A 
ATOM     30  O   UNL A   1      31.489  33.119  26.926  1.00  0.00    -0.289 OA
BRANCH  12  31
ATOM     31  O   UNL A   1      31.411  27.080  21.340  1.00  0.00    -0.393 OA
ATOM     32  H   UNL A   1      31.221  27.496  20.484  1.00  0.00     0.210 HD
ENDBRANCH  12  31
ENDBRANCH   5   8
ENDBRANCH   3   4
ENDBRANCH   2   3
ENDBRANCH   1   2
BRANCH   1  33
ATOM     33  C   UNL A   1      37.522  32.233  32.602  1.00  0.00     0.116 C 
BRANCH  33  34
ATOM     34  N   UNL A   1      36.570  31.237  32.126  1.00  0.00    -0.352 N 
ATOM     35  C   UNL A   1      36.813  30.200  31.252  1.00  0.00     0.251 C 
ATOM     36  H   UNL A   1      35.649  31.316  32.467  1.00  0.00     0.163 HD
ATOM     37  O   UNL A   1      35.918  29.464  30.874  1.00  0.00    -0.269 OA
BRANCH  35  38
ATOM     38  C   UNL A   1      38.193  30.034  30.755  1.00  0.00     0.039 A 
ATOM     39  C   UNL A   1      39.143  29.448  31.591  1.00  0.00     0.014 A 
ATOM     40  C   UNL A   1      38.497  30.350  29.426  1.00  0.00     0.014 A 
ATOM     41  C   UNL A   1      40.396  29.120  31.073  1.00  0.00     0.010 A 
ATOM     42  C   UNL A   1      39.724  29.970  28.898  1.00  0.00     0.010 A 
ATOM     43  C   UNL A   1      40.683  29.355  29.718  1.00  0.00    -0.014 A 
BRANCH  43  44
ATOM     44  C   UNL A   1      42.011  29.013  29.156  1.00  0.00     0.031 A 
ATOM     45  C   UNL A   1      42.248  27.623  28.638  1.00  0.00     0.074 A 
ATOM     46  C   UNL A   1      42.995  29.934  29.128  1.00  0.00     0.049 A 
ATOM     47  N   UNL A   1      43.336  27.117  28.120  1.00  0.00    -0.248 NA
ATOM     48  C   UNL A   1      41.124  26.675  28.724  1.00  0.00     0.031 C 
ATOM     49  C   UNL A   1      42.886  31.311  29.616  1.00  0.00     0.029 A 
ATOM     50  N   UNL A   1      44.282  29.850  28.658  1.00  0.00    -0.354 N 
ATOM     51  C   UNL A   1      43.027  25.796  27.822  1.00  0.00     0.074 A 
ATOM     52  C   UNL A   1      41.670  25.561  28.257  1.00  0.00     0.031 C 
ATOM     53  C   UNL A   1      44.046  31.952  29.387  1.00  0.00     0.029 A 
ATOM     54  C   UNL A   1      44.988  31.027  28.762  1.00  0.00     0.049 A 
ATOM     55  H   UNL A   1      44.664  29.025  28.282  1.00  0.00     0.167 HD
ATOM     56  C   UNL A   1      43.798  24.871  27.211  1.00  0.00     0.031 A 
ATOM     57  C   UNL A   1      46.248  31.325  28.390  1.00  0.00     0.031 A 
ATOM     58  C   UNL A   1      45.133  25.114  26.744  1.00  0.00     0.049 A 
ATOM     59  C   UNL A   1      47.096  30.261  27.743  1.00  0.00     0.074 A 
ATOM     60  C   UNL A   1      45.971  24.248  26.064  1.00  0.00     0.029 A 
ATOM     61  N   UNL A   1      45.819  26.306  26.900  1.00  0.00    -0.354 N 
ATOM     62  N   UNL A   1      46.769  29.030  27.431  1.00  0.00    -0.248 NA
ATOM     63  C   UNL A   1      48.478  30.625  27.399  1.00  0.00     0.031 C 
ATOM     64  C   UNL A   1      47.181  24.907  25.839  1.00  0.00     0.029 A 
ATOM     65  C   UNL A   1      47.081  26.192  26.347  1.00  0.00     0.049 A 
ATOM     66  H   UNL A   1      45.463  27.111  27.338  1.00  0.00     0.167 HD
ATOM     67  C   UNL A   1      47.898  28.481  26.834  1.00  0.00     0.074 A 
ATOM     68  C   UNL A   1      48.915  29.511  26.823  1.00  0.00     0.031 C 
ATOM     69  C   UNL A   1      48.074  27.233  26.336  1.00  0.00     0.031 A 
BRANCH  56  70
ATOM     70  C   UNL A   1      43.213  23.508  26.980  1.00  0.00    -0.014 A 
ATOM     71  C   UNL A   1      42.861  23.096  25.683  1.00  0.00     0.010 A 
ATOM     72  C   UNL A   1      43.116  22.598  28.046  1.00  0.00     0.010 A 
ATOM     73  C   UNL A   1      42.425  21.791  25.454  1.00  0.00     0.020 A 
ATOM     74  C   UNL A   1      42.696  21.285  27.818  1.00  0.00     0.020 A 
ATOM     75  C   UNL A   1      42.357  20.890  26.522  1.00  0.00     0.054 A 
BRANCH  75  76
ATOM     76  S   UNL A   1      41.857  19.182  26.175  1.00  0.00     0.124 S 
ATOM     77  O   UNL A   1      40.422  19.327  25.937  1.00  0.00    -0.237 OA
ATOM     78  O   UNL A   1      42.659  18.854  25.000  1.00  0.00    -0.237 OA
ATOM     79  O   UNL A   1      42.211  18.460  27.395  1.00  0.00    -0.744 OA
ENDBRANCH  75  76
ENDBRANCH  56  70
BRANCH  57  80
ATOM     80  C   UNL A   1      46.786  32.697  28.590  1.00  0.00    -0.014 A 
ATOM     81  C   UNL A   1      46.635  33.669  27.584  1.00  0.00     0.010 A 
ATOM     82  C   UNL A   1      47.456  33.039  29.778  1.00  0.00     0.010 A 
ATOM     83  C   UNL A   1      47.158  34.953  27.757  1.00  0.00     0.020 A 
ATOM     84  C   UNL A   1      47.964  34.329  29.962  1.00  0.00     0.020 A 
ATOM     85  C   UNL A   1      47.816  35.277  28.946  1.00  0.00     0.054 A 
BRANCH  85  86
ATOM     86  S   UNL A   1      48.468  36.959  29.149  1.00  0.00     0.124 S 
ATOM     87  O   UNL A   1      47.976  37.321  30.475  1.00  0.00    -0.237 OA
ATOM     88  O   UNL A   1      49.908  36.744  29.046  1.00  0.00    -0.237 OA
ATOM     89  O   UNL A   1      47.870  37.696  28.039  1.00  0.00    -0.744 OA
ENDBRANCH  85  86
ENDBRANCH  57  80
BRANCH  69  90
ATOM     90  C   UNL A   1      49.401  26.895  25.721  1.00  0.00    -0.014 A 
ATOM     91  C   UNL A   1      49.659  27.192  24.373  1.00  0.00     0.010 A 
ATOM     92  C   UNL A   1      50.442  26.416  26.537  1.00  0.00     0.010 A 
ATOM     93  C   UNL A   1      50.944  27.026  23.851  1.00  0.00     0.020 A 
ATOM     94  C   UNL A   1      51.732  26.266  26.023  1.00  0.00     0.020 A 
ATOM     95  C   UNL A   1      51.975  26.579  24.685  1.00  0.00     0.054 A 
BRANCH  95  96
ATOM     96  S   UNL A   1      53.650  26.462  23.998  1.00  0.00     0.124 S 
ATOM     97  O   UNL A   1      54.242  27.730  24.415  1.00  0.00    -0.237 OA
ATOM     98  O   UNL A   1      54.179  25.273  24.662  1.00  0.00    -0.237 OA
ATOM     99  O   UNL A   1      53.430  26.323  22.561  1.00  0.00    -0.744 OA
ENDBRANCH  95  96
ENDBRANCH  69  90
ENDBRANCH  43  44
ENDBRANCH  35  38
ENDBRANCH  33  34
ENDBRANCH   1  33
TORSDOF 15
ENDMDL
MODEL 2
REMARK VINA RESULT:     -12.6      5.853     12.410
REMARK SMILES CC1(C)[C@H](O)CC[C@]2(C)[C@@H]1CC[C@@]1(C)Oc3oc(C(=O)NCCCCNC(=O)c4ccc(-c5c6nc(c(-c7ccc(S(=O)(=O)[O-])cc7)c7ccc([nH]7)c(-c7ccc(S(=O)(=O)[O-])cc7)c7nc(c(-c8ccc(S(=O)(=O)[O-])cc8)c8ccc5[nH]8)C=C7)C=C6)cc4)cc(=O)c3C[C@H]21
REMARK SMILES IDX 24 1 23 2 22 3 21 4 19 5 20 6 18 8 1 9 2 10 3 11 4 12 10 13
REMARK SMILES IDX 6 14 8 15 11 16 7 17 9 18 94 19 12 20 13 21 93 22 14 23
REMARK SMILES IDX 15 24 92 25 16 26 90 27 17 28 89 29 91 30 5 31 25 33 26 34
REMARK SMILES IDX 27 35 28 37 29 38 30 39 88 40 31 41 87 42 32 43 33 44 34 45
REMARK SMILES IDX 81 46 35 47 86 48 80 49 82 50 36 51 85 52 79 53 78 54 37 56
REMARK SMILES IDX 67 57 48 58 66 59 49 60 52 61 65 62 83 63 50 64 51 65 64 67
REMARK SMILES IDX 84 68 53 69 38 70 39 71 47 72 40 73 46 74 41 75 42 76 43 77
REMARK SMILES IDX 44 78 45 79 68 80 69 81 77 82 70 83 76 84 71 85 72 86 73 87
REMARK SMILES IDX 74 88 75 89 54 90 55 91 63 92 56 93 62 94 57 95 58 96 59 97
REMARK SMILES IDX 60 98 61 99
REMARK H PARENT 21 7 5 32 26 36 82 55 52 66
REMARK Flexibility Score: inf
ROOT
ATOM      1  C   UNL A   1      45.042  23.897  26.372  1.00  0.00     0.023 C 
ENDROOT
BRANCH   1   2
ATOM      2  C   UNL A   1      44.730  22.824  25.337  1.00  0.00     0.023 C 
BRANCH   2   3
ATOM      3  C   UNL A   1      43.746  21.740  25.804  1.00  0.00     0.116 C 
BRANCH   3   4
ATOM      4  N   UNL A   1      43.142  22.058  27.094  1.00  0.00    -0.349 N 
ATOM      5  C   UNL A   1      41.857  22.050  27.571  1.00  0.00     0.287 C 
ATOM      6  O   UNL A   1      41.706  22.276  28.773  1.00  0.00    -0.266 OA
ATOM      7  H   UNL A   1      43.801  22.339  27.770  1.00  0.00     0.163 HD
BRANCH   5   8
ATOM      8  C   UNL A   1      40.651  21.738  26.724  1.00  0.00     0.199 A 
ATOM      9  C   UNL A   1      32.118  21.523  22.535  1.00  0.00     0.014 C 
ATOM     10  C   UNL A   1      32.196  22.124  23.969  1.00  0.00    -0.006 C 
ATOM     11  C   UNL A   1      31.222  23.319  23.996  1.00  0.00     0.014 C 
ATOM     12  C   UNL A   1      31.640  21.006  24.925  1.00  0.00     0.120 C 
ATOM     13  C   UNL A   1      33.727  22.550  24.226  1.00  0.00     0.004 C 
ATOM     14  C   UNL A   1      32.622  19.905  25.288  1.00  0.00     0.033 C 
ATOM     15  C   UNL A   1      34.378  21.834  25.425  1.00  0.00    -0.022 C 
ATOM     16  C   UNL A   1      34.068  24.071  24.232  1.00  0.00     0.009 C 
ATOM     17  C   UNL A   1      34.080  20.322  25.294  1.00  0.00     0.010 C 
ATOM     18  C   UNL A   1      33.824  22.407  26.764  1.00  0.00     0.012 C 
ATOM     19  C   UNL A   1      35.928  22.069  25.455  1.00  0.00     0.044 C 
ATOM     20  C   UNL A   1      35.467  24.450  24.804  1.00  0.00     0.049 C 
ATOM     21  C   UNL A   1      36.508  23.316  24.734  1.00  0.00     0.113 C 
ATOM     22  C   UNL A   1      36.832  20.895  25.105  1.00  0.00     0.055 C 
ATOM     23  C   UNL A   1      36.927  23.182  23.244  1.00  0.00     0.057 C 
ATOM     24  O   UNL A   1      37.735  23.659  25.475  1.00  0.00    -0.458 OA
ATOM     25  C   UNL A   1      38.221  21.302  25.445  1.00  0.00     0.081 A 
ATOM     26  C   UNL A   1      38.596  22.564  25.731  1.00  0.00     0.292 A 
ATOM     27  C   UNL A   1      39.163  20.200  25.602  1.00  0.00     0.192 A 
ATOM     28  O   UNL A   1      39.825  22.820  26.356  1.00  0.00    -0.420 OA
ATOM     29  C   UNL A   1      40.400  20.502  26.292  1.00  0.00     0.105 A 
ATOM     30  O   UNL A   1      38.920  19.059  25.230  1.00  0.00    -0.289 OA
BRANCH  12  31
ATOM     31  O   UNL A   1      31.125  21.523  26.154  1.00  0.00    -0.393 OA
ATOM     32  H   UNL A   1      30.776  22.416  26.008  1.00  0.00     0.210 HD
ENDBRANCH  12  31
ENDBRANCH   5   8
ENDBRANCH   3   4
ENDBRANCH   2   3
ENDBRANCH   1   2
BRANCH   1  33
ATOM     33  C   UNL A   1      44.521  25.282  26.017  1.00  0.00     0.116 C 
BRANCH  33  34
ATOM     34  N   UNL A   1      43.258  25.260  25.291  1.00  0.00    -0.352 N 
ATOM     35  C   UNL A   1      42.059  25.816  25.682  1.00  0.00     0.251 C 
ATOM     36  H   UNL A   1      43.262  24.795  24.422  1.00  0.00     0.163 HD
ATOM     37  O   UNL A   1      41.047  25.678  25.016  1.00  0.00    -0.269 OA
BRANCH  35  38
ATOM     38  C   UNL A   1      42.032  26.551  26.962  1.00  0.00     0.039 A 
ATOM     39  C   UNL A   1      42.571  27.837  27.010  1.00  0.00     0.014 A 
ATOM     40  C   UNL A   1      41.365  26.006  28.064  1.00  0.00     0.014 A 
ATOM     41  C   UNL A   1      42.389  28.609  28.157  1.00  0.00     0.010 A 
ATOM     42  C   UNL A   1      41.135  26.798  29.182  1.00  0.00     0.010 A 
ATOM     43  C   UNL A   1      41.647  28.104  29.238  1.00  0.00    -0.014 A 
BRANCH  43  44
ATOM     44  C   UNL A   1      41.449  28.913  30.463  1.00  0.00     0.031 A 
ATOM     45  C   UNL A   1      40.306  29.887  30.516  1.00  0.00     0.074 A 
ATOM     46  C   UNL A   1      42.293  28.786  31.506  1.00  0.00     0.049 A 
ATOM     47  N   UNL A   1      39.965  30.696  31.484  1.00  0.00    -0.248 NA
ATOM     48  C   UNL A   1      39.444  29.975  29.324  1.00  0.00     0.031 C 
ATOM     49  C   UNL A   1      43.445  27.883  31.563  1.00  0.00     0.029 A 
ATOM     50  N   UNL A   1      42.304  29.415  32.726  1.00  0.00    -0.354 N 
ATOM     51  C   UNL A   1      38.854  31.387  31.018  1.00  0.00     0.074 A 
ATOM     52  C   UNL A   1      38.603  30.941  29.667  1.00  0.00     0.031 C 
ATOM     53  C   UNL A   1      44.030  27.992  32.770  1.00  0.00     0.029 A 
ATOM     54  C   UNL A   1      43.312  28.989  33.561  1.00  0.00     0.049 A 
ATOM     55  H   UNL A   1      41.652  30.107  32.980  1.00  0.00     0.167 HD
ATOM     56  C   UNL A   1      38.092  32.291  31.671  1.00  0.00     0.031 A 
ATOM     57  C   UNL A   1      43.615  29.356  34.821  1.00  0.00     0.031 A 
ATOM     58  C   UNL A   1      38.317  32.707  33.025  1.00  0.00     0.049 A 
ATOM     59  C   UNL A   1      42.768  30.393  35.510  1.00  0.00     0.074 A 
ATOM     60  C   UNL A   1      37.562  33.580  33.787  1.00  0.00     0.029 A 
ATOM     61  N   UNL A   1      39.365  32.276  33.819  1.00  0.00    -0.354 N 
ATOM     62  N   UNL A   1      41.696  31.002  35.066  1.00  0.00    -0.248 NA
ATOM     63  C   UNL A   1      43.171  30.792  36.867  1.00  0.00     0.031 C 
ATOM     64  C   UNL A   1      38.176  33.706  35.035  1.00  0.00     0.029 A 
ATOM     65  C   UNL A   1      39.290  32.883  35.060  1.00  0.00     0.049 A 
ATOM     66  H   UNL A   1      40.060  31.637  33.543  1.00  0.00     0.167 HD
ATOM     67  C   UNL A   1      41.282  31.838  36.097  1.00  0.00     0.074 A 
ATOM     68  C   UNL A   1      42.216  31.655  37.189  1.00  0.00     0.031 C 
ATOM     69  C   UNL A   1      40.222  32.680  36.136  1.00  0.00     0.031 A 
BRANCH  56  70
ATOM     70  C   UNL A   1      36.917  32.878  30.944  1.00  0.00    -0.014 A 
ATOM     71  C   UNL A   1      35.607  32.511  31.297  1.00  0.00     0.010 A 
ATOM     72  C   UNL A   1      37.120  33.880  29.980  1.00  0.00     0.010 A 
ATOM     73  C   UNL A   1      34.516  33.142  30.699  1.00  0.00     0.020 A 
ATOM     74  C   UNL A   1      36.030  34.526  29.392  1.00  0.00     0.020 A 
ATOM     75  C   UNL A   1      34.734  34.154  29.760  1.00  0.00     0.054 A 
BRANCH  75  76
ATOM     76  S   UNL A   1      33.293  35.002  29.058  1.00  0.00     0.124 S 
ATOM     77  O   UNL A   1      32.780  34.007  28.119  1.00  0.00    -0.237 OA
ATOM     78  O   UNL A   1      32.466  35.239  30.238  1.00  0.00    -0.237 OA
ATOM     79  O   UNL A   1      33.859  36.200  28.441  1.00  0.00    -0.744 OA
ENDBRANCH  75  76
ENDBRANCH  56  70
BRANCH  57  80
ATOM     80  C   UNL A   1      44.758  28.724  35.532  1.00  0.00    -0.014 A 
ATOM     81  C   UNL A   1      44.558  27.562  36.299  1.00  0.00     0.010 A 
ATOM     82  C   UNL A   1      46.048  29.280  35.456  1.00  0.00     0.010 A 
ATOM     83  C   UNL A   1      45.623  26.976  36.988  1.00  0.00     0.020 A 
ATOM     84  C   UNL A   1      47.120  28.685  36.129  1.00  0.00     0.020 A 
ATOM     85  C   UNL A   1      46.898  27.539  36.896  1.00  0.00     0.054 A 
BRANCH  85  86
ATOM     86  S   UNL A   1      48.265  26.744  37.787  1.00  0.00     0.124 S 
ATOM     87  O   UNL A   1      49.435  27.313  37.126  1.00  0.00    -0.237 OA
ATOM     88  O   UNL A   1      48.036  27.188  39.159  1.00  0.00    -0.237 OA
ATOM     89  O   UNL A   1      48.047  25.319  37.553  1.00  0.00    -0.744 OA
ENDBRANCH  85  86
ENDBRANCH  57  80
BRANCH  69  90
ATOM     90  C   UNL A   1      39.986  33.467  37.392  1.00  0.00    -0.014 A 
ATOM     91  C   UNL A   1      40.470  34.781  37.513  1.00  0.00     0.010 A 
ATOM     92  C   UNL A   1      39.149  32.942  38.393  1.00  0.00     0.010 A 
ATOM     93  C   UNL A   1      40.108  35.563  38.612  1.00  0.00     0.020 A 
ATOM     94  C   UNL A   1      38.772  33.728  39.484  1.00  0.00     0.020 A 
ATOM     95  C   UNL A   1      39.249  35.036  39.582  1.00  0.00     0.054 A 
BRANCH  95  96
ATOM     96  S   UNL A   1      38.728  36.109  40.949  1.00  0.00     0.124 S 
ATOM     97  O   UNL A   1      37.525  35.434  41.428  1.00  0.00    -0.237 OA
ATOM     98  O   UNL A   1      39.879  36.055  41.846  1.00  0.00    -0.237 OA
ATOM     99  O   UNL A   1      38.501  37.403  40.309  1.00  0.00    -0.744 OA
ENDBRANCH  95  96
ENDBRANCH  69  90
ENDBRANCH  43  44
ENDBRANCH  35  38
ENDBRANCH  33  34
ENDBRANCH   1  33
TORSDOF 15
ENDMDL
MODEL 3
REMARK VINA RESULT:     -12.5      0.844      7.913
REMARK SMILES CC1(C)[C@H](O)CC[C@]2(C)[C@@H]1CC[C@@]1(C)Oc3oc(C(=O)NCCCCNC(=O)c4ccc(-c5c6nc(c(-c7ccc(S(=O)(=O)[O-])cc7)c7ccc([nH]7)c(-c7ccc(S(=O)(=O)[O-])cc7)c7nc(c(-c8ccc(S(=O)(=O)[O-])cc8)c8ccc5[nH]8)C=C7)C=C6)cc4)cc(=O)c3C[C@H]21
REMARK SMILES IDX 24 1 23 2 22 3 21 4 19 5 20 6 18 8 1 9 2 10 3 11 4 12 10 13
REMARK SMILES IDX 6 14 8 15 11 16 7 17 9 18 94 19 12 20 13 21 93 22 14 23
REMARK SMILES IDX 15 24 92 25 16 26 90 27 17 28 89 29 91 30 5 31 25 33 26 34
REMARK SMILES IDX 27 35 28 37 29 38 30 39 88 40 31 41 87 42 32 43 33 44 34 45
REMARK SMILES IDX 81 46 35 47 86 48 80 49 82 50 36 51 85 52 79 53 78 54 37 56
REMARK SMILES IDX 67 57 48 58 66 59 49 60 52 61 65 62 83 63 50 64 51 65 64 67
REMARK SMILES IDX 84 68 53 69 38 70 39 71 47 72 40 73 46 74 41 75 42 76 43 77
REMARK SMILES IDX 44 78 45 79 68 80 69 81 77 82 70 83 76 84 71 85 72 86 73 87
REMARK SMILES IDX 74 88 75 89 54 90 55 91 63 92 56 93 62 94 57 95 58 96 59 97
REMARK SMILES IDX 60 98 61 99
REMARK H PARENT 21 7 5 32 26 36 82 55 52 66
REMARK Flexibility Score: inf
ROOT
ATOM      1  C   UNL A   1      37.986  33.870  30.651  1.00  0.00     0.023 C 
ENDROOT
BRANCH   1   2
ATOM      2  C   UNL A   1      38.172  33.521  29.180  1.00  0.00     0.023 C 
BRANCH   2   3
ATOM      3  C   UNL A   1      36.869  33.377  28.378  1.00  0.00     0.116 C 
BRANCH   3   4
ATOM      4  N   UNL A   1      35.856  34.345  28.787  1.00  0.00    -0.349 N 
ATOM      5  C   UNL A   1      34.487  34.363  28.748  1.00  0.00     0.287 C 
ATOM      6  O   UNL A   1      33.925  35.316  29.292  1.00  0.00    -0.266 OA
ATOM      7  H   UNL A   1      36.241  35.163  29.178  1.00  0.00     0.163 HD
BRANCH   5   8
ATOM      8  C   UNL A   1      33.651  33.274  28.128  1.00  0.00     0.199 A 
ATOM      9  C   UNL A   1      30.416  25.470  23.764  1.00  0.00     0.014 C 
ATOM     10  C   UNL A   1      31.847  25.957  23.391  1.00  0.00    -0.006 C 
ATOM     11  C   UNL A   1      32.705  24.690  23.202  1.00  0.00     0.014 C 
ATOM     12  C   UNL A   1      31.698  26.672  21.998  1.00  0.00     0.120 C 
ATOM     13  C   UNL A   1      32.362  26.895  24.594  1.00  0.00     0.004 C 
ATOM     14  C   UNL A   1      31.180  28.100  22.045  1.00  0.00     0.033 C 
ATOM     15  C   UNL A   1      32.694  28.336  24.160  1.00  0.00    -0.022 C 
ATOM     16  C   UNL A   1      33.464  26.328  25.539  1.00  0.00     0.009 C 
ATOM     17  C   UNL A   1      31.512  28.861  23.313  1.00  0.00     0.010 C 
ATOM     18  C   UNL A   1      34.026  28.364  23.352  1.00  0.00     0.012 C 
ATOM     19  C   UNL A   1      32.914  29.268  25.402  1.00  0.00     0.044 C 
ATOM     20  C   UNL A   1      34.162  27.367  26.467  1.00  0.00     0.049 C 
ATOM     21  C   UNL A   1      33.319  28.625  26.756  1.00  0.00     0.113 C 
ATOM     22  C   UNL A   1      31.845  30.307  25.708  1.00  0.00     0.055 C 
ATOM     23  C   UNL A   1      32.194  28.196  27.738  1.00  0.00     0.057 C 
ATOM     24  O   UNL A   1      34.104  29.656  27.458  1.00  0.00    -0.458 OA
ATOM     25  C   UNL A   1      32.401  31.204  26.756  1.00  0.00     0.081 A 
ATOM     26  C   UNL A   1      33.513  30.942  27.471  1.00  0.00     0.292 A 
ATOM     27  C   UNL A   1      31.737  32.497  26.874  1.00  0.00     0.192 A 
ATOM     28  O   UNL A   1      34.156  31.959  28.190  1.00  0.00    -0.420 OA
ATOM     29  C   UNL A   1      32.458  33.530  27.590  1.00  0.00     0.105 A 
ATOM     30  O   UNL A   1      30.654  32.739  26.356  1.00  0.00    -0.289 OA
BRANCH  12  31
ATOM     31  O   UNL A   1      32.915  26.698  21.248  1.00  0.00    -0.393 OA
ATOM     32  H   UNL A   1      32.784  26.240  20.403  1.00  0.00     0.210 HD
ENDBRANCH  12  31
ENDBRANCH   5   8
ENDBRANCH   3   4
ENDBRANCH   2   3
ENDBRANCH   1   2
BRANCH   1  33
ATOM     33  C   UNL A   1      38.170  32.698  31.603  1.00  0.00     0.116 C 
BRANCH  33  34
ATOM     34  N   UNL A   1      37.022  31.803  31.655  1.00  0.00    -0.352 N 
ATOM     35  C   UNL A   1      36.944  30.515  31.172  1.00  0.00     0.251 C 
ATOM     36  H   UNL A   1      36.209  32.160  32.081  1.00  0.00     0.163 HD
ATOM     37  O   UNL A   1      35.904  29.881  31.215  1.00  0.00    -0.269 OA
BRANCH  35  38
ATOM     38  C   UNL A   1      38.159  29.939  30.561  1.00  0.00     0.039 A 
ATOM     39  C   UNL A   1      38.313  30.011  29.176  1.00  0.00     0.014 A 
ATOM     40  C   UNL A   1      39.182  29.446  31.378  1.00  0.00     0.014 A 
ATOM     41  C   UNL A   1      39.531  29.639  28.608  1.00  0.00     0.010 A 
ATOM     42  C   UNL A   1      40.412  29.132  30.815  1.00  0.00     0.010 A 
ATOM     43  C   UNL A   1      40.595  29.224  29.426  1.00  0.00    -0.014 A 
BRANCH  43  44
ATOM     44  C   UNL A   1      41.893  28.823  28.834  1.00  0.00     0.031 A 
ATOM     45  C   UNL A   1      42.989  29.844  28.721  1.00  0.00     0.074 A 
ATOM     46  C   UNL A   1      42.078  27.565  28.387  1.00  0.00     0.049 A 
ATOM     47  N   UNL A   1      44.190  29.705  28.225  1.00  0.00    -0.248 NA
ATOM     48  C   UNL A   1      42.696  31.201  29.217  1.00  0.00     0.031 C 
ATOM     49  C   UNL A   1      41.081  26.492  28.430  1.00  0.00     0.029 A 
ATOM     50  N   UNL A   1      43.177  26.973  27.816  1.00  0.00    -0.354 N 
ATOM     51  C   UNL A   1      44.791  30.951  28.348  1.00  0.00     0.074 A 
ATOM     52  C   UNL A   1      43.813  31.847  28.920  1.00  0.00     0.031 C 
ATOM     53  C   UNL A   1      41.628  25.365  27.940  1.00  0.00     0.029 A 
ATOM     54  C   UNL A   1      43.000  25.640  27.524  1.00  0.00     0.049 A 
ATOM     55  H   UNL A   1      44.014  27.458  27.632  1.00  0.00     0.167 HD
ATOM     56  C   UNL A   1      46.057  31.307  28.040  1.00  0.00     0.031 A 
ATOM     57  C   UNL A   1      43.852  24.744  26.989  1.00  0.00     0.031 A 
ATOM     58  C   UNL A   1      47.041  30.409  27.507  1.00  0.00     0.049 A 
ATOM     59  C   UNL A   1      45.246  25.180  26.623  1.00  0.00     0.074 A 
ATOM     60  C   UNL A   1      48.367  30.671  27.215  1.00  0.00     0.029 A 
ATOM     61  N   UNL A   1      46.810  29.080  27.197  1.00  0.00    -0.354 N 
ATOM     62  N   UNL A   1      45.807  26.353  26.787  1.00  0.00    -0.248 NA
ATOM     63  C   UNL A   1      46.119  24.174  25.999  1.00  0.00     0.031 C 
ATOM     64  C   UNL A   1      48.931  29.505  26.692  1.00  0.00     0.029 A 
ATOM     65  C   UNL A   1      47.966  28.511  26.695  1.00  0.00     0.049 A 
ATOM     66  H   UNL A   1      45.953  28.611  27.315  1.00  0.00     0.167 HD
ATOM     67  C   UNL A   1      47.107  26.219  26.309  1.00  0.00     0.074 A 
ATOM     68  C   UNL A   1      47.251  24.853  25.853  1.00  0.00     0.031 C 
ATOM     69  C   UNL A   1      48.092  27.147  26.256  1.00  0.00     0.031 A 
BRANCH  56  70
ATOM     70  C   UNL A   1      46.471  32.727  28.296  1.00  0.00    -0.014 A 
ATOM     71  C   UNL A   1      47.076  33.082  29.514  1.00  0.00     0.010 A 
ATOM     72  C   UNL A   1      46.356  33.685  27.274  1.00  0.00     0.010 A 
ATOM     73  C   UNL A   1      47.563  34.375  29.705  1.00  0.00     0.020 A 
ATOM     74  C   UNL A   1      46.858  34.976  27.456  1.00  0.00     0.020 A 
ATOM     75  C   UNL A   1      47.462  35.310  28.670  1.00  0.00     0.054 A 
BRANCH  75  76
ATOM     76  S   UNL A   1      48.172  36.959  28.928  1.00  0.00     0.124 S 
ATOM     77  O   UNL A   1      47.053  37.831  28.578  1.00  0.00    -0.237 OA
ATOM     78  O   UNL A   1      48.526  36.928  30.344  1.00  0.00    -0.237 OA
ATOM     79  O   UNL A   1      49.302  37.001  28.003  1.00  0.00    -0.744 OA
ENDBRANCH  75  76
ENDBRANCH  56  70
BRANCH  57  80
ATOM     80  C   UNL A   1      43.428  23.332  26.790  1.00  0.00    -0.014 A 
ATOM     81  C   UNL A   1      43.020  22.554  27.888  1.00  0.00     0.010 A 
ATOM     82  C   UNL A   1      43.436  22.755  25.507  1.00  0.00     0.010 A 
ATOM     83  C   UNL A   1      42.642  21.221  27.711  1.00  0.00     0.020 A 
ATOM     84  C   UNL A   1      43.041  21.426  25.323  1.00  0.00     0.020 A 
ATOM     85  C   UNL A   1      42.651  20.666  26.428  1.00  0.00     0.054 A 
BRANCH  85  86
ATOM     86  S   UNL A   1      42.137  18.937  26.227  1.00  0.00     0.124 S 
ATOM     87  O   UNL A   1      43.101  18.442  25.248  1.00  0.00    -0.237 OA
ATOM     88  O   UNL A   1      42.287  18.413  27.582  1.00  0.00    -0.237 OA
ATOM     89  O   UNL A   1      40.760  19.040  25.751  1.00  0.00    -0.744 OA
ENDBRANCH  85  86
ENDBRANCH  57  80
BRANCH  69  90
ATOM     90  C   UNL A   1      49.425  26.736  25.702  1.00  0.00    -0.014 A 
ATOM     91  C   UNL A   1      49.777  27.052  24.379  1.00  0.00     0.010 A 
ATOM     92  C   UNL A   1      50.385  26.164  26.557  1.00  0.00     0.010 A 
ATOM     93  C   UNL A   1      51.074  26.812  23.922  1.00  0.00     0.020 A 
ATOM     94  C   UNL A   1      51.689  25.940  26.108  1.00  0.00     0.020 A 
ATOM     95  C   UNL A   1      52.026  26.273  24.795  1.00  0.00     0.054 A 
BRANCH  95  96
ATOM     96  S   UNL A   1      53.724  26.060  24.195  1.00  0.00     0.124 S 
ATOM     97  O   UNL A   1      54.136  24.831  24.868  1.00  0.00    -0.237 OA
ATOM     98  O   UNL A   1      53.536  25.953  22.751  1.00  0.00    -0.237 OA
ATOM     99  O   UNL A   1      54.407  27.271  24.644  1.00  0.00    -0.744 OA
ENDBRANCH  95  96
ENDBRANCH  69  90
ENDBRANCH  43  44
ENDBRANCH  35  38
ENDBRANCH  33  34
ENDBRANCH   1  33
TORSDOF 15
ENDMDL
