MODEL 1
REMARK VINA RESULT:     -11.4      0.000      0.000
REMARK SMILES CCc1cc(OC(F)(F)F)cc2c1O[C@H](C(F)(F)F)C(C(=O)NCCCCNC(=O)c1ccc(-c3c4nc(c(-c5ccc(S(=O)(=O)[O-])cc5)c5ccc([nH]5)c(-c5ccc(S(=O)(=O)[O-])cc5)c5nc(c(-c6ccc(S(=O)(=O)[O-])cc6)c6ccc3[nH]6)C=C5)C=C4)cc1)=C2
REMARK SMILES IDX 26 1 25 2 24 3 23 4 21 5 22 6 20 8 3 9 4 10 13 11 5 12 12 13
REMARK SMILES IDX 14 14 11 15 91 16 15 17 2 18 1 19 6 20 7 21 8 22 9 23 10 24
REMARK SMILES IDX 16 25 17 26 18 27 19 28 27 29 28 30 29 31 30 33 31 34 32 35
REMARK SMILES IDX 90 36 33 37 89 38 34 39 35 40 36 41 83 42 37 43 88 44 82 45
REMARK SMILES IDX 84 46 38 47 87 48 81 49 80 50 39 52 69 53 50 54 68 55 51 56
REMARK SMILES IDX 54 57 67 58 85 59 52 60 53 61 66 63 86 64 55 65 40 66 41 67
REMARK SMILES IDX 49 68 42 69 48 70 43 71 44 72 45 73 46 74 47 75 70 76 71 77
REMARK SMILES IDX 79 78 72 79 78 80 73 81 74 82 75 83 76 84 77 85 56 86 57 87
REMARK SMILES IDX 65 88 58 89 64 90 59 91 60 92 61 93 62 94 63 95
REMARK H PARENT 23 7 28 32 84 51 54 62
REMARK Flexibility Score: inf
ROOT
ATOM      1  C   UNL A   1      35.512  23.270  25.847  1.00  0.00     0.023 C 
ENDROOT
BRANCH   1   2
ATOM      2  C   UNL A   1      34.838  22.075  25.168  1.00  0.00     0.023 C 
BRANCH   2   3
ATOM      3  C   UNL A   1      33.483  22.397  24.533  1.00  0.00     0.116 C 
BRANCH   3   4
ATOM      4  N   UNL A   1      33.631  22.628  23.110  1.00  0.00    -0.352 N 
ATOM      5  C   UNL A   1      33.364  23.704  22.329  1.00  0.00     0.251 C 
ATOM      6  O   UNL A   1      33.578  23.606  21.122  1.00  0.00    -0.270 OA
ATOM      7  H   UNL A   1      33.996  21.858  22.617  1.00  0.00     0.163 HD
BRANCH   5   8
ATOM      8  C   UNL A   1      32.919  25.020  22.868  1.00  0.00     0.067 C 
ATOM      9  C   UNL A   1      31.274  28.796  23.766  1.00  0.00    -0.002 A 
ATOM     10  C   UNL A   1      31.987  29.632  24.657  1.00  0.00     0.054 A 
ATOM     11  C   UNL A   1      31.815  27.539  23.461  1.00  0.00     0.131 A 
ATOM     12  C   UNL A   1      33.204  29.240  25.215  1.00  0.00     0.130 A 
ATOM     13  C   UNL A   1      33.032  27.133  24.023  1.00  0.00     0.021 A 
ATOM     14  O   UNL A   1      31.175  26.752  22.546  1.00  0.00    -0.475 OA
ATOM     15  C   UNL A   1      33.717  27.984  24.896  1.00  0.00     0.058 A 
ATOM     16  C   UNL A   1      33.630  25.861  23.632  1.00  0.00     0.025 C 
ATOM     17  C   UNL A   1      31.465  25.330  22.565  1.00  0.00     0.314 C 
BRANCH   9  18
ATOM     18  C   UNL A   1      29.962  29.353  23.242  1.00  0.00     0.036 C 
ATOM     19  C   UNL A   1      29.876  29.899  21.825  1.00  0.00     0.009 C 
ENDBRANCH   9  18
BRANCH  12  20
ATOM     20  O   UNL A   1      33.989  29.971  26.060  1.00  0.00    -0.406 OA
BRANCH  20  21
ATOM     21  C   UNL A   1      33.741  29.872  27.451  1.00  0.00     0.573 C 
ATOM     22  F   UNL A   1      32.431  29.660  27.701  1.00  0.00    -0.132 F 
ATOM     23  F   UNL A   1      34.470  28.881  28.006  1.00  0.00    -0.132 F 
ATOM     24  F   UNL A   1      34.096  31.035  28.040  1.00  0.00    -0.132 F 
ENDBRANCH  20  21
ENDBRANCH  12  20
BRANCH  17  25
ATOM     25  C   UNL A   1      30.489  24.578  23.500  1.00  0.00     0.429 C 
ATOM     26  F   UNL A   1      30.948  24.484  24.771  1.00  0.00    -0.167 F 
ATOM     27  F   UNL A   1      29.287  25.209  23.575  1.00  0.00    -0.167 F 
ATOM     28  F   UNL A   1      30.227  23.325  23.064  1.00  0.00    -0.167 F 
ENDBRANCH  17  25
ENDBRANCH   5   8
ENDBRANCH   3   4
ENDBRANCH   2   3
ENDBRANCH   1   2
BRANCH   1  29
ATOM     29  C   UNL A   1      36.858  23.666  25.248  1.00  0.00     0.116 C 
BRANCH  29  30
ATOM     30  N   UNL A   1      37.914  22.706  25.529  1.00  0.00    -0.352 N 
ATOM     31  C   UNL A   1      39.097  22.915  26.198  1.00  0.00     0.251 C 
ATOM     32  H   UNL A   1      37.761  21.790  25.201  1.00  0.00     0.163 HD
ATOM     33  O   UNL A   1      39.934  22.024  26.267  1.00  0.00    -0.269 OA
BRANCH  31  34
ATOM     34  C   UNL A   1      39.361  24.244  26.786  1.00  0.00     0.039 A 
ATOM     35  C   UNL A   1      38.945  24.493  28.096  1.00  0.00     0.014 A 
ATOM     36  C   UNL A   1      40.054  25.220  26.063  1.00  0.00     0.014 A 
ATOM     37  C   UNL A   1      39.283  25.700  28.707  1.00  0.00     0.010 A 
ATOM     38  C   UNL A   1      40.445  26.396  26.695  1.00  0.00     0.010 A 
ATOM     39  C   UNL A   1      40.066  26.645  28.023  1.00  0.00    -0.014 A 
BRANCH  39  40
ATOM     40  C   UNL A   1      40.508  27.898  28.683  1.00  0.00     0.031 A 
ATOM     41  C   UNL A   1      41.888  27.993  29.271  1.00  0.00     0.074 A 
ATOM     42  C   UNL A   1      39.642  28.921  28.811  1.00  0.00     0.049 A 
ATOM     43  N   UNL A   1      42.430  28.977  29.940  1.00  0.00    -0.248 NA
ATOM     44  C   UNL A   1      42.761  26.819  29.111  1.00  0.00     0.031 C 
ATOM     45  C   UNL A   1      38.260  28.932  28.323  1.00  0.00     0.029 A 
ATOM     46  N   UNL A   1      39.792  30.150  29.402  1.00  0.00    -0.354 N 
ATOM     47  C   UNL A   1      43.700  28.536  30.296  1.00  0.00     0.074 A 
ATOM     48  C   UNL A   1      43.829  27.180  29.808  1.00  0.00     0.031 C 
ATOM     49  C   UNL A   1      37.699  30.116  28.614  1.00  0.00     0.029 A 
ATOM     50  C   UNL A   1      38.667  30.936  29.336  1.00  0.00     0.049 A 
ATOM     51  H   UNL A   1      40.629  30.443  29.832  1.00  0.00     0.167 HD
ATOM     52  C   UNL A   1      44.676  29.205  30.955  1.00  0.00     0.031 A 
ATOM     53  C   UNL A   1      38.437  32.177  29.809  1.00  0.00     0.031 A 
ATOM     54  C   UNL A   1      44.549  30.559  31.424  1.00  0.00     0.049 A 
ATOM     55  C   UNL A   1      39.540  32.905  30.524  1.00  0.00     0.074 A 
ATOM     56  C   UNL A   1      45.500  31.344  32.052  1.00  0.00     0.029 A 
ATOM     57  N   UNL A   1      43.402  31.329  31.316  1.00  0.00    -0.354 N 
ATOM     58  N   UNL A   1      40.756  32.493  30.796  1.00  0.00    -0.248 NA
ATOM     59  C   UNL A   1      39.246  34.268  30.984  1.00  0.00     0.031 C 
ATOM     60  C   UNL A   1      44.916  32.578  32.356  1.00  0.00     0.029 A 
ATOM     61  C   UNL A   1      43.614  32.576  31.877  1.00  0.00     0.049 A 
ATOM     62  H   UNL A   1      42.560  31.033  30.900  1.00  0.00     0.167 HD
ATOM     63  C   UNL A   1      41.379  33.556  31.439  1.00  0.00     0.074 A 
ATOM     64  C   UNL A   1      40.410  34.633  31.503  1.00  0.00     0.031 C 
ATOM     65  C   UNL A   1      42.640  33.635  31.931  1.00  0.00     0.031 A 
BRANCH  52  66
ATOM     66  C   UNL A   1      45.966  28.473  31.206  1.00  0.00    -0.014 A 
ATOM     67  C   UNL A   1      46.970  28.419  30.223  1.00  0.00     0.010 A 
ATOM     68  C   UNL A   1      46.188  27.850  32.447  1.00  0.00     0.010 A 
ATOM     69  C   UNL A   1      48.155  27.716  30.459  1.00  0.00     0.020 A 
ATOM     70  C   UNL A   1      47.382  27.167  32.697  1.00  0.00     0.020 A 
ATOM     71  C   UNL A   1      48.350  27.088  31.693  1.00  0.00     0.054 A 
BRANCH  71  72
ATOM     72  S   UNL A   1      49.900  26.190  31.978  1.00  0.00     0.124 S 
ATOM     73  O   UNL A   1      50.519  26.235  30.655  1.00  0.00    -0.237 OA
ATOM     74  O   UNL A   1      50.554  26.995  33.005  1.00  0.00    -0.237 OA
ATOM     75  O   UNL A   1      49.458  24.868  32.414  1.00  0.00    -0.744 OA
ENDBRANCH  71  72
ENDBRANCH  52  66
BRANCH  53  76
ATOM     76  C   UNL A   1      37.112  32.818  29.594  1.00  0.00    -0.014 A 
ATOM     77  C   UNL A   1      36.141  32.798  30.612  1.00  0.00     0.010 A 
ATOM     78  C   UNL A   1      36.821  33.467  28.381  1.00  0.00     0.010 A 
ATOM     79  C   UNL A   1      34.898  33.403  30.415  1.00  0.00     0.020 A 
ATOM     80  C   UNL A   1      35.586  34.093  28.189  1.00  0.00     0.020 A 
ATOM     81  C   UNL A   1      34.627  34.047  29.204  1.00  0.00     0.054 A 
BRANCH  81  82
ATOM     82  S   UNL A   1      33.027  34.875  28.990  1.00  0.00     0.124 S 
ATOM     83  O   UNL A   1      33.429  36.187  28.494  1.00  0.00    -0.237 OA
ATOM     84  O   UNL A   1      32.351  34.013  28.024  1.00  0.00    -0.237 OA
ATOM     85  O   UNL A   1      32.453  34.860  30.334  1.00  0.00    -0.744 OA
ENDBRANCH  81  82
ENDBRANCH  53  76
BRANCH  65  86
ATOM     86  C   UNL A   1      43.056  34.938  32.556  1.00  0.00    -0.014 A 
ATOM     87  C   UNL A   1      43.730  35.920  31.809  1.00  0.00     0.010 A 
ATOM     88  C   UNL A   1      42.718  35.203  33.895  1.00  0.00     0.010 A 
ATOM     89  C   UNL A   1      44.083  37.136  32.399  1.00  0.00     0.020 A 
ATOM     90  C   UNL A   1      43.048  36.427  34.482  1.00  0.00     0.020 A 
ATOM     91  C   UNL A   1      43.741  37.381  33.734  1.00  0.00     0.054 A 
BRANCH  91  92
ATOM     92  S   UNL A   1      44.166  38.985  34.466  1.00  0.00     0.124 S 
ATOM     93  O   UNL A   1      43.080  39.834  33.985  1.00  0.00    -0.237 OA
ATOM     94  O   UNL A   1      44.153  38.699  35.899  1.00  0.00    -0.237 OA
ATOM     95  O   UNL A   1      45.484  39.280  33.909  1.00  0.00    -0.744 OA
ENDBRANCH  91  92
ENDBRANCH  65  86
ENDBRANCH  39  40
ENDBRANCH  31  34
ENDBRANCH  29  30
ENDBRANCH   1  29
TORSDOF 18
ENDMDL
MODEL 2
REMARK VINA RESULT:     -11.2      2.978      9.273
REMARK SMILES CCc1cc(OC(F)(F)F)cc2c1O[C@H](C(F)(F)F)C(C(=O)NCCCCNC(=O)c1ccc(-c3c4nc(c(-c5ccc(S(=O)(=O)[O-])cc5)c5ccc([nH]5)c(-c5ccc(S(=O)(=O)[O-])cc5)c5nc(c(-c6ccc(S(=O)(=O)[O-])cc6)c6ccc3[nH]6)C=C5)C=C4)cc1)=C2
REMARK SMILES IDX 26 1 25 2 24 3 23 4 21 5 22 6 20 8 3 9 4 10 13 11 5 12 12 13
REMARK SMILES IDX 14 14 11 15 91 16 15 17 2 18 1 19 6 20 7 21 8 22 9 23 10 24
REMARK SMILES IDX 16 25 17 26 18 27 19 28 27 29 28 30 29 31 30 33 31 34 32 35
REMARK SMILES IDX 90 36 33 37 89 38 34 39 35 40 36 41 83 42 37 43 88 44 82 45
REMARK SMILES IDX 84 46 38 47 87 48 81 49 80 50 39 52 69 53 50 54 68 55 51 56
REMARK SMILES IDX 54 57 67 58 85 59 52 60 53 61 66 63 86 64 55 65 40 66 41 67
REMARK SMILES IDX 49 68 42 69 48 70 43 71 44 72 45 73 46 74 47 75 70 76 71 77
REMARK SMILES IDX 79 78 72 79 78 80 73 81 74 82 75 83 76 84 77 85 56 86 57 87
REMARK SMILES IDX 65 88 58 89 64 90 59 91 60 92 61 93 62 94 63 95
REMARK H PARENT 23 7 28 32 84 51 54 62
REMARK Flexibility Score: inf
ROOT
ATOM      1  C   UNL A   1      32.260  27.912  26.766  1.00  0.00     0.023 C 
ENDROOT
BRANCH   1   2
ATOM      2  C   UNL A   1      32.498  27.468  25.321  1.00  0.00     0.023 C 
BRANCH   2   3
ATOM      3  C   UNL A   1      31.260  26.891  24.631  1.00  0.00     0.116 C 
BRANCH   3   4
ATOM      4  N   UNL A   1      30.405  26.226  25.593  1.00  0.00    -0.352 N 
ATOM      5  C   UNL A   1      30.406  24.968  26.099  1.00  0.00     0.251 C 
ATOM      6  O   UNL A   1      29.528  24.671  26.907  1.00  0.00    -0.270 OA
ATOM      7  H   UNL A   1      29.685  26.797  25.948  1.00  0.00     0.163 HD
BRANCH   5   8
ATOM      8  C   UNL A   1      31.467  23.965  25.800  1.00  0.00     0.067 C 
ATOM      9  C   UNL A   1      33.915  20.637  24.964  1.00  0.00    -0.002 A 
ATOM     10  C   UNL A   1      35.282  20.715  25.324  1.00  0.00     0.054 A 
ATOM     11  C   UNL A   1      33.094  21.739  25.240  1.00  0.00     0.131 A 
ATOM     12  C   UNL A   1      35.811  21.843  25.951  1.00  0.00     0.130 A 
ATOM     13  C   UNL A   1      33.619  22.879  25.862  1.00  0.00     0.021 A 
ATOM     14  O   UNL A   1      31.759  21.649  24.965  1.00  0.00    -0.475 OA
ATOM     15  C   UNL A   1      34.972  22.925  26.211  1.00  0.00     0.058 A 
ATOM     16  C   UNL A   1      32.738  23.985  26.224  1.00  0.00     0.025 C 
ATOM     17  C   UNL A   1      31.018  22.889  24.829  1.00  0.00     0.314 C 
BRANCH   9  18
ATOM     18  C   UNL A   1      33.483  19.350  24.284  1.00  0.00     0.036 C 
ATOM     19  C   UNL A   1      34.368  18.114  24.354  1.00  0.00     0.009 C 
ENDBRANCH   9  18
BRANCH  12  20
ATOM     20  O   UNL A   1      37.100  22.017  26.367  1.00  0.00    -0.406 OA
BRANCH  20  21
ATOM     21  C   UNL A   1      37.964  22.785  25.548  1.00  0.00     0.573 C 
ATOM     22  F   UNL A   1      37.597  22.719  24.251  1.00  0.00    -0.132 F 
ATOM     23  F   UNL A   1      37.989  24.075  25.944  1.00  0.00    -0.132 F 
ATOM     24  F   UNL A   1      39.218  22.290  25.654  1.00  0.00    -0.132 F 
ENDBRANCH  20  21
ENDBRANCH  12  20
BRANCH  17  25
ATOM     25  C   UNL A   1      31.017  23.376  23.361  1.00  0.00     0.429 C 
ATOM     26  F   UNL A   1      31.101  22.358  22.471  1.00  0.00    -0.167 F 
ATOM     27  F   UNL A   1      29.876  24.051  23.061  1.00  0.00    -0.167 F 
ATOM     28  F   UNL A   1      32.034  24.230  23.106  1.00  0.00    -0.167 F 
ENDBRANCH  17  25
ENDBRANCH   5   8
ENDBRANCH   3   4
ENDBRANCH   2   3
ENDBRANCH   1   2
BRANCH   1  29
ATOM     29  C   UNL A   1      33.494  28.463  27.474  1.00  0.00     0.116 C 
BRANCH  29  30
ATOM     30  N   UNL A   1      33.443  29.902  27.678  1.00  0.00    -0.352 N 
ATOM     31  C   UNL A   1      34.447  30.735  28.112  1.00  0.00     0.251 C 
ATOM     32  H   UNL A   1      32.581  30.334  27.478  1.00  0.00     0.163 HD
ATOM     33  O   UNL A   1      34.217  31.918  28.330  1.00  0.00    -0.269 OA
BRANCH  31  34
ATOM     34  C   UNL A   1      35.789  30.170  28.357  1.00  0.00     0.039 A 
ATOM     35  C   UNL A   1      36.717  30.166  27.313  1.00  0.00     0.014 A 
ATOM     36  C   UNL A   1      36.141  29.690  29.622  1.00  0.00     0.014 A 
ATOM     37  C   UNL A   1      38.022  29.741  27.556  1.00  0.00     0.010 A 
ATOM     38  C   UNL A   1      37.459  29.327  29.878  1.00  0.00     0.010 A 
ATOM     39  C   UNL A   1      38.412  29.352  28.849  1.00  0.00    -0.014 A 
BRANCH  39  40
ATOM     40  C   UNL A   1      39.816  28.977  29.147  1.00  0.00     0.031 A 
ATOM     41  C   UNL A   1      40.749  29.982  29.762  1.00  0.00     0.074 A 
ATOM     42  C   UNL A   1      40.265  27.756  28.800  1.00  0.00     0.049 A 
ATOM     43  N   UNL A   1      42.023  29.861  30.036  1.00  0.00    -0.248 NA
ATOM     44  C   UNL A   1      40.185  31.302  30.085  1.00  0.00     0.031 C 
ATOM     45  C   UNL A   1      39.467  26.709  28.155  1.00  0.00     0.029 A 
ATOM     46  N   UNL A   1      41.507  27.189  28.932  1.00  0.00    -0.354 N 
ATOM     47  C   UNL A   1      42.416  31.093  30.546  1.00  0.00     0.074 A 
ATOM     48  C   UNL A   1      41.259  31.960  30.501  1.00  0.00     0.031 C 
ATOM     49  C   UNL A   1      40.234  25.622  27.969  1.00  0.00     0.029 A 
ATOM     50  C   UNL A   1      41.582  25.904  28.450  1.00  0.00     0.049 A 
ATOM     51  H   UNL A   1      42.274  27.659  29.335  1.00  0.00     0.167 HD
ATOM     52  C   UNL A   1      43.628  31.464  31.024  1.00  0.00     0.031 A 
ATOM     53  C   UNL A   1      42.622  25.048  28.398  1.00  0.00     0.031 A 
ATOM     54  C   UNL A   1      44.772  30.595  31.082  1.00  0.00     0.049 A 
ATOM     55  C   UNL A   1      43.953  25.478  28.948  1.00  0.00     0.074 A 
ATOM     56  C   UNL A   1      46.028  30.858  31.602  1.00  0.00     0.029 A 
ATOM     57  N   UNL A   1      44.801  29.293  30.608  1.00  0.00    -0.354 N 
ATOM     58  N   UNL A   1      44.290  26.628  29.483  1.00  0.00    -0.248 NA
ATOM     59  C   UNL A   1      45.041  24.492  28.899  1.00  0.00     0.031 C 
ATOM     60  C   UNL A   1      46.827  29.727  31.408  1.00  0.00     0.029 A 
ATOM     61  C   UNL A   1      46.055  28.743  30.808  1.00  0.00     0.049 A 
ATOM     62  H   UNL A   1      44.040  28.827  30.190  1.00  0.00     0.167 HD
ATOM     63  C   UNL A   1      45.622  26.494  29.856  1.00  0.00     0.074 A 
ATOM     64  C   UNL A   1      46.025  25.149  29.496  1.00  0.00     0.031 C 
ATOM     65  C   UNL A   1      46.438  27.403  30.444  1.00  0.00     0.031 A 
BRANCH  52  66
ATOM     66  C   UNL A   1      43.771  32.878  31.520  1.00  0.00    -0.014 A 
ATOM     67  C   UNL A   1      43.542  33.198  32.870  1.00  0.00     0.010 A 
ATOM     68  C   UNL A   1      44.161  33.895  30.631  1.00  0.00     0.010 A 
ATOM     69  C   UNL A   1      43.655  34.518  33.313  1.00  0.00     0.020 A 
ATOM     70  C   UNL A   1      44.300  35.213  31.076  1.00  0.00     0.020 A 
ATOM     71  C   UNL A   1      44.027  35.519  32.411  1.00  0.00     0.054 A 
BRANCH  71  72
ATOM     72  S   UNL A   1      44.175  37.223  33.013  1.00  0.00     0.124 S 
ATOM     73  O   UNL A   1      44.145  37.984  31.767  1.00  0.00    -0.237 OA
ATOM     74  O   UNL A   1      42.998  37.367  33.866  1.00  0.00    -0.237 OA
ATOM     75  O   UNL A   1      45.455  37.232  33.717  1.00  0.00    -0.744 OA
ENDBRANCH  71  72
ENDBRANCH  52  66
BRANCH  53  76
ATOM     76  C   UNL A   1      42.435  23.689  27.824  1.00  0.00    -0.014 A 
ATOM     77  C   UNL A   1      42.725  23.444  26.470  1.00  0.00     0.010 A 
ATOM     78  C   UNL A   1      41.985  22.629  28.632  1.00  0.00     0.010 A 
ATOM     79  C   UNL A   1      42.554  22.167  25.930  1.00  0.00     0.020 A 
ATOM     80  C   UNL A   1      41.835  21.346  28.101  1.00  0.00     0.020 A 
ATOM     81  C   UNL A   1      42.110  21.125  26.749  1.00  0.00     0.054 A 
BRANCH  81  82
ATOM     82  S   UNL A   1      41.949  19.462  26.042  1.00  0.00     0.124 S 
ATOM     83  O   UNL A   1      40.511  19.366  25.816  1.00  0.00    -0.237 OA
ATOM     84  O   UNL A   1      42.775  19.547  24.840  1.00  0.00    -0.237 OA
ATOM     85  O   UNL A   1      42.480  18.593  27.091  1.00  0.00    -0.744 OA
ENDBRANCH  81  82
ENDBRANCH  53  76
BRANCH  65  86
ATOM     86  C   UNL A   1      47.841  26.965  30.764  1.00  0.00    -0.014 A 
ATOM     87  C   UNL A   1      48.897  27.195  29.866  1.00  0.00     0.010 A 
ATOM     88  C   UNL A   1      48.112  26.366  32.008  1.00  0.00     0.010 A 
ATOM     89  C   UNL A   1      50.198  26.808  30.194  1.00  0.00     0.020 A 
ATOM     90  C   UNL A   1      49.416  25.998  32.349  1.00  0.00     0.020 A 
ATOM     91  C   UNL A   1      50.449  26.209  31.434  1.00  0.00     0.054 A 
BRANCH  91  92
ATOM     92  S   UNL A   1      52.154  25.758  31.859  1.00  0.00     0.124 S 
ATOM     93  O   UNL A   1      52.439  26.664  32.969  1.00  0.00    -0.237 OA
ATOM     94  O   UNL A   1      52.034  24.346  32.216  1.00  0.00    -0.237 OA
ATOM     95  O   UNL A   1      52.897  26.022  30.630  1.00  0.00    -0.744 OA
ENDBRANCH  91  92
ENDBRANCH  65  86
ENDBRANCH  39  40
ENDBRANCH  31  34
ENDBRANCH  29  30
ENDBRANCH   1  29
TORSDOF 18
ENDMDL
MODEL 3
REMARK VINA RESULT:     -10.6      2.217      2.882
REMARK SMILES CCc1cc(OC(F)(F)F)cc2c1O[C@H](C(F)(F)F)C(C(=O)NCCCCNC(=O)c1ccc(-c3c4nc(c(-c5ccc(S(=O)(=O)[O-])cc5)c5ccc([nH]5)c(-c5ccc(S(=O)(=O)[O-])cc5)c5nc(c(-c6ccc(S(=O)(=O)[O-])cc6)c6ccc3[nH]6)C=C5)C=C4)cc1)=C2
REMARK SMILES IDX 26 1 25 2 24 3 23 4 21 5 22 6 20 8 3 9 4 10 13 11 5 12 12 13
REMARK SMILES IDX 14 14 11 15 91 16 15 17 2 18 1 19 6 20 7 21 8 22 9 23 10 24
REMARK SMILES IDX 16 25 17 26 18 27 19 28 27 29 28 30 29 31 30 33 31 34 32 35
REMARK SMILES IDX 90 36 33 37 89 38 34 39 35 40 36 41 83 42 37 43 88 44 82 45
REMARK SMILES IDX 84 46 38 47 87 48 81 49 80 50 39 52 69 53 50 54 68 55 51 56
REMARK SMILES IDX 54 57 67 58 85 59 52 60 53 61 66 63 86 64 55 65 40 66 41 67
REMARK SMILES IDX 49 68 42 69 48 70 43 71 44 72 45 73 46 74 47 75 70 76 71 77
REMARK SMILES IDX 79 78 72 79 78 80 73 81 74 82 75 83 76 84 77 85 56 86 57 87
REMARK SMILES IDX 65 88 58 89 64 90 59 91 60 92 61 93 62 94 63 95
REMARK H PARENT 23 7 28 32 84 51 54 62
REMARK Flexibility Score: inf
ROOT
ATOM      1  C   UNL A   1      36.660  23.727  24.701  1.00  0.00     0.023 C 
ENDROOT
BRANCH   1   2
ATOM      2  C   UNL A   1      36.316  22.724  23.597  1.00  0.00     0.023 C 
BRANCH   2   3
ATOM      3  C   UNL A   1      34.872  22.807  23.101  1.00  0.00     0.116 C 
BRANCH   3   4
ATOM      4  N   UNL A   1      33.954  22.364  24.132  1.00  0.00    -0.352 N 
ATOM      5  C   UNL A   1      33.164  23.041  25.001  1.00  0.00     0.251 C 
ATOM      6  O   UNL A   1      32.488  22.387  25.794  1.00  0.00    -0.270 OA
ATOM      7  H   UNL A   1      33.893  21.385  24.217  1.00  0.00     0.163 HD
BRANCH   5   8
ATOM      8  C   UNL A   1      33.001  24.522  24.980  1.00  0.00     0.067 C 
ATOM      9  C   UNL A   1      32.642  28.648  24.192  1.00  0.00    -0.002 A 
ATOM     10  C   UNL A   1      32.947  29.549  25.239  1.00  0.00     0.054 A 
ATOM     11  C   UNL A   1      32.761  27.274  24.445  1.00  0.00     0.131 A 
ATOM     12  C   UNL A   1      33.371  29.102  26.491  1.00  0.00     0.130 A 
ATOM     13  C   UNL A   1      33.176  26.816  25.702  1.00  0.00     0.021 A 
ATOM     14  O   UNL A   1      32.541  26.395  23.423  1.00  0.00    -0.475 OA
ATOM     15  C   UNL A   1      33.477  27.731  26.716  1.00  0.00     0.058 A 
ATOM     16  C   UNL A   1      33.381  25.389  25.929  1.00  0.00     0.025 C 
ATOM     17  C   UNL A   1      32.228  25.022  23.774  1.00  0.00     0.314 C 
BRANCH   9  18
ATOM     18  C   UNL A   1      32.190  29.278  22.887  1.00  0.00     0.036 C 
ATOM     19  C   UNL A   1      30.726  29.217  22.476  1.00  0.00     0.009 C 
ENDBRANCH   9  18
BRANCH  12  20
ATOM     20  O   UNL A   1      33.717  29.877  27.561  1.00  0.00    -0.406 OA
BRANCH  20  21
ATOM     21  C   UNL A   1      35.068  30.290  27.672  1.00  0.00     0.573 C 
ATOM     22  F   UNL A   1      35.511  30.180  28.943  1.00  0.00    -0.132 F 
ATOM     23  F   UNL A   1      35.865  29.571  26.854  1.00  0.00    -0.132 F 
ATOM     24  F   UNL A   1      35.157  31.589  27.309  1.00  0.00    -0.132 F 
ENDBRANCH  20  21
ENDBRANCH  12  20
BRANCH  17  25
ATOM     25  C   UNL A   1      30.702  24.822  23.922  1.00  0.00     0.429 C 
ATOM     26  F   UNL A   1      29.985  25.826  23.361  1.00  0.00    -0.167 F 
ATOM     27  F   UNL A   1      30.289  23.676  23.318  1.00  0.00    -0.167 F 
ATOM     28  F   UNL A   1      30.323  24.720  25.216  1.00  0.00    -0.167 F 
ENDBRANCH  17  25
ENDBRANCH   5   8
ENDBRANCH   3   4
ENDBRANCH   2   3
ENDBRANCH   1   2
BRANCH   1  29
ATOM     29  C   UNL A   1      36.921  23.106  26.068  1.00  0.00     0.116 C 
BRANCH  29  30
ATOM     30  N   UNL A   1      38.012  22.145  26.063  1.00  0.00    -0.352 N 
ATOM     31  C   UNL A   1      39.340  22.364  26.346  1.00  0.00     0.251 C 
ATOM     32  H   UNL A   1      37.770  21.220  25.828  1.00  0.00     0.163 HD
ATOM     33  O   UNL A   1      40.160  21.467  26.199  1.00  0.00    -0.269 OA
BRANCH  31  34
ATOM     34  C   UNL A   1      39.765  23.711  26.781  1.00  0.00     0.039 A 
ATOM     35  C   UNL A   1      39.980  23.939  28.142  1.00  0.00     0.014 A 
ATOM     36  C   UNL A   1      39.993  24.724  25.845  1.00  0.00     0.014 A 
ATOM     37  C   UNL A   1      40.489  25.168  28.559  1.00  0.00     0.010 A 
ATOM     38  C   UNL A   1      40.559  25.926  26.257  1.00  0.00     0.010 A 
ATOM     39  C   UNL A   1      40.816  26.157  27.617  1.00  0.00    -0.014 A 
BRANCH  39  40
ATOM     40  C   UNL A   1      41.436  27.439  28.032  1.00  0.00     0.031 A 
ATOM     41  C   UNL A   1      42.927  27.612  27.960  1.00  0.00     0.074 A 
ATOM     42  C   UNL A   1      40.662  28.418  28.538  1.00  0.00     0.049 A 
ATOM     43  N   UNL A   1      43.656  28.631  28.336  1.00  0.00    -0.248 NA
ATOM     44  C   UNL A   1      43.702  26.482  27.420  1.00  0.00     0.031 C 
ATOM     45  C   UNL A   1      39.208  28.352  28.703  1.00  0.00     0.029 A 
ATOM     46  N   UNL A   1      40.992  29.660  29.019  1.00  0.00    -0.354 N 
ATOM     47  C   UNL A   1      44.975  28.259  28.097  1.00  0.00     0.074 A 
ATOM     48  C   UNL A   1      44.947  26.906  27.585  1.00  0.00     0.031 C 
ATOM     49  C   UNL A   1      38.770  29.509  29.224  1.00  0.00     0.029 A 
ATOM     50  C   UNL A   1      39.912  30.386  29.461  1.00  0.00     0.049 A 
ATOM     51  H   UNL A   1      41.916  30.000  29.044  1.00  0.00     0.167 HD
ATOM     52  C   UNL A   1      46.105  28.986  28.271  1.00  0.00     0.031 A 
ATOM     53  C   UNL A   1      39.848  31.619  30.001  1.00  0.00     0.031 A 
ATOM     54  C   UNL A   1      46.127  30.336  28.765  1.00  0.00     0.049 A 
ATOM     55  C   UNL A   1      41.114  32.411  30.171  1.00  0.00     0.074 A 
ATOM     56  C   UNL A   1      47.214  31.178  28.923  1.00  0.00     0.029 A 
ATOM     57  N   UNL A   1      45.009  31.045  29.178  1.00  0.00    -0.354 N 
ATOM     58  N   UNL A   1      42.346  32.065  29.880  1.00  0.00    -0.248 NA
ATOM     59  C   UNL A   1      40.980  33.763  30.729  1.00  0.00     0.031 C 
ATOM     60  C   UNL A   1      46.759  32.383  29.466  1.00  0.00     0.029 A 
ATOM     61  C   UNL A   1      45.381  32.308  29.604  1.00  0.00     0.049 A 
ATOM     62  H   UNL A   1      44.087  30.701  29.168  1.00  0.00     0.167 HD
ATOM     63  C   UNL A   1      43.131  33.167  30.199  1.00  0.00     0.074 A 
ATOM     64  C   UNL A   1      42.234  34.193  30.692  1.00  0.00     0.031 C 
ATOM     65  C   UNL A   1      44.474  33.316  30.091  1.00  0.00     0.031 A 
BRANCH  52  66
ATOM     66  C   UNL A   1      47.411  28.324  27.924  1.00  0.00    -0.014 A 
ATOM     67  C   UNL A   1      48.151  27.630  28.898  1.00  0.00     0.010 A 
ATOM     68  C   UNL A   1      47.895  28.376  26.605  1.00  0.00     0.010 A 
ATOM     69  C   UNL A   1      49.374  27.040  28.571  1.00  0.00     0.020 A 
ATOM     70  C   UNL A   1      49.105  27.765  26.266  1.00  0.00     0.020 A 
ATOM     71  C   UNL A   1      49.847  27.117  27.257  1.00  0.00     0.054 A 
BRANCH  71  72
ATOM     72  S   UNL A   1      51.434  26.335  26.855  1.00  0.00     0.124 S 
ATOM     73  O   UNL A   1      52.316  26.912  27.867  1.00  0.00    -0.237 OA
ATOM     74  O   UNL A   1      51.141  24.913  27.015  1.00  0.00    -0.237 OA
ATOM     75  O   UNL A   1      51.693  26.764  25.484  1.00  0.00    -0.744 OA
ENDBRANCH  71  72
ENDBRANCH  52  66
BRANCH  53  76
ATOM     76  C   UNL A   1      38.532  32.188  30.395  1.00  0.00    -0.014 A 
ATOM     77  C   UNL A   1      37.751  32.887  29.457  1.00  0.00     0.010 A 
ATOM     78  C   UNL A   1      38.042  32.015  31.702  1.00  0.00     0.010 A 
ATOM     79  C   UNL A   1      36.512  33.418  29.823  1.00  0.00     0.020 A 
ATOM     80  C   UNL A   1      36.793  32.525  32.065  1.00  0.00     0.020 A 
ATOM     81  C   UNL A   1      36.040  33.234  31.126  1.00  0.00     0.054 A 
BRANCH  81  82
ATOM     82  S   UNL A   1      34.403  33.882  31.565  1.00  0.00     0.124 S 
ATOM     83  O   UNL A   1      34.744  35.109  32.278  1.00  0.00    -0.237 OA
ATOM     84  O   UNL A   1      33.773  34.063  30.259  1.00  0.00    -0.237 OA
ATOM     85  O   UNL A   1      33.825  32.819  32.384  1.00  0.00    -0.744 OA
ENDBRANCH  81  82
ENDBRANCH  53  76
BRANCH  65  86
ATOM     86  C   UNL A   1      45.055  34.646  30.487  1.00  0.00    -0.014 A 
ATOM     87  C   UNL A   1      45.505  34.883  31.797  1.00  0.00     0.010 A 
ATOM     88  C   UNL A   1      45.201  35.654  29.516  1.00  0.00     0.010 A 
ATOM     89  C   UNL A   1      46.068  36.115  32.137  1.00  0.00     0.020 A 
ATOM     90  C   UNL A   1      45.785  36.879  29.846  1.00  0.00     0.020 A 
ATOM     91  C   UNL A   1      46.203  37.107  31.159  1.00  0.00     0.054 A 
BRANCH  91  92
ATOM     92  S   UNL A   1      46.981  38.682  31.611  1.00  0.00     0.124 S 
ATOM     93  O   UNL A   1      45.820  39.527  31.878  1.00  0.00    -0.237 OA
ATOM     94  O   UNL A   1      47.779  38.323  32.781  1.00  0.00    -0.237 OA
ATOM     95  O   UNL A   1      47.753  39.038  30.424  1.00  0.00    -0.744 OA
ENDBRANCH  91  92
ENDBRANCH  65  86
ENDBRANCH  39  40
ENDBRANCH  31  34
ENDBRANCH  29  30
ENDBRANCH   1  29
TORSDOF 18
ENDMDL
