MODEL 1
REMARK VINA RESULT:     -10.9      0.000      0.000
REMARK SMILES C#CCNC(=O)[C@H](C)S(=O)(=O)c1ccc(C(=O)NCCCCNC(=O)c2ccc(-c3c4nc(c(-c5ccc(S(=O)(=O)[O-])cc5)c5ccc([nH]5)c(-c5ccc(S(=O)(=O)[O-])cc5)c5nc(c(-c6ccc(S(=O)(=O)[O-])cc6)c6ccc3[nH]6)C=C5)C=C4)cc2)cc1F
REMARK SMILES IDX 19 1 18 2 16 3 17 4 15 6 12 7 13 8 87 9 14 10 86 11 88 12
REMARK SMILES IDX 9 13 10 14 11 15 7 16 8 17 5 18 4 19 6 21 3 22 2 23 1 24
REMARK SMILES IDX 20 25 21 26 22 27 23 28 24 29 25 31 26 32 27 33 85 34 28 35
REMARK SMILES IDX 84 36 29 37 30 38 31 39 78 40 32 41 83 42 77 43 79 44 33 45
REMARK SMILES IDX 82 46 76 47 75 48 34 50 64 51 45 52 63 53 46 54 49 55 62 56
REMARK SMILES IDX 80 57 47 58 48 59 61 61 81 62 50 63 35 64 36 65 44 66 37 67
REMARK SMILES IDX 43 68 38 69 39 70 40 71 41 72 42 73 65 74 66 75 74 76 67 77
REMARK SMILES IDX 73 78 68 79 69 80 70 81 71 82 72 83 51 84 52 85 60 86 53 87
REMARK SMILES IDX 59 88 54 89 55 90 56 91 57 92 58 93
REMARK H PARENT 18 5 4 20 23 30 79 49 49 60
REMARK Flexibility Score: inf
ROOT
ATOM      1  C   UNL A   1      35.759  21.023  25.571  1.00  0.00     0.116 C 
ENDROOT
BRANCH   1   2
ATOM      2  N   UNL A   1      34.600  20.255  25.154  1.00  0.00    -0.352 N 
ATOM      3  C   UNL A   1      33.408  20.628  24.586  1.00  0.00     0.251 C 
ATOM      4  O   UNL A   1      32.609  19.747  24.271  1.00  0.00    -0.269 OA
ATOM      5  H   UNL A   1      34.685  19.286  25.308  1.00  0.00     0.163 HD
BRANCH   3   6
ATOM      6  C   UNL A   1      33.092  22.040  24.240  1.00  0.00     0.042 A 
ATOM      7  C   UNL A   1      32.981  24.722  23.436  1.00  0.00     0.103 A 
ATOM      8  C   UNL A   1      33.022  23.711  22.472  1.00  0.00     0.024 A 
ATOM      9  C   UNL A   1      32.802  24.381  24.767  1.00  0.00     0.142 A 
ATOM     10  C   UNL A   1      33.068  22.374  22.877  1.00  0.00     0.015 A 
ATOM     11  C   UNL A   1      32.862  23.049  25.174  1.00  0.00     0.054 A 
ATOM     12  F   UNL A   1      32.637  25.314  25.709  1.00  0.00    -0.206 F 
BRANCH   7  13
ATOM     13  S   UNL A   1      33.103  26.413  22.952  1.00  0.00     0.192 S 
ATOM     14  O   UNL A   1      33.548  26.390  21.569  1.00  0.00    -0.223 OA
ATOM     15  O   UNL A   1      33.951  27.052  23.944  1.00  0.00    -0.223 OA
BRANCH  13  16
ATOM     16  C   UNL A   1      31.534  27.220  23.004  1.00  0.00     0.199 C 
ATOM     17  C   UNL A   1      30.314  26.400  23.376  1.00  0.00     0.036 C 
BRANCH  16  18
ATOM     18  C   UNL A   1      31.553  28.619  23.572  1.00  0.00     0.239 C 
ATOM     19  N   UNL A   1      30.972  29.703  23.007  1.00  0.00    -0.344 N 
ATOM     20  H   UNL A   1      31.243  30.548  23.434  1.00  0.00     0.164 HD
ATOM     21  O   UNL A   1      32.237  28.856  24.577  1.00  0.00    -0.274 OA
BRANCH  19  22
ATOM     22  C   UNL A   1      30.044  29.893  21.921  1.00  0.00     0.206 C 
BRANCH  22  23
ATOM     23  C   UNL A   1      28.694  29.589  22.403  1.00  0.00    -0.085 C 
ATOM     24  C   UNL A   1      27.578  29.363  22.773  1.00  0.00     0.006 C 
ENDBRANCH  22  23
ENDBRANCH  19  22
ENDBRANCH  16  18
ENDBRANCH  13  16
ENDBRANCH   7  13
ENDBRANCH   3   6
ENDBRANCH   1   2
BRANCH   1  25
ATOM     25  C   UNL A   1      37.050  20.391  25.045  1.00  0.00     0.023 C 
BRANCH  25  26
ATOM     26  C   UNL A   1      38.243  21.343  25.002  1.00  0.00     0.023 C 
BRANCH  26  27
ATOM     27  C   UNL A   1      39.229  21.179  26.148  1.00  0.00     0.116 C 
BRANCH  27  28
ATOM     28  N   UNL A   1      39.998  19.943  26.069  1.00  0.00    -0.352 N 
ATOM     29  C   UNL A   1      41.367  19.798  26.109  1.00  0.00     0.251 C 
ATOM     30  H   UNL A   1      39.477  19.113  25.976  1.00  0.00     0.163 HD
ATOM     31  O   UNL A   1      41.888  18.708  25.908  1.00  0.00    -0.269 OA
BRANCH  29  32
ATOM     32  C   UNL A   1      42.188  20.998  26.366  1.00  0.00     0.039 A 
ATOM     33  C   UNL A   1      42.583  21.802  25.295  1.00  0.00     0.014 A 
ATOM     34  C   UNL A   1      42.466  21.373  27.682  1.00  0.00     0.014 A 
ATOM     35  C   UNL A   1      43.195  23.031  25.552  1.00  0.00     0.010 A 
ATOM     36  C   UNL A   1      42.990  22.632  27.935  1.00  0.00     0.010 A 
ATOM     37  C   UNL A   1      43.364  23.474  26.873  1.00  0.00    -0.014 A 
BRANCH  37  38
ATOM     38  C   UNL A   1      43.952  24.798  27.197  1.00  0.00     0.031 A 
ATOM     39  C   UNL A   1      43.043  25.915  27.633  1.00  0.00     0.074 A 
ATOM     40  C   UNL A   1      45.266  25.028  27.004  1.00  0.00     0.049 A 
ATOM     41  N   UNL A   1      43.315  27.181  27.806  1.00  0.00    -0.248 NA
ATOM     42  C   UNL A   1      41.632  25.565  27.871  1.00  0.00     0.031 C 
ATOM     43  C   UNL A   1      46.250  24.033  26.570  1.00  0.00     0.029 A 
ATOM     44  N   UNL A   1      45.999  26.182  27.133  1.00  0.00    -0.354 N 
ATOM     45  C   UNL A   1      42.109  27.781  28.147  1.00  0.00     0.074 A 
ATOM     46  C   UNL A   1      41.094  26.753  28.100  1.00  0.00     0.031 C 
ATOM     47  C   UNL A   1      47.457  24.616  26.485  1.00  0.00     0.029 A 
ATOM     48  C   UNL A   1      47.326  26.036  26.800  1.00  0.00     0.049 A 
ATOM     49  H   UNL A   1      45.612  27.035  27.435  1.00  0.00     0.167 HD
ATOM     50  C   UNL A   1      41.869  29.070  28.485  1.00  0.00     0.031 A 
ATOM     51  C   UNL A   1      48.321  26.945  26.734  1.00  0.00     0.031 A 
ATOM     52  C   UNL A   1      42.885  30.085  28.536  1.00  0.00     0.049 A 
ATOM     53  C   UNL A   1      48.022  28.383  27.072  1.00  0.00     0.074 A 
ATOM     54  C   UNL A   1      42.755  31.411  28.910  1.00  0.00     0.029 A 
ATOM     55  N   UNL A   1      44.217  29.891  28.200  1.00  0.00    -0.354 N 
ATOM     56  N   UNL A   1      46.884  28.924  27.435  1.00  0.00    -0.248 NA
ATOM     57  C   UNL A   1      49.143  29.332  27.001  1.00  0.00     0.031 C 
ATOM     58  C   UNL A   1      43.992  32.035  28.733  1.00  0.00     0.029 A 
ATOM     59  C   UNL A   1      44.913  31.080  28.334  1.00  0.00     0.049 A 
ATOM     60  H   UNL A   1      44.608  29.035  27.910  1.00  0.00     0.167 HD
ATOM     61  C   UNL A   1      47.163  30.265  27.682  1.00  0.00     0.074 A 
ATOM     62  C   UNL A   1      48.575  30.453  27.424  1.00  0.00     0.031 C 
ATOM     63  C   UNL A   1      46.325  31.246  28.096  1.00  0.00     0.031 A 
BRANCH  50  64
ATOM     64  C   UNL A   1      40.449  29.455  28.808  1.00  0.00    -0.014 A 
ATOM     65  C   UNL A   1      39.466  29.534  27.804  1.00  0.00     0.010 A 
ATOM     66  C   UNL A   1      40.083  29.704  30.144  1.00  0.00     0.010 A 
ATOM     67  C   UNL A   1      38.157  29.901  28.125  1.00  0.00     0.020 A 
ATOM     68  C   UNL A   1      38.766  30.035  30.472  1.00  0.00     0.020 A 
ATOM     69  C   UNL A   1      37.815  30.149  29.457  1.00  0.00     0.054 A 
BRANCH  69  70
ATOM     70  S   UNL A   1      36.102  30.601  29.842  1.00  0.00     0.124 S 
ATOM     71  O   UNL A   1      35.370  29.962  28.751  1.00  0.00    -0.237 OA
ATOM     72  O   UNL A   1      35.906  30.009  31.162  1.00  0.00    -0.237 OA
ATOM     73  O   UNL A   1      36.113  32.062  29.811  1.00  0.00    -0.744 OA
ENDBRANCH  69  70
ENDBRANCH  50  64
BRANCH  51  74
ATOM     74  C   UNL A   1      49.693  26.525  26.333  1.00  0.00    -0.014 A 
ATOM     75  C   UNL A   1      50.146  26.726  25.017  1.00  0.00     0.010 A 
ATOM     76  C   UNL A   1      50.560  25.926  27.267  1.00  0.00     0.010 A 
ATOM     77  C   UNL A   1      51.430  26.318  24.637  1.00  0.00     0.020 A 
ATOM     78  C   UNL A   1      51.855  25.547  26.900  1.00  0.00     0.020 A 
ATOM     79  C   UNL A   1      52.277  25.735  25.583  1.00  0.00     0.054 A 
BRANCH  79  80
ATOM     80  S   UNL A   1      53.954  25.258  25.077  1.00  0.00     0.124 S 
ATOM     81  O   UNL A   1      54.762  25.781  26.174  1.00  0.00    -0.237 OA
ATOM     82  O   UNL A   1      53.855  23.804  24.999  1.00  0.00    -0.237 OA
ATOM     83  O   UNL A   1      54.128  25.933  23.793  1.00  0.00    -0.744 OA
ENDBRANCH  79  80
ENDBRANCH  51  74
BRANCH  63  84
ATOM     84  C   UNL A   1      46.908  32.607  28.378  1.00  0.00    -0.014 A 
ATOM     85  C   UNL A   1      47.492  32.921  29.617  1.00  0.00     0.010 A 
ATOM     86  C   UNL A   1      46.969  33.550  27.333  1.00  0.00     0.010 A 
ATOM     87  C   UNL A   1      48.119  34.156  29.807  1.00  0.00     0.020 A 
ATOM     88  C   UNL A   1      47.623  34.770  27.509  1.00  0.00     0.020 A 
ATOM     89  C   UNL A   1      48.192  35.068  28.748  1.00  0.00     0.054 A 
BRANCH  89  90
ATOM     90  S   UNL A   1      49.092  36.622  28.994  1.00  0.00     0.124 S 
ATOM     91  O   UNL A   1      50.315  36.391  28.230  1.00  0.00    -0.237 OA
ATOM     92  O   UNL A   1      48.177  37.612  28.432  1.00  0.00    -0.237 OA
ATOM     93  O   UNL A   1      49.268  36.697  30.443  1.00  0.00    -0.744 OA
ENDBRANCH  89  90
ENDBRANCH  63  84
ENDBRANCH  37  38
ENDBRANCH  29  32
ENDBRANCH  27  28
ENDBRANCH  26  27
ENDBRANCH  25  26
ENDBRANCH   1  25
TORSDOF 19
ENDMDL
MODEL 2
REMARK VINA RESULT:     -10.6      5.372     11.614
REMARK SMILES C#CCNC(=O)[C@H](C)S(=O)(=O)c1ccc(C(=O)NCCCCNC(=O)c2ccc(-c3c4nc(c(-c5ccc(S(=O)(=O)[O-])cc5)c5ccc([nH]5)c(-c5ccc(S(=O)(=O)[O-])cc5)c5nc(c(-c6ccc(S(=O)(=O)[O-])cc6)c6ccc3[nH]6)C=C5)C=C4)cc2)cc1F
REMARK SMILES IDX 19 1 18 2 16 3 17 4 15 6 12 7 13 8 87 9 14 10 86 11 88 12
REMARK SMILES IDX 9 13 10 14 11 15 7 16 8 17 5 18 4 19 6 21 3 22 2 23 1 24
REMARK SMILES IDX 20 25 21 26 22 27 23 28 24 29 25 31 26 32 27 33 85 34 28 35
REMARK SMILES IDX 84 36 29 37 30 38 31 39 78 40 32 41 83 42 77 43 79 44 33 45
REMARK SMILES IDX 82 46 76 47 75 48 34 50 64 51 45 52 63 53 46 54 49 55 62 56
REMARK SMILES IDX 80 57 47 58 48 59 61 61 81 62 50 63 35 64 36 65 44 66 37 67
REMARK SMILES IDX 43 68 38 69 39 70 40 71 41 72 42 73 65 74 66 75 74 76 67 77
REMARK SMILES IDX 73 78 68 79 69 80 70 81 71 82 72 83 51 84 52 85 60 86 53 87
REMARK SMILES IDX 59 88 54 89 55 90 56 91 57 92 58 93
REMARK H PARENT 18 5 4 20 23 30 79 49 49 60
REMARK Flexibility Score: inf
ROOT
ATOM      1  C   UNL A   1      43.091  19.737  24.980  1.00  0.00     0.116 C 
ENDROOT
BRANCH   1   2
ATOM      2  N   UNL A   1      44.442  19.269  25.231  1.00  0.00    -0.352 N 
ATOM      3  C   UNL A   1      45.627  19.937  25.410  1.00  0.00     0.251 C 
ATOM      4  O   UNL A   1      46.634  19.282  25.673  1.00  0.00    -0.269 OA
ATOM      5  H   UNL A   1      44.523  18.289  25.285  1.00  0.00     0.163 HD
BRANCH   3   6
ATOM      6  C   UNL A   1      45.718  21.423  25.401  1.00  0.00     0.042 A 
ATOM      7  C   UNL A   1      46.389  24.141  25.327  1.00  0.00     0.103 A 
ATOM      8  C   UNL A   1      46.423  23.388  24.152  1.00  0.00     0.024 A 
ATOM      9  C   UNL A   1      45.841  23.586  26.472  1.00  0.00     0.142 A 
ATOM     10  C   UNL A   1      46.079  22.033  24.191  1.00  0.00     0.015 A 
ATOM     11  C   UNL A   1      45.511  22.233  26.517  1.00  0.00     0.054 A 
ATOM     12  F   UNL A   1      45.676  24.306  27.585  1.00  0.00    -0.206 F 
BRANCH   7  13
ATOM     13  S   UNL A   1      46.988  25.800  25.334  1.00  0.00     0.192 S 
ATOM     14  O   UNL A   1      47.288  26.109  23.946  1.00  0.00    -0.223 OA
ATOM     15  O   UNL A   1      48.072  25.828  26.302  1.00  0.00    -0.223 OA
BRANCH  13  16
ATOM     16  C   UNL A   1      45.757  26.936  25.890  1.00  0.00     0.199 C 
ATOM     17  C   UNL A   1      44.300  26.596  25.644  1.00  0.00     0.036 C 
BRANCH  16  18
ATOM     18  C   UNL A   1      46.039  27.581  27.225  1.00  0.00     0.239 C 
ATOM     19  N   UNL A   1      45.957  28.906  27.489  1.00  0.00    -0.344 N 
ATOM     20  H   UNL A   1      46.347  29.148  28.360  1.00  0.00     0.164 HD
ATOM     21  O   UNL A   1      46.491  26.892  28.149  1.00  0.00    -0.274 OA
BRANCH  19  22
ATOM     22  C   UNL A   1      45.423  30.040  26.777  1.00  0.00     0.206 C 
BRANCH  22  23
ATOM     23  C   UNL A   1      43.963  30.021  26.898  1.00  0.00    -0.085 C 
ATOM     24  C   UNL A   1      42.767  29.994  26.963  1.00  0.00     0.006 C 
ENDBRANCH  22  23
ENDBRANCH  19  22
ENDBRANCH  16  18
ENDBRANCH  13  16
ENDBRANCH   7  13
ENDBRANCH   3   6
ENDBRANCH   1   2
BRANCH   1  25
ATOM     25  C   UNL A   1      42.446  20.258  26.266  1.00  0.00     0.023 C 
BRANCH  25  26
ATOM     26  C   UNL A   1      41.621  21.530  26.085  1.00  0.00     0.023 C 
BRANCH  26  27
ATOM     27  C   UNL A   1      40.252  21.500  26.747  1.00  0.00     0.116 C 
BRANCH  27  28
ATOM     28  N   UNL A   1      39.191  22.016  25.892  1.00  0.00    -0.352 N 
ATOM     29  C   UNL A   1      38.699  23.301  25.839  1.00  0.00     0.251 C 
ATOM     30  H   UNL A   1      38.776  21.368  25.277  1.00  0.00     0.163 HD
ATOM     31  O   UNL A   1      37.717  23.570  25.158  1.00  0.00    -0.269 OA
BRANCH  29  32
ATOM     32  C   UNL A   1      39.366  24.336  26.654  1.00  0.00     0.039 A 
ATOM     33  C   UNL A   1      40.244  25.232  26.042  1.00  0.00     0.014 A 
ATOM     34  C   UNL A   1      39.028  24.474  28.003  1.00  0.00     0.014 A 
ATOM     35  C   UNL A   1      40.726  26.322  26.770  1.00  0.00     0.010 A 
ATOM     36  C   UNL A   1      39.436  25.605  28.694  1.00  0.00     0.010 A 
ATOM     37  C   UNL A   1      40.293  26.540  28.087  1.00  0.00    -0.014 A 
BRANCH  37  38
ATOM     38  C   UNL A   1      40.728  27.716  28.882  1.00  0.00     0.031 A 
ATOM     39  C   UNL A   1      42.056  27.671  29.588  1.00  0.00     0.074 A 
ATOM     40  C   UNL A   1      39.903  28.768  29.053  1.00  0.00     0.049 A 
ATOM     41  N   UNL A   1      42.558  28.507  30.457  1.00  0.00    -0.248 NA
ATOM     42  C   UNL A   1      42.918  26.511  29.302  1.00  0.00     0.031 C 
ATOM     43  C   UNL A   1      38.585  28.927  28.436  1.00  0.00     0.029 A 
ATOM     44  N   UNL A   1      40.047  29.901  29.817  1.00  0.00    -0.354 N 
ATOM     45  C   UNL A   1      43.778  27.962  30.841  1.00  0.00     0.074 A 
ATOM     46  C   UNL A   1      43.914  26.697  30.155  1.00  0.00     0.031 C 
ATOM     47  C   UNL A   1      38.050  30.093  28.832  1.00  0.00     0.029 A 
ATOM     48  C   UNL A   1      38.958  30.740  29.776  1.00  0.00     0.049 A 
ATOM     49  H   UNL A   1      40.855  30.094  30.346  1.00  0.00     0.167 HD
ATOM     50  C   UNL A   1      44.709  28.477  31.678  1.00  0.00     0.031 A 
ATOM     51  C   UNL A   1      38.707  31.887  30.438  1.00  0.00     0.031 A 
ATOM     52  C   UNL A   1      44.569  29.738  32.352  1.00  0.00     0.049 A 
ATOM     53  C   UNL A   1      39.739  32.420  31.399  1.00  0.00     0.074 A 
ATOM     54  C   UNL A   1      45.475  30.370  33.185  1.00  0.00     0.029 A 
ATOM     55  N   UNL A   1      43.454  30.559  32.274  1.00  0.00    -0.354 N 
ATOM     56  N   UNL A   1      40.906  31.913  31.717  1.00  0.00    -0.248 NA
ATOM     57  C   UNL A   1      39.426  33.682  32.084  1.00  0.00     0.031 C 
ATOM     58  C   UNL A   1      44.879  31.538  33.667  1.00  0.00     0.029 A 
ATOM     59  C   UNL A   1      43.639  31.679  33.065  1.00  0.00     0.049 A 
ATOM     60  H   UNL A   1      42.651  30.372  31.735  1.00  0.00     0.167 HD
ATOM     61  C   UNL A   1      41.485  32.819  32.599  1.00  0.00     0.074 A 
ATOM     62  C   UNL A   1      40.540  33.901  32.769  1.00  0.00     0.031 C 
ATOM     63  C   UNL A   1      42.697  32.761  33.205  1.00  0.00     0.031 A 
BRANCH  50  64
ATOM     64  C   UNL A   1      45.953  27.663  31.923  1.00  0.00    -0.014 A 
ATOM     65  C   UNL A   1      47.162  27.957  31.265  1.00  0.00     0.010 A 
ATOM     66  C   UNL A   1      45.923  26.610  32.856  1.00  0.00     0.010 A 
ATOM     67  C   UNL A   1      48.301  27.184  31.500  1.00  0.00     0.020 A 
ATOM     68  C   UNL A   1      47.070  25.858  33.121  1.00  0.00     0.020 A 
ATOM     69  C   UNL A   1      48.248  26.140  32.427  1.00  0.00     0.054 A 
BRANCH  69  70
ATOM     70  S   UNL A   1      49.750  25.170  32.726  1.00  0.00     0.124 S 
ATOM     71  O   UNL A   1      50.642  26.169  33.310  1.00  0.00    -0.237 OA
ATOM     72  O   UNL A   1      49.283  24.133  33.642  1.00  0.00    -0.237 OA
ATOM     73  O   UNL A   1      50.131  24.700  31.397  1.00  0.00    -0.744 OA
ENDBRANCH  69  70
ENDBRANCH  50  64
BRANCH  51  74
ATOM     74  C   UNL A   1      37.424  32.614  30.217  1.00  0.00    -0.014 A 
ATOM     75  C   UNL A   1      37.326  33.605  29.224  1.00  0.00     0.010 A 
ATOM     76  C   UNL A   1      36.290  32.316  30.996  1.00  0.00     0.010 A 
ATOM     77  C   UNL A   1      36.126  34.297  29.027  1.00  0.00     0.020 A 
ATOM     78  C   UNL A   1      35.080  32.983  30.780  1.00  0.00     0.020 A 
ATOM     79  C   UNL A   1      35.009  33.979  29.805  1.00  0.00     0.054 A 
BRANCH  79  80
ATOM     80  S   UNL A   1      33.452  34.858  29.497  1.00  0.00     0.124 S 
ATOM     81  O   UNL A   1      32.713  33.893  28.689  1.00  0.00    -0.237 OA
ATOM     82  O   UNL A   1      32.944  35.075  30.848  1.00  0.00    -0.237 OA
ATOM     83  O   UNL A   1      33.875  36.068  28.797  1.00  0.00    -0.744 OA
ENDBRANCH  79  80
ENDBRANCH  51  74
BRANCH  63  84
ATOM     84  C   UNL A   1      43.124  33.932  34.053  1.00  0.00    -0.014 A 
ATOM     85  C   UNL A   1      43.519  35.154  33.485  1.00  0.00     0.010 A 
ATOM     86  C   UNL A   1      43.015  33.830  35.454  1.00  0.00     0.010 A 
ATOM     87  C   UNL A   1      43.804  36.252  34.303  1.00  0.00     0.020 A 
ATOM     88  C   UNL A   1      43.268  34.932  36.272  1.00  0.00     0.020 A 
ATOM     89  C   UNL A   1      43.665  36.137  35.691  1.00  0.00     0.054 A 
BRANCH  89  90
ATOM     90  S   UNL A   1      43.951  37.602  36.721  1.00  0.00     0.124 S 
ATOM     91  O   UNL A   1      42.816  37.556  37.639  1.00  0.00    -0.237 OA
ATOM     92  O   UNL A   1      45.255  37.321  37.318  1.00  0.00    -0.237 OA
ATOM     93  O   UNL A   1      43.934  38.707  35.765  1.00  0.00    -0.744 OA
ENDBRANCH  89  90
ENDBRANCH  63  84
ENDBRANCH  37  38
ENDBRANCH  29  32
ENDBRANCH  27  28
ENDBRANCH  26  27
ENDBRANCH  25  26
ENDBRANCH   1  25
TORSDOF 19
ENDMDL
MODEL 3
REMARK VINA RESULT:     -10.5      6.067      8.673
REMARK SMILES C#CCNC(=O)[C@H](C)S(=O)(=O)c1ccc(C(=O)NCCCCNC(=O)c2ccc(-c3c4nc(c(-c5ccc(S(=O)(=O)[O-])cc5)c5ccc([nH]5)c(-c5ccc(S(=O)(=O)[O-])cc5)c5nc(c(-c6ccc(S(=O)(=O)[O-])cc6)c6ccc3[nH]6)C=C5)C=C4)cc2)cc1F
REMARK SMILES IDX 19 1 18 2 16 3 17 4 15 6 12 7 13 8 87 9 14 10 86 11 88 12
REMARK SMILES IDX 9 13 10 14 11 15 7 16 8 17 5 18 4 19 6 21 3 22 2 23 1 24
REMARK SMILES IDX 20 25 21 26 22 27 23 28 24 29 25 31 26 32 27 33 85 34 28 35
REMARK SMILES IDX 84 36 29 37 30 38 31 39 78 40 32 41 83 42 77 43 79 44 33 45
REMARK SMILES IDX 82 46 76 47 75 48 34 50 64 51 45 52 63 53 46 54 49 55 62 56
REMARK SMILES IDX 80 57 47 58 48 59 61 61 81 62 50 63 35 64 36 65 44 66 37 67
REMARK SMILES IDX 43 68 38 69 39 70 40 71 41 72 42 73 65 74 66 75 74 76 67 77
REMARK SMILES IDX 73 78 68 79 69 80 70 81 71 82 72 83 51 84 52 85 60 86 53 87
REMARK SMILES IDX 59 88 54 89 55 90 56 91 57 92 58 93
REMARK H PARENT 18 5 4 20 23 30 79 49 49 60
REMARK Flexibility Score: inf
ROOT
ATOM      1  C   UNL A   1      39.321  21.833  26.172  1.00  0.00     0.116 C 
ENDROOT
BRANCH   1   2
ATOM      2  N   UNL A   1      39.112  23.166  26.708  1.00  0.00    -0.352 N 
ATOM      3  C   UNL A   1      38.094  24.071  26.546  1.00  0.00     0.251 C 
ATOM      4  O   UNL A   1      38.143  25.125  27.178  1.00  0.00    -0.269 OA
ATOM      5  H   UNL A   1      39.836  23.478  27.298  1.00  0.00     0.163 HD
BRANCH   3   6
ATOM      6  C   UNL A   1      36.889  23.784  25.723  1.00  0.00     0.042 A 
ATOM      7  C   UNL A   1      34.729  23.681  23.942  1.00  0.00     0.103 A 
ATOM      8  C   UNL A   1      36.023  23.441  23.474  1.00  0.00     0.024 A 
ATOM      9  C   UNL A   1      34.508  23.775  25.306  1.00  0.00     0.142 A 
ATOM     10  C   UNL A   1      37.098  23.484  24.368  1.00  0.00     0.015 A 
ATOM     11  C   UNL A   1      35.579  23.832  26.197  1.00  0.00     0.054 A 
ATOM     12  F   UNL A   1      33.274  23.883  25.806  1.00  0.00    -0.206 F 
BRANCH   7  13
ATOM     13  S   UNL A   1      33.387  23.807  22.805  1.00  0.00     0.192 S 
ATOM     14  O   UNL A   1      33.891  23.280  21.548  1.00  0.00    -0.223 OA
ATOM     15  O   UNL A   1      32.954  25.194  22.852  1.00  0.00    -0.223 OA
BRANCH  13  16
ATOM     16  C   UNL A   1      32.016  22.812  23.301  1.00  0.00     0.199 C 
ATOM     17  C   UNL A   1      30.626  23.412  23.225  1.00  0.00     0.036 C 
BRANCH  16  18
ATOM     18  C   UNL A   1      32.100  21.360  22.897  1.00  0.00     0.239 C 
ATOM     19  N   UNL A   1      32.647  20.370  23.640  1.00  0.00    -0.344 N 
ATOM     20  H   UNL A   1      32.765  19.533  23.135  1.00  0.00     0.164 HD
ATOM     21  O   UNL A   1      31.753  21.026  21.757  1.00  0.00    -0.274 OA
BRANCH  19  22
ATOM     22  C   UNL A   1      33.092  20.269  25.007  1.00  0.00     0.206 C 
BRANCH  22  23
ATOM     23  C   UNL A   1      34.556  20.193  25.017  1.00  0.00    -0.085 C 
ATOM     24  C   UNL A   1      35.749  20.095  25.018  1.00  0.00     0.006 C 
ENDBRANCH  22  23
ENDBRANCH  19  22
ENDBRANCH  16  18
ENDBRANCH  13  16
ENDBRANCH   7  13
ENDBRANCH   3   6
ENDBRANCH   1   2
BRANCH   1  25
ATOM     25  C   UNL A   1      40.770  21.385  26.371  1.00  0.00     0.023 C 
BRANCH  25  26
ATOM     26  C   UNL A   1      41.426  21.925  27.641  1.00  0.00     0.023 C 
BRANCH  26  27
ATOM     27  C   UNL A   1      42.592  22.870  27.401  1.00  0.00     0.116 C 
BRANCH  27  28
ATOM     28  N   UNL A   1      42.398  23.737  26.245  1.00  0.00    -0.352 N 
ATOM     29  C   UNL A   1      42.078  25.077  26.240  1.00  0.00     0.251 C 
ATOM     30  H   UNL A   1      42.509  23.314  25.363  1.00  0.00     0.163 HD
ATOM     31  O   UNL A   1      41.823  25.656  25.191  1.00  0.00    -0.269 OA
BRANCH  29  32
ATOM     32  C   UNL A   1      42.017  25.784  27.534  1.00  0.00     0.039 A 
ATOM     33  C   UNL A   1      42.987  26.740  27.841  1.00  0.00     0.014 A 
ATOM     34  C   UNL A   1      40.931  25.568  28.386  1.00  0.00     0.014 A 
ATOM     35  C   UNL A   1      42.824  27.540  28.975  1.00  0.00     0.010 A 
ATOM     36  C   UNL A   1      40.727  26.423  29.458  1.00  0.00     0.010 A 
ATOM     37  C   UNL A   1      41.672  27.416  29.767  1.00  0.00    -0.014 A 
BRANCH  37  38
ATOM     38  C   UNL A   1      41.424  28.284  30.946  1.00  0.00     0.031 A 
ATOM     39  C   UNL A   1      40.309  29.292  30.890  1.00  0.00     0.074 A 
ATOM     40  C   UNL A   1      42.249  28.242  32.011  1.00  0.00     0.049 A 
ATOM     41  N   UNL A   1      40.019  30.251  31.729  1.00  0.00    -0.248 NA
ATOM     42  C   UNL A   1      39.422  29.232  29.715  1.00  0.00     0.031 C 
ATOM     43  C   UNL A   1      43.375  27.321  32.181  1.00  0.00     0.029 A 
ATOM     44  N   UNL A   1      42.276  29.010  33.150  1.00  0.00    -0.354 N 
ATOM     45  C   UNL A   1      38.939  30.924  31.171  1.00  0.00     0.074 A 
ATOM     46  C   UNL A   1      38.660  30.300  29.897  1.00  0.00     0.031 C 
ATOM     47  C   UNL A   1      43.971  27.567  33.359  1.00  0.00     0.029 A 
ATOM     48  C   UNL A   1      43.310  28.699  34.004  1.00  0.00     0.049 A 
ATOM     49  H   UNL A   1      41.618  29.718  33.338  1.00  0.00     0.167 HD
ATOM     50  C   UNL A   1      38.230  31.958  31.682  1.00  0.00     0.031 A 
ATOM     51  C   UNL A   1      43.696  29.272  35.162  1.00  0.00     0.031 A 
ATOM     52  C   UNL A   1      38.509  32.569  32.952  1.00  0.00     0.049 A 
ATOM     53  C   UNL A   1      42.919  30.451  35.690  1.00  0.00     0.074 A 
ATOM     54  C   UNL A   1      37.823  33.593  33.580  1.00  0.00     0.029 A 
ATOM     55  N   UNL A   1      39.559  32.216  33.787  1.00  0.00    -0.354 N 
ATOM     56  N   UNL A   1      41.872  31.047  35.170  1.00  0.00    -0.248 NA
ATOM     57  C   UNL A   1      43.369  31.030  36.964  1.00  0.00     0.031 C 
ATOM     58  C   UNL A   1      38.499  33.907  34.762  1.00  0.00     0.029 A 
ATOM     59  C   UNL A   1      39.553  33.020  34.914  1.00  0.00     0.049 A 
ATOM     60  H   UNL A   1      40.210  31.500  33.606  1.00  0.00     0.167 HD
ATOM     61  C   UNL A   1      41.510  32.037  36.078  1.00  0.00     0.074 A 
ATOM     62  C   UNL A   1      42.451  31.964  37.175  1.00  0.00     0.031 C 
ATOM     63  C   UNL A   1      40.484  32.919  36.010  1.00  0.00     0.031 A 
BRANCH  50  64
ATOM     64  C   UNL A   1      37.096  32.504  30.853  1.00  0.00    -0.014 A 
ATOM     65  C   UNL A   1      37.322  33.449  29.835  1.00  0.00     0.010 A 
ATOM     66  C   UNL A   1      35.787  32.036  31.071  1.00  0.00     0.010 A 
ATOM     67  C   UNL A   1      36.256  33.949  29.085  1.00  0.00     0.020 A 
ATOM     68  C   UNL A   1      34.723  32.506  30.297  1.00  0.00     0.020 A 
ATOM     69  C   UNL A   1      34.962  33.473  29.321  1.00  0.00     0.054 A 
BRANCH  69  70
ATOM     70  S   UNL A   1      33.603  34.125  28.314  1.00  0.00     0.124 S 
ATOM     71  O   UNL A   1      32.743  34.734  29.327  1.00  0.00    -0.237 OA
ATOM     72  O   UNL A   1      34.286  35.062  27.425  1.00  0.00    -0.237 OA
ATOM     73  O   UNL A   1      33.052  32.940  27.663  1.00  0.00    -0.744 OA
ENDBRANCH  69  70
ENDBRANCH  50  64
BRANCH  51  74
ATOM     74  C   UNL A   1      44.874  28.741  35.904  1.00  0.00    -0.014 A 
ATOM     75  C   UNL A   1      44.716  27.722  36.861  1.00  0.00     0.010 A 
ATOM     76  C   UNL A   1      46.164  29.246  35.654  1.00  0.00     0.010 A 
ATOM     77  C   UNL A   1      45.821  27.235  37.568  1.00  0.00     0.020 A 
ATOM     78  C   UNL A   1      47.275  28.738  36.335  1.00  0.00     0.020 A 
ATOM     79  C   UNL A   1      47.094  27.744  37.297  1.00  0.00     0.054 A 
BRANCH  79  80
ATOM     80  S   UNL A   1      48.516  27.060  38.194  1.00  0.00     0.124 S 
ATOM     81  O   UNL A   1      49.637  27.714  37.527  1.00  0.00    -0.237 OA
ATOM     82  O   UNL A   1      48.256  27.489  39.565  1.00  0.00    -0.237 OA
ATOM     83  O   UNL A   1      48.404  25.622  37.966  1.00  0.00    -0.744 OA
ENDBRANCH  79  80
ENDBRANCH  51  74
BRANCH  63  84
ATOM     84  C   UNL A   1      40.257  33.837  37.184  1.00  0.00    -0.014 A 
ATOM     85  C   UNL A   1      40.985  35.028  37.346  1.00  0.00     0.010 A 
ATOM     86  C   UNL A   1      39.208  33.548  38.079  1.00  0.00     0.010 A 
ATOM     87  C   UNL A   1      40.673  35.908  38.386  1.00  0.00     0.020 A 
ATOM     88  C   UNL A   1      38.873  34.440  39.099  1.00  0.00     0.020 A 
ATOM     89  C   UNL A   1      39.611  35.614  39.249  1.00  0.00     0.054 A 
BRANCH  89  90
ATOM     90  S   UNL A   1      39.169  36.818  40.531  1.00  0.00     0.124 S 
ATOM     91  O   UNL A   1      40.479  37.218  41.039  1.00  0.00    -0.237 OA
ATOM     92  O   UNL A   1      38.448  37.838  39.775  1.00  0.00    -0.237 OA
ATOM     93  O   UNL A   1      38.350  36.046  41.464  1.00  0.00    -0.744 OA
ENDBRANCH  89  90
ENDBRANCH  63  84
ENDBRANCH  37  38
ENDBRANCH  29  32
ENDBRANCH  27  28
ENDBRANCH  26  27
ENDBRANCH  25  26
ENDBRANCH   1  25
TORSDOF 19
ENDMDL
