MODEL 1
REMARK VINA RESULT:     -10.8      0.000      0.000
REMARK SMILES O=C(C[N@@H+]1C[C@@]2([N+](=O)[O-])CC=C(Cl)[C@@]([N+](=O)[O-])(C1)C2)NCCCCNC(=O)c1ccc(-c2c3nc(c(-c4ccc(S(=O)(=O)[O-])cc4)c4ccc([nH]4)c(-c4ccc(S(=O)(=O)[O-])cc4)c4nc(c(-c5ccc(S(=O)(=O)[O-])cc5)c5ccc2[nH]5)C=C4)C=C3)cc1
REMARK SMILES IDX 23 1 22 2 21 3 20 4 1 5 2 6 3 8 4 9 5 10 18 11 6 13 14 14
REMARK SMILES IDX 10 15 19 16 12 17 11 18 13 19 7 20 8 21 9 22 15 23 16 24
REMARK SMILES IDX 17 25 24 26 25 27 26 28 27 30 28 31 29 32 87 33 30 34 86 35
REMARK SMILES IDX 31 36 32 37 33 38 80 39 34 40 85 41 79 42 81 43 35 44 84 45
REMARK SMILES IDX 78 46 77 47 36 49 66 50 47 51 65 52 48 53 51 54 64 55 82 56
REMARK SMILES IDX 49 57 50 58 63 60 83 61 52 62 37 63 38 64 46 65 39 66 45 67
REMARK SMILES IDX 40 68 41 69 42 70 43 71 44 72 67 73 68 74 76 75 69 76 75 77
REMARK SMILES IDX 70 78 71 79 72 80 73 81 74 82 53 83 54 84 62 85 55 86 61 87
REMARK SMILES IDX 56 88 57 89 58 90 59 91 60 92
REMARK H PARENT 20 7 4 12 25 29 81 48 51 59
REMARK Flexibility Score: inf
ROOT
ATOM      1  C   UNL A   1      33.698  28.023  25.779  1.00  0.00     0.023 C 
ENDROOT
BRANCH   1   2
ATOM      2  C   UNL A   1      33.047  28.906  24.710  1.00  0.00     0.023 C 
BRANCH   2   3
ATOM      3  C   UNL A   1      32.353  28.151  23.577  1.00  0.00     0.116 C 
BRANCH   3   4
ATOM      4  N   UNL A   1      33.069  26.955  23.185  1.00  0.00    -0.351 N 
ATOM      5  O   UNL A   1      31.311  25.899  22.130  1.00  0.00    -0.269 OA
ATOM      6  C   UNL A   1      32.488  25.923  22.474  1.00  0.00     0.275 C 
ATOM      7  H   UNL A   1      34.017  26.873  23.439  1.00  0.00     0.163 HD
BRANCH   6   8
ATOM      8  C   UNL A   1      33.464  24.782  22.142  1.00  0.00     0.363 C 
BRANCH   8   9
ATOM      9  N   UNL A   1      33.641  23.908  23.324  1.00  0.00    -0.315 N 
ATOM     10  C   UNL A   1      35.071  23.698  23.647  1.00  0.00     0.350 C 
ATOM     11  C   UNL A   1      32.937  22.608  23.159  1.00  0.00     0.356 C 
ATOM     12  H   UNL A   1      33.214  24.394  24.111  1.00  0.00     0.348 HD
ATOM     13  C   UNL A   1      35.250  22.834  24.919  1.00  0.00     0.280 C 
ATOM     14  C   UNL A   1      33.070  21.738  24.443  1.00  0.00     0.311 C 
ATOM     15  C   UNL A   1      34.672  23.500  26.199  1.00  0.00     0.121 C 
ATOM     16  C   UNL A   1      34.571  21.472  24.709  1.00  0.00     0.191 C 
ATOM     17  C   UNL A   1      32.454  22.468  25.627  1.00  0.00     0.097 C 
ATOM     18  C   UNL A   1      33.192  23.271  26.416  1.00  0.00     0.004 C 
ATOM     19  Cl  UNL A   1      30.747  22.375  25.878  1.00  0.00    -0.081 Cl
BRANCH  13  20
ATOM     20  N   UNL A   1      36.751  22.649  25.084  1.00  0.00     0.032 N 
ATOM     21  O   UNL A   1      37.337  23.379  25.892  1.00  0.00    -0.264 OA
ATOM     22  O   UNL A   1      37.304  21.819  24.350  1.00  0.00    -0.264 OA
ENDBRANCH  13  20
BRANCH  14  23
ATOM     23  N   UNL A   1      32.402  20.384  24.236  1.00  0.00     0.038 N 
ATOM     24  O   UNL A   1      32.124  20.044  23.077  1.00  0.00    -0.263 OA
ATOM     25  O   UNL A   1      32.229  19.676  25.238  1.00  0.00    -0.263 OA
ENDBRANCH  14  23
ENDBRANCH   8   9
ENDBRANCH   6   8
ENDBRANCH   3   4
ENDBRANCH   2   3
ENDBRANCH   1   2
BRANCH   1  26
ATOM     26  C   UNL A   1      33.327  28.350  27.224  1.00  0.00     0.116 C 
BRANCH  26  27
ATOM     27  N   UNL A   1      33.278  29.778  27.495  1.00  0.00    -0.352 N 
ATOM     28  C   UNL A   1      34.243  30.606  28.020  1.00  0.00     0.251 C 
ATOM     29  H   UNL A   1      32.427  30.218  27.267  1.00  0.00     0.163 HD
ATOM     30  O   UNL A   1      33.958  31.769  28.297  1.00  0.00    -0.269 OA
BRANCH  28  31
ATOM     31  C   UNL A   1      35.611  30.099  28.284  1.00  0.00     0.039 A 
ATOM     32  C   UNL A   1      36.554  30.134  27.253  1.00  0.00     0.014 A 
ATOM     33  C   UNL A   1      35.968  29.588  29.534  1.00  0.00     0.014 A 
ATOM     34  C   UNL A   1      37.870  29.729  27.497  1.00  0.00     0.010 A 
ATOM     35  C   UNL A   1      37.298  29.257  29.797  1.00  0.00     0.010 A 
ATOM     36  C   UNL A   1      38.265  29.327  28.783  1.00  0.00    -0.014 A 
BRANCH  36  37
ATOM     37  C   UNL A   1      39.684  28.997  29.089  1.00  0.00     0.031 A 
ATOM     38  C   UNL A   1      40.596  30.031  29.698  1.00  0.00     0.074 A 
ATOM     39  C   UNL A   1      40.175  27.784  28.757  1.00  0.00     0.049 A 
ATOM     40  N   UNL A   1      41.871  29.943  29.978  1.00  0.00    -0.248 NA
ATOM     41  C   UNL A   1      40.003  31.340  30.011  1.00  0.00     0.031 C 
ATOM     42  C   UNL A   1      39.410  26.703  28.131  1.00  0.00     0.029 A 
ATOM     43  N   UNL A   1      41.436  27.257  28.896  1.00  0.00    -0.354 N 
ATOM     44  C   UNL A   1      42.237  31.186  30.483  1.00  0.00     0.074 A 
ATOM     45  C   UNL A   1      41.059  32.025  30.426  1.00  0.00     0.031 C 
ATOM     46  C   UNL A   1      40.207  25.635  27.967  1.00  0.00     0.029 A 
ATOM     47  C   UNL A   1      41.551  25.967  28.431  1.00  0.00     0.049 A 
ATOM     48  H   UNL A   1      42.187  27.756  29.291  1.00  0.00     0.167 HD
ATOM     49  C   UNL A   1      43.437  31.589  30.965  1.00  0.00     0.031 A 
ATOM     50  C   UNL A   1      42.616  25.144  28.374  1.00  0.00     0.031 A 
ATOM     51  C   UNL A   1      44.605  30.750  31.030  1.00  0.00     0.049 A 
ATOM     52  C   UNL A   1      43.945  25.623  28.894  1.00  0.00     0.074 A 
ATOM     53  C   UNL A   1      45.851  31.049  31.556  1.00  0.00     0.029 A 
ATOM     54  N   UNL A   1      44.679  29.452  30.547  1.00  0.00    -0.354 N 
ATOM     55  N   UNL A   1      44.250  26.780  29.432  1.00  0.00    -0.248 NA
ATOM     56  C   UNL A   1      45.070  24.681  28.810  1.00  0.00     0.031 C 
ATOM     57  C   UNL A   1      46.694  29.957  31.336  1.00  0.00     0.029 A 
ATOM     58  C   UNL A   1      45.957  28.949  30.736  1.00  0.00     0.049 A 
ATOM     59  H   UNL A   1      43.935  28.960  30.132  1.00  0.00     0.167 HD
ATOM     60  C   UNL A   1      45.595  26.692  29.779  1.00  0.00     0.074 A 
ATOM     61  C   UNL A   1      46.039  25.365  29.404  1.00  0.00     0.031 C 
ATOM     62  C   UNL A   1      46.389  27.626  30.359  1.00  0.00     0.031 A 
BRANCH  49  63
ATOM     63  C   UNL A   1      43.555  33.010  31.453  1.00  0.00    -0.014 A 
ATOM     64  C   UNL A   1      43.226  33.358  32.777  1.00  0.00     0.010 A 
ATOM     65  C   UNL A   1      44.052  34.005  30.592  1.00  0.00     0.010 A 
ATOM     66  C   UNL A   1      43.350  34.678  33.215  1.00  0.00     0.020 A 
ATOM     67  C   UNL A   1      44.209  35.322  31.035  1.00  0.00     0.020 A 
ATOM     68  C   UNL A   1      43.840  35.653  32.340  1.00  0.00     0.054 A 
BRANCH  68  69
ATOM     69  S   UNL A   1      44.013  37.355  32.944  1.00  0.00     0.124 S 
ATOM     70  O   UNL A   1      45.343  37.326  33.549  1.00  0.00    -0.237 OA
ATOM     71  O   UNL A   1      43.898  38.142  31.719  1.00  0.00    -0.237 OA
ATOM     72  O   UNL A   1      42.905  37.504  33.884  1.00  0.00    -0.744 OA
ENDBRANCH  68  69
ENDBRANCH  49  63
BRANCH  50  73
ATOM     73  C   UNL A   1      42.471  23.772  27.811  1.00  0.00    -0.014 A 
ATOM     74  C   UNL A   1      42.088  22.699  28.636  1.00  0.00     0.010 A 
ATOM     75  C   UNL A   1      42.712  23.531  26.446  1.00  0.00     0.010 A 
ATOM     76  C   UNL A   1      41.971  21.408  28.111  1.00  0.00     0.020 A 
ATOM     77  C   UNL A   1      42.565  22.247  25.911  1.00  0.00     0.020 A 
ATOM     78  C   UNL A   1      42.207  21.192  26.750  1.00  0.00     0.054 A 
BRANCH  78  79
ATOM     79  S   UNL A   1      42.003  19.517  26.083  1.00  0.00     0.124 S 
ATOM     80  O   UNL A   1      42.435  18.689  27.204  1.00  0.00    -0.237 OA
ATOM     81  O   UNL A   1      40.575  19.473  25.776  1.00  0.00    -0.237 OA
ATOM     82  O   UNL A   1      42.884  19.504  24.917  1.00  0.00    -0.744 OA
ENDBRANCH  78  79
ENDBRANCH  50  73
BRANCH  62  83
ATOM     83  C   UNL A   1      47.812  27.239  30.665  1.00  0.00    -0.014 A 
ATOM     84  C   UNL A   1      48.841  27.416  29.723  1.00  0.00     0.010 A 
ATOM     85  C   UNL A   1      48.133  26.738  31.942  1.00  0.00     0.010 A 
ATOM     86  C   UNL A   1      50.158  27.070  30.040  1.00  0.00     0.020 A 
ATOM     87  C   UNL A   1      49.453  26.421  32.273  1.00  0.00     0.020 A 
ATOM     88  C   UNL A   1      50.455  26.576  31.314  1.00  0.00     0.054 A 
BRANCH  88  89
ATOM     89  S   UNL A   1      52.178  26.177  31.714  1.00  0.00     0.124 S 
ATOM     90  O   UNL A   1      52.041  24.908  32.423  1.00  0.00    -0.237 OA
ATOM     91  O   UNL A   1      52.803  26.097  30.395  1.00  0.00    -0.237 OA
ATOM     92  O   UNL A   1      52.614  27.304  32.536  1.00  0.00    -0.744 OA
ENDBRANCH  88  89
ENDBRANCH  62  83
ENDBRANCH  36  37
ENDBRANCH  28  31
ENDBRANCH  26  27
ENDBRANCH   1  26
TORSDOF 17
ENDMDL
MODEL 2
REMARK VINA RESULT:     -10.7      2.646      9.196
REMARK SMILES O=C(C[N@@H+]1C[C@@]2([N+](=O)[O-])CC=C(Cl)[C@@]([N+](=O)[O-])(C1)C2)NCCCCNC(=O)c1ccc(-c2c3nc(c(-c4ccc(S(=O)(=O)[O-])cc4)c4ccc([nH]4)c(-c4ccc(S(=O)(=O)[O-])cc4)c4nc(c(-c5ccc(S(=O)(=O)[O-])cc5)c5ccc2[nH]5)C=C4)C=C3)cc1
REMARK SMILES IDX 23 1 22 2 21 3 20 4 1 5 2 6 3 8 4 9 5 10 18 11 6 13 14 14
REMARK SMILES IDX 10 15 19 16 12 17 11 18 13 19 7 20 8 21 9 22 15 23 16 24
REMARK SMILES IDX 17 25 24 26 25 27 26 28 27 30 28 31 29 32 87 33 30 34 86 35
REMARK SMILES IDX 31 36 32 37 33 38 80 39 34 40 85 41 79 42 81 43 35 44 84 45
REMARK SMILES IDX 78 46 77 47 36 49 66 50 47 51 65 52 48 53 51 54 64 55 82 56
REMARK SMILES IDX 49 57 50 58 63 60 83 61 52 62 37 63 38 64 46 65 39 66 45 67
REMARK SMILES IDX 40 68 41 69 42 70 43 71 44 72 67 73 68 74 76 75 69 76 75 77
REMARK SMILES IDX 70 78 71 79 72 80 73 81 74 82 53 83 54 84 62 85 55 86 61 87
REMARK SMILES IDX 56 88 57 89 58 90 59 91 60 92
REMARK H PARENT 20 7 4 12 25 29 81 48 51 59
REMARK Flexibility Score: inf
ROOT
ATOM      1  C   UNL A   1      35.964  24.069  25.981  1.00  0.00     0.023 C 
ENDROOT
BRANCH   1   2
ATOM      2  C   UNL A   1      35.141  22.911  26.553  1.00  0.00     0.023 C 
BRANCH   2   3
ATOM      3  C   UNL A   1      34.081  22.340  25.611  1.00  0.00     0.116 C 
BRANCH   3   4
ATOM      4  N   UNL A   1      32.889  23.159  25.554  1.00  0.00    -0.351 N 
ATOM      5  O   UNL A   1      32.188  22.798  27.722  1.00  0.00    -0.269 OA
ATOM      6  C   UNL A   1      32.039  23.336  26.629  1.00  0.00     0.275 C 
ATOM      7  H   UNL A   1      32.672  23.612  24.708  1.00  0.00     0.163 HD
BRANCH   6   8
ATOM      8  C   UNL A   1      30.865  24.283  26.333  1.00  0.00     0.363 C 
BRANCH   8   9
ATOM      9  N   UNL A   1      31.348  25.478  25.606  1.00  0.00    -0.315 N 
ATOM     10  C   UNL A   1      31.868  26.514  26.530  1.00  0.00     0.350 C 
ATOM     11  C   UNL A   1      30.303  26.041  24.710  1.00  0.00     0.356 C 
ATOM     12  H   UNL A   1      32.124  25.168  25.021  1.00  0.00     0.348 HD
ATOM     13  C   UNL A   1      32.429  27.735  25.762  1.00  0.00     0.280 C 
ATOM     14  C   UNL A   1      30.857  27.247  23.899  1.00  0.00     0.311 C 
ATOM     15  C   UNL A   1      33.651  27.389  24.866  1.00  0.00     0.121 C 
ATOM     16  C   UNL A   1      31.319  28.342  24.889  1.00  0.00     0.191 C 
ATOM     17  C   UNL A   1      32.029  26.797  23.040  1.00  0.00     0.097 C 
ATOM     18  C   UNL A   1      33.295  26.860  23.492  1.00  0.00     0.004 C 
ATOM     19  Cl  UNL A   1      31.716  26.057  21.510  1.00  0.00    -0.081 Cl
BRANCH  13  20
ATOM     20  N   UNL A   1      32.857  28.731  26.829  1.00  0.00     0.032 N 
ATOM     21  O   UNL A   1      34.065  28.826  27.080  1.00  0.00    -0.264 OA
ATOM     22  O   UNL A   1      31.961  29.342  27.427  1.00  0.00    -0.264 OA
ENDBRANCH  13  20
BRANCH  14  23
ATOM     23  N   UNL A   1      29.758  27.855  23.036  1.00  0.00     0.038 N 
ATOM     24  O   UNL A   1      30.091  28.645  22.141  1.00  0.00    -0.263 OA
ATOM     25  O   UNL A   1      28.596  27.476  23.245  1.00  0.00    -0.263 OA
ENDBRANCH  14  23
ENDBRANCH   8   9
ENDBRANCH   6   8
ENDBRANCH   3   4
ENDBRANCH   2   3
ENDBRANCH   1   2
BRANCH   1  26
ATOM     26  C   UNL A   1      37.023  23.686  24.950  1.00  0.00     0.116 C 
BRANCH  26  27
ATOM     27  N   UNL A   1      37.971  22.698  25.442  1.00  0.00    -0.352 N 
ATOM     28  C   UNL A   1      39.079  22.866  26.240  1.00  0.00     0.251 C 
ATOM     29  H   UNL A   1      37.792  21.771  25.162  1.00  0.00     0.163 HD
ATOM     30  O   UNL A   1      39.833  21.915  26.436  1.00  0.00    -0.269 OA
BRANCH  28  31
ATOM     31  C   UNL A   1      39.388  24.187  26.836  1.00  0.00     0.039 A 
ATOM     32  C   UNL A   1      38.964  24.454  28.141  1.00  0.00     0.014 A 
ATOM     33  C   UNL A   1      40.086  25.163  26.120  1.00  0.00     0.014 A 
ATOM     34  C   UNL A   1      39.304  25.665  28.751  1.00  0.00     0.010 A 
ATOM     35  C   UNL A   1      40.490  26.338  26.755  1.00  0.00     0.010 A 
ATOM     36  C   UNL A   1      40.108  26.601  28.079  1.00  0.00    -0.014 A 
BRANCH  36  37
ATOM     37  C   UNL A   1      40.572  27.847  28.750  1.00  0.00     0.031 A 
ATOM     38  C   UNL A   1      41.954  27.926  29.343  1.00  0.00     0.074 A 
ATOM     39  C   UNL A   1      39.724  28.888  28.886  1.00  0.00     0.049 A 
ATOM     40  N   UNL A   1      42.509  28.904  30.014  1.00  0.00    -0.248 NA
ATOM     41  C   UNL A   1      42.818  26.746  29.180  1.00  0.00     0.031 C 
ATOM     42  C   UNL A   1      38.346  28.930  28.390  1.00  0.00     0.029 A 
ATOM     43  N   UNL A   1      39.893  30.112  29.488  1.00  0.00    -0.354 N 
ATOM     44  C   UNL A   1      43.776  28.452  30.368  1.00  0.00     0.074 A 
ATOM     45  C   UNL A   1      43.889  27.095  29.878  1.00  0.00     0.031 C 
ATOM     46  C   UNL A   1      37.809  30.125  28.680  1.00  0.00     0.029 A 
ATOM     47  C   UNL A   1      38.782  30.919  29.424  1.00  0.00     0.049 A 
ATOM     48  H   UNL A   1      40.733  30.385  29.924  1.00  0.00     0.167 HD
ATOM     49  C   UNL A   1      44.760  29.110  31.025  1.00  0.00     0.031 A 
ATOM     50  C   UNL A   1      38.562  32.155  29.915  1.00  0.00     0.031 A 
ATOM     51  C   UNL A   1      44.649  30.464  31.504  1.00  0.00     0.049 A 
ATOM     52  C   UNL A   1      39.664  32.856  30.663  1.00  0.00     0.074 A 
ATOM     53  C   UNL A   1      45.613  31.237  32.129  1.00  0.00     0.029 A 
ATOM     54  N   UNL A   1      43.506  31.245  31.420  1.00  0.00    -0.354 N 
ATOM     55  N   UNL A   1      40.879  32.436  30.924  1.00  0.00    -0.248 NA
ATOM     56  C   UNL A   1      39.369  34.203  31.171  1.00  0.00     0.031 C 
ATOM     57  C   UNL A   1      45.035  32.460  32.478  1.00  0.00     0.029 A 
ATOM     58  C   UNL A   1      43.732  32.478  32.009  1.00  0.00     0.049 A 
ATOM     59  H   UNL A   1      42.660  30.964  31.003  1.00  0.00     0.167 HD
ATOM     60  C   UNL A   1      41.503  33.480  31.600  1.00  0.00     0.074 A 
ATOM     61  C   UNL A   1      40.536  34.555  31.693  1.00  0.00     0.031 C 
ATOM     62  C   UNL A   1      42.763  33.542  32.096  1.00  0.00     0.031 A 
BRANCH  49  63
ATOM     63  C   UNL A   1      46.049  28.370  31.280  1.00  0.00    -0.014 A 
ATOM     64  C   UNL A   1      47.127  28.449  30.379  1.00  0.00     0.010 A 
ATOM     65  C   UNL A   1      46.205  27.627  32.464  1.00  0.00     0.010 A 
ATOM     66  C   UNL A   1      48.317  27.764  30.635  1.00  0.00     0.020 A 
ATOM     67  C   UNL A   1      47.405  26.966  32.741  1.00  0.00     0.020 A 
ATOM     68  C   UNL A   1      48.448  27.026  31.816  1.00  0.00     0.054 A 
BRANCH  68  69
ATOM     69  S   UNL A   1      50.014  26.166  32.133  1.00  0.00     0.124 S 
ATOM     70  O   UNL A   1      49.704  24.806  31.700  1.00  0.00    -0.237 OA
ATOM     71  O   UNL A   1      50.955  26.896  31.286  1.00  0.00    -0.237 OA
ATOM     72  O   UNL A   1      50.216  26.331  33.570  1.00  0.00    -0.744 OA
ENDBRANCH  68  69
ENDBRANCH  49  63
BRANCH  50  73
ATOM     73  C   UNL A   1      37.245  32.818  29.705  1.00  0.00    -0.014 A 
ATOM     74  C   UNL A   1      36.995  33.557  28.535  1.00  0.00     0.010 A 
ATOM     75  C   UNL A   1      36.231  32.713  30.675  1.00  0.00     0.010 A 
ATOM     76  C   UNL A   1      35.765  34.195  28.348  1.00  0.00     0.020 A 
ATOM     77  C   UNL A   1      34.988  33.324  30.477  1.00  0.00     0.020 A 
ATOM     78  C   UNL A   1      34.768  34.072  29.320  1.00  0.00     0.054 A 
BRANCH  78  79
ATOM     79  S   UNL A   1      33.164  34.870  29.034  1.00  0.00     0.124 S 
ATOM     80  O   UNL A   1      32.558  34.818  30.361  1.00  0.00    -0.237 OA
ATOM     81  O   UNL A   1      33.553  36.198  28.566  1.00  0.00    -0.237 OA
ATOM     82  O   UNL A   1      32.535  34.021  28.024  1.00  0.00    -0.744 OA
ENDBRANCH  78  79
ENDBRANCH  50  73
BRANCH  62  83
ATOM     83  C   UNL A   1      43.192  34.830  32.750  1.00  0.00    -0.014 A 
ATOM     84  C   UNL A   1      43.014  35.049  34.128  1.00  0.00     0.010 A 
ATOM     85  C   UNL A   1      43.834  35.818  31.979  1.00  0.00     0.010 A 
ATOM     86  C   UNL A   1      43.442  36.243  34.715  1.00  0.00     0.020 A 
ATOM     87  C   UNL A   1      44.292  36.998  32.568  1.00  0.00     0.020 A 
ATOM     88  C   UNL A   1      44.080  37.210  33.931  1.00  0.00     0.054 A 
BRANCH  88  89
ATOM     89  S   UNL A   1      44.665  38.731  34.726  1.00  0.00     0.124 S 
ATOM     90  O   UNL A   1      45.939  38.958  34.050  1.00  0.00    -0.237 OA
ATOM     91  O   UNL A   1      43.605  39.686  34.409  1.00  0.00    -0.237 OA
ATOM     92  O   UNL A   1      44.766  38.368  36.138  1.00  0.00    -0.744 OA
ENDBRANCH  88  89
ENDBRANCH  62  83
ENDBRANCH  36  37
ENDBRANCH  28  31
ENDBRANCH  26  27
ENDBRANCH   1  26
TORSDOF 17
ENDMDL
MODEL 3
REMARK VINA RESULT:     -10.5      3.008      3.938
REMARK SMILES O=C(C[N@@H+]1C[C@@]2([N+](=O)[O-])CC=C(Cl)[C@@]([N+](=O)[O-])(C1)C2)NCCCCNC(=O)c1ccc(-c2c3nc(c(-c4ccc(S(=O)(=O)[O-])cc4)c4ccc([nH]4)c(-c4ccc(S(=O)(=O)[O-])cc4)c4nc(c(-c5ccc(S(=O)(=O)[O-])cc5)c5ccc2[nH]5)C=C4)C=C3)cc1
REMARK SMILES IDX 23 1 22 2 21 3 20 4 1 5 2 6 3 8 4 9 5 10 18 11 6 13 14 14
REMARK SMILES IDX 10 15 19 16 12 17 11 18 13 19 7 20 8 21 9 22 15 23 16 24
REMARK SMILES IDX 17 25 24 26 25 27 26 28 27 30 28 31 29 32 87 33 30 34 86 35
REMARK SMILES IDX 31 36 32 37 33 38 80 39 34 40 85 41 79 42 81 43 35 44 84 45
REMARK SMILES IDX 78 46 77 47 36 49 66 50 47 51 65 52 48 53 51 54 64 55 82 56
REMARK SMILES IDX 49 57 50 58 63 60 83 61 52 62 37 63 38 64 46 65 39 66 45 67
REMARK SMILES IDX 40 68 41 69 42 70 43 71 44 72 67 73 68 74 76 75 69 76 75 77
REMARK SMILES IDX 70 78 71 79 72 80 73 81 74 82 53 83 54 84 62 85 55 86 61 87
REMARK SMILES IDX 56 88 57 89 58 90 59 91 60 92
REMARK H PARENT 20 7 4 12 25 29 81 48 51 59
REMARK Flexibility Score: inf
ROOT
ATOM      1  C   UNL A   1      34.416  31.297  27.814  1.00  0.00     0.023 C 
ENDROOT
BRANCH   1   2
ATOM      2  C   UNL A   1      33.362  30.383  27.181  1.00  0.00     0.023 C 
BRANCH   2   3
ATOM      3  C   UNL A   1      33.606  28.885  27.363  1.00  0.00     0.116 C 
BRANCH   3   4
ATOM      4  N   UNL A   1      32.833  28.080  26.441  1.00  0.00    -0.351 N 
ATOM      5  O   UNL A   1      31.002  27.756  27.806  1.00  0.00    -0.269 OA
ATOM      6  C   UNL A   1      31.576  27.589  26.734  1.00  0.00     0.275 C 
ATOM      7  H   UNL A   1      33.223  27.872  25.561  1.00  0.00     0.163 HD
BRANCH   6   8
ATOM      8  C   UNL A   1      30.942  26.797  25.578  1.00  0.00     0.363 C 
BRANCH   8   9
ATOM      9  N   UNL A   1      31.768  25.609  25.266  1.00  0.00    -0.315 N 
ATOM     10  C   UNL A   1      32.225  25.609  23.857  1.00  0.00     0.350 C 
ATOM     11  C   UNL A   1      31.062  24.342  25.596  1.00  0.00     0.356 C 
ATOM     12  H   UNL A   1      32.595  25.666  25.859  1.00  0.00     0.348 HD
ATOM     13  C   UNL A   1      33.140  24.397  23.552  1.00  0.00     0.280 C 
ATOM     14  C   UNL A   1      31.977  23.111  25.334  1.00  0.00     0.311 C 
ATOM     15  C   UNL A   1      34.460  24.403  24.372  1.00  0.00     0.121 C 
ATOM     16  C   UNL A   1      32.373  23.096  23.838  1.00  0.00     0.191 C 
ATOM     17  C   UNL A   1      33.224  23.202  26.200  1.00  0.00     0.097 C 
ATOM     18  C   UNL A   1      34.347  23.796  25.754  1.00  0.00     0.004 C 
ATOM     19  Cl  UNL A   1      33.153  22.657  27.839  1.00  0.00    -0.081 Cl
BRANCH  13  20
ATOM     20  N   UNL A   1      33.469  24.493  22.070  1.00  0.00     0.032 N 
ATOM     21  O   UNL A   1      33.577  25.621  21.574  1.00  0.00    -0.264 OA
ATOM     22  O   UNL A   1      33.548  23.432  21.436  1.00  0.00    -0.264 OA
ENDBRANCH  13  20
BRANCH  14  23
ATOM     23  N   UNL A   1      31.219  21.819  25.612  1.00  0.00     0.038 N 
ATOM     24  O   UNL A   1      30.110  21.903  26.160  1.00  0.00    -0.263 OA
ATOM     25  O   UNL A   1      31.733  20.762  25.220  1.00  0.00    -0.263 OA
ENDBRANCH  14  23
ENDBRANCH   8   9
ENDBRANCH   6   8
ENDBRANCH   3   4
ENDBRANCH   2   3
ENDBRANCH   1   2
BRANCH   1  26
ATOM     26  C   UNL A   1      35.635  30.592  28.406  1.00  0.00     0.116 C 
BRANCH  26  27
ATOM     27  N   UNL A   1      35.618  30.544  29.860  1.00  0.00    -0.352 N 
ATOM     28  C   UNL A   1      36.552  30.037  30.734  1.00  0.00     0.251 C 
ATOM     29  H   UNL A   1      34.817  30.934  30.282  1.00  0.00     0.163 HD
ATOM     30  O   UNL A   1      36.287  29.971  31.932  1.00  0.00    -0.269 OA
BRANCH  28  31
ATOM     31  C   UNL A   1      37.858  29.541  30.238  1.00  0.00     0.039 A 
ATOM     32  C   UNL A   1      38.204  29.769  28.903  1.00  0.00     0.014 A 
ATOM     33  C   UNL A   1      38.739  28.851  31.075  1.00  0.00     0.014 A 
ATOM     34  C   UNL A   1      39.460  29.375  28.431  1.00  0.00     0.010 A 
ATOM     35  C   UNL A   1      40.018  28.526  30.624  1.00  0.00     0.010 A 
ATOM     36  C   UNL A   1      40.396  28.788  29.298  1.00  0.00    -0.014 A 
BRANCH  36  37
ATOM     37  C   UNL A   1      41.775  28.461  28.842  1.00  0.00     0.031 A 
ATOM     38  C   UNL A   1      42.830  29.534  28.768  1.00  0.00     0.074 A 
ATOM     39  C   UNL A   1      42.063  27.209  28.429  1.00  0.00     0.049 A 
ATOM     40  N   UNL A   1      44.064  29.448  28.341  1.00  0.00    -0.248 NA
ATOM     41  C   UNL A   1      42.441  30.883  29.210  1.00  0.00     0.031 C 
ATOM     42  C   UNL A   1      41.125  26.084  28.416  1.00  0.00     0.029 A 
ATOM     43  N   UNL A   1      43.227  26.671  27.936  1.00  0.00    -0.354 N 
ATOM     44  C   UNL A   1      44.593  30.730  28.445  1.00  0.00     0.074 A 
ATOM     45  C   UNL A   1      43.531  31.584  28.931  1.00  0.00     0.031 C 
ATOM     46  C   UNL A   1      41.757  24.987  27.969  1.00  0.00     0.029 A 
ATOM     47  C   UNL A   1      43.130  25.337  27.617  1.00  0.00     0.049 A 
ATOM     48  H   UNL A   1      44.054  27.193  27.822  1.00  0.00     0.167 HD
ATOM     49  C   UNL A   1      45.851  31.156  28.178  1.00  0.00     0.031 A 
ATOM     50  C   UNL A   1      44.036  24.489  27.092  1.00  0.00     0.031 A 
ATOM     51  C   UNL A   1      46.910  30.303  27.703  1.00  0.00     0.049 A 
ATOM     52  C   UNL A   1      45.420  24.991  26.781  1.00  0.00     0.074 A 
ATOM     53  C   UNL A   1      48.233  30.629  27.460  1.00  0.00     0.029 A 
ATOM     54  N   UNL A   1      46.768  28.958  27.392  1.00  0.00    -0.354 N 
ATOM     55  N   UNL A   1      45.918  26.192  26.954  1.00  0.00    -0.248 NA
ATOM     56  C   UNL A   1      46.367  24.021  26.215  1.00  0.00     0.031 C 
ATOM     57  C   UNL A   1      48.875  29.501  26.943  1.00  0.00     0.029 A 
ATOM     58  C   UNL A   1      47.972  28.451  26.930  1.00  0.00     0.049 A 
ATOM     59  H   UNL A   1      45.936  28.442  27.485  1.00  0.00     0.167 HD
ATOM     60  C   UNL A   1      47.247  26.113  26.547  1.00  0.00     0.074 A 
ATOM     61  C   UNL A   1      47.476  24.743  26.134  1.00  0.00     0.031 C 
ATOM     62  C   UNL A   1      48.190  27.086  26.521  1.00  0.00     0.031 A 
BRANCH  49  63
ATOM     63  C   UNL A   1      46.154  32.618  28.380  1.00  0.00    -0.014 A 
ATOM     64  C   UNL A   1      46.691  33.093  29.591  1.00  0.00     0.010 A 
ATOM     65  C   UNL A   1      45.948  33.526  27.325  1.00  0.00     0.010 A 
ATOM     66  C   UNL A   1      46.975  34.450  29.758  1.00  0.00     0.020 A 
ATOM     67  C   UNL A   1      46.261  34.881  27.476  1.00  0.00     0.020 A 
ATOM     68  C   UNL A   1      46.756  35.336  28.698  1.00  0.00     0.054 A 
BRANCH  68  69
ATOM     69  S   UNL A   1      47.156  37.090  28.936  1.00  0.00     0.124 S 
ATOM     70  O   UNL A   1      46.328  37.728  27.916  1.00  0.00    -0.237 OA
ATOM     71  O   UNL A   1      46.744  37.326  30.318  1.00  0.00    -0.237 OA
ATOM     72  O   UNL A   1      48.595  37.154  28.699  1.00  0.00    -0.744 OA
ENDBRANCH  68  69
ENDBRANCH  49  63
BRANCH  50  73
ATOM     73  C   UNL A   1      43.668  23.067  26.837  1.00  0.00    -0.014 A 
ATOM     74  C   UNL A   1      42.936  22.337  27.789  1.00  0.00     0.010 A 
ATOM     75  C   UNL A   1      44.048  22.437  25.638  1.00  0.00     0.010 A 
ATOM     76  C   UNL A   1      42.609  20.997  27.557  1.00  0.00     0.020 A 
ATOM     77  C   UNL A   1      43.695  21.107  25.388  1.00  0.00     0.020 A 
ATOM     78  C   UNL A   1      42.988  20.392  26.356  1.00  0.00     0.054 A 
BRANCH  78  79
ATOM     79  S   UNL A   1      42.511  18.667  26.057  1.00  0.00     0.124 S 
ATOM     80  O   UNL A   1      42.802  18.044  27.344  1.00  0.00    -0.237 OA
ATOM     81  O   UNL A   1      41.095  18.786  25.716  1.00  0.00    -0.237 OA
ATOM     82  O   UNL A   1      43.378  18.259  24.953  1.00  0.00    -0.744 OA
ENDBRANCH  78  79
ENDBRANCH  50  73
BRANCH  62  83
ATOM     83  C   UNL A   1      49.575  26.702  26.069  1.00  0.00    -0.014 A 
ATOM     84  C   UNL A   1      50.040  27.014  24.779  1.00  0.00     0.010 A 
ATOM     85  C   UNL A   1      50.446  26.064  26.974  1.00  0.00     0.010 A 
ATOM     86  C   UNL A   1      51.338  26.667  24.392  1.00  0.00     0.020 A 
ATOM     87  C   UNL A   1      51.754  25.745  26.601  1.00  0.00     0.020 A 
ATOM     88  C   UNL A   1      52.187  26.036  25.307  1.00  0.00     0.054 A 
BRANCH  88  89
ATOM     89  S   UNL A   1      53.880  25.637  24.793  1.00  0.00     0.124 S 
ATOM     90  O   UNL A   1      53.903  26.121  23.416  1.00  0.00    -0.237 OA
ATOM     91  O   UNL A   1      54.690  26.400  25.741  1.00  0.00    -0.237 OA
ATOM     92  O   UNL A   1      53.957  24.186  24.945  1.00  0.00    -0.744 OA
ENDBRANCH  88  89
ENDBRANCH  62  83
ENDBRANCH  36  37
ENDBRANCH  28  31
ENDBRANCH  26  27
ENDBRANCH   1  26
TORSDOF 17
ENDMDL
