MODEL 1
REMARK VINA RESULT:     -13.3      0.000      0.000
REMARK SMILES CCC(=O)N1CCc2cc(C(=O)NC3(C(=O)NCCCCNC(=O)c4ccc(-c5c6nc(c(-c7ccc(S(=O)(=O)[O-])cc7)c7ccc([nH]7)c(-c7ccc(S(=O)(=O)[O-])cc7)c7nc(c(-c8ccc(S(=O)(=O)[O-])cc8)c8ccc5[nH]8)C=C7)C=C6)cc4)CCCC3)ccc21
REMARK SMILES IDX 19 1 18 2 17 3 15 4 16 5 14 7 85 8 88 9 86 10 87 11 13 12
REMARK SMILES IDX 11 13 12 14 10 16 5 17 6 18 91 19 7 20 8 21 90 22 9 23 89 24
REMARK SMILES IDX 3 25 4 26 2 27 1 28 20 29 21 30 22 31 23 32 24 34 25 35
REMARK SMILES IDX 26 36 84 37 27 38 83 39 28 40 29 41 30 42 77 43 31 44 82 45
REMARK SMILES IDX 76 46 78 47 32 48 81 49 75 50 74 51 33 53 63 54 44 55 62 56
REMARK SMILES IDX 45 57 48 58 61 59 79 60 46 61 47 62 60 64 80 65 49 66 34 67
REMARK SMILES IDX 35 68 43 69 36 70 42 71 37 72 38 73 39 74 40 75 41 76 64 77
REMARK SMILES IDX 65 78 73 79 66 80 72 81 67 82 68 83 69 84 70 85 71 86 50 87
REMARK SMILES IDX 51 88 59 89 52 90 58 91 53 92 54 93 55 94 56 95 57 96
REMARK H PARENT 17 6 13 15 22 33 78 52 48 63
REMARK Flexibility Score: inf
ROOT
ATOM      1  C   UNL A   1      37.774  22.349  25.626  1.00  0.00     0.023 C 
ENDROOT
BRANCH   1   2
ATOM      2  C   UNL A   1      36.452  21.675  25.252  1.00  0.00     0.116 C 
BRANCH   2   3
ATOM      3  N   UNL A   1      35.567  21.455  26.386  1.00  0.00    -0.354 N 
ATOM      4  C   UNL A   1      34.292  21.850  26.668  1.00  0.00     0.245 C 
ATOM      5  O   UNL A   1      33.794  21.384  27.704  1.00  0.00    -0.272 OA
ATOM      6  H   UNL A   1      35.972  20.909  27.097  1.00  0.00     0.163 HD
BRANCH   4   7
ATOM      7  C   UNL A   1      33.472  22.878  25.800  1.00  0.00     0.119 C 
ATOM      8  C   UNL A   1      33.325  22.405  24.355  1.00  0.00     0.038 C 
ATOM      9  C   UNL A   1      34.225  24.211  25.802  1.00  0.00     0.038 C 
ATOM     10  C   UNL A   1      34.005  23.443  23.473  1.00  0.00     0.003 C 
ATOM     11  C   UNL A   1      34.603  24.522  24.361  1.00  0.00     0.003 C 
BRANCH   7  12
ATOM     12  N   UNL A   1      32.149  23.003  26.498  1.00  0.00    -0.338 N 
ATOM     13  C   UNL A   1      31.108  23.898  26.564  1.00  0.00     0.252 C 
ATOM     14  O   UNL A   1      30.126  23.613  27.250  1.00  0.00    -0.269 OA
ATOM     15  H   UNL A   1      31.979  22.222  27.072  1.00  0.00     0.164 HD
BRANCH  13  16
ATOM     16  C   UNL A   1      31.055  25.157  25.779  1.00  0.00     0.040 A 
ATOM     17  N   UNL A   1      30.451  28.892  24.073  1.00  0.00    -0.312 N 
ATOM     18  C   UNL A   1      31.306  29.761  24.881  1.00  0.00     0.130 C 
ATOM     19  C   UNL A   1      30.668  27.571  24.465  1.00  0.00     0.047 A 
ATOM     20  C   UNL A   1      31.824  28.909  26.054  1.00  0.00     0.059 C 
ATOM     21  C   UNL A   1      31.339  27.540  25.685  1.00  0.00    -0.022 A 
ATOM     22  C   UNL A   1      30.393  26.404  23.790  1.00  0.00     0.027 A 
ATOM     23  C   UNL A   1      31.495  26.347  26.380  1.00  0.00     0.019 A 
ATOM     24  C   UNL A   1      30.648  25.194  24.443  1.00  0.00     0.016 A 
BRANCH  17  25
ATOM     25  C   UNL A   1      29.685  29.383  23.045  1.00  0.00     0.226 C 
ATOM     26  O   UNL A   1      29.752  28.898  21.912  1.00  0.00    -0.275 OA
BRANCH  25  27
ATOM     27  C   UNL A   1      29.091  30.785  23.218  1.00  0.00     0.097 C 
ATOM     28  C   UNL A   1      27.614  30.947  23.487  1.00  0.00     0.014 C 
ENDBRANCH  25  27
ENDBRANCH  17  25
ENDBRANCH  13  16
ENDBRANCH   7  12
ENDBRANCH   4   7
ENDBRANCH   2   3
ENDBRANCH   1   2
BRANCH   1  29
ATOM     29  C   UNL A   1      37.641  23.699  26.322  1.00  0.00     0.023 C 
BRANCH  29  30
ATOM     30  C   UNL A   1      38.938  24.274  26.880  1.00  0.00     0.116 C 
BRANCH  30  31
ATOM     31  N   UNL A   1      39.899  24.709  25.875  1.00  0.00    -0.352 N 
ATOM     32  C   UNL A   1      40.873  25.678  26.019  1.00  0.00     0.251 C 
ATOM     33  H   UNL A   1      39.848  24.263  24.997  1.00  0.00     0.163 HD
ATOM     34  O   UNL A   1      41.594  25.992  25.084  1.00  0.00    -0.269 OA
BRANCH  32  35
ATOM     35  C   UNL A   1      40.976  26.367  27.324  1.00  0.00     0.039 A 
ATOM     36  C   UNL A   1      41.979  27.321  27.509  1.00  0.00     0.014 A 
ATOM     37  C   UNL A   1      39.995  26.167  28.298  1.00  0.00     0.014 A 
ATOM     38  C   UNL A   1      41.936  28.149  28.633  1.00  0.00     0.010 A 
ATOM     39  C   UNL A   1      39.911  27.044  29.374  1.00  0.00     0.010 A 
ATOM     40  C   UNL A   1      40.872  28.054  29.545  1.00  0.00    -0.014 A 
BRANCH  40  41
ATOM     41  C   UNL A   1      40.724  29.013  30.669  1.00  0.00     0.031 A 
ATOM     42  C   UNL A   1      41.590  28.880  31.892  1.00  0.00     0.074 A 
ATOM     43  C   UNL A   1      39.750  29.946  30.631  1.00  0.00     0.049 A 
ATOM     44  N   UNL A   1      41.550  29.560  33.008  1.00  0.00    -0.248 NA
ATOM     45  C   UNL A   1      42.611  27.819  31.870  1.00  0.00     0.031 C 
ATOM     46  C   UNL A   1      38.799  30.141  29.533  1.00  0.00     0.029 A 
ATOM     47  N   UNL A   1      39.390  30.901  31.551  1.00  0.00    -0.354 N 
ATOM     48  C   UNL A   1      42.517  28.994  33.829  1.00  0.00     0.074 A 
ATOM     49  C   UNL A   1      43.095  27.886  33.101  1.00  0.00     0.031 C 
ATOM     50  C   UNL A   1      37.983  31.166  29.831  1.00  0.00     0.029 A 
ATOM     51  C   UNL A   1      38.328  31.680  31.153  1.00  0.00     0.049 A 
ATOM     52  H   UNL A   1      39.849  31.016  32.414  1.00  0.00     0.167 HD
ATOM     53  C   UNL A   1      42.905  29.372  35.070  1.00  0.00     0.031 A 
ATOM     54  C   UNL A   1      37.700  32.693  31.781  1.00  0.00     0.031 A 
ATOM     55  C   UNL A   1      42.354  30.494  35.780  1.00  0.00     0.049 A 
ATOM     56  C   UNL A   1      38.176  33.124  33.141  1.00  0.00     0.074 A 
ATOM     57  C   UNL A   1      42.731  31.001  37.011  1.00  0.00     0.029 A 
ATOM     58  N   UNL A   1      41.313  31.286  35.322  1.00  0.00    -0.354 N 
ATOM     59  N   UNL A   1      39.140  32.617  33.872  1.00  0.00    -0.248 NA
ATOM     60  C   UNL A   1      37.490  34.270  33.753  1.00  0.00     0.031 C 
ATOM     61  C   UNL A   1      41.895  32.082  37.313  1.00  0.00     0.029 A 
ATOM     62  C   UNL A   1      41.027  32.272  36.250  1.00  0.00     0.049 A 
ATOM     63  H   UNL A   1      40.848  31.166  34.463  1.00  0.00     0.167 HD
ATOM     64  C   UNL A   1      39.190  33.398  35.022  1.00  0.00     0.074 A 
ATOM     65  C   UNL A   1      38.170  34.417  34.882  1.00  0.00     0.031 C 
ATOM     66  C   UNL A   1      40.009  33.280  36.095  1.00  0.00     0.031 A 
BRANCH  53  67
ATOM     67  C   UNL A   1      43.985  28.561  35.733  1.00  0.00    -0.014 A 
ATOM     68  C   UNL A   1      45.342  28.891  35.565  1.00  0.00     0.010 A 
ATOM     69  C   UNL A   1      43.640  27.474  36.552  1.00  0.00     0.010 A 
ATOM     70  C   UNL A   1      46.337  28.117  36.166  1.00  0.00     0.020 A 
ATOM     71  C   UNL A   1      44.632  26.712  37.178  1.00  0.00     0.020 A 
ATOM     72  C   UNL A   1      45.975  27.028  36.964  1.00  0.00     0.054 A 
BRANCH  72  73
ATOM     73  S   UNL A   1      47.286  26.047  37.745  1.00  0.00     0.124 S 
ATOM     74  O   UNL A   1      46.514  25.029  38.456  1.00  0.00    -0.237 OA
ATOM     75  O   UNL A   1      48.054  25.566  36.600  1.00  0.00    -0.237 OA
ATOM     76  O   UNL A   1      47.978  27.010  38.596  1.00  0.00    -0.744 OA
ENDBRANCH  72  73
ENDBRANCH  53  67
BRANCH  54  77
ATOM     77  C   UNL A   1      36.567  33.391  31.114  1.00  0.00    -0.014 A 
ATOM     78  C   UNL A   1      35.362  33.606  31.806  1.00  0.00     0.010 A 
ATOM     79  C   UNL A   1      36.693  33.859  29.795  1.00  0.00     0.010 A 
ATOM     80  C   UNL A   1      34.298  34.268  31.185  1.00  0.00     0.020 A 
ATOM     81  C   UNL A   1      35.639  34.542  29.179  1.00  0.00     0.020 A 
ATOM     82  C   UNL A   1      34.444  34.732  29.875  1.00  0.00     0.054 A 
BRANCH  82  83
ATOM     83  S   UNL A   1      33.075  35.644  29.110  1.00  0.00     0.124 S 
ATOM     84  O   UNL A   1      33.778  36.702  28.392  1.00  0.00    -0.237 OA
ATOM     85  O   UNL A   1      32.441  34.625  28.276  1.00  0.00    -0.237 OA
ATOM     86  O   UNL A   1      32.278  36.083  30.254  1.00  0.00    -0.744 OA
ENDBRANCH  82  83
ENDBRANCH  54  77
BRANCH  66  87
ATOM     87  C   UNL A   1      39.859  34.296  37.194  1.00  0.00    -0.014 A 
ATOM     88  C   UNL A   1      40.435  35.572  37.085  1.00  0.00     0.010 A 
ATOM     89  C   UNL A   1      39.079  33.986  38.323  1.00  0.00     0.010 A 
ATOM     90  C   UNL A   1      40.254  36.515  38.099  1.00  0.00     0.020 A 
ATOM     91  C   UNL A   1      38.877  34.933  39.328  1.00  0.00     0.020 A 
ATOM     92  C   UNL A   1      39.477  36.190  39.216  1.00  0.00     0.054 A 
BRANCH  92  93
ATOM     93  S   UNL A   1      39.214  37.446  40.497  1.00  0.00     0.124 S 
ATOM     94  O   UNL A   1      40.546  38.027  40.630  1.00  0.00    -0.237 OA
ATOM     95  O   UNL A   1      38.205  38.315  39.895  1.00  0.00    -0.237 OA
ATOM     96  O   UNL A   1      38.751  36.673  41.648  1.00  0.00    -0.744 OA
ENDBRANCH  92  93
ENDBRANCH  66  87
ENDBRANCH  40  41
ENDBRANCH  32  35
ENDBRANCH  30  31
ENDBRANCH  29  30
ENDBRANCH   1  29
TORSDOF 18
ENDMDL
MODEL 2
REMARK VINA RESULT:     -13.0      2.236      9.121
REMARK SMILES CCC(=O)N1CCc2cc(C(=O)NC3(C(=O)NCCCCNC(=O)c4ccc(-c5c6nc(c(-c7ccc(S(=O)(=O)[O-])cc7)c7ccc([nH]7)c(-c7ccc(S(=O)(=O)[O-])cc7)c7nc(c(-c8ccc(S(=O)(=O)[O-])cc8)c8ccc5[nH]8)C=C7)C=C6)cc4)CCCC3)ccc21
REMARK SMILES IDX 19 1 18 2 17 3 15 4 16 5 14 7 85 8 88 9 86 10 87 11 13 12
REMARK SMILES IDX 11 13 12 14 10 16 5 17 6 18 91 19 7 20 8 21 90 22 9 23 89 24
REMARK SMILES IDX 3 25 4 26 2 27 1 28 20 29 21 30 22 31 23 32 24 34 25 35
REMARK SMILES IDX 26 36 84 37 27 38 83 39 28 40 29 41 30 42 77 43 31 44 82 45
REMARK SMILES IDX 76 46 78 47 32 48 81 49 75 50 74 51 33 53 63 54 44 55 62 56
REMARK SMILES IDX 45 57 48 58 61 59 79 60 46 61 47 62 60 64 80 65 49 66 34 67
REMARK SMILES IDX 35 68 43 69 36 70 42 71 37 72 38 73 39 74 40 75 41 76 64 77
REMARK SMILES IDX 65 78 73 79 66 80 72 81 67 82 68 83 69 84 70 85 71 86 50 87
REMARK SMILES IDX 51 88 59 89 52 90 58 91 53 92 54 93 55 94 56 95 57 96
REMARK H PARENT 17 6 13 15 22 33 78 52 48 63
REMARK Flexibility Score: inf
ROOT
ATOM      1  C   UNL A   1      31.787  30.790  26.479  1.00  0.00     0.023 C 
ENDROOT
BRANCH   1   2
ATOM      2  C   UNL A   1      31.518  29.763  25.376  1.00  0.00     0.116 C 
BRANCH   2   3
ATOM      3  N   UNL A   1      32.564  29.703  24.366  1.00  0.00    -0.354 N 
ATOM      4  C   UNL A   1      33.073  28.690  23.606  1.00  0.00     0.245 C 
ATOM      5  O   UNL A   1      33.906  29.020  22.749  1.00  0.00    -0.272 OA
ATOM      6  H   UNL A   1      32.993  30.572  24.196  1.00  0.00     0.163 HD
BRANCH   4   7
ATOM      7  C   UNL A   1      32.707  27.170  23.797  1.00  0.00     0.119 C 
ATOM      8  C   UNL A   1      31.269  26.994  24.284  1.00  0.00     0.038 C 
ATOM      9  C   UNL A   1      33.653  26.580  24.846  1.00  0.00     0.038 C 
ATOM     10  C   UNL A   1      31.339  26.310  25.642  1.00  0.00     0.003 C 
ATOM     11  C   UNL A   1      32.799  26.104  26.012  1.00  0.00     0.003 C 
BRANCH   7  12
ATOM     12  N   UNL A   1      32.934  26.547  22.451  1.00  0.00    -0.338 N 
ATOM     13  C   UNL A   1      33.194  25.301  21.932  1.00  0.00     0.252 C 
ATOM     14  O   UNL A   1      33.278  25.175  20.710  1.00  0.00    -0.269 OA
ATOM     15  H   UNL A   1      32.882  27.222  21.737  1.00  0.00     0.164 HD
BRANCH  13  16
ATOM     16  C   UNL A   1      33.291  24.070  22.757  1.00  0.00     0.040 A 
ATOM     17  N   UNL A   1      33.947  20.377  24.533  1.00  0.00    -0.312 N 
ATOM     18  C   UNL A   1      35.294  20.516  25.086  1.00  0.00     0.130 C 
ATOM     19  C   UNL A   1      33.551  21.611  24.018  1.00  0.00     0.047 A 
ATOM     20  C   UNL A   1      35.852  21.853  24.565  1.00  0.00     0.059 C 
ATOM     21  C   UNL A   1      34.656  22.449  23.888  1.00  0.00    -0.022 A 
ATOM     22  C   UNL A   1      32.287  22.074  23.736  1.00  0.00     0.027 A 
ATOM     23  C   UNL A   1      34.553  23.660  23.213  1.00  0.00     0.019 A 
ATOM     24  C   UNL A   1      32.167  23.341  23.154  1.00  0.00     0.016 A 
BRANCH  17  25
ATOM     25  C   UNL A   1      33.231  19.212  24.657  1.00  0.00     0.226 C 
ATOM     26  O   UNL A   1      32.153  19.187  25.258  1.00  0.00    -0.275 OA
BRANCH  25  27
ATOM     27  C   UNL A   1      33.981  17.897  24.425  1.00  0.00     0.097 C 
ATOM     28  C   UNL A   1      33.802  17.149  23.126  1.00  0.00     0.014 C 
ENDBRANCH  25  27
ENDBRANCH  17  25
ENDBRANCH  13  16
ENDBRANCH   7  12
ENDBRANCH   4   7
ENDBRANCH   2   3
ENDBRANCH   1   2
BRANCH   1  29
ATOM     29  C   UNL A   1      33.040  30.537  27.311  1.00  0.00     0.023 C 
BRANCH  29  30
ATOM     30  C   UNL A   1      33.970  31.734  27.468  1.00  0.00     0.116 C 
BRANCH  30  31
ATOM     31  N   UNL A   1      33.297  33.012  27.662  1.00  0.00    -0.352 N 
ATOM     32  C   UNL A   1      33.573  33.960  28.629  1.00  0.00     0.251 C 
ATOM     33  H   UNL A   1      32.565  33.223  27.036  1.00  0.00     0.163 HD
ATOM     34  O   UNL A   1      32.905  34.978  28.723  1.00  0.00    -0.269 OA
BRANCH  32  35
ATOM     35  C   UNL A   1      34.666  33.675  29.585  1.00  0.00     0.039 A 
ATOM     36  C   UNL A   1      34.403  32.864  30.691  1.00  0.00     0.014 A 
ATOM     37  C   UNL A   1      35.968  34.092  29.301  1.00  0.00     0.014 A 
ATOM     38  C   UNL A   1      35.469  32.388  31.458  1.00  0.00     0.010 A 
ATOM     39  C   UNL A   1      37.031  33.552  30.017  1.00  0.00     0.010 A 
ATOM     40  C   UNL A   1      36.793  32.682  31.094  1.00  0.00    -0.014 A 
BRANCH  40  41
ATOM     41  C   UNL A   1      37.948  32.075  31.804  1.00  0.00     0.031 A 
ATOM     42  C   UNL A   1      38.381  32.616  33.139  1.00  0.00     0.074 A 
ATOM     43  C   UNL A   1      38.663  31.099  31.208  1.00  0.00     0.049 A 
ATOM     44  N   UNL A   1      39.413  32.281  33.869  1.00  0.00    -0.248 NA
ATOM     45  C   UNL A   1      37.567  33.702  33.711  1.00  0.00     0.031 C 
ATOM     46  C   UNL A   1      38.389  30.528  29.886  1.00  0.00     0.029 A 
ATOM     47  N   UNL A   1      39.779  30.421  31.634  1.00  0.00    -0.354 N 
ATOM     48  C   UNL A   1      39.389  33.130  34.968  1.00  0.00     0.074 A 
ATOM     49  C   UNL A   1      38.267  34.025  34.788  1.00  0.00     0.031 C 
ATOM     50  C   UNL A   1      39.295  29.572  29.622  1.00  0.00     0.029 A 
ATOM     51  C   UNL A   1      40.233  29.483  30.736  1.00  0.00     0.049 A 
ATOM     52  H   UNL A   1      40.214  30.592  32.501  1.00  0.00     0.167 HD
ATOM     53  C   UNL A   1      40.213  33.151  36.043  1.00  0.00     0.031 A 
ATOM     54  C   UNL A   1      41.287  28.645  30.800  1.00  0.00     0.031 A 
ATOM     55  C   UNL A   1      41.306  32.240  36.239  1.00  0.00     0.049 A 
ATOM     56  C   UNL A   1      42.163  28.657  32.023  1.00  0.00     0.074 A 
ATOM     57  C   UNL A   1      42.153  32.134  37.328  1.00  0.00     0.029 A 
ATOM     58  N   UNL A   1      41.703  31.273  35.328  1.00  0.00    -0.354 N 
ATOM     59  N   UNL A   1      42.080  29.423  33.084  1.00  0.00    -0.248 NA
ATOM     60  C   UNL A   1      43.263  27.684  32.061  1.00  0.00     0.031 C 
ATOM     61  C   UNL A   1      43.084  31.124  37.061  1.00  0.00     0.029 A 
ATOM     62  C   UNL A   1      42.789  30.574  35.825  1.00  0.00     0.049 A 
ATOM     63  H   UNL A   1      41.275  31.107  34.457  1.00  0.00     0.167 HD
ATOM     64  C   UNL A   1      43.106  29.008  33.928  1.00  0.00     0.074 A 
ATOM     65  C   UNL A   1      43.784  27.917  33.259  1.00  0.00     0.031 C 
ATOM     66  C   UNL A   1      43.451  29.488  35.147  1.00  0.00     0.031 A 
BRANCH  53  67
ATOM     67  C   UNL A   1      39.951  34.197  37.092  1.00  0.00    -0.014 A 
ATOM     68  C   UNL A   1      40.468  35.498  36.961  1.00  0.00     0.010 A 
ATOM     69  C   UNL A   1      39.158  33.883  38.210  1.00  0.00     0.010 A 
ATOM     70  C   UNL A   1      40.237  36.453  37.954  1.00  0.00     0.020 A 
ATOM     71  C   UNL A   1      38.902  34.844  39.192  1.00  0.00     0.020 A 
ATOM     72  C   UNL A   1      39.460  36.117  39.067  1.00  0.00     0.054 A 
BRANCH  72  73
ATOM     73  S   UNL A   1      39.164  37.380  40.334  1.00  0.00     0.124 S 
ATOM     74  O   UNL A   1      38.294  38.316  39.626  1.00  0.00    -0.237 OA
ATOM     75  O   UNL A   1      38.528  36.620  41.406  1.00  0.00    -0.237 OA
ATOM     76  O   UNL A   1      40.501  37.883  40.640  1.00  0.00    -0.744 OA
ENDBRANCH  72  73
ENDBRANCH  53  67
BRANCH  54  77
ATOM     77  C   UNL A   1      41.555  27.703  29.680  1.00  0.00    -0.014 A 
ATOM     78  C   UNL A   1      40.719  26.592  29.472  1.00  0.00     0.010 A 
ATOM     79  C   UNL A   1      42.634  27.922  28.806  1.00  0.00     0.010 A 
ATOM     80  C   UNL A   1      40.964  25.709  28.416  1.00  0.00     0.020 A 
ATOM     81  C   UNL A   1      42.869  27.054  27.734  1.00  0.00     0.020 A 
ATOM     82  C   UNL A   1      42.038  25.947  27.553  1.00  0.00     0.054 A 
BRANCH  82  83
ATOM     83  S   UNL A   1      42.301  24.825  26.151  1.00  0.00     0.124 S 
ATOM     84  O   UNL A   1      41.306  23.787  26.403  1.00  0.00    -0.237 OA
ATOM     85  O   UNL A   1      42.041  25.688  25.001  1.00  0.00    -0.237 OA
ATOM     86  O   UNL A   1      43.694  24.411  26.306  1.00  0.00    -0.744 OA
ENDBRANCH  82  83
ENDBRANCH  54  77
BRANCH  66  87
ATOM     87  C   UNL A   1      44.598  28.820  35.854  1.00  0.00    -0.014 A 
ATOM     88  C   UNL A   1      44.384  27.719  36.701  1.00  0.00     0.010 A 
ATOM     89  C   UNL A   1      45.912  29.263  35.617  1.00  0.00     0.010 A 
ATOM     90  C   UNL A   1      45.465  27.087  37.320  1.00  0.00     0.020 A 
ATOM     91  C   UNL A   1      46.997  28.619  36.217  1.00  0.00     0.020 A 
ATOM     92  C   UNL A   1      46.765  27.542  37.076  1.00  0.00     0.054 A 
BRANCH  92  93
ATOM     93  S   UNL A   1      48.157  26.675  37.850  1.00  0.00     0.124 S 
ATOM     94  O   UNL A   1      47.950  26.972  39.264  1.00  0.00    -0.237 OA
ATOM     95  O   UNL A   1      47.931  25.286  37.459  1.00  0.00    -0.237 OA
ATOM     96  O   UNL A   1      49.332  27.301  37.247  1.00  0.00    -0.744 OA
ENDBRANCH  92  93
ENDBRANCH  66  87
ENDBRANCH  40  41
ENDBRANCH  32  35
ENDBRANCH  30  31
ENDBRANCH  29  30
ENDBRANCH   1  29
TORSDOF 18
ENDMDL
MODEL 3
REMARK VINA RESULT:     -13.0      6.114     10.572
REMARK SMILES CCC(=O)N1CCc2cc(C(=O)NC3(C(=O)NCCCCNC(=O)c4ccc(-c5c6nc(c(-c7ccc(S(=O)(=O)[O-])cc7)c7ccc([nH]7)c(-c7ccc(S(=O)(=O)[O-])cc7)c7nc(c(-c8ccc(S(=O)(=O)[O-])cc8)c8ccc5[nH]8)C=C7)C=C6)cc4)CCCC3)ccc21
REMARK SMILES IDX 19 1 18 2 17 3 15 4 16 5 14 7 85 8 88 9 86 10 87 11 13 12
REMARK SMILES IDX 11 13 12 14 10 16 5 17 6 18 91 19 7 20 8 21 90 22 9 23 89 24
REMARK SMILES IDX 3 25 4 26 2 27 1 28 20 29 21 30 22 31 23 32 24 34 25 35
REMARK SMILES IDX 26 36 84 37 27 38 83 39 28 40 29 41 30 42 77 43 31 44 82 45
REMARK SMILES IDX 76 46 78 47 32 48 81 49 75 50 74 51 33 53 63 54 44 55 62 56
REMARK SMILES IDX 45 57 48 58 61 59 79 60 46 61 47 62 60 64 80 65 49 66 34 67
REMARK SMILES IDX 35 68 43 69 36 70 42 71 37 72 38 73 39 74 40 75 41 76 64 77
REMARK SMILES IDX 65 78 73 79 66 80 72 81 67 82 68 83 69 84 70 85 71 86 50 87
REMARK SMILES IDX 51 88 59 89 52 90 58 91 53 92 54 93 55 94 56 95 57 96
REMARK H PARENT 17 6 13 15 22 33 78 52 48 63
REMARK Flexibility Score: inf
ROOT
ATOM      1  C   UNL A   1      37.428  20.531  24.928  1.00  0.00     0.023 C 
ENDROOT
BRANCH   1   2
ATOM      2  C   UNL A   1      36.007  21.089  24.829  1.00  0.00     0.116 C 
BRANCH   2   3
ATOM      3  N   UNL A   1      35.258  21.005  26.074  1.00  0.00    -0.354 N 
ATOM      4  C   UNL A   1      34.122  21.612  26.526  1.00  0.00     0.245 C 
ATOM      5  O   UNL A   1      33.695  21.219  27.622  1.00  0.00    -0.272 OA
ATOM      6  H   UNL A   1      35.653  20.382  26.725  1.00  0.00     0.163 HD
BRANCH   4   7
ATOM      7  C   UNL A   1      33.387  22.785  25.774  1.00  0.00     0.119 C 
ATOM      8  C   UNL A   1      33.203  22.474  24.290  1.00  0.00     0.038 C 
ATOM      9  C   UNL A   1      34.244  24.046  25.907  1.00  0.00     0.038 C 
ATOM     10  C   UNL A   1      33.964  23.541  23.513  1.00  0.00     0.003 C 
ATOM     11  C   UNL A   1      34.646  24.472  24.502  1.00  0.00     0.003 C 
BRANCH   7  12
ATOM     12  N   UNL A   1      32.078  22.941  26.491  1.00  0.00    -0.338 N 
ATOM     13  C   UNL A   1      31.057  23.859  26.569  1.00  0.00     0.252 C 
ATOM     14  O   UNL A   1      30.080  23.598  27.270  1.00  0.00    -0.269 OA
ATOM     15  H   UNL A   1      31.899  22.166  27.070  1.00  0.00     0.164 HD
BRANCH  13  16
ATOM     16  C   UNL A   1      31.020  25.116  25.779  1.00  0.00     0.040 A 
ATOM     17  N   UNL A   1      30.495  28.866  24.082  1.00  0.00    -0.312 N 
ATOM     18  C   UNL A   1      31.425  29.701  24.842  1.00  0.00     0.130 C 
ATOM     19  C   UNL A   1      30.674  27.539  24.470  1.00  0.00     0.047 A 
ATOM     20  C   UNL A   1      31.963  28.832  25.993  1.00  0.00     0.059 C 
ATOM     21  C   UNL A   1      31.402  27.484  25.657  1.00  0.00    -0.022 A 
ATOM     22  C   UNL A   1      30.317  26.382  23.817  1.00  0.00     0.027 A 
ATOM     23  C   UNL A   1      31.540  26.288  26.351  1.00  0.00     0.019 A 
ATOM     24  C   UNL A   1      30.551  25.165  24.464  1.00  0.00     0.016 A 
BRANCH  17  25
ATOM     25  C   UNL A   1      29.702  29.386  23.088  1.00  0.00     0.226 C 
ATOM     26  O   UNL A   1      29.755  28.949  21.935  1.00  0.00    -0.275 OA
BRANCH  25  27
ATOM     27  C   UNL A   1      29.089  30.769  23.330  1.00  0.00     0.097 C 
ATOM     28  C   UNL A   1      27.591  30.916  23.453  1.00  0.00     0.014 C 
ENDBRANCH  25  27
ENDBRANCH  17  25
ENDBRANCH  13  16
ENDBRANCH   7  12
ENDBRANCH   4   7
ENDBRANCH   2   3
ENDBRANCH   1   2
BRANCH   1  29
ATOM     29  C   UNL A   1      38.488  21.529  25.384  1.00  0.00     0.023 C 
BRANCH  29  30
ATOM     30  C   UNL A   1      39.425  21.029  26.477  1.00  0.00     0.116 C 
BRANCH  30  31
ATOM     31  N   UNL A   1      40.112  19.781  26.172  1.00  0.00    -0.352 N 
ATOM     32  C   UNL A   1      41.477  19.576  26.108  1.00  0.00     0.251 C 
ATOM     33  H   UNL A   1      39.541  18.998  25.991  1.00  0.00     0.163 HD
ATOM     34  O   UNL A   1      41.938  18.489  25.794  1.00  0.00    -0.269 OA
BRANCH  32  35
ATOM     35  C   UNL A   1      42.363  20.731  26.374  1.00  0.00     0.039 A 
ATOM     36  C   UNL A   1      42.798  21.511  25.301  1.00  0.00     0.014 A 
ATOM     37  C   UNL A   1      42.636  21.112  27.689  1.00  0.00     0.014 A 
ATOM     38  C   UNL A   1      43.423  22.735  25.555  1.00  0.00     0.010 A 
ATOM     39  C   UNL A   1      43.185  22.365  27.938  1.00  0.00     0.010 A 
ATOM     40  C   UNL A   1      43.571  23.196  26.873  1.00  0.00    -0.014 A 
BRANCH  40  41
ATOM     41  C   UNL A   1      44.100  24.553  27.166  1.00  0.00     0.031 A 
ATOM     42  C   UNL A   1      43.167  25.644  27.616  1.00  0.00     0.074 A 
ATOM     43  C   UNL A   1      45.401  24.828  26.941  1.00  0.00     0.049 A 
ATOM     44  N   UNL A   1      43.422  26.908  27.833  1.00  0.00    -0.248 NA
ATOM     45  C   UNL A   1      41.756  25.273  27.811  1.00  0.00     0.031 C 
ATOM     46  C   UNL A   1      46.400  23.877  26.443  1.00  0.00     0.029 A 
ATOM     47  N   UNL A   1      46.107  25.997  27.090  1.00  0.00    -0.354 N 
ATOM     48  C   UNL A   1      42.203  27.487  28.162  1.00  0.00     0.074 A 
ATOM     49  C   UNL A   1      41.202  26.447  28.072  1.00  0.00     0.031 C 
ATOM     50  C   UNL A   1      47.590  24.494  26.353  1.00  0.00     0.029 A 
ATOM     51  C   UNL A   1      47.436  25.889  26.753  1.00  0.00     0.049 A 
ATOM     52  H   UNL A   1      45.698  26.835  27.408  1.00  0.00     0.167 HD
ATOM     53  C   UNL A   1      41.940  28.764  28.528  1.00  0.00     0.031 A 
ATOM     54  C   UNL A   1      48.421  26.808  26.761  1.00  0.00     0.031 A 
ATOM     55  C   UNL A   1      42.940  29.789  28.651  1.00  0.00     0.049 A 
ATOM     56  C   UNL A   1      48.114  28.210  27.212  1.00  0.00     0.074 A 
ATOM     57  C   UNL A   1      42.784  31.094  29.084  1.00  0.00     0.029 A 
ATOM     58  N   UNL A   1      44.282  29.626  28.346  1.00  0.00    -0.354 N 
ATOM     59  N   UNL A   1      46.965  28.720  27.586  1.00  0.00    -0.248 NA
ATOM     60  C   UNL A   1      49.239  29.155  27.254  1.00  0.00     0.031 C 
ATOM     61  C   UNL A   1      44.028  31.730  29.010  1.00  0.00     0.029 A 
ATOM     62  C   UNL A   1      44.964  30.809  28.571  1.00  0.00     0.049 A 
ATOM     63  H   UNL A   1      44.690  28.792  28.019  1.00  0.00     0.167 HD
ATOM     64  C   UNL A   1      47.234  30.041  27.930  1.00  0.00     0.074 A 
ATOM     65  C   UNL A   1      48.654  30.246  27.732  1.00  0.00     0.031 C 
ATOM     66  C   UNL A   1      46.379  30.995  28.371  1.00  0.00     0.031 A 
BRANCH  53  67
ATOM     67  C   UNL A   1      40.508  29.116  28.826  1.00  0.00    -0.014 A 
ATOM     68  C   UNL A   1      39.642  29.549  27.805  1.00  0.00     0.010 A 
ATOM     69  C   UNL A   1      40.015  28.989  30.136  1.00  0.00     0.010 A 
ATOM     70  C   UNL A   1      38.322  29.895  28.099  1.00  0.00     0.020 A 
ATOM     71  C   UNL A   1      38.686  29.308  30.429  1.00  0.00     0.020 A 
ATOM     72  C   UNL A   1      37.854  29.778  29.411  1.00  0.00     0.054 A 
BRANCH  72  73
ATOM     73  S   UNL A   1      36.130  30.221  29.763  1.00  0.00     0.124 S 
ATOM     74  O   UNL A   1      35.959  29.700  31.117  1.00  0.00    -0.237 OA
ATOM     75  O   UNL A   1      36.140  31.676  29.646  1.00  0.00    -0.237 OA
ATOM     76  O   UNL A   1      35.376  29.521  28.727  1.00  0.00    -0.744 OA
ENDBRANCH  72  73
ENDBRANCH  53  67
BRANCH  54  77
ATOM     77  C   UNL A   1      49.799  26.423  26.355  1.00  0.00    -0.014 A 
ATOM     78  C   UNL A   1      50.208  26.559  25.017  1.00  0.00     0.010 A 
ATOM     79  C   UNL A   1      50.715  25.939  27.306  1.00  0.00     0.010 A 
ATOM     80  C   UNL A   1      51.506  26.205  24.633  1.00  0.00     0.020 A 
ATOM     81  C   UNL A   1      52.020  25.605  26.930  1.00  0.00     0.020 A 
ATOM     82  C   UNL A   1      52.404  25.731  25.594  1.00  0.00     0.054 A 
BRANCH  82  83
ATOM     83  S   UNL A   1      54.101  25.337  25.087  1.00  0.00     0.124 S 
ATOM     84  O   UNL A   1      54.049  23.885  24.954  1.00  0.00    -0.237 OA
ATOM     85  O   UNL A   1      54.242  26.084  23.839  1.00  0.00    -0.237 OA
ATOM     86  O   UNL A   1      54.911  25.837  26.197  1.00  0.00    -0.744 OA
ENDBRANCH  82  83
ENDBRANCH  54  77
BRANCH  66  87
ATOM     87  C   UNL A   1      46.958  32.344  28.700  1.00  0.00    -0.014 A 
ATOM     88  C   UNL A   1      47.579  32.584  29.937  1.00  0.00     0.010 A 
ATOM     89  C   UNL A   1      46.935  33.364  27.730  1.00  0.00     0.010 A 
ATOM     90  C   UNL A   1      48.145  33.832  30.210  1.00  0.00     0.020 A 
ATOM     91  C   UNL A   1      47.519  34.605  27.992  1.00  0.00     0.020 A 
ATOM     92  C   UNL A   1      48.110  34.836  29.236  1.00  0.00     0.054 A 
BRANCH  92  93
ATOM     93  S   UNL A   1      48.894  36.431  29.594  1.00  0.00     0.124 S 
ATOM     94  O   UNL A   1      47.934  37.374  29.030  1.00  0.00    -0.237 OA
ATOM     95  O   UNL A   1      48.989  36.425  31.052  1.00  0.00    -0.237 OA
ATOM     96  O   UNL A   1      50.175  36.351  28.894  1.00  0.00    -0.744 OA
ENDBRANCH  92  93
ENDBRANCH  66  87
ENDBRANCH  40  41
ENDBRANCH  32  35
ENDBRANCH  30  31
ENDBRANCH  29  30
ENDBRANCH   1  29
TORSDOF 18
ENDMDL
