MODEL 1
REMARK VINA RESULT:     -10.9      0.000      0.000
REMARK SMILES CC[C@@H]1SC[C@@H](C(=O)NCCCCNC(=O)c2ccc(-c3c4nc(c(-c5ccc(S(=O)(=O)[O-])cc5)c5ccc([nH]5)c(-c5ccc(S(=O)(=O)[O-])cc5)c5nc(c(-c6ccc(S(=O)(=O)[O-])cc6)c6ccc3[nH]6)C=C5)C=C4)cc2)N1C(=O)NC1C(C)(C)C1(C)C
REMARK SMILES IDX 12 1 11 2 10 3 9 4 7 5 8 6 6 8 3 9 4 10 77 11 5 12 2 13 1 14
REMARK SMILES IDX 78 15 79 16 80 17 81 19 82 20 85 21 83 22 84 23 86 24 87 25
REMARK SMILES IDX 13 26 14 27 15 28 16 30 17 31 18 32 76 33 19 34 75 35 20 36
REMARK SMILES IDX 21 37 22 38 69 39 23 40 74 41 68 42 70 43 24 44 73 45 67 46
REMARK SMILES IDX 66 47 25 49 55 50 36 51 54 52 37 53 40 54 53 55 71 56 38 57
REMARK SMILES IDX 39 58 52 60 72 61 41 62 26 63 27 64 35 65 28 66 34 67 29 68
REMARK SMILES IDX 30 69 31 70 32 71 33 72 56 73 57 74 65 75 58 76 64 77 59 78
REMARK SMILES IDX 60 79 61 80 62 81 63 82 42 83 43 84 51 85 44 86 50 87 45 88
REMARK SMILES IDX 46 89 47 90 48 91 49 92
REMARK H PARENT 9 7 80 18 14 29 70 48 40 59
REMARK Flexibility Score: inf
ROOT
ATOM      1  C   UNL A   1      35.656  23.060  24.976  1.00  0.00     0.023 C 
ENDROOT
BRANCH   1   2
ATOM      2  C   UNL A   1      35.618  21.555  25.235  1.00  0.00     0.023 C 
BRANCH   2   3
ATOM      3  C   UNL A   1      34.249  21.034  25.666  1.00  0.00     0.116 C 
BRANCH   3   4
ATOM      4  N   UNL A   1      33.692  21.795  26.762  1.00  0.00    -0.354 N 
ATOM      5  C   UNL A   1      32.537  22.506  26.888  1.00  0.00     0.243 C 
ATOM      6  O   UNL A   1      32.224  22.805  28.049  1.00  0.00    -0.273 OA
ATOM      7  H   UNL A   1      34.255  21.802  27.570  1.00  0.00     0.163 HD
BRANCH   5   8
ATOM      8  C   UNL A   1      31.530  22.768  25.728  1.00  0.00     0.187 C 
ATOM      9  C   UNL A   1      32.071  24.303  23.886  1.00  0.00     0.145 C 
ATOM     10  S   UNL A   1      32.194  22.630  23.137  1.00  0.00    -0.134 SA
ATOM     11  N   UNL A   1      31.432  24.152  25.192  1.00  0.00    -0.300 N 
ATOM     12  C   UNL A   1      31.769  21.739  24.635  1.00  0.00     0.107 C 
BRANCH   9  13
ATOM     13  C   UNL A   1      31.494  25.186  22.779  1.00  0.00     0.033 C 
ATOM     14  C   UNL A   1      32.606  25.524  21.768  1.00  0.00     0.007 C 
ENDBRANCH   9  13
BRANCH  11  15
ATOM     15  C   UNL A   1      30.916  25.040  26.099  1.00  0.00     0.319 C 
ATOM     16  O   UNL A   1      29.824  24.819  26.640  1.00  0.00    -0.249 OA
ATOM     17  N   UNL A   1      31.485  26.184  26.525  1.00  0.00    -0.334 N 
ATOM     18  H   UNL A   1      30.954  26.610  27.236  1.00  0.00     0.165 HD
BRANCH  17  19
ATOM     19  C   UNL A   1      32.646  26.936  26.219  1.00  0.00     0.096 C 
ATOM     20  C   UNL A   1      32.596  28.045  25.162  1.00  0.00    -0.007 C 
ATOM     21  C   UNL A   1      32.869  28.390  26.632  1.00  0.00    -0.007 C 
ATOM     22  C   UNL A   1      33.721  28.185  24.161  1.00  0.00     0.014 C 
ATOM     23  C   UNL A   1      31.260  28.405  24.534  1.00  0.00     0.014 C 
ATOM     24  C   UNL A   1      31.841  29.185  27.401  1.00  0.00     0.014 C 
ATOM     25  C   UNL A   1      34.288  28.752  27.047  1.00  0.00     0.014 C 
ENDBRANCH  17  19
ENDBRANCH  11  15
ENDBRANCH   5   8
ENDBRANCH   3   4
ENDBRANCH   2   3
ENDBRANCH   1   2
BRANCH   1  26
ATOM     26  C   UNL A   1      37.015  23.707  25.223  1.00  0.00     0.116 C 
BRANCH  26  27
ATOM     27  N   UNL A   1      38.090  22.749  25.434  1.00  0.00    -0.352 N 
ATOM     28  C   UNL A   1      39.284  22.939  26.096  1.00  0.00     0.251 C 
ATOM     29  H   UNL A   1      37.945  21.851  25.058  1.00  0.00     0.163 HD
ATOM     30  O   UNL A   1      40.132  22.064  26.101  1.00  0.00    -0.269 OA
BRANCH  28  31
ATOM     31  C   UNL A   1      39.534  24.240  26.757  1.00  0.00     0.039 A 
ATOM     32  C   UNL A   1      39.080  24.427  28.064  1.00  0.00     0.014 A 
ATOM     33  C   UNL A   1      40.253  25.246  26.109  1.00  0.00     0.014 A 
ATOM     34  C   UNL A   1      39.406  25.602  28.744  1.00  0.00     0.010 A 
ATOM     35  C   UNL A   1      40.643  26.380  26.813  1.00  0.00     0.010 A 
ATOM     36  C   UNL A   1      40.221  26.572  28.137  1.00  0.00    -0.014 A 
BRANCH  36  37
ATOM     37  C   UNL A   1      40.640  27.789  28.875  1.00  0.00     0.031 A 
ATOM     38  C   UNL A   1      42.010  27.866  29.493  1.00  0.00     0.074 A 
ATOM     39  C   UNL A   1      39.771  28.808  29.027  1.00  0.00     0.049 A 
ATOM     40  N   UNL A   1      42.552  28.840  30.177  1.00  0.00    -0.248 NA
ATOM     41  C   UNL A   1      42.875  26.683  29.345  1.00  0.00     0.031 C 
ATOM     42  C   UNL A   1      38.398  28.835  28.516  1.00  0.00     0.029 A 
ATOM     43  N   UNL A   1      39.916  30.022  29.651  1.00  0.00    -0.354 N 
ATOM     44  C   UNL A   1      43.814  28.388  30.547  1.00  0.00     0.074 A 
ATOM     45  C   UNL A   1      43.931  27.029  30.066  1.00  0.00     0.031 C 
ATOM     46  C   UNL A   1      37.843  30.022  28.811  1.00  0.00     0.029 A 
ATOM     47  C   UNL A   1      38.804  30.825  29.559  1.00  0.00     0.049 A 
ATOM     48  H   UNL A   1      40.738  30.292  30.119  1.00  0.00     0.167 HD
ATOM     49  C   UNL A   1      44.796  29.050  31.204  1.00  0.00     0.031 A 
ATOM     50  C   UNL A   1      38.585  32.073  30.019  1.00  0.00     0.031 A 
ATOM     51  C   UNL A   1      44.677  30.402  31.679  1.00  0.00     0.049 A 
ATOM     52  C   UNL A   1      39.689  32.786  30.751  1.00  0.00     0.074 A 
ATOM     53  C   UNL A   1      45.628  31.179  32.318  1.00  0.00     0.029 A 
ATOM     54  N   UNL A   1      43.535  31.182  31.565  1.00  0.00    -0.354 N 
ATOM     55  N   UNL A   1      40.898  32.364  31.036  1.00  0.00    -0.248 NA
ATOM     56  C   UNL A   1      39.404  34.154  31.206  1.00  0.00     0.031 C 
ATOM     57  C   UNL A   1      45.046  32.411  32.632  1.00  0.00     0.029 A 
ATOM     58  C   UNL A   1      43.752  32.425  32.137  1.00  0.00     0.049 A 
ATOM     59  H   UNL A   1      42.694  30.894  31.141  1.00  0.00     0.167 HD
ATOM     60  C   UNL A   1      41.527  33.424  31.677  1.00  0.00     0.074 A 
ATOM     61  C   UNL A   1      40.571  34.511  31.723  1.00  0.00     0.031 C 
ATOM     62  C   UNL A   1      42.786  33.494  32.180  1.00  0.00     0.031 A 
BRANCH  49  63
ATOM     63  C   UNL A   1      46.085  28.308  31.444  1.00  0.00    -0.014 A 
ATOM     64  C   UNL A   1      47.135  28.357  30.506  1.00  0.00     0.010 A 
ATOM     65  C   UNL A   1      46.260  27.565  32.626  1.00  0.00     0.010 A 
ATOM     66  C   UNL A   1      48.311  27.633  30.720  1.00  0.00     0.020 A 
ATOM     67  C   UNL A   1      47.448  26.866  32.858  1.00  0.00     0.020 A 
ATOM     68  C   UNL A   1      48.457  26.887  31.892  1.00  0.00     0.054 A 
BRANCH  68  69
ATOM     69  S   UNL A   1      49.996  25.961  32.146  1.00  0.00     0.124 S 
ATOM     70  O   UNL A   1      49.758  25.335  33.445  1.00  0.00    -0.237 OA
ATOM     71  O   UNL A   1      50.014  25.050  31.004  1.00  0.00    -0.237 OA
ATOM     72  O   UNL A   1      51.030  26.993  32.131  1.00  0.00    -0.744 OA
ENDBRANCH  68  69
ENDBRANCH  49  63
BRANCH  50  73
ATOM     73  C   UNL A   1      37.281  32.742  29.763  1.00  0.00    -0.014 A 
ATOM     74  C   UNL A   1      37.043  33.390  28.538  1.00  0.00     0.010 A 
ATOM     75  C   UNL A   1      36.264  32.725  30.735  1.00  0.00     0.010 A 
ATOM     76  C   UNL A   1      35.821  34.024  28.295  1.00  0.00     0.020 A 
ATOM     77  C   UNL A   1      35.031  33.334  30.485  1.00  0.00     0.020 A 
ATOM     78  C   UNL A   1      34.821  33.990  29.270  1.00  0.00     0.054 A 
BRANCH  78  79
ATOM     79  S   UNL A   1      33.224  34.773  28.912  1.00  0.00     0.124 S 
ATOM     80  O   UNL A   1      32.589  34.781  30.225  1.00  0.00    -0.237 OA
ATOM     81  O   UNL A   1      33.622  36.078  28.391  1.00  0.00    -0.237 OA
ATOM     82  O   UNL A   1      32.619  33.877  27.928  1.00  0.00    -0.744 OA
ENDBRANCH  78  79
ENDBRANCH  50  73
BRANCH  62  83
ATOM     83  C   UNL A   1      43.211  34.804  32.787  1.00  0.00    -0.014 A 
ATOM     84  C   UNL A   1      42.953  35.104  34.136  1.00  0.00     0.010 A 
ATOM     85  C   UNL A   1      43.909  35.738  31.998  1.00  0.00     0.010 A 
ATOM     86  C   UNL A   1      43.343  36.335  34.673  1.00  0.00     0.020 A 
ATOM     87  C   UNL A   1      44.328  36.956  32.540  1.00  0.00     0.020 A 
ATOM     88  C   UNL A   1      44.026  37.254  33.869  1.00  0.00     0.054 A 
BRANCH  88  89
ATOM     89  S   UNL A   1      44.541  38.835  34.593  1.00  0.00     0.124 S 
ATOM     90  O   UNL A   1      45.780  39.109  33.870  1.00  0.00    -0.237 OA
ATOM     91  O   UNL A   1      43.420  39.715  34.274  1.00  0.00    -0.237 OA
ATOM     92  O   UNL A   1      44.702  38.530  36.012  1.00  0.00    -0.744 OA
ENDBRANCH  88  89
ENDBRANCH  62  83
ENDBRANCH  36  37
ENDBRANCH  28  31
ENDBRANCH  26  27
ENDBRANCH   1  26
TORSDOF 17
ENDMDL
MODEL 2
REMARK VINA RESULT:     -10.8      3.373      4.287
REMARK SMILES CC[C@@H]1SC[C@@H](C(=O)NCCCCNC(=O)c2ccc(-c3c4nc(c(-c5ccc(S(=O)(=O)[O-])cc5)c5ccc([nH]5)c(-c5ccc(S(=O)(=O)[O-])cc5)c5nc(c(-c6ccc(S(=O)(=O)[O-])cc6)c6ccc3[nH]6)C=C5)C=C4)cc2)N1C(=O)NC1C(C)(C)C1(C)C
REMARK SMILES IDX 12 1 11 2 10 3 9 4 7 5 8 6 6 8 3 9 4 10 77 11 5 12 2 13 1 14
REMARK SMILES IDX 78 15 79 16 80 17 81 19 82 20 85 21 83 22 84 23 86 24 87 25
REMARK SMILES IDX 13 26 14 27 15 28 16 30 17 31 18 32 76 33 19 34 75 35 20 36
REMARK SMILES IDX 21 37 22 38 69 39 23 40 74 41 68 42 70 43 24 44 73 45 67 46
REMARK SMILES IDX 66 47 25 49 55 50 36 51 54 52 37 53 40 54 53 55 71 56 38 57
REMARK SMILES IDX 39 58 52 60 72 61 41 62 26 63 27 64 35 65 28 66 34 67 29 68
REMARK SMILES IDX 30 69 31 70 32 71 33 72 56 73 57 74 65 75 58 76 64 77 59 78
REMARK SMILES IDX 60 79 61 80 62 81 63 82 42 83 43 84 51 85 44 86 50 87 45 88
REMARK SMILES IDX 46 89 47 90 48 91 49 92
REMARK H PARENT 9 7 80 18 14 29 70 48 40 59
REMARK Flexibility Score: inf
ROOT
ATOM      1  C   UNL A   1      39.939  22.186  26.887  1.00  0.00     0.023 C 
ENDROOT
BRANCH   1   2
ATOM      2  C   UNL A   1      38.731  22.870  26.248  1.00  0.00     0.023 C 
BRANCH   2   3
ATOM      3  C   UNL A   1      37.710  21.900  25.659  1.00  0.00     0.116 C 
BRANCH   3   4
ATOM      4  N   UNL A   1      37.245  22.317  24.356  1.00  0.00    -0.354 N 
ATOM      5  C   UNL A   1      35.993  22.480  23.841  1.00  0.00     0.243 C 
ATOM      6  O   UNL A   1      35.937  23.120  22.781  1.00  0.00    -0.273 OA
ATOM      7  H   UNL A   1      37.967  22.520  23.720  1.00  0.00     0.163 HD
BRANCH   5   8
ATOM      8  C   UNL A   1      34.677  22.106  24.584  1.00  0.00     0.187 C 
ATOM      9  C   UNL A   1      32.535  23.163  24.005  1.00  0.00     0.145 C 
ATOM     10  S   UNL A   1      32.402  21.462  23.325  1.00  0.00    -0.134 SA
ATOM     11  N   UNL A   1      33.709  23.196  24.876  1.00  0.00    -0.300 N 
ATOM     12  C   UNL A   1      34.029  20.932  23.865  1.00  0.00     0.107 C 
BRANCH   9  13
ATOM     13  C   UNL A   1      31.127  23.498  24.500  1.00  0.00     0.033 C 
ATOM     14  C   UNL A   1      30.347  24.201  23.374  1.00  0.00     0.007 C 
ENDBRANCH   9  13
BRANCH  11  15
ATOM     15  C   UNL A   1      34.188  24.107  25.780  1.00  0.00     0.319 C 
ATOM     16  O   UNL A   1      34.783  23.725  26.798  1.00  0.00    -0.249 OA
ATOM     17  N   UNL A   1      34.114  25.448  25.695  1.00  0.00    -0.334 N 
ATOM     18  H   UNL A   1      34.600  25.887  26.430  1.00  0.00     0.165 HD
BRANCH  17  19
ATOM     19  C   UNL A   1      33.521  26.396  24.823  1.00  0.00     0.096 C 
ATOM     20  C   UNL A   1      32.277  27.177  25.258  1.00  0.00    -0.007 C 
ATOM     21  C   UNL A   1      33.600  27.911  25.011  1.00  0.00    -0.007 C 
ATOM     22  C   UNL A   1      31.137  27.383  24.285  1.00  0.00     0.014 C 
ATOM     23  C   UNL A   1      31.758  27.008  26.676  1.00  0.00     0.014 C 
ATOM     24  C   UNL A   1      34.313  28.551  26.177  1.00  0.00     0.014 C 
ATOM     25  C   UNL A   1      33.756  28.729  23.736  1.00  0.00     0.014 C 
ENDBRANCH  17  19
ENDBRANCH  11  15
ENDBRANCH   5   8
ENDBRANCH   3   4
ENDBRANCH   2   3
ENDBRANCH   1   2
BRANCH   1  26
ATOM     26  C   UNL A   1      41.094  23.127  27.217  1.00  0.00     0.116 C 
BRANCH  26  27
ATOM     27  N   UNL A   1      41.509  23.958  26.097  1.00  0.00    -0.352 N 
ATOM     28  C   UNL A   1      41.691  25.325  26.070  1.00  0.00     0.251 C 
ATOM     29  H   UNL A   1      41.682  23.485  25.251  1.00  0.00     0.163 HD
ATOM     30  O   UNL A   1      41.944  25.893  25.022  1.00  0.00    -0.269 OA
BRANCH  28  31
ATOM     31  C   UNL A   1      41.527  26.091  27.327  1.00  0.00     0.039 A 
ATOM     32  C   UNL A   1      42.559  26.936  27.737  1.00  0.00     0.014 A 
ATOM     33  C   UNL A   1      40.343  26.011  28.064  1.00  0.00     0.014 A 
ATOM     34  C   UNL A   1      42.376  27.751  28.856  1.00  0.00     0.010 A 
ATOM     35  C   UNL A   1      40.134  26.880  29.130  1.00  0.00     0.010 A 
ATOM     36  C   UNL A   1      41.149  27.757  29.539  1.00  0.00    -0.014 A 
BRANCH  36  37
ATOM     37  C   UNL A   1      40.913  28.676  30.681  1.00  0.00     0.031 A 
ATOM     38  C   UNL A   1      41.758  28.573  31.922  1.00  0.00     0.074 A 
ATOM     39  C   UNL A   1      39.910  29.573  30.617  1.00  0.00     0.049 A 
ATOM     40  N   UNL A   1      41.698  29.281  33.020  1.00  0.00    -0.248 NA
ATOM     41  C   UNL A   1      42.787  27.520  31.943  1.00  0.00     0.031 C 
ATOM     42  C   UNL A   1      38.990  29.738  29.488  1.00  0.00     0.029 A 
ATOM     43  N   UNL A   1      39.498  30.519  31.522  1.00  0.00    -0.354 N 
ATOM     44  C   UNL A   1      42.672  28.758  33.863  1.00  0.00     0.074 A 
ATOM     45  C   UNL A   1      43.264  27.632  33.173  1.00  0.00     0.031 C 
ATOM     46  C   UNL A   1      38.151  30.753  29.751  1.00  0.00     0.029 A 
ATOM     47  C   UNL A   1      38.448  31.287  31.076  1.00  0.00     0.049 A 
ATOM     48  H   UNL A   1      39.914  30.638  32.404  1.00  0.00     0.167 HD
ATOM     49  C   UNL A   1      43.058  29.188  35.087  1.00  0.00     0.031 A 
ATOM     50  C   UNL A   1      37.801  32.312  31.665  1.00  0.00     0.031 A 
ATOM     51  C   UNL A   1      42.470  30.309  35.769  1.00  0.00     0.049 A 
ATOM     52  C   UNL A   1      38.244  32.769  33.028  1.00  0.00     0.074 A 
ATOM     53  C   UNL A   1      42.816  30.853  36.994  1.00  0.00     0.029 A 
ATOM     54  N   UNL A   1      41.409  31.062  35.284  1.00  0.00    -0.354 N 
ATOM     55  N   UNL A   1      39.209  32.300  33.782  1.00  0.00    -0.248 NA
ATOM     56  C   UNL A   1      37.521  33.908  33.609  1.00  0.00     0.031 C 
ATOM     57  C   UNL A   1      41.936  31.905  37.270  1.00  0.00     0.029 A 
ATOM     58  C   UNL A   1      41.079  32.054  36.191  1.00  0.00     0.049 A 
ATOM     59  H   UNL A   1      40.959  30.912  34.421  1.00  0.00     0.167 HD
ATOM     60  C   UNL A   1      39.229  33.106  34.915  1.00  0.00     0.074 A 
ATOM     61  C   UNL A   1      38.190  34.100  34.738  1.00  0.00     0.031 C 
ATOM     62  C   UNL A   1      40.037  33.032  36.002  1.00  0.00     0.031 A 
BRANCH  49  63
ATOM     63  C   UNL A   1      44.174  28.433  35.763  1.00  0.00    -0.014 A 
ATOM     64  C   UNL A   1      45.519  28.801  35.568  1.00  0.00     0.010 A 
ATOM     65  C   UNL A   1      43.878  27.354  36.615  1.00  0.00     0.010 A 
ATOM     66  C   UNL A   1      46.548  28.070  36.168  1.00  0.00     0.020 A 
ATOM     67  C   UNL A   1      44.903  26.640  37.242  1.00  0.00     0.020 A 
ATOM     68  C   UNL A   1      46.234  26.990  36.996  1.00  0.00     0.054 A 
BRANCH  68  69
ATOM     69  S   UNL A   1      47.589  26.061  37.765  1.00  0.00     0.124 S 
ATOM     70  O   UNL A   1      48.733  26.475  36.957  1.00  0.00    -0.237 OA
ATOM     71  O   UNL A   1      47.577  26.556  39.139  1.00  0.00    -0.237 OA
ATOM     72  O   UNL A   1      47.186  24.665  37.606  1.00  0.00    -0.744 OA
ENDBRANCH  68  69
ENDBRANCH  49  63
BRANCH  50  73
ATOM     73  C   UNL A   1      36.694  33.003  30.948  1.00  0.00    -0.014 A 
ATOM     74  C   UNL A   1      35.363  32.834  31.366  1.00  0.00     0.010 A 
ATOM     75  C   UNL A   1      36.965  33.844  29.853  1.00  0.00     0.010 A 
ATOM     76  C   UNL A   1      34.320  33.477  30.693  1.00  0.00     0.020 A 
ATOM     77  C   UNL A   1      35.928  34.510  29.194  1.00  0.00     0.020 A 
ATOM     78  C   UNL A   1      34.610  34.314  29.612  1.00  0.00     0.054 A 
BRANCH  78  79
ATOM     79  S   UNL A   1      33.246  35.181  28.787  1.00  0.00     0.124 S 
ATOM     80  O   UNL A   1      33.957  36.152  27.963  1.00  0.00    -0.237 OA
ATOM     81  O   UNL A   1      32.578  34.102  28.064  1.00  0.00    -0.237 OA
ATOM     82  O   UNL A   1      32.479  35.743  29.898  1.00  0.00    -0.744 OA
ENDBRANCH  78  79
ENDBRANCH  50  73
BRANCH  62  83
ATOM     83  C   UNL A   1      39.853  34.081  37.067  1.00  0.00    -0.014 A 
ATOM     84  C   UNL A   1      40.484  35.335  36.977  1.00  0.00     0.010 A 
ATOM     85  C   UNL A   1      39.008  33.815  38.161  1.00  0.00     0.010 A 
ATOM     86  C   UNL A   1      40.311  36.286  37.986  1.00  0.00     0.020 A 
ATOM     87  C   UNL A   1      38.809  34.775  39.156  1.00  0.00     0.020 A 
ATOM     88  C   UNL A   1      39.477  35.998  39.072  1.00  0.00     0.054 A 
BRANCH  88  89
ATOM     89  S   UNL A   1      39.251  37.255  40.359  1.00  0.00     0.124 S 
ATOM     90  O   UNL A   1      38.686  36.469  41.454  1.00  0.00    -0.237 OA
ATOM     91  O   UNL A   1      40.610  37.744  40.573  1.00  0.00    -0.237 OA
ATOM     92  O   UNL A   1      38.338  38.217  39.747  1.00  0.00    -0.744 OA
ENDBRANCH  88  89
ENDBRANCH  62  83
ENDBRANCH  36  37
ENDBRANCH  28  31
ENDBRANCH  26  27
ENDBRANCH   1  26
TORSDOF 17
ENDMDL
MODEL 3
REMARK VINA RESULT:     -10.7      3.690      9.031
REMARK SMILES CC[C@@H]1SC[C@@H](C(=O)NCCCCNC(=O)c2ccc(-c3c4nc(c(-c5ccc(S(=O)(=O)[O-])cc5)c5ccc([nH]5)c(-c5ccc(S(=O)(=O)[O-])cc5)c5nc(c(-c6ccc(S(=O)(=O)[O-])cc6)c6ccc3[nH]6)C=C5)C=C4)cc2)N1C(=O)NC1C(C)(C)C1(C)C
REMARK SMILES IDX 12 1 11 2 10 3 9 4 7 5 8 6 6 8 3 9 4 10 77 11 5 12 2 13 1 14
REMARK SMILES IDX 78 15 79 16 80 17 81 19 82 20 85 21 83 22 84 23 86 24 87 25
REMARK SMILES IDX 13 26 14 27 15 28 16 30 17 31 18 32 76 33 19 34 75 35 20 36
REMARK SMILES IDX 21 37 22 38 69 39 23 40 74 41 68 42 70 43 24 44 73 45 67 46
REMARK SMILES IDX 66 47 25 49 55 50 36 51 54 52 37 53 40 54 53 55 71 56 38 57
REMARK SMILES IDX 39 58 52 60 72 61 41 62 26 63 27 64 35 65 28 66 34 67 29 68
REMARK SMILES IDX 30 69 31 70 32 71 33 72 56 73 57 74 65 75 58 76 64 77 59 78
REMARK SMILES IDX 60 79 61 80 62 81 63 82 42 83 43 84 51 85 44 86 50 87 45 88
REMARK SMILES IDX 46 89 47 90 48 91 49 92
REMARK H PARENT 9 7 80 18 14 29 70 48 40 59
REMARK Flexibility Score: inf
ROOT
ATOM      1  C   UNL A   1      37.507  21.251  25.225  1.00  0.00     0.023 C 
ENDROOT
BRANCH   1   2
ATOM      2  C   UNL A   1      37.017  22.461  24.431  1.00  0.00     0.023 C 
BRANCH   2   3
ATOM      3  C   UNL A   1      36.104  23.394  25.223  1.00  0.00     0.116 C 
BRANCH   3   4
ATOM      4  N   UNL A   1      35.601  22.776  26.430  1.00  0.00    -0.354 N 
ATOM      5  C   UNL A   1      34.392  22.230  26.741  1.00  0.00     0.243 C 
ATOM      6  O   UNL A   1      34.376  21.531  27.765  1.00  0.00    -0.273 OA
ATOM      7  H   UNL A   1      36.255  22.744  27.165  1.00  0.00     0.163 HD
BRANCH   5   8
ATOM      8  C   UNL A   1      33.142  22.263  25.813  1.00  0.00     0.187 C 
ATOM      9  C   UNL A   1      32.947  23.896  23.986  1.00  0.00     0.145 C 
ATOM     10  S   UNL A   1      33.289  22.303  23.138  1.00  0.00    -0.134 SA
ATOM     11  N   UNL A   1      32.631  23.591  25.381  1.00  0.00    -0.300 N 
ATOM     12  C   UNL A   1      33.382  21.325  24.640  1.00  0.00     0.107 C 
BRANCH   9  13
ATOM     13  C   UNL A   1      31.978  24.632  23.060  1.00  0.00     0.033 C 
ATOM     14  C   UNL A   1      30.558  24.071  23.262  1.00  0.00     0.007 C 
ENDBRANCH   9  13
BRANCH  11  15
ATOM     15  C   UNL A   1      32.122  24.329  26.417  1.00  0.00     0.319 C 
ATOM     16  O   UNL A   1      31.319  23.820  27.212  1.00  0.00    -0.249 OA
ATOM     17  N   UNL A   1      32.411  25.609  26.718  1.00  0.00    -0.334 N 
ATOM     18  H   UNL A   1      31.976  25.892  27.554  1.00  0.00     0.165 HD
BRANCH  17  19
ATOM     19  C   UNL A   1      33.179  26.655  26.149  1.00  0.00     0.096 C 
ATOM     20  C   UNL A   1      32.541  27.633  25.157  1.00  0.00    -0.007 C 
ATOM     21  C   UNL A   1      33.039  28.131  26.520  1.00  0.00    -0.007 C 
ATOM     22  C   UNL A   1      33.294  28.045  23.912  1.00  0.00     0.014 C 
ATOM     23  C   UNL A   1      31.049  27.539  24.884  1.00  0.00     0.014 C 
ATOM     24  C   UNL A   1      32.033  28.625  27.532  1.00  0.00     0.014 C 
ATOM     25  C   UNL A   1      34.336  28.926  26.579  1.00  0.00     0.014 C 
ENDBRANCH  17  19
ENDBRANCH  11  15
ENDBRANCH   5   8
ENDBRANCH   3   4
ENDBRANCH   2   3
ENDBRANCH   1   2
BRANCH   1  26
ATOM     26  C   UNL A   1      38.879  21.432  25.868  1.00  0.00     0.116 C 
BRANCH  26  27
ATOM     27  N   UNL A   1      39.659  20.205  25.935  1.00  0.00    -0.352 N 
ATOM     28  C   UNL A   1      41.010  20.066  26.171  1.00  0.00     0.251 C 
ATOM     29  H   UNL A   1      39.158  19.369  25.795  1.00  0.00     0.163 HD
ATOM     30  O   UNL A   1      41.539  18.971  26.095  1.00  0.00    -0.269 OA
BRANCH  28  31
ATOM     31  C   UNL A   1      41.810  21.276  26.471  1.00  0.00     0.039 A 
ATOM     32  C   UNL A   1      42.205  22.097  25.413  1.00  0.00     0.014 A 
ATOM     33  C   UNL A   1      42.122  21.619  27.788  1.00  0.00     0.014 A 
ATOM     34  C   UNL A   1      42.860  23.300  25.686  1.00  0.00     0.010 A 
ATOM     35  C   UNL A   1      42.703  22.853  28.060  1.00  0.00     0.010 A 
ATOM     36  C   UNL A   1      43.081  23.705  27.012  1.00  0.00    -0.014 A 
BRANCH  36  37
ATOM     37  C   UNL A   1      43.705  25.017  27.318  1.00  0.00     0.031 A 
ATOM     38  C   UNL A   1      42.871  26.140  27.874  1.00  0.00     0.074 A 
ATOM     39  C   UNL A   1      45.012  25.211  27.053  1.00  0.00     0.049 A 
ATOM     40  N   UNL A   1      43.236  27.354  28.197  1.00  0.00    -0.248 NA
ATOM     41  C   UNL A   1      41.437  25.873  28.067  1.00  0.00     0.031 C 
ATOM     42  C   UNL A   1      45.916  24.216  26.470  1.00  0.00     0.029 A 
ATOM     43  N   UNL A   1      45.810  26.310  27.246  1.00  0.00    -0.354 N 
ATOM     44  C   UNL A   1      42.079  27.996  28.624  1.00  0.00     0.074 A 
ATOM     45  C   UNL A   1      40.991  27.057  28.458  1.00  0.00     0.031 C 
ATOM     46  C   UNL A   1      47.151  24.737  26.392  1.00  0.00     0.029 A 
ATOM     47  C   UNL A   1      47.121  26.110  26.885  1.00  0.00     0.049 A 
ATOM     48  H   UNL A   1      45.476  27.161  27.609  1.00  0.00     0.167 HD
ATOM     49  C   UNL A   1      41.936  29.243  29.132  1.00  0.00     0.031 A 
ATOM     50  C   UNL A   1      48.184  26.936  26.952  1.00  0.00     0.031 A 
ATOM     51  C   UNL A   1      43.020  30.174  29.298  1.00  0.00     0.049 A 
ATOM     52  C   UNL A   1      48.001  28.318  27.515  1.00  0.00     0.074 A 
ATOM     53  C   UNL A   1      42.990  31.446  29.842  1.00  0.00     0.029 A 
ATOM     54  N   UNL A   1      44.334  29.932  28.922  1.00  0.00    -0.354 N 
ATOM     55  N   UNL A   1      46.909  28.885  27.972  1.00  0.00    -0.248 NA
ATOM     56  C   UNL A   1      49.199  29.166  27.589  1.00  0.00     0.031 C 
ATOM     57  C   UNL A   1      44.275  31.991  29.753  1.00  0.00     0.029 A 
ATOM     58  C   UNL A   1      45.119  31.037  29.207  1.00  0.00     0.049 A 
ATOM     59  H   UNL A   1      44.660  29.098  28.513  1.00  0.00     0.167 HD
ATOM     60  C   UNL A   1      47.295  30.145  28.415  1.00  0.00     0.074 A 
ATOM     61  C   UNL A   1      48.722  30.249  28.186  1.00  0.00     0.031 C 
ATOM     62  C   UNL A   1      46.538  31.126  28.966  1.00  0.00     0.031 A 
BRANCH  49  63
ATOM     63  C   UNL A   1      40.549  29.666  29.542  1.00  0.00    -0.014 A 
ATOM     64  C   UNL A   1      39.603  30.076  28.584  1.00  0.00     0.010 A 
ATOM     65  C   UNL A   1      40.179  29.639  30.899  1.00  0.00     0.010 A 
ATOM     66  C   UNL A   1      38.332  30.503  28.979  1.00  0.00     0.020 A 
ATOM     67  C   UNL A   1      38.898  30.036  31.295  1.00  0.00     0.020 A 
ATOM     68  C   UNL A   1      37.990  30.486  30.333  1.00  0.00     0.054 A 
BRANCH  68  69
ATOM     69  S   UNL A   1      36.333  31.042  30.818  1.00  0.00     0.124 S 
ATOM     70  O   UNL A   1      35.950  30.026  31.795  1.00  0.00    -0.237 OA
ATOM     71  O   UNL A   1      36.589  32.373  31.364  1.00  0.00    -0.237 OA
ATOM     72  O   UNL A   1      35.579  31.020  29.567  1.00  0.00    -0.744 OA
ENDBRANCH  68  69
ENDBRANCH  49  63
BRANCH  50  73
ATOM     73  C   UNL A   1      49.525  26.460  26.513  1.00  0.00    -0.014 A 
ATOM     74  C   UNL A   1      49.978  26.720  25.208  1.00  0.00     0.010 A 
ATOM     75  C   UNL A   1      50.360  25.756  27.399  1.00  0.00     0.010 A 
ATOM     76  C   UNL A   1      51.234  26.271  24.790  1.00  0.00     0.020 A 
ATOM     77  C   UNL A   1      51.629  25.330  26.994  1.00  0.00     0.020 A 
ATOM     78  C   UNL A   1      52.053  25.580  25.687  1.00  0.00     0.054 A 
BRANCH  78  79
ATOM     79  S   UNL A   1      53.701  25.054  25.140  1.00  0.00     0.124 S 
ATOM     80  O   UNL A   1      53.730  25.533  23.762  1.00  0.00    -0.237 OA
ATOM     81  O   UNL A   1      54.581  25.752  26.073  1.00  0.00    -0.237 OA
ATOM     82  O   UNL A   1      53.665  23.601  25.298  1.00  0.00    -0.744 OA
ENDBRANCH  78  79
ENDBRANCH  50  73
BRANCH  62  83
ATOM     83  C   UNL A   1      47.247  32.383  29.395  1.00  0.00    -0.014 A 
ATOM     84  C   UNL A   1      47.754  32.529  30.699  1.00  0.00     0.010 A 
ATOM     85  C   UNL A   1      47.435  33.422  28.465  1.00  0.00     0.010 A 
ATOM     86  C   UNL A   1      48.395  33.713  31.078  1.00  0.00     0.020 A 
ATOM     87  C   UNL A   1      48.102  34.594  28.832  1.00  0.00     0.020 A 
ATOM     88  C   UNL A   1      48.561  34.739  30.142  1.00  0.00     0.054 A 
BRANCH  88  89
ATOM     89  S   UNL A   1      49.414  36.256  30.651  1.00  0.00     0.124 S 
ATOM     90  O   UNL A   1      48.353  37.254  30.535  1.00  0.00    -0.237 OA
ATOM     91  O   UNL A   1      49.838  35.946  32.013  1.00  0.00    -0.237 OA
ATOM     92  O   UNL A   1      50.499  36.386  29.681  1.00  0.00    -0.744 OA
ENDBRANCH  88  89
ENDBRANCH  62  83
ENDBRANCH  36  37
ENDBRANCH  28  31
ENDBRANCH  26  27
ENDBRANCH   1  26
TORSDOF 17
ENDMDL
