MODEL 1
REMARK VINA RESULT:     -12.8      0.000      0.000
REMARK SMILES Cc1cccc(CS[C@@H]2CC[C@]([NH3+])(C(=O)NCCCCNC(=O)c3ccc(-c4c5nc(c(-c6ccc(S(=O)(=O)[O-])cc6)c6ccc([nH]6)c(-c6ccc(S(=O)(=O)[O-])cc6)c6nc(c(-c7ccc(S(=O)(=O)[O-])cc7)c7ccc4[nH]7)C=C6)C=C5)cc3)C2)c1
REMARK SMILES IDX 18 1 17 2 16 3 14 4 15 5 12 7 9 8 10 9 84 10 11 11 8 12 7 13
REMARK SMILES IDX 6 14 1 15 2 16 3 17 85 18 4 19 5 20 13 21 19 25 20 26 21 27
REMARK SMILES IDX 22 28 23 30 24 31 25 32 83 33 26 34 82 35 27 36 28 37 29 38
REMARK SMILES IDX 76 39 30 40 81 41 75 42 77 43 31 44 80 45 74 46 73 47 32 49
REMARK SMILES IDX 62 50 43 51 61 52 44 53 47 54 60 55 78 56 45 57 46 58 59 60
REMARK SMILES IDX 79 61 48 62 33 63 34 64 42 65 35 66 41 67 36 68 37 69 38 70
REMARK SMILES IDX 39 71 40 72 63 73 64 74 72 75 65 76 71 77 66 78 67 79 68 80
REMARK SMILES IDX 69 81 70 82 49 83 50 84 58 85 51 86 57 87 52 88 53 89 54 90
REMARK SMILES IDX 55 91 56 92
REMARK H PARENT 16 6 13 22 13 23 13 24 21 29 77 48 47 59
REMARK Flexibility Score: inf
ROOT
ATOM      1  C   UNL A   1      32.109  30.264  26.060  1.00  0.00     0.023 C 
ENDROOT
BRANCH   1   2
ATOM      2  C   UNL A   1      31.783  29.258  24.953  1.00  0.00     0.116 C 
BRANCH   2   3
ATOM      3  N   UNL A   1      32.679  29.324  23.806  1.00  0.00    -0.351 N 
ATOM      4  C   UNL A   1      33.185  28.327  23.019  1.00  0.00     0.281 C 
ATOM      5  O   UNL A   1      33.914  28.662  22.078  1.00  0.00    -0.268 OA
ATOM      6  H   UNL A   1      32.966  30.233  23.557  1.00  0.00     0.163 HD
BRANCH   4   7
ATOM      7  C   UNL A   1      32.933  26.824  23.344  1.00  0.00     0.175 C 
ATOM      8  C   UNL A   1      33.675  24.910  24.659  1.00  0.00     0.054 C 
ATOM      9  C   UNL A   1      33.802  24.539  23.180  1.00  0.00     0.022 C 
ATOM     10  C   UNL A   1      33.567  26.436  24.708  1.00  0.00     0.093 C 
ATOM     11  C   UNL A   1      33.658  25.850  22.407  1.00  0.00     0.080 C 
BRANCH   8  12
ATOM     12  S   UNL A   1      34.852  24.059  25.774  1.00  0.00    -0.154 SA
BRANCH  12  13
ATOM     13  C   UNL A   1      35.373  22.582  24.840  1.00  0.00     0.105 C 
BRANCH  13  14
ATOM     14  C   UNL A   1      34.429  21.412  24.882  1.00  0.00    -0.038 A 
ATOM     15  C   UNL A   1      34.621  17.649  24.349  1.00  0.00     0.044 C 
ATOM     16  C   UNL A   1      34.074  19.013  24.645  1.00  0.00    -0.051 A 
ATOM     17  C   UNL A   1      32.708  19.199  24.884  1.00  0.00     0.003 A 
ATOM     18  C   UNL A   1      34.925  20.121  24.655  1.00  0.00     0.008 A 
ATOM     19  C   UNL A   1      32.207  20.472  25.152  1.00  0.00     0.001 A 
ATOM     20  C   UNL A   1      33.065  21.573  25.162  1.00  0.00     0.004 A 
ENDBRANCH  13  14
ENDBRANCH  12  13
ENDBRANCH   8  12
BRANCH   7  21
ATOM     21  N   UNL A   1      31.471  26.588  23.369  1.00  0.00    -0.345 N 
ATOM     22  H   UNL A   1      31.222  26.085  24.222  1.00  0.00     0.345 HD
ATOM     23  H   UNL A   1      31.202  26.032  22.557  1.00  0.00     0.345 HD
ATOM     24  H   UNL A   1      30.981  27.482  23.347  1.00  0.00     0.345 HD
ENDBRANCH   7  21
ENDBRANCH   4   7
ENDBRANCH   2   3
ENDBRANCH   1   2
BRANCH   1  25
ATOM     25  C   UNL A   1      32.908  29.724  27.242  1.00  0.00     0.023 C 
BRANCH  25  26
ATOM     26  C   UNL A   1      34.397  29.539  26.981  1.00  0.00     0.116 C 
BRANCH  26  27
ATOM     27  N   UNL A   1      35.179  30.762  27.053  1.00  0.00    -0.352 N 
ATOM     28  C   UNL A   1      36.322  30.943  27.822  1.00  0.00     0.251 C 
ATOM     29  H   UNL A   1      34.873  31.525  26.512  1.00  0.00     0.163 HD
ATOM     30  O   UNL A   1      36.646  32.015  28.301  1.00  0.00    -0.269 OA
BRANCH  28  31
ATOM     31  C   UNL A   1      37.240  29.784  27.890  1.00  0.00     0.039 A 
ATOM     32  C   UNL A   1      37.181  28.978  29.034  1.00  0.00     0.014 A 
ATOM     33  C   UNL A   1      38.295  29.680  26.992  1.00  0.00     0.014 A 
ATOM     34  C   UNL A   1      38.279  28.192  29.373  1.00  0.00     0.010 A 
ATOM     35  C   UNL A   1      39.419  28.983  27.380  1.00  0.00     0.010 A 
ATOM     36  C   UNL A   1      39.427  28.274  28.590  1.00  0.00    -0.014 A 
BRANCH  36  37
ATOM     37  C   UNL A   1      40.718  27.714  28.961  1.00  0.00     0.031 A 
ATOM     38  C   UNL A   1      41.028  26.305  28.639  1.00  0.00     0.074 A 
ATOM     39  C   UNL A   1      41.685  28.507  29.466  1.00  0.00     0.049 A 
ATOM     40  N   UNL A   1      42.061  25.671  29.078  1.00  0.00    -0.248 NA
ATOM     41  C   UNL A   1      40.144  25.463  27.838  1.00  0.00     0.031 C 
ATOM     42  C   UNL A   1      43.116  28.228  29.521  1.00  0.00     0.029 A 
ATOM     43  N   UNL A   1      41.547  29.651  30.231  1.00  0.00    -0.354 N 
ATOM     44  C   UNL A   1      42.164  24.504  28.364  1.00  0.00     0.074 A 
ATOM     45  C   UNL A   1      40.882  24.356  27.720  1.00  0.00     0.031 C 
ATOM     46  C   UNL A   1      43.678  29.017  30.449  1.00  0.00     0.029 A 
ATOM     47  C   UNL A   1      42.609  29.710  31.141  1.00  0.00     0.049 A 
ATOM     48  H   UNL A   1      40.822  30.312  30.150  1.00  0.00     0.167 HD
ATOM     49  C   UNL A   1      43.378  23.886  28.291  1.00  0.00     0.031 A 
ATOM     50  C   UNL A   1      42.381  29.613  32.488  1.00  0.00     0.031 A 
ATOM     51  C   UNL A   1      44.330  24.440  29.266  1.00  0.00     0.049 A 
ATOM     52  C   UNL A   1      42.962  28.354  33.118  1.00  0.00     0.074 A 
ATOM     53  C   UNL A   1      45.511  25.160  29.197  1.00  0.00     0.029 A 
ATOM     54  N   UNL A   1      43.952  24.470  30.604  1.00  0.00    -0.354 N 
ATOM     55  N   UNL A   1      43.596  27.429  32.447  1.00  0.00    -0.248 NA
ATOM     56  C   UNL A   1      42.840  28.002  34.533  1.00  0.00     0.031 C 
ATOM     57  C   UNL A   1      45.820  25.640  30.509  1.00  0.00     0.029 A 
ATOM     58  C   UNL A   1      44.839  25.191  31.376  1.00  0.00     0.049 A 
ATOM     59  H   UNL A   1      43.147  24.028  30.959  1.00  0.00     0.167 HD
ATOM     60  C   UNL A   1      43.945  26.396  33.269  1.00  0.00     0.074 A 
ATOM     61  C   UNL A   1      43.446  26.799  34.573  1.00  0.00     0.031 C 
ATOM     62  C   UNL A   1      44.594  25.285  32.810  1.00  0.00     0.031 A 
BRANCH  49  63
ATOM     63  C   UNL A   1      43.759  22.904  27.196  1.00  0.00    -0.014 A 
ATOM     64  C   UNL A   1      42.861  21.884  26.816  1.00  0.00     0.010 A 
ATOM     65  C   UNL A   1      45.019  22.864  26.565  1.00  0.00     0.010 A 
ATOM     66  C   UNL A   1      43.221  20.869  25.907  1.00  0.00     0.020 A 
ATOM     67  C   UNL A   1      45.390  21.869  25.652  1.00  0.00     0.020 A 
ATOM     68  C   UNL A   1      44.493  20.862  25.339  1.00  0.00     0.054 A 
BRANCH  68  69
ATOM     69  S   UNL A   1      44.977  19.532  24.211  1.00  0.00     0.124 S 
ATOM     70  O   UNL A   1      44.487  20.019  22.925  1.00  0.00    -0.237 OA
ATOM     71  O   UNL A   1      46.428  19.499  24.365  1.00  0.00    -0.237 OA
ATOM     72  O   UNL A   1      44.275  18.360  24.734  1.00  0.00    -0.744 OA
ENDBRANCH  68  69
ENDBRANCH  49  63
BRANCH  50  73
ATOM     73  C   UNL A   1      41.154  30.357  32.906  1.00  0.00    -0.014 A 
ATOM     74  C   UNL A   1      40.020  29.567  33.212  1.00  0.00     0.010 A 
ATOM     75  C   UNL A   1      41.248  31.643  33.464  1.00  0.00     0.010 A 
ATOM     76  C   UNL A   1      39.132  29.952  34.220  1.00  0.00     0.020 A 
ATOM     77  C   UNL A   1      40.342  32.042  34.462  1.00  0.00     0.020 A 
ATOM     78  C   UNL A   1      39.350  31.155  34.892  1.00  0.00     0.054 A 
BRANCH  78  79
ATOM     79  S   UNL A   1      38.450  31.439  36.448  1.00  0.00     0.124 S 
ATOM     80  O   UNL A   1      37.369  32.327  36.032  1.00  0.00    -0.237 OA
ATOM     81  O   UNL A   1      38.038  30.082  36.818  1.00  0.00    -0.237 OA
ATOM     82  O   UNL A   1      39.458  32.040  37.316  1.00  0.00    -0.744 OA
ENDBRANCH  78  79
ENDBRANCH  50  73
BRANCH  62  83
ATOM     83  C   UNL A   1      45.022  24.135  33.683  1.00  0.00    -0.014 A 
ATOM     84  C   UNL A   1      46.334  23.978  34.155  1.00  0.00     0.010 A 
ATOM     85  C   UNL A   1      44.106  23.094  33.959  1.00  0.00     0.010 A 
ATOM     86  C   UNL A   1      46.691  22.872  34.939  1.00  0.00     0.020 A 
ATOM     87  C   UNL A   1      44.455  21.978  34.720  1.00  0.00     0.020 A 
ATOM     88  C   UNL A   1      45.743  21.887  35.231  1.00  0.00     0.054 A 
BRANCH  88  89
ATOM     89  S   UNL A   1      46.217  20.471  36.252  1.00  0.00     0.124 S 
ATOM     90  O   UNL A   1      45.865  20.914  37.599  1.00  0.00    -0.237 OA
ATOM     91  O   UNL A   1      45.379  19.409  35.702  1.00  0.00    -0.237 OA
ATOM     92  O   UNL A   1      47.650  20.326  36.006  1.00  0.00    -0.744 OA
ENDBRANCH  88  89
ENDBRANCH  62  83
ENDBRANCH  36  37
ENDBRANCH  28  31
ENDBRANCH  26  27
ENDBRANCH  25  26
ENDBRANCH   1  25
TORSDOF 18
ENDMDL
MODEL 2
REMARK VINA RESULT:     -12.7      1.482      1.977
REMARK SMILES Cc1cccc(CS[C@@H]2CC[C@]([NH3+])(C(=O)NCCCCNC(=O)c3ccc(-c4c5nc(c(-c6ccc(S(=O)(=O)[O-])cc6)c6ccc([nH]6)c(-c6ccc(S(=O)(=O)[O-])cc6)c6nc(c(-c7ccc(S(=O)(=O)[O-])cc7)c7ccc4[nH]7)C=C6)C=C5)cc3)C2)c1
REMARK SMILES IDX 18 1 17 2 16 3 14 4 15 5 12 7 9 8 10 9 84 10 11 11 8 12 7 13
REMARK SMILES IDX 6 14 1 15 2 16 3 17 85 18 4 19 5 20 13 21 19 25 20 26 21 27
REMARK SMILES IDX 22 28 23 30 24 31 25 32 83 33 26 34 82 35 27 36 28 37 29 38
REMARK SMILES IDX 76 39 30 40 81 41 75 42 77 43 31 44 80 45 74 46 73 47 32 49
REMARK SMILES IDX 62 50 43 51 61 52 44 53 47 54 60 55 78 56 45 57 46 58 59 60
REMARK SMILES IDX 79 61 48 62 33 63 34 64 42 65 35 66 41 67 36 68 37 69 38 70
REMARK SMILES IDX 39 71 40 72 63 73 64 74 72 75 65 76 71 77 66 78 67 79 68 80
REMARK SMILES IDX 69 81 70 82 49 83 50 84 58 85 51 86 57 87 52 88 53 89 54 90
REMARK SMILES IDX 55 91 56 92
REMARK H PARENT 16 6 13 22 13 23 13 24 21 29 77 48 47 59
REMARK Flexibility Score: inf
ROOT
ATOM      1  C   UNL A   1      32.258  28.499  27.520  1.00  0.00     0.023 C 
ENDROOT
BRANCH   1   2
ATOM      2  C   UNL A   1      32.235  27.219  26.682  1.00  0.00     0.116 C 
BRANCH   2   3
ATOM      3  N   UNL A   1      31.101  26.348  26.956  1.00  0.00    -0.351 N 
ATOM      4  C   UNL A   1      30.394  25.524  26.124  1.00  0.00     0.281 C 
ATOM      5  O   UNL A   1      29.478  24.863  26.625  1.00  0.00    -0.268 OA
ATOM      6  H   UNL A   1      30.793  26.352  27.892  1.00  0.00     0.163 HD
BRANCH   4   7
ATOM      7  C   UNL A   1      30.667  25.486  24.591  1.00  0.00     0.175 C 
ATOM      8  C   UNL A   1      31.900  24.374  22.805  1.00  0.00     0.054 C 
ATOM      9  C   UNL A   1      32.314  25.847  22.813  1.00  0.00     0.022 C 
ATOM     10  C   UNL A   1      31.244  24.109  24.163  1.00  0.00     0.093 C 
ATOM     11  C   UNL A   1      31.794  26.421  24.131  1.00  0.00     0.080 C 
BRANCH   8  12
ATOM     12  S   UNL A   1      33.174  23.215  22.184  1.00  0.00    -0.154 SA
BRANCH  12  13
ATOM     13  C   UNL A   1      33.652  22.242  23.650  1.00  0.00     0.105 C 
BRANCH  13  14
ATOM     14  C   UNL A   1      34.873  22.720  24.386  1.00  0.00    -0.038 A 
ATOM     15  C   UNL A   1      38.297  21.339  25.311  1.00  0.00     0.044 C 
ATOM     16  C   UNL A   1      37.131  22.274  25.187  1.00  0.00    -0.051 A 
ATOM     17  C   UNL A   1      37.154  23.530  25.801  1.00  0.00     0.003 A 
ATOM     18  C   UNL A   1      35.993  21.883  24.476  1.00  0.00     0.008 A 
ATOM     19  C   UNL A   1      36.062  24.390  25.686  1.00  0.00     0.001 A 
ATOM     20  C   UNL A   1      34.931  23.992  24.973  1.00  0.00     0.004 A 
ENDBRANCH  13  14
ENDBRANCH  12  13
ENDBRANCH   8  12
BRANCH   7  21
ATOM     21  N   UNL A   1      29.396  25.756  23.880  1.00  0.00    -0.345 N 
ATOM     22  H   UNL A   1      28.619  25.699  24.539  1.00  0.00     0.345 HD
ATOM     23  H   UNL A   1      29.266  25.064  23.141  1.00  0.00     0.345 HD
ATOM     24  H   UNL A   1      29.426  26.689  23.470  1.00  0.00     0.345 HD
ENDBRANCH   7  21
ENDBRANCH   4   7
ENDBRANCH   2   3
ENDBRANCH   1   2
BRANCH   1  25
ATOM     25  C   UNL A   1      33.019  29.678  26.922  1.00  0.00     0.023 C 
BRANCH  25  26
ATOM     26  C   UNL A   1      34.529  29.495  26.844  1.00  0.00     0.116 C 
BRANCH  26  27
ATOM     27  N   UNL A   1      35.295  30.715  27.034  1.00  0.00    -0.352 N 
ATOM     28  C   UNL A   1      36.386  30.858  27.883  1.00  0.00     0.251 C 
ATOM     29  H   UNL A   1      35.019  31.506  26.517  1.00  0.00     0.163 HD
ATOM     30  O   UNL A   1      36.671  31.903  28.439  1.00  0.00    -0.269 OA
BRANCH  28  31
ATOM     31  C   UNL A   1      37.307  29.700  27.944  1.00  0.00     0.039 A 
ATOM     32  C   UNL A   1      37.280  28.913  29.102  1.00  0.00     0.014 A 
ATOM     33  C   UNL A   1      38.338  29.583  27.020  1.00  0.00     0.014 A 
ATOM     34  C   UNL A   1      38.387  28.133  29.424  1.00  0.00     0.010 A 
ATOM     35  C   UNL A   1      39.473  28.893  27.389  1.00  0.00     0.010 A 
ATOM     36  C   UNL A   1      39.514  28.203  28.609  1.00  0.00    -0.014 A 
BRANCH  36  37
ATOM     37  C   UNL A   1      40.815  27.650  28.954  1.00  0.00     0.031 A 
ATOM     38  C   UNL A   1      41.117  26.236  28.648  1.00  0.00     0.074 A 
ATOM     39  C   UNL A   1      41.795  28.452  29.420  1.00  0.00     0.049 A 
ATOM     40  N   UNL A   1      42.163  25.610  29.068  1.00  0.00    -0.248 NA
ATOM     41  C   UNL A   1      40.213  25.380  27.885  1.00  0.00     0.031 C 
ATOM     42  C   UNL A   1      43.227  28.175  29.441  1.00  0.00     0.029 A 
ATOM     43  N   UNL A   1      41.675  29.608  30.170  1.00  0.00    -0.354 N 
ATOM     44  C   UNL A   1      42.247  24.432  28.371  1.00  0.00     0.074 A 
ATOM     45  C   UNL A   1      40.948  24.272  27.765  1.00  0.00     0.031 C 
ATOM     46  C   UNL A   1      43.813  28.979  30.341  1.00  0.00     0.029 A 
ATOM     47  C   UNL A   1      42.762  29.683  31.050  1.00  0.00     0.049 A 
ATOM     48  H   UNL A   1      40.948  30.267  30.097  1.00  0.00     0.167 HD
ATOM     49  C   UNL A   1      43.460  23.814  28.276  1.00  0.00     0.031 A 
ATOM     50  C   UNL A   1      42.571  29.607  32.404  1.00  0.00     0.031 A 
ATOM     51  C   UNL A   1      44.437  24.384  29.216  1.00  0.00     0.049 A 
ATOM     52  C   UNL A   1      43.169  28.359  33.039  1.00  0.00     0.074 A 
ATOM     53  C   UNL A   1      45.615  25.103  29.103  1.00  0.00     0.029 A 
ATOM     54  N   UNL A   1      44.095  24.435  30.563  1.00  0.00    -0.354 N 
ATOM     55  N   UNL A   1      43.786  27.424  32.366  1.00  0.00    -0.248 NA
ATOM     56  C   UNL A   1      43.085  28.031  34.462  1.00  0.00     0.031 C 
ATOM     57  C   UNL A   1      45.959  25.604  30.399  1.00  0.00     0.029 A 
ATOM     58  C   UNL A   1      45.002  25.170  31.299  1.00  0.00     0.049 A 
ATOM     59  H   UNL A   1      43.301  23.998  30.946  1.00  0.00     0.167 HD
ATOM     60  C   UNL A   1      44.157  26.405  33.195  1.00  0.00     0.074 A 
ATOM     61  C   UNL A   1      43.694  26.829  34.505  1.00  0.00     0.031 C 
ATOM     62  C   UNL A   1      44.795  25.287  32.737  1.00  0.00     0.031 A 
BRANCH  49  63
ATOM     63  C   UNL A   1      43.813  22.813  27.187  1.00  0.00    -0.014 A 
ATOM     64  C   UNL A   1      42.945  21.737  26.908  1.00  0.00     0.010 A 
ATOM     65  C   UNL A   1      45.024  22.815  26.466  1.00  0.00     0.010 A 
ATOM     66  C   UNL A   1      43.291  20.709  26.007  1.00  0.00     0.020 A 
ATOM     67  C   UNL A   1      45.380  21.808  25.560  1.00  0.00     0.020 A 
ATOM     68  C   UNL A   1      44.517  20.747  25.347  1.00  0.00     0.054 A 
BRANCH  68  69
ATOM     69  S   UNL A   1      44.988  19.404  24.228  1.00  0.00     0.124 S 
ATOM     70  O   UNL A   1      44.521  19.896  22.935  1.00  0.00    -0.237 OA
ATOM     71  O   UNL A   1      46.437  19.344  24.398  1.00  0.00    -0.237 OA
ATOM     72  O   UNL A   1      44.258  18.247  24.747  1.00  0.00    -0.744 OA
ENDBRANCH  68  69
ENDBRANCH  49  63
BRANCH  50  73
ATOM     73  C   UNL A   1      41.354  30.357  32.842  1.00  0.00    -0.014 A 
ATOM     74  C   UNL A   1      40.203  29.578  33.109  1.00  0.00     0.010 A 
ATOM     75  C   UNL A   1      41.468  31.619  33.452  1.00  0.00     0.010 A 
ATOM     76  C   UNL A   1      39.315  29.940  34.125  1.00  0.00     0.020 A 
ATOM     77  C   UNL A   1      40.562  31.995  34.458  1.00  0.00     0.020 A 
ATOM     78  C   UNL A   1      39.550  31.111  34.846  1.00  0.00     0.054 A 
BRANCH  78  79
ATOM     79  S   UNL A   1      38.643  31.350  36.406  1.00  0.00     0.124 S 
ATOM     80  O   UNL A   1      38.238  29.990  36.749  1.00  0.00    -0.237 OA
ATOM     81  O   UNL A   1      39.670  31.935  37.273  1.00  0.00    -0.237 OA
ATOM     82  O   UNL A   1      37.560  32.253  36.032  1.00  0.00    -0.744 OA
ENDBRANCH  78  79
ENDBRANCH  50  73
BRANCH  62  83
ATOM     83  C   UNL A   1      45.248  24.152  33.617  1.00  0.00    -0.014 A 
ATOM     84  C   UNL A   1      46.565  24.021  34.084  1.00  0.00     0.010 A 
ATOM     85  C   UNL A   1      44.352  23.097  33.906  1.00  0.00     0.010 A 
ATOM     86  C   UNL A   1      46.945  22.928  34.875  1.00  0.00     0.020 A 
ATOM     87  C   UNL A   1      44.724  21.993  34.673  1.00  0.00     0.020 A 
ATOM     88  C   UNL A   1      46.016  21.929  35.179  1.00  0.00     0.054 A 
BRANCH  88  89
ATOM     89  S   UNL A   1      46.520  20.529  36.209  1.00  0.00     0.124 S 
ATOM     90  O   UNL A   1      46.428  21.076  37.561  1.00  0.00    -0.237 OA
ATOM     91  O   UNL A   1      45.515  19.527  35.867  1.00  0.00    -0.237 OA
ATOM     92  O   UNL A   1      47.877  20.232  35.755  1.00  0.00    -0.744 OA
ENDBRANCH  88  89
ENDBRANCH  62  83
ENDBRANCH  36  37
ENDBRANCH  28  31
ENDBRANCH  26  27
ENDBRANCH  25  26
ENDBRANCH   1  25
TORSDOF 18
ENDMDL
MODEL 3
REMARK VINA RESULT:     -12.5      2.099      2.641
REMARK SMILES Cc1cccc(CS[C@@H]2CC[C@]([NH3+])(C(=O)NCCCCNC(=O)c3ccc(-c4c5nc(c(-c6ccc(S(=O)(=O)[O-])cc6)c6ccc([nH]6)c(-c6ccc(S(=O)(=O)[O-])cc6)c6nc(c(-c7ccc(S(=O)(=O)[O-])cc7)c7ccc4[nH]7)C=C6)C=C5)cc3)C2)c1
REMARK SMILES IDX 18 1 17 2 16 3 14 4 15 5 12 7 9 8 10 9 84 10 11 11 8 12 7 13
REMARK SMILES IDX 6 14 1 15 2 16 3 17 85 18 4 19 5 20 13 21 19 25 20 26 21 27
REMARK SMILES IDX 22 28 23 30 24 31 25 32 83 33 26 34 82 35 27 36 28 37 29 38
REMARK SMILES IDX 76 39 30 40 81 41 75 42 77 43 31 44 80 45 74 46 73 47 32 49
REMARK SMILES IDX 62 50 43 51 61 52 44 53 47 54 60 55 78 56 45 57 46 58 59 60
REMARK SMILES IDX 79 61 48 62 33 63 34 64 42 65 35 66 41 67 36 68 37 69 38 70
REMARK SMILES IDX 39 71 40 72 63 73 64 74 72 75 65 76 71 77 66 78 67 79 68 80
REMARK SMILES IDX 69 81 70 82 49 83 50 84 58 85 51 86 57 87 52 88 53 89 54 90
REMARK SMILES IDX 55 91 56 92
REMARK H PARENT 16 6 13 22 13 23 13 24 21 29 77 48 47 59
REMARK Flexibility Score: inf
ROOT
ATOM      1  C   UNL A   1      31.752  28.564  27.392  1.00  0.00     0.023 C 
ENDROOT
BRANCH   1   2
ATOM      2  C   UNL A   1      31.250  27.662  26.263  1.00  0.00     0.116 C 
BRANCH   2   3
ATOM      3  N   UNL A   1      30.814  26.344  26.702  1.00  0.00    -0.351 N 
ATOM      4  C   UNL A   1      31.302  25.103  26.401  1.00  0.00     0.281 C 
ATOM      5  O   UNL A   1      30.756  24.133  26.939  1.00  0.00    -0.268 OA
ATOM      6  H   UNL A   1      30.043  26.347  27.316  1.00  0.00     0.163 HD
BRANCH   4   7
ATOM      7  C   UNL A   1      32.438  24.906  25.354  1.00  0.00     0.175 C 
ATOM      8  C   UNL A   1      34.273  23.468  24.638  1.00  0.00     0.054 C 
ATOM      9  C   UNL A   1      34.857  24.842  24.972  1.00  0.00     0.022 C 
ATOM     10  C   UNL A   1      32.892  23.421  25.298  1.00  0.00     0.093 C 
ATOM     11  C   UNL A   1      33.759  25.592  25.725  1.00  0.00     0.080 C 
BRANCH   8  12
ATOM     12  S   UNL A   1      35.422  22.062  24.866  1.00  0.00    -0.154 SA
BRANCH  12  13
ATOM     13  C   UNL A   1      34.392  20.751  25.606  1.00  0.00     0.105 C 
BRANCH  13  14
ATOM     14  C   UNL A   1      33.744  19.801  24.637  1.00  0.00    -0.038 A 
ATOM     15  C   UNL A   1      34.271  16.220  23.461  1.00  0.00     0.044 C 
ATOM     16  C   UNL A   1      33.690  17.595  23.603  1.00  0.00    -0.051 A 
ATOM     17  C   UNL A   1      32.617  18.003  22.804  1.00  0.00     0.003 A 
ATOM     18  C   UNL A   1      34.238  18.495  24.520  1.00  0.00     0.008 A 
ATOM     19  C   UNL A   1      32.088  19.286  22.938  1.00  0.00     0.001 A 
ATOM     20  C   UNL A   1      32.641  20.178  23.858  1.00  0.00     0.004 A 
ENDBRANCH  13  14
ENDBRANCH  12  13
ENDBRANCH   8  12
BRANCH   7  21
ATOM     21  N   UNL A   1      31.937  25.342  24.030  1.00  0.00    -0.345 N 
ATOM     22  H   UNL A   1      31.602  26.304  24.092  1.00  0.00     0.345 HD
ATOM     23  H   UNL A   1      31.172  24.734  23.738  1.00  0.00     0.345 HD
ATOM     24  H   UNL A   1      32.692  25.289  23.346  1.00  0.00     0.345 HD
ENDBRANCH   7  21
ENDBRANCH   4   7
ENDBRANCH   2   3
ENDBRANCH   1   2
BRANCH   1  25
ATOM     25  C   UNL A   1      32.206  29.962  26.983  1.00  0.00     0.023 C 
BRANCH  25  26
ATOM     26  C   UNL A   1      33.708  30.119  26.786  1.00  0.00     0.116 C 
BRANCH  26  27
ATOM     27  N   UNL A   1      34.248  31.385  27.252  1.00  0.00    -0.352 N 
ATOM     28  C   UNL A   1      35.074  31.551  28.357  1.00  0.00     0.251 C 
ATOM     29  H   UNL A   1      34.010  32.192  26.741  1.00  0.00     0.163 HD
ATOM     30  O   UNL A   1      35.083  32.558  29.042  1.00  0.00    -0.269 OA
BRANCH  28  31
ATOM     31  C   UNL A   1      36.088  30.493  28.565  1.00  0.00     0.039 A 
ATOM     32  C   UNL A   1      36.138  29.884  29.825  1.00  0.00     0.014 A 
ATOM     33  C   UNL A   1      37.115  30.325  27.644  1.00  0.00     0.014 A 
ATOM     34  C   UNL A   1      37.310  29.251  30.231  1.00  0.00     0.010 A 
ATOM     35  C   UNL A   1      38.307  29.789  28.084  1.00  0.00     0.010 A 
ATOM     36  C   UNL A   1      38.419  29.292  29.390  1.00  0.00    -0.014 A 
BRANCH  36  37
ATOM     37  C   UNL A   1      39.765  28.902  29.782  1.00  0.00     0.031 A 
ATOM     38  C   UNL A   1      40.334  27.629  29.290  1.00  0.00     0.074 A 
ATOM     39  C   UNL A   1      40.548  29.756  30.472  1.00  0.00     0.049 A 
ATOM     40  N   UNL A   1      41.435  27.114  29.717  1.00  0.00    -0.248 NA
ATOM     41  C   UNL A   1      39.657  26.787  28.308  1.00  0.00     0.031 C 
ATOM     42  C   UNL A   1      42.000  29.711  30.604  1.00  0.00     0.029 A 
ATOM     43  N   UNL A   1      40.168  30.729  31.378  1.00  0.00    -0.354 N 
ATOM     44  C   UNL A   1      41.781  26.104  28.855  1.00  0.00     0.074 A 
ATOM     45  C   UNL A   1      40.583  25.848  28.094  1.00  0.00     0.031 C 
ATOM     46  C   UNL A   1      42.362  30.429  31.678  1.00  0.00     0.029 A 
ATOM     47  C   UNL A   1      41.151  30.822  32.372  1.00  0.00     0.049 A 
ATOM     48  H   UNL A   1      39.345  31.267  31.333  1.00  0.00     0.167 HD
ATOM     49  C   UNL A   1      43.087  25.714  28.795  1.00  0.00     0.031 A 
ATOM     50  C   UNL A   1      40.868  30.482  33.668  1.00  0.00     0.031 A 
ATOM     51  C   UNL A   1      43.870  26.259  29.913  1.00  0.00     0.049 A 
ATOM     52  C   UNL A   1      41.624  29.254  34.158  1.00  0.00     0.074 A 
ATOM     53  C   UNL A   1      44.909  27.166  30.045  1.00  0.00     0.029 A 
ATOM     54  N   UNL A   1      43.418  26.020  31.207  1.00  0.00    -0.354 N 
ATOM     55  N   UNL A   1      42.446  28.561  33.416  1.00  0.00    -0.248 NA
ATOM     56  C   UNL A   1      41.485  28.673  35.494  1.00  0.00     0.031 C 
ATOM     57  C   UNL A   1      45.055  27.482  31.433  1.00  0.00     0.029 A 
ATOM     58  C   UNL A   1      44.121  26.750  32.144  1.00  0.00     0.049 A 
ATOM     59  H   UNL A   1      42.685  25.402  31.428  1.00  0.00     0.167 HD
ATOM     60  C   UNL A   1      42.923  27.485  34.109  1.00  0.00     0.074 A 
ATOM     61  C   UNL A   1      42.290  27.595  35.411  1.00  0.00     0.031 C 
ATOM     62  C   UNL A   1      43.782  26.581  33.551  1.00  0.00     0.031 A 
BRANCH  49  63
ATOM     63  C   UNL A   1      43.695  24.988  27.606  1.00  0.00    -0.014 A 
ATOM     64  C   UNL A   1      43.232  23.704  27.249  1.00  0.00     0.010 A 
ATOM     65  C   UNL A   1      44.789  25.465  26.856  1.00  0.00     0.010 A 
ATOM     66  C   UNL A   1      43.854  22.935  26.245  1.00  0.00     0.020 A 
ATOM     67  C   UNL A   1      45.414  24.720  25.849  1.00  0.00     0.020 A 
ATOM     68  C   UNL A   1      44.953  23.447  25.558  1.00  0.00     0.054 A 
BRANCH  68  69
ATOM     69  S   UNL A   1      45.788  22.443  24.304  1.00  0.00     0.124 S 
ATOM     70  O   UNL A   1      46.647  23.422  23.642  1.00  0.00    -0.237 OA
ATOM     71  O   UNL A   1      46.476  21.439  25.108  1.00  0.00    -0.237 OA
ATOM     72  O   UNL A   1      44.692  21.931  23.482  1.00  0.00    -0.744 OA
ENDBRANCH  68  69
ENDBRANCH  49  63
BRANCH  50  73
ATOM     73  C   UNL A   1      39.508  30.940  34.085  1.00  0.00    -0.014 A 
ATOM     74  C   UNL A   1      39.387  32.309  34.422  1.00  0.00     0.010 A 
ATOM     75  C   UNL A   1      38.357  30.245  33.673  1.00  0.00     0.010 A 
ATOM     76  C   UNL A   1      38.216  33.015  34.134  1.00  0.00     0.020 A 
ATOM     77  C   UNL A   1      37.171  30.950  33.405  1.00  0.00     0.020 A 
ATOM     78  C   UNL A   1      37.143  32.341  33.553  1.00  0.00     0.054 A 
BRANCH  78  79
ATOM     79  S   UNL A   1      35.806  33.334  32.817  1.00  0.00     0.124 S 
ATOM     80  O   UNL A   1      35.224  33.994  33.981  1.00  0.00    -0.237 OA
ATOM     81  O   UNL A   1      36.543  34.211  31.902  1.00  0.00    -0.237 OA
ATOM     82  O   UNL A   1      34.960  32.335  32.172  1.00  0.00    -0.744 OA
ENDBRANCH  78  79
ENDBRANCH  50  73
BRANCH  62  83
ATOM     83  C   UNL A   1      44.355  25.396  34.284  1.00  0.00    -0.014 A 
ATOM     84  C   UNL A   1      45.636  25.395  34.857  1.00  0.00     0.010 A 
ATOM     85  C   UNL A   1      43.633  24.181  34.310  1.00  0.00     0.010 A 
ATOM     86  C   UNL A   1      46.137  24.256  35.502  1.00  0.00     0.020 A 
ATOM     87  C   UNL A   1      44.131  23.033  34.930  1.00  0.00     0.020 A 
ATOM     88  C   UNL A   1      45.372  23.086  35.549  1.00  0.00     0.054 A 
BRANCH  88  89
ATOM     89  S   UNL A   1      46.030  21.627  36.393  1.00  0.00     0.124 S 
ATOM     90  O   UNL A   1      45.334  20.529  35.726  1.00  0.00    -0.237 OA
ATOM     91  O   UNL A   1      47.458  21.732  36.104  1.00  0.00    -0.237 OA
ATOM     92  O   UNL A   1      45.659  21.834  37.790  1.00  0.00    -0.744 OA
ENDBRANCH  88  89
ENDBRANCH  62  83
ENDBRANCH  36  37
ENDBRANCH  28  31
ENDBRANCH  26  27
ENDBRANCH  25  26
ENDBRANCH   1  25
TORSDOF 18
ENDMDL
