MODEL 1
REMARK VINA RESULT:     -12.2      0.000      0.000
REMARK SMILES Cc1ccc(NC(=O)COc2ccc(Cl)cc2C=C2SC(=S)N(CC(=O)NCCCCNC(=O)c3ccc(-c4c5nc(c(-c6ccc(S(=O)(=O)[O-])cc6)c6ccc([nH]6)c(-c6ccc(S(=O)(=O)[O-])cc6)c6nc(c(-c7ccc(S(=O)(=O)[O-])cc7)c7ccc4[nH]7)C=C6)C=C5)cc3)C2=O)cc1
REMARK SMILES IDX 28 1 27 2 25 3 26 4 24 6 23 7 18 8 19 9 20 10 95 11 21 12
REMARK SMILES IDX 96 13 22 14 17 15 11 16 12 17 13 18 16 19 14 20 15 21 10 22
REMARK SMILES IDX 9 23 7 24 6 25 8 27 5 28 1 29 2 30 3 31 98 32 4 33 97 34
REMARK SMILES IDX 29 35 30 36 31 37 32 38 33 39 34 41 35 42 36 43 94 44 37 45
REMARK SMILES IDX 93 46 38 47 39 48 40 49 87 50 41 51 92 52 86 53 88 54 42 55
REMARK SMILES IDX 91 56 85 57 84 58 43 60 73 61 54 62 72 63 55 64 58 65 71 66
REMARK SMILES IDX 89 67 56 68 57 69 70 71 90 72 59 73 44 74 45 75 53 76 46 77
REMARK SMILES IDX 52 78 47 79 48 80 49 81 50 82 51 83 74 84 75 85 83 86 76 87
REMARK SMILES IDX 82 88 77 89 78 90 79 91 80 92 81 93 60 94 61 95 69 96 62 97
REMARK SMILES IDX 68 98 63 99 64 100 65 101 66 102 67 103
REMARK H PARENT 27 5 6 26 32 40 88 59 58 70
REMARK Flexibility Score: inf
ROOT
ATOM      1  C   UNL A   1      33.833  28.589  26.891  1.00  0.00     0.116 C 
ENDROOT
BRANCH   1   2
ATOM      2  N   UNL A   1      34.319  28.545  25.517  1.00  0.00    -0.355 N 
ATOM      3  C   UNL A   1      33.696  28.213  24.344  1.00  0.00     0.240 C 
ATOM      4  O   UNL A   1      34.213  28.573  23.283  1.00  0.00    -0.273 OA
ATOM      5  H   UNL A   1      35.264  28.800  25.414  1.00  0.00     0.163 HD
BRANCH   3   6
ATOM      6  C   UNL A   1      32.361  27.460  24.331  1.00  0.00     0.227 C 
BRANCH   6   7
ATOM      7  N   UNL A   1      32.405  26.040  23.999  1.00  0.00    -0.283 N 
ATOM      8  C   UNL A   1      32.767  22.827  24.512  1.00  0.00     0.033 C 
ATOM      9  C   UNL A   1      33.355  23.839  23.857  1.00  0.00     0.081 C 
ATOM     10  S   UNL A   1      32.483  24.150  22.370  1.00  0.00    -0.054 SA
ATOM     11  C   UNL A   1      33.304  25.183  24.605  1.00  0.00     0.266 C 
ATOM     12  C   UNL A   1      31.526  25.370  23.211  1.00  0.00     0.148 C 
ATOM     13  O   UNL A   1      33.900  25.395  25.636  1.00  0.00    -0.268 OA
ATOM     14  S   UNL A   1      29.867  25.483  23.259  1.00  0.00    -0.052 S 
BRANCH   8  15
ATOM     15  C   UNL A   1      33.289  21.455  24.643  1.00  0.00     0.019 A 
ATOM     16  C   UNL A   1      34.585  21.409  25.128  1.00  0.00     0.127 A 
ATOM     17  C   UNL A   1      35.369  20.274  24.962  1.00  0.00     0.048 A 
ATOM     18  C   UNL A   1      34.734  19.063  24.697  1.00  0.00     0.024 A 
ATOM     19  C   UNL A   1      32.630  20.233  24.471  1.00  0.00     0.032 A 
ATOM     20  C   UNL A   1      33.345  19.038  24.602  1.00  0.00     0.041 A 
ATOM     21  Cl  UNL A   1      32.518  17.534  24.731  1.00  0.00    -0.084 Cl
BRANCH  16  22
ATOM     22  O   UNL A   1      35.047  22.516  25.777  1.00  0.00    -0.483 OA
BRANCH  22  23
ATOM     23  C   UNL A   1      36.446  22.720  25.576  1.00  0.00     0.329 C 
BRANCH  23  24
ATOM     24  C   UNL A   1      37.856  23.252  26.207  1.00  0.00     0.262 C 
ATOM     25  N   UNL A   1      39.061  22.795  26.610  1.00  0.00    -0.323 N 
ATOM     26  H   UNL A   1      39.540  23.594  26.927  1.00  0.00     0.170 HD
ATOM     27  O   UNL A   1      37.863  24.507  26.330  1.00  0.00    -0.271 OA
BRANCH  25  28
ATOM     28  C   UNL A   1      39.976  21.727  26.799  1.00  0.00     0.041 A 
ATOM     29  C   UNL A   1      42.951  18.512  26.695  1.00  0.00     0.044 C 
ATOM     30  C   UNL A   1      41.862  19.545  26.780  1.00  0.00    -0.051 A 
ATOM     31  C   UNL A   1      41.999  20.631  27.640  1.00  0.00     0.005 A 
ATOM     32  C   UNL A   1      40.721  19.501  25.987  1.00  0.00     0.005 A 
ATOM     33  C   UNL A   1      41.045  21.676  27.660  1.00  0.00     0.026 A 
ATOM     34  C   UNL A   1      39.799  20.575  25.999  1.00  0.00     0.026 A 
ENDBRANCH  25  28
ENDBRANCH  23  24
ENDBRANCH  22  23
ENDBRANCH  16  22
ENDBRANCH   8  15
ENDBRANCH   6   7
ENDBRANCH   3   6
ENDBRANCH   1   2
BRANCH   1  35
ATOM     35  C   UNL A   1      32.728  29.608  27.238  1.00  0.00     0.023 C 
BRANCH  35  36
ATOM     36  C   UNL A   1      33.061  31.089  27.111  1.00  0.00     0.023 C 
BRANCH  36  37
ATOM     37  C   UNL A   1      33.738  31.655  28.349  1.00  0.00     0.116 C 
BRANCH  37  38
ATOM     38  N   UNL A   1      34.870  32.550  28.124  1.00  0.00    -0.352 N 
ATOM     39  C   UNL A   1      36.195  32.326  28.490  1.00  0.00     0.251 C 
ATOM     40  H   UNL A   1      34.676  33.401  27.667  1.00  0.00     0.163 HD
ATOM     41  O   UNL A   1      37.051  33.201  28.513  1.00  0.00    -0.269 OA
BRANCH  39  42
ATOM     42  C   UNL A   1      36.555  30.917  28.773  1.00  0.00     0.039 A 
ATOM     43  C   UNL A   1      36.806  30.638  30.122  1.00  0.00     0.014 A 
ATOM     44  C   UNL A   1      37.194  30.219  27.754  1.00  0.00     0.014 A 
ATOM     45  C   UNL A   1      37.926  29.893  30.459  1.00  0.00     0.010 A 
ATOM     46  C   UNL A   1      38.370  29.575  28.091  1.00  0.00     0.010 A 
ATOM     47  C   UNL A   1      38.780  29.495  29.435  1.00  0.00    -0.014 A 
BRANCH  47  48
ATOM     48  C   UNL A   1      40.172  29.113  29.653  1.00  0.00     0.031 A 
ATOM     49  C   UNL A   1      40.597  27.752  29.263  1.00  0.00     0.074 A 
ATOM     50  C   UNL A   1      41.091  30.005  30.102  1.00  0.00     0.049 A 
ATOM     51  N   UNL A   1      41.670  27.178  29.689  1.00  0.00    -0.248 NA
ATOM     52  C   UNL A   1      39.786  26.879  28.412  1.00  0.00     0.031 C 
ATOM     53  C   UNL A   1      42.546  29.865  30.030  1.00  0.00     0.029 A 
ATOM     54  N   UNL A   1      40.914  31.137  30.906  1.00  0.00    -0.354 N 
ATOM     55  C   UNL A   1      41.866  26.065  28.907  1.00  0.00     0.074 A 
ATOM     56  C   UNL A   1      40.606  25.838  28.251  1.00  0.00     0.031 C 
ATOM     57  C   UNL A   1      43.106  30.639  30.972  1.00  0.00     0.029 A 
ATOM     58  C   UNL A   1      42.025  31.189  31.769  1.00  0.00     0.049 A 
ATOM     59  H   UNL A   1      40.162  31.772  30.873  1.00  0.00     0.167 HD
ATOM     60  C   UNL A   1      43.126  25.571  28.768  1.00  0.00     0.031 A 
ATOM     61  C   UNL A   1      41.949  31.129  33.133  1.00  0.00     0.031 A 
ATOM     62  C   UNL A   1      44.034  26.142  29.763  1.00  0.00     0.049 A 
ATOM     63  C   UNL A   1      42.717  29.962  33.724  1.00  0.00     0.074 A 
ATOM     64  C   UNL A   1      45.088  27.037  29.700  1.00  0.00     0.029 A 
ATOM     65  N   UNL A   1      43.725  25.992  31.111  1.00  0.00    -0.354 N 
ATOM     66  N   UNL A   1      43.221  28.991  33.013  1.00  0.00    -0.248 NA
ATOM     67  C   UNL A   1      42.933  29.761  35.155  1.00  0.00     0.031 C 
ATOM     68  C   UNL A   1      45.343  27.501  31.022  1.00  0.00     0.029 A 
ATOM     69  C   UNL A   1      44.477  26.852  31.885  1.00  0.00     0.049 A 
ATOM     70  H   UNL A   1      43.062  25.357  31.465  1.00  0.00     0.167 HD
ATOM     71  C   UNL A   1      43.764  28.039  33.834  1.00  0.00     0.074 A 
ATOM     72  C   UNL A   1      43.581  28.580  35.168  1.00  0.00     0.031 C 
ATOM     73  C   UNL A   1      44.288  26.880  33.334  1.00  0.00     0.031 A 
BRANCH  60  74
ATOM     74  C   UNL A   1      43.587  24.762  27.571  1.00  0.00    -0.014 A 
ATOM     75  C   UNL A   1      44.274  23.548  27.777  1.00  0.00     0.010 A 
ATOM     76  C   UNL A   1      43.494  25.192  26.231  1.00  0.00     0.010 A 
ATOM     77  C   UNL A   1      44.864  22.835  26.718  1.00  0.00     0.020 A 
ATOM     78  C   UNL A   1      44.053  24.481  25.162  1.00  0.00     0.020 A 
ATOM     79  C   UNL A   1      44.755  23.312  25.414  1.00  0.00     0.054 A 
BRANCH  79  80
ATOM     80  S   UNL A   1      45.556  22.420  24.058  1.00  0.00     0.124 S 
ATOM     81  O   UNL A   1      44.465  22.272  23.098  1.00  0.00    -0.237 OA
ATOM     82  O   UNL A   1      46.626  23.332  23.666  1.00  0.00    -0.237 OA
ATOM     83  O   UNL A   1      46.003  21.174  24.679  1.00  0.00    -0.744 OA
ENDBRANCH  79  80
ENDBRANCH  60  74
BRANCH  61  84
ATOM     84  C   UNL A   1      40.708  31.720  33.703  1.00  0.00    -0.014 A 
ATOM     85  C   UNL A   1      39.602  30.857  33.855  1.00  0.00     0.010 A 
ATOM     86  C   UNL A   1      40.772  32.891  34.478  1.00  0.00     0.010 A 
ATOM     87  C   UNL A   1      38.690  31.052  34.891  1.00  0.00     0.020 A 
ATOM     88  C   UNL A   1      39.854  33.090  35.519  1.00  0.00     0.020 A 
ATOM     89  C   UNL A   1      38.868  32.129  35.760  1.00  0.00     0.054 A 
BRANCH  89  90
ATOM     90  S   UNL A   1      37.954  32.099  37.333  1.00  0.00     0.124 S 
ATOM     91  O   UNL A   1      38.970  32.519  38.290  1.00  0.00    -0.237 OA
ATOM     92  O   UNL A   1      36.891  33.070  37.070  1.00  0.00    -0.237 OA
ATOM     93  O   UNL A   1      37.520  30.709  37.440  1.00  0.00    -0.744 OA
ENDBRANCH  89  90
ENDBRANCH  61  84
BRANCH  73  94
ATOM     94  C   UNL A   1      44.719  25.661  34.126  1.00  0.00    -0.014 A 
ATOM     95  C   UNL A   1      43.989  25.083  35.175  1.00  0.00     0.010 A 
ATOM     96  C   UNL A   1      45.889  24.971  33.716  1.00  0.00     0.010 A 
ATOM     97  C   UNL A   1      44.432  23.914  35.818  1.00  0.00     0.020 A 
ATOM     98  C   UNL A   1      46.313  23.781  34.315  1.00  0.00     0.020 A 
ATOM     99  C   UNL A   1      45.594  23.273  35.386  1.00  0.00     0.054 A 
BRANCH  99 100
ATOM    100  S   UNL A   1      46.128  21.740  36.186  1.00  0.00     0.124 S 
ATOM    101  O   UNL A   1      45.657  21.936  37.555  1.00  0.00    -0.237 OA
ATOM    102  O   UNL A   1      45.425  20.711  35.423  1.00  0.00    -0.237 OA
ATOM    103  O   UNL A   1      47.578  21.750  36.014  1.00  0.00    -0.744 OA
ENDBRANCH  99 100
ENDBRANCH  73  94
ENDBRANCH  47  48
ENDBRANCH  39  42
ENDBRANCH  37  38
ENDBRANCH  36  37
ENDBRANCH  35  36
ENDBRANCH   1  35
TORSDOF 20
ENDMDL
MODEL 2
REMARK VINA RESULT:     -11.4      4.514     11.502
REMARK SMILES Cc1ccc(NC(=O)COc2ccc(Cl)cc2C=C2SC(=S)N(CC(=O)NCCCCNC(=O)c3ccc(-c4c5nc(c(-c6ccc(S(=O)(=O)[O-])cc6)c6ccc([nH]6)c(-c6ccc(S(=O)(=O)[O-])cc6)c6nc(c(-c7ccc(S(=O)(=O)[O-])cc7)c7ccc4[nH]7)C=C6)C=C5)cc3)C2=O)cc1
REMARK SMILES IDX 28 1 27 2 25 3 26 4 24 6 23 7 18 8 19 9 20 10 95 11 21 12
REMARK SMILES IDX 96 13 22 14 17 15 11 16 12 17 13 18 16 19 14 20 15 21 10 22
REMARK SMILES IDX 9 23 7 24 6 25 8 27 5 28 1 29 2 30 3 31 98 32 4 33 97 34
REMARK SMILES IDX 29 35 30 36 31 37 32 38 33 39 34 41 35 42 36 43 94 44 37 45
REMARK SMILES IDX 93 46 38 47 39 48 40 49 87 50 41 51 92 52 86 53 88 54 42 55
REMARK SMILES IDX 91 56 85 57 84 58 43 60 73 61 54 62 72 63 55 64 58 65 71 66
REMARK SMILES IDX 89 67 56 68 57 69 70 71 90 72 59 73 44 74 45 75 53 76 46 77
REMARK SMILES IDX 52 78 47 79 48 80 49 81 50 82 51 83 74 84 75 85 83 86 76 87
REMARK SMILES IDX 82 88 77 89 78 90 79 91 80 92 81 93 60 94 61 95 69 96 62 97
REMARK SMILES IDX 68 98 63 99 64 100 65 101 66 102 67 103
REMARK H PARENT 27 5 6 26 32 40 88 59 58 70
REMARK Flexibility Score: inf
ROOT
ATOM      1  C   UNL A   1      46.949  33.964  33.291  1.00  0.00     0.116 C 
ENDROOT
BRANCH   1   2
ATOM      2  N   UNL A   1      46.555  33.320  34.539  1.00  0.00    -0.355 N 
ATOM      3  C   UNL A   1      45.456  33.487  35.338  1.00  0.00     0.240 C 
ATOM      4  O   UNL A   1      45.183  32.600  36.153  1.00  0.00    -0.273 OA
ATOM      5  H   UNL A   1      47.192  32.645  34.865  1.00  0.00     0.163 HD
BRANCH   3   6
ATOM      6  C   UNL A   1      44.545  34.711  35.204  1.00  0.00     0.227 C 
BRANCH   6   7
ATOM      7  N   UNL A   1      43.106  34.477  35.262  1.00  0.00    -0.283 N 
ATOM      8  C   UNL A   1      40.274  32.925  34.724  1.00  0.00     0.033 C 
ATOM      9  C   UNL A   1      40.905  34.062  34.395  1.00  0.00     0.081 C 
ATOM     10  S   UNL A   1      40.762  35.205  35.714  1.00  0.00    -0.054 SA
ATOM     11  C   UNL A   1      42.424  33.903  34.205  1.00  0.00     0.266 C 
ATOM     12  C   UNL A   1      42.308  34.637  36.347  1.00  0.00     0.148 C 
ATOM     13  O   UNL A   1      42.921  33.269  33.303  1.00  0.00    -0.268 OA
ATOM     14  S   UNL A   1      42.626  34.123  37.897  1.00  0.00    -0.052 S 
BRANCH   8  15
ATOM     15  C   UNL A   1      38.989  32.454  34.177  1.00  0.00     0.019 A 
ATOM     16  C   UNL A   1      38.936  31.079  34.023  1.00  0.00     0.127 A 
ATOM     17  C   UNL A   1      37.992  30.491  33.188  1.00  0.00     0.048 A 
ATOM     18  C   UNL A   1      36.858  31.225  32.850  1.00  0.00     0.024 A 
ATOM     19  C   UNL A   1      37.814  33.168  33.924  1.00  0.00     0.032 A 
ATOM     20  C   UNL A   1      36.718  32.516  33.352  1.00  0.00     0.041 A 
ATOM     21  Cl  UNL A   1      35.166  33.263  33.336  1.00  0.00    -0.084 Cl
BRANCH  16  22
ATOM     22  O   UNL A   1      39.837  30.336  34.727  1.00  0.00    -0.483 OA
BRANCH  22  23
ATOM     23  C   UNL A   1      40.604  29.471  33.888  1.00  0.00     0.329 C 
BRANCH  23  24
ATOM     24  C   UNL A   1      41.474  28.094  33.775  1.00  0.00     0.262 C 
ATOM     25  N   UNL A   1      42.383  27.492  32.978  1.00  0.00    -0.323 N 
ATOM     26  H   UNL A   1      42.562  26.627  33.410  1.00  0.00     0.170 HD
ATOM     27  O   UNL A   1      41.285  27.345  34.772  1.00  0.00    -0.271 OA
BRANCH  25  28
ATOM     28  C   UNL A   1      43.208  27.497  31.823  1.00  0.00     0.041 A 
ATOM     29  C   UNL A   1      46.242  27.207  28.675  1.00  0.00     0.044 C 
ATOM     30  C   UNL A   1      45.188  27.412  29.728  1.00  0.00    -0.051 A 
ATOM     31  C   UNL A   1      43.939  26.812  29.588  1.00  0.00     0.005 A 
ATOM     32  C   UNL A   1      45.417  28.142  30.888  1.00  0.00     0.005 A 
ATOM     33  C   UNL A   1      42.967  26.894  30.613  1.00  0.00     0.026 A 
ATOM     34  C   UNL A   1      44.443  28.180  31.915  1.00  0.00     0.026 A 
ENDBRANCH  25  28
ENDBRANCH  23  24
ENDBRANCH  22  23
ENDBRANCH  16  22
ENDBRANCH   8  15
ENDBRANCH   6   7
ENDBRANCH   3   6
ENDBRANCH   1   2
BRANCH   1  35
ATOM     35  C   UNL A   1      47.210  33.068  32.063  1.00  0.00     0.023 C 
BRANCH  35  36
ATOM     36  C   UNL A   1      46.097  32.933  31.032  1.00  0.00     0.023 C 
BRANCH  36  37
ATOM     37  C   UNL A   1      46.560  32.288  29.736  1.00  0.00     0.116 C 
BRANCH  37  38
ATOM     38  N   UNL A   1      47.486  33.062  28.914  1.00  0.00    -0.352 N 
ATOM     39  C   UNL A   1      47.740  32.887  27.555  1.00  0.00     0.251 C 
ATOM     40  H   UNL A   1      47.983  33.781  29.367  1.00  0.00     0.163 HD
ATOM     41  O   UNL A   1      48.698  33.381  26.975  1.00  0.00    -0.269 OA
BRANCH  39  42
ATOM     42  C   UNL A   1      46.717  32.126  26.802  1.00  0.00     0.039 A 
ATOM     43  C   UNL A   1      45.552  32.847  26.508  1.00  0.00     0.014 A 
ATOM     44  C   UNL A   1      46.692  30.750  26.996  1.00  0.00     0.014 A 
ATOM     45  C   UNL A   1      44.319  32.252  26.729  1.00  0.00     0.010 A 
ATOM     46  C   UNL A   1      45.469  30.196  27.325  1.00  0.00     0.010 A 
ATOM     47  C   UNL A   1      44.298  30.974  27.280  1.00  0.00    -0.014 A 
BRANCH  47  48
ATOM     48  C   UNL A   1      43.135  30.414  27.962  1.00  0.00     0.031 A 
ATOM     49  C   UNL A   1      42.419  29.288  27.325  1.00  0.00     0.074 A 
ATOM     50  C   UNL A   1      42.769  30.832  29.201  1.00  0.00     0.049 A 
ATOM     51  N   UNL A   1      41.221  28.926  27.631  1.00  0.00    -0.248 NA
ATOM     52  C   UNL A   1      42.977  28.523  26.209  1.00  0.00     0.031 C 
ATOM     53  C   UNL A   1      41.872  30.135  30.124  1.00  0.00     0.029 A 
ATOM     54  N   UNL A   1      42.963  32.075  29.815  1.00  0.00    -0.354 N 
ATOM     55  C   UNL A   1      41.011  27.701  27.042  1.00  0.00     0.074 A 
ATOM     56  C   UNL A   1      42.050  27.575  26.054  1.00  0.00     0.031 C 
ATOM     57  C   UNL A   1      41.357  31.025  30.986  1.00  0.00     0.029 A 
ATOM     58  C   UNL A   1      41.796  32.339  30.556  1.00  0.00     0.049 A 
ATOM     59  H   UNL A   1      43.760  32.649  29.744  1.00  0.00     0.167 HD
ATOM     60  C   UNL A   1      40.089  26.860  27.583  1.00  0.00     0.031 A 
ATOM     61  C   UNL A   1      40.973  33.410  30.347  1.00  0.00     0.031 A 
ATOM     62  C   UNL A   1      39.229  27.556  28.540  1.00  0.00     0.049 A 
ATOM     63  C   UNL A   1      39.550  33.012  30.005  1.00  0.00     0.074 A 
ATOM     64  C   UNL A   1      39.099  27.521  29.917  1.00  0.00     0.029 A 
ATOM     65  N   UNL A   1      38.508  28.663  28.105  1.00  0.00    -0.354 N 
ATOM     66  N   UNL A   1      39.186  31.791  29.726  1.00  0.00    -0.248 NA
ATOM     67  C   UNL A   1      38.438  33.953  29.893  1.00  0.00     0.031 C 
ATOM     68  C   UNL A   1      38.374  28.680  30.315  1.00  0.00     0.029 A 
ATOM     69  C   UNL A   1      38.026  29.387  29.176  1.00  0.00     0.049 A 
ATOM     70  H   UNL A   1      38.360  28.898  27.160  1.00  0.00     0.167 HD
ATOM     71  C   UNL A   1      37.866  31.765  29.360  1.00  0.00     0.074 A 
ATOM     72  C   UNL A   1      37.434  33.143  29.505  1.00  0.00     0.031 C 
ATOM     73  C   UNL A   1      37.263  30.611  28.943  1.00  0.00     0.031 A 
BRANCH  60  74
ATOM     74  C   UNL A   1      40.132  25.352  27.429  1.00  0.00    -0.014 A 
ATOM     75  C   UNL A   1      41.149  24.617  28.072  1.00  0.00     0.010 A 
ATOM     76  C   UNL A   1      39.290  24.611  26.573  1.00  0.00     0.010 A 
ATOM     77  C   UNL A   1      41.337  23.242  27.841  1.00  0.00     0.020 A 
ATOM     78  C   UNL A   1      39.447  23.237  26.353  1.00  0.00     0.020 A 
ATOM     79  C   UNL A   1      40.486  22.561  26.974  1.00  0.00     0.054 A 
BRANCH  79  80
ATOM     80  S   UNL A   1      40.758  20.803  26.639  1.00  0.00     0.124 S 
ATOM     81  O   UNL A   1      40.958  20.260  27.980  1.00  0.00    -0.237 OA
ATOM     82  O   UNL A   1      39.518  20.411  25.975  1.00  0.00    -0.237 OA
ATOM     83  O   UNL A   1      41.945  20.792  25.786  1.00  0.00    -0.744 OA
ENDBRANCH  79  80
ENDBRANCH  60  74
BRANCH  61  84
ATOM     84  C   UNL A   1      41.668  34.629  29.852  1.00  0.00    -0.014 A 
ATOM     85  C   UNL A   1      42.695  35.152  30.666  1.00  0.00     0.010 A 
ATOM     86  C   UNL A   1      41.651  34.948  28.483  1.00  0.00     0.010 A 
ATOM     87  C   UNL A   1      43.786  35.807  30.094  1.00  0.00     0.020 A 
ATOM     88  C   UNL A   1      42.746  35.609  27.907  1.00  0.00     0.020 A 
ATOM     89  C   UNL A   1      43.835  35.964  28.710  1.00  0.00     0.054 A 
BRANCH  89  90
ATOM     90  S   UNL A   1      45.439  36.403  27.971  1.00  0.00     0.124 S 
ATOM     91  O   UNL A   1      45.449  37.856  28.092  1.00  0.00    -0.237 OA
ATOM     92  O   UNL A   1      46.367  35.687  28.846  1.00  0.00    -0.237 OA
ATOM     93  O   UNL A   1      45.332  35.883  26.611  1.00  0.00    -0.744 OA
ENDBRANCH  89  90
ENDBRANCH  61  84
BRANCH  73  94
ATOM     94  C   UNL A   1      35.891  30.478  28.313  1.00  0.00    -0.014 A 
ATOM     95  C   UNL A   1      34.898  31.469  28.328  1.00  0.00     0.010 A 
ATOM     96  C   UNL A   1      35.611  29.317  27.546  1.00  0.00     0.010 A 
ATOM     97  C   UNL A   1      33.672  31.288  27.665  1.00  0.00     0.020 A 
ATOM     98  C   UNL A   1      34.416  29.148  26.841  1.00  0.00     0.020 A 
ATOM     99  C   UNL A   1      33.438  30.126  26.929  1.00  0.00     0.054 A 
BRANCH  99 100
ATOM    100  S   UNL A   1      31.877  29.926  26.035  1.00  0.00     0.124 S 
ATOM    101  O   UNL A   1      31.215  31.202  26.297  1.00  0.00    -0.237 OA
ATOM    102  O   UNL A   1      32.314  29.718  24.656  1.00  0.00    -0.237 OA
ATOM    103  O   UNL A   1      31.266  28.761  26.669  1.00  0.00    -0.744 OA
ENDBRANCH  99 100
ENDBRANCH  73  94
ENDBRANCH  47  48
ENDBRANCH  39  42
ENDBRANCH  37  38
ENDBRANCH  36  37
ENDBRANCH  35  36
ENDBRANCH   1  35
TORSDOF 20
ENDMDL
MODEL 3
REMARK VINA RESULT:     -10.6      6.779     10.230
REMARK SMILES Cc1ccc(NC(=O)COc2ccc(Cl)cc2C=C2SC(=S)N(CC(=O)NCCCCNC(=O)c3ccc(-c4c5nc(c(-c6ccc(S(=O)(=O)[O-])cc6)c6ccc([nH]6)c(-c6ccc(S(=O)(=O)[O-])cc6)c6nc(c(-c7ccc(S(=O)(=O)[O-])cc7)c7ccc4[nH]7)C=C6)C=C5)cc3)C2=O)cc1
REMARK SMILES IDX 28 1 27 2 25 3 26 4 24 6 23 7 18 8 19 9 20 10 95 11 21 12
REMARK SMILES IDX 96 13 22 14 17 15 11 16 12 17 13 18 16 19 14 20 15 21 10 22
REMARK SMILES IDX 9 23 7 24 6 25 8 27 5 28 1 29 2 30 3 31 98 32 4 33 97 34
REMARK SMILES IDX 29 35 30 36 31 37 32 38 33 39 34 41 35 42 36 43 94 44 37 45
REMARK SMILES IDX 93 46 38 47 39 48 40 49 87 50 41 51 92 52 86 53 88 54 42 55
REMARK SMILES IDX 91 56 85 57 84 58 43 60 73 61 54 62 72 63 55 64 58 65 71 66
REMARK SMILES IDX 89 67 56 68 57 69 70 71 90 72 59 73 44 74 45 75 53 76 46 77
REMARK SMILES IDX 52 78 47 79 48 80 49 81 50 82 51 83 74 84 75 85 83 86 76 87
REMARK SMILES IDX 82 88 77 89 78 90 79 91 80 92 81 93 60 94 61 95 69 96 62 97
REMARK SMILES IDX 68 98 63 99 64 100 65 101 66 102 67 103
REMARK H PARENT 27 5 6 26 32 40 88 59 58 70
REMARK Flexibility Score: inf
ROOT
ATOM      1  C   UNL A   1      36.433  34.538  33.516  1.00  0.00     0.116 C 
ENDROOT
BRANCH   1   2
ATOM      2  N   UNL A   1      35.356  34.957  32.627  1.00  0.00    -0.355 N 
ATOM      3  C   UNL A   1      34.413  34.239  31.942  1.00  0.00     0.240 C 
ATOM      4  O   UNL A   1      33.411  34.831  31.529  1.00  0.00    -0.273 OA
ATOM      5  H   UNL A   1      35.297  35.931  32.494  1.00  0.00     0.163 HD
BRANCH   3   6
ATOM      6  C   UNL A   1      34.553  32.728  31.731  1.00  0.00     0.227 C 
BRANCH   6   7
ATOM      7  N   UNL A   1      35.532  32.285  30.744  1.00  0.00    -0.283 N 
ATOM      8  C   UNL A   1      37.533  30.207  29.196  1.00  0.00     0.033 C 
ATOM      9  C   UNL A   1      37.582  31.309  29.959  1.00  0.00     0.081 C 
ATOM     10  S   UNL A   1      37.235  32.713  28.970  1.00  0.00    -0.054 SA
ATOM     11  C   UNL A   1      36.507  31.356  31.059  1.00  0.00     0.266 C 
ATOM     12  C   UNL A   1      35.534  32.585  29.421  1.00  0.00     0.148 C 
ATOM     13  O   UNL A   1      36.487  30.603  32.005  1.00  0.00    -0.268 OA
ATOM     14  S   UNL A   1      34.227  32.544  28.393  1.00  0.00    -0.052 S 
BRANCH   8  15
ATOM     15  C   UNL A   1      38.687  29.408  28.746  1.00  0.00     0.019 A 
ATOM     16  C   UNL A   1      39.112  28.489  29.689  1.00  0.00     0.127 A 
ATOM     17  C   UNL A   1      40.383  27.929  29.616  1.00  0.00     0.048 A 
ATOM     18  C   UNL A   1      41.053  27.962  28.396  1.00  0.00     0.024 A 
ATOM     19  C   UNL A   1      39.305  29.367  27.492  1.00  0.00     0.032 A 
ATOM     20  C   UNL A   1      40.431  28.559  27.303  1.00  0.00     0.041 A 
ATOM     21  Cl  UNL A   1      41.010  28.224  25.716  1.00  0.00    -0.084 Cl
BRANCH  16  22
ATOM     22  O   UNL A   1      38.233  28.154  30.676  1.00  0.00    -0.483 OA
BRANCH  22  23
ATOM     23  C   UNL A   1      38.865  28.037  31.951  1.00  0.00     0.329 C 
BRANCH  23  24
ATOM     24  C   UNL A   1      39.914  28.683  33.023  1.00  0.00     0.262 C 
ATOM     25  N   UNL A   1      41.238  28.886  33.200  1.00  0.00    -0.323 N 
ATOM     26  H   UNL A   1      41.308  29.337  34.072  1.00  0.00     0.170 HD
ATOM     27  O   UNL A   1      39.313  29.213  33.997  1.00  0.00    -0.271 OA
BRANCH  25  28
ATOM     28  C   UNL A   1      42.577  28.769  32.746  1.00  0.00     0.041 A 
ATOM     29  C   UNL A   1      46.444  28.544  30.698  1.00  0.00     0.044 C 
ATOM     30  C   UNL A   1      45.141  28.525  31.448  1.00  0.00    -0.051 A 
ATOM     31  C   UNL A   1      44.921  29.428  32.485  1.00  0.00     0.005 A 
ATOM     32  C   UNL A   1      44.097  27.668  31.118  1.00  0.00     0.005 A 
ATOM     33  C   UNL A   1      43.666  29.509  33.133  1.00  0.00     0.026 A 
ATOM     34  C   UNL A   1      42.839  27.792  31.756  1.00  0.00     0.026 A 
ENDBRANCH  25  28
ENDBRANCH  23  24
ENDBRANCH  22  23
ENDBRANCH  16  22
ENDBRANCH   8  15
ENDBRANCH   6   7
ENDBRANCH   3   6
ENDBRANCH   1   2
BRANCH   1  35
ATOM     35  C   UNL A   1      36.053  33.835  34.836  1.00  0.00     0.023 C 
BRANCH  35  36
ATOM     36  C   UNL A   1      37.181  33.410  35.766  1.00  0.00     0.023 C 
BRANCH  36  37
ATOM     37  C   UNL A   1      38.534  33.969  35.355  1.00  0.00     0.116 C 
BRANCH  37  38
ATOM     38  N   UNL A   1      39.625  33.008  35.218  1.00  0.00    -0.352 N 
ATOM     39  C   UNL A   1      40.481  32.869  34.128  1.00  0.00     0.251 C 
ATOM     40  H   UNL A   1      39.771  32.394  35.974  1.00  0.00     0.163 HD
ATOM     41  O   UNL A   1      41.203  31.896  33.951  1.00  0.00    -0.269 OA
BRANCH  39  42
ATOM     42  C   UNL A   1      40.547  34.029  33.209  1.00  0.00     0.039 A 
ATOM     43  C   UNL A   1      39.715  33.934  32.087  1.00  0.00     0.014 A 
ATOM     44  C   UNL A   1      41.750  34.725  33.167  1.00  0.00     0.014 A 
ATOM     45  C   UNL A   1      40.230  34.250  30.839  1.00  0.00     0.010 A 
ATOM     46  C   UNL A   1      42.299  34.931  31.915  1.00  0.00     0.010 A 
ATOM     47  C   UNL A   1      41.572  34.606  30.755  1.00  0.00    -0.014 A 
BRANCH  47  48
ATOM     48  C   UNL A   1      42.347  34.533  29.520  1.00  0.00     0.031 A 
ATOM     49  C   UNL A   1      43.277  33.397  29.338  1.00  0.00     0.074 A 
ATOM     50  C   UNL A   1      42.154  35.416  28.507  1.00  0.00     0.049 A 
ATOM     51  N   UNL A   1      44.240  33.380  28.482  1.00  0.00    -0.248 NA
ATOM     52  C   UNL A   1      43.247  32.204  30.185  1.00  0.00     0.031 C 
ATOM     53  C   UNL A   1      42.588  35.255  27.118  1.00  0.00     0.029 A 
ATOM     54  N   UNL A   1      41.706  36.741  28.555  1.00  0.00    -0.354 N 
ATOM     55  C   UNL A   1      44.691  32.083  28.414  1.00  0.00     0.074 A 
ATOM     56  C   UNL A   1      44.164  31.439  29.588  1.00  0.00     0.031 C 
ATOM     57  C   UNL A   1      42.683  36.467  26.549  1.00  0.00     0.029 A 
ATOM     58  C   UNL A   1      42.451  37.448  27.593  1.00  0.00     0.049 A 
ATOM     59  H   UNL A   1      41.007  37.106  29.144  1.00  0.00     0.167 HD
ATOM     60  C   UNL A   1      45.310  31.659  27.279  1.00  0.00     0.031 A 
ATOM     61  C   UNL A   1      43.274  38.503  27.873  1.00  0.00     0.031 A 
ATOM     62  C   UNL A   1      45.680  32.785  26.422  1.00  0.00     0.049 A 
ATOM     63  C   UNL A   1      44.714  38.264  27.458  1.00  0.00     0.074 A 
ATOM     64  C   UNL A   1      45.220  33.260  25.207  1.00  0.00     0.029 A 
ATOM     65  N   UNL A   1      46.505  33.777  26.944  1.00  0.00    -0.354 N 
ATOM     66  N   UNL A   1      45.175  37.106  27.074  1.00  0.00    -0.248 NA
ATOM     67  C   UNL A   1      45.760  39.283  27.495  1.00  0.00     0.031 C 
ATOM     68  C   UNL A   1      45.699  34.592  25.051  1.00  0.00     0.029 A 
ATOM     69  C   UNL A   1      46.484  34.903  26.147  1.00  0.00     0.049 A 
ATOM     70  H   UNL A   1      47.034  33.687  27.770  1.00  0.00     0.167 HD
ATOM     71  C   UNL A   1      46.527  37.183  26.865  1.00  0.00     0.074 A 
ATOM     72  C   UNL A   1      46.842  38.577  27.118  1.00  0.00     0.031 C 
ATOM     73  C   UNL A   1      47.261  36.079  26.531  1.00  0.00     0.031 A 
BRANCH  60  74
ATOM     74  C   UNL A   1      45.352  30.211  26.832  1.00  0.00    -0.014 A 
ATOM     75  C   UNL A   1      44.287  29.350  27.167  1.00  0.00     0.010 A 
ATOM     76  C   UNL A   1      46.455  29.601  26.199  1.00  0.00     0.010 A 
ATOM     77  C   UNL A   1      44.340  27.966  26.922  1.00  0.00     0.020 A 
ATOM     78  C   UNL A   1      46.513  28.229  25.924  1.00  0.00     0.020 A 
ATOM     79  C   UNL A   1      45.460  27.412  26.307  1.00  0.00     0.054 A 
BRANCH  79  80
ATOM     80  S   UNL A   1      45.550  25.625  26.035  1.00  0.00     0.124 S 
ATOM     81  O   UNL A   1      44.165  25.210  26.243  1.00  0.00    -0.237 OA
ATOM     82  O   UNL A   1      46.039  25.536  24.662  1.00  0.00    -0.237 OA
ATOM     83  O   UNL A   1      46.490  25.165  27.056  1.00  0.00    -0.744 OA
ENDBRANCH  79  80
ENDBRANCH  60  74
BRANCH  61  84
ATOM     84  C   UNL A   1      42.838  39.330  29.030  1.00  0.00    -0.014 A 
ATOM     85  C   UNL A   1      43.596  39.219  30.214  1.00  0.00     0.010 A 
ATOM     86  C   UNL A   1      42.054  40.478  28.825  1.00  0.00     0.010 A 
ATOM     87  C   UNL A   1      43.728  40.310  31.074  1.00  0.00     0.020 A 
ATOM     88  C   UNL A   1      42.184  41.575  29.689  1.00  0.00     0.020 A 
ATOM     89  C   UNL A   1      43.077  41.503  30.763  1.00  0.00     0.054 A 
BRANCH  89  90
ATOM     90  S   UNL A   1      43.618  43.006  31.633  1.00  0.00     0.124 S 
ATOM     91  O   UNL A   1      44.872  43.321  30.957  1.00  0.00    -0.237 OA
ATOM     92  O   UNL A   1      42.506  43.917  31.360  1.00  0.00    -0.237 OA
ATOM     93  O   UNL A   1      43.741  42.564  33.018  1.00  0.00    -0.744 OA
ENDBRANCH  89  90
ENDBRANCH  61  84
BRANCH  73  94
ATOM     94  C   UNL A   1      48.773  35.974  26.482  1.00  0.00    -0.014 A 
ATOM     95  C   UNL A   1      49.597  35.703  27.584  1.00  0.00     0.010 A 
ATOM     96  C   UNL A   1      49.412  36.038  25.216  1.00  0.00     0.010 A 
ATOM     97  C   UNL A   1      50.989  35.562  27.440  1.00  0.00     0.020 A 
ATOM     98  C   UNL A   1      50.788  35.850  25.055  1.00  0.00     0.020 A 
ATOM     99  C   UNL A   1      51.575  35.640  26.176  1.00  0.00     0.054 A 
BRANCH  99 100
ATOM    100  S   UNL A   1      53.360  35.404  25.996  1.00  0.00     0.124 S 
ATOM    101  O   UNL A   1      53.721  36.507  25.109  1.00  0.00    -0.237 OA
ATOM    102  O   UNL A   1      53.846  35.519  27.369  1.00  0.00    -0.237 OA
ATOM    103  O   UNL A   1      53.472  34.069  25.414  1.00  0.00    -0.744 OA
ENDBRANCH  99 100
ENDBRANCH  73  94
ENDBRANCH  47  48
ENDBRANCH  39  42
ENDBRANCH  37  38
ENDBRANCH  36  37
ENDBRANCH  35  36
ENDBRANCH   1  35
TORSDOF 20
ENDMDL
