MODEL 1
REMARK VINA RESULT:     -12.9      0.000      0.000
REMARK SMILES CCn1c(N2CCC[C@H](C(=O)NCCCCNC(=O)c3ccc(-c4c5nc(c(-c6ccc(S(=O)(=O)[O-])cc6)c6ccc([nH]6)c(-c6ccc(S(=O)(=O)[O-])cc6)c6nc(c(-c7ccc(S(=O)(=O)[O-])cc7)c7ccc4[nH]7)C=C6)C=C5)cc3)C2)nc2cc(C)ccc21
REMARK SMILES IDX 15 1 14 2 13 3 12 4 10 5 11 6 9 8 5 9 6 10 80 11 7 12 8 13
REMARK SMILES IDX 4 14 3 15 88 16 81 17 82 18 87 19 83 20 86 21 84 22 85 23
REMARK SMILES IDX 2 24 1 25 16 26 17 27 18 28 19 30 20 31 21 32 79 33 22 34
REMARK SMILES IDX 78 35 23 36 24 37 25 38 72 39 26 40 77 41 71 42 73 43 27 44
REMARK SMILES IDX 76 45 70 46 69 47 28 49 58 50 39 51 57 52 40 53 43 54 56 55
REMARK SMILES IDX 74 56 41 57 42 58 55 60 75 61 44 62 29 63 30 64 38 65 31 66
REMARK SMILES IDX 37 67 32 68 33 69 34 70 35 71 36 72 59 73 60 74 68 75 61 76
REMARK SMILES IDX 67 77 62 78 63 79 64 80 65 81 66 82 45 83 46 84 54 85 47 86
REMARK SMILES IDX 53 87 48 88 49 89 50 90 51 91 52 92
REMARK H PARENT 12 7 17 29 73 48 43 59
REMARK Flexibility Score: inf
ROOT
ATOM      1  C   UNL A   1      39.619  23.016  27.245  1.00  0.00     0.023 C 
ENDROOT
BRANCH   1   2
ATOM      2  C   UNL A   1      38.690  23.370  26.090  1.00  0.00     0.023 C 
BRANCH   2   3
ATOM      3  C   UNL A   1      37.700  22.275  25.737  1.00  0.00     0.116 C 
BRANCH   3   4
ATOM      4  N   UNL A   1      36.456  22.328  26.462  1.00  0.00    -0.356 N 
ATOM      5  C   UNL A   1      35.273  21.751  26.123  1.00  0.00     0.224 C 
ATOM      6  O   UNL A   1      34.446  21.590  27.028  1.00  0.00    -0.275 OA
ATOM      7  H   UNL A   1      36.464  22.842  27.302  1.00  0.00     0.163 HD
BRANCH   5   8
ATOM      8  C   UNL A   1      34.908  21.346  24.688  1.00  0.00     0.098 C 
ATOM      9  N   UNL A   1      33.046  22.574  23.521  1.00  0.00    -0.341 N 
ATOM     10  C   UNL A   1      32.248  21.366  23.349  1.00  0.00     0.119 C 
ATOM     11  C   UNL A   1      34.483  22.485  23.761  1.00  0.00     0.133 C 
ATOM     12  C   UNL A   1      32.574  20.293  24.386  1.00  0.00     0.022 C 
ATOM     13  C   UNL A   1      34.067  20.071  24.584  1.00  0.00     0.017 C 
BRANCH   9  14
ATOM     14  C   UNL A   1      32.447  23.794  23.521  1.00  0.00     0.206 A 
ATOM     15  N   UNL A   1      31.990  24.399  24.674  1.00  0.00    -0.310 N 
ATOM     16  C   UNL A   1      31.523  25.654  24.340  1.00  0.00     0.070 A 
ATOM     17  N   UNL A   1      32.203  24.548  22.472  1.00  0.00    -0.213 NA
ATOM     18  C   UNL A   1      31.657  25.707  22.957  1.00  0.00     0.091 A 
ATOM     19  C   UNL A   1      31.009  26.725  25.081  1.00  0.00     0.029 A 
ATOM     20  C   UNL A   1      31.261  26.864  22.267  1.00  0.00     0.034 A 
ATOM     21  C   UNL A   1      30.631  27.876  24.377  1.00  0.00     0.006 A 
ATOM     22  C   UNL A   1      30.755  27.959  22.985  1.00  0.00    -0.049 A 
ATOM     23  C   UNL A   1      30.397  29.217  22.249  1.00  0.00     0.044 C 
BRANCH  15  24
ATOM     24  C   UNL A   1      31.999  23.826  26.005  1.00  0.00     0.122 C 
ATOM     25  C   UNL A   1      30.690  23.152  26.388  1.00  0.00     0.028 C 
ENDBRANCH  15  24
ENDBRANCH   9  14
ENDBRANCH   5   8
ENDBRANCH   3   4
ENDBRANCH   2   3
ENDBRANCH   1   2
BRANCH   1  26
ATOM     26  C   UNL A   1      40.654  21.920  26.945  1.00  0.00     0.116 C 
BRANCH  26  27
ATOM     27  N   UNL A   1      41.526  22.195  25.818  1.00  0.00    -0.352 N 
ATOM     28  C   UNL A   1      42.418  23.202  25.552  1.00  0.00     0.251 C 
ATOM     29  H   UNL A   1      41.467  21.522  25.102  1.00  0.00     0.163 HD
ATOM     30  O   UNL A   1      43.282  22.981  24.701  1.00  0.00    -0.269 OA
BRANCH  28  31
ATOM     31  C   UNL A   1      42.342  24.563  26.157  1.00  0.00     0.039 A 
ATOM     32  C   UNL A   1      42.789  24.884  27.435  1.00  0.00     0.014 A 
ATOM     33  C   UNL A   1      41.656  25.551  25.425  1.00  0.00     0.014 A 
ATOM     34  C   UNL A   1      42.447  26.089  28.023  1.00  0.00     0.010 A 
ATOM     35  C   UNL A   1      41.345  26.786  25.995  1.00  0.00     0.010 A 
ATOM     36  C   UNL A   1      41.695  27.029  27.318  1.00  0.00    -0.014 A 
BRANCH  36  37
ATOM     37  C   UNL A   1      41.383  28.263  28.032  1.00  0.00     0.031 A 
ATOM     38  C   UNL A   1      42.423  29.327  27.941  1.00  0.00     0.074 A 
ATOM     39  C   UNL A   1      40.253  28.480  28.728  1.00  0.00     0.049 A 
ATOM     40  N   UNL A   1      43.149  29.818  28.891  1.00  0.00    -0.248 NA
ATOM     41  C   UNL A   1      42.770  29.817  26.598  1.00  0.00     0.031 C 
ATOM     42  C   UNL A   1      39.020  27.691  28.741  1.00  0.00     0.029 A 
ATOM     43  N   UNL A   1      39.951  29.545  29.522  1.00  0.00    -0.354 N 
ATOM     44  C   UNL A   1      43.946  30.794  28.302  1.00  0.00     0.074 A 
ATOM     45  C   UNL A   1      43.754  30.671  26.878  1.00  0.00     0.031 C 
ATOM     46  C   UNL A   1      38.034  28.425  29.306  1.00  0.00     0.029 A 
ATOM     47  C   UNL A   1      38.606  29.653  29.833  1.00  0.00     0.049 A 
ATOM     48  H   UNL A   1      40.629  30.182  29.846  1.00  0.00     0.167 HD
ATOM     49  C   UNL A   1      44.602  31.746  29.021  1.00  0.00     0.031 A 
ATOM     50  C   UNL A   1      38.000  30.717  30.412  1.00  0.00     0.031 A 
ATOM     51  C   UNL A   1      44.707  31.410  30.412  1.00  0.00     0.049 A 
ATOM     52  C   UNL A   1      39.040  31.481  31.142  1.00  0.00     0.074 A 
ATOM     53  C   UNL A   1      45.332  30.404  31.121  1.00  0.00     0.029 A 
ATOM     54  N   UNL A   1      43.810  31.984  31.279  1.00  0.00    -0.354 N 
ATOM     55  N   UNL A   1      39.663  31.036  32.198  1.00  0.00    -0.248 NA
ATOM     56  C   UNL A   1      39.669  32.611  30.477  1.00  0.00     0.031 C 
ATOM     57  C   UNL A   1      44.458  30.119  32.208  1.00  0.00     0.029 A 
ATOM     58  C   UNL A   1      43.375  30.997  32.128  1.00  0.00     0.049 A 
ATOM     59  H   UNL A   1      43.529  32.927  31.288  1.00  0.00     0.167 HD
ATOM     60  C   UNL A   1      40.950  31.540  32.090  1.00  0.00     0.074 A 
ATOM     61  C   UNL A   1      40.860  32.588  31.077  1.00  0.00     0.031 C 
ATOM     62  C   UNL A   1      42.018  30.887  32.634  1.00  0.00     0.031 A 
BRANCH  49  63
ATOM     63  C   UNL A   1      44.905  33.122  28.492  1.00  0.00    -0.014 A 
ATOM     64  C   UNL A   1      43.901  34.097  28.320  1.00  0.00     0.010 A 
ATOM     65  C   UNL A   1      46.242  33.554  28.374  1.00  0.00     0.010 A 
ATOM     66  C   UNL A   1      44.199  35.422  28.003  1.00  0.00     0.020 A 
ATOM     67  C   UNL A   1      46.555  34.894  28.101  1.00  0.00     0.020 A 
ATOM     68  C   UNL A   1      45.528  35.817  27.908  1.00  0.00     0.054 A 
BRANCH  68  69
ATOM     69  S   UNL A   1      45.871  37.568  27.604  1.00  0.00     0.124 S 
ATOM     70  O   UNL A   1      46.569  37.519  26.323  1.00  0.00    -0.237 OA
ATOM     71  O   UNL A   1      44.530  38.147  27.570  1.00  0.00    -0.237 OA
ATOM     72  O   UNL A   1      46.689  37.961  28.748  1.00  0.00    -0.744 OA
ENDBRANCH  68  69
ENDBRANCH  49  63
BRANCH  50  73
ATOM     73  C   UNL A   1      36.724  31.339  29.979  1.00  0.00    -0.014 A 
ATOM     74  C   UNL A   1      36.596  31.841  28.667  1.00  0.00     0.010 A 
ATOM     75  C   UNL A   1      35.764  31.729  30.932  1.00  0.00     0.010 A 
ATOM     76  C   UNL A   1      35.603  32.767  28.338  1.00  0.00     0.020 A 
ATOM     77  C   UNL A   1      34.765  32.662  30.608  1.00  0.00     0.020 A 
ATOM     78  C   UNL A   1      34.720  33.205  29.323  1.00  0.00     0.054 A 
BRANCH  78  79
ATOM     79  S   UNL A   1      33.584  34.561  28.918  1.00  0.00     0.124 S 
ATOM     80  O   UNL A   1      33.073  34.928  30.241  1.00  0.00    -0.237 OA
ATOM     81  O   UNL A   1      34.478  35.545  28.303  1.00  0.00    -0.237 OA
ATOM     82  O   UNL A   1      32.618  33.953  28.020  1.00  0.00    -0.744 OA
ENDBRANCH  78  79
ENDBRANCH  50  73
BRANCH  62  83
ATOM     83  C   UNL A   1      41.772  29.767  33.625  1.00  0.00    -0.014 A 
ATOM     84  C   UNL A   1      41.963  30.052  34.990  1.00  0.00     0.010 A 
ATOM     85  C   UNL A   1      41.555  28.426  33.248  1.00  0.00     0.010 A 
ATOM     86  C   UNL A   1      41.979  29.034  35.946  1.00  0.00     0.020 A 
ATOM     87  C   UNL A   1      41.542  27.401  34.207  1.00  0.00     0.020 A 
ATOM     88  C   UNL A   1      41.782  27.711  35.548  1.00  0.00     0.054 A 
BRANCH  88  89
ATOM     89  S   UNL A   1      41.877  26.413  36.811  1.00  0.00     0.124 S 
ATOM     90  O   UNL A   1      42.960  26.893  37.668  1.00  0.00    -0.237 OA
ATOM     91  O   UNL A   1      40.546  26.448  37.413  1.00  0.00    -0.237 OA
ATOM     92  O   UNL A   1      42.179  25.200  36.054  1.00  0.00    -0.744 OA
ENDBRANCH  88  89
ENDBRANCH  62  83
ENDBRANCH  36  37
ENDBRANCH  28  31
ENDBRANCH  26  27
ENDBRANCH   1  26
TORSDOF 16
ENDMDL
MODEL 2
REMARK VINA RESULT:     -12.6      2.836      9.566
REMARK SMILES CCn1c(N2CCC[C@H](C(=O)NCCCCNC(=O)c3ccc(-c4c5nc(c(-c6ccc(S(=O)(=O)[O-])cc6)c6ccc([nH]6)c(-c6ccc(S(=O)(=O)[O-])cc6)c6nc(c(-c7ccc(S(=O)(=O)[O-])cc7)c7ccc4[nH]7)C=C6)C=C5)cc3)C2)nc2cc(C)ccc21
REMARK SMILES IDX 15 1 14 2 13 3 12 4 10 5 11 6 9 8 5 9 6 10 80 11 7 12 8 13
REMARK SMILES IDX 4 14 3 15 88 16 81 17 82 18 87 19 83 20 86 21 84 22 85 23
REMARK SMILES IDX 2 24 1 25 16 26 17 27 18 28 19 30 20 31 21 32 79 33 22 34
REMARK SMILES IDX 78 35 23 36 24 37 25 38 72 39 26 40 77 41 71 42 73 43 27 44
REMARK SMILES IDX 76 45 70 46 69 47 28 49 58 50 39 51 57 52 40 53 43 54 56 55
REMARK SMILES IDX 74 56 41 57 42 58 55 60 75 61 44 62 29 63 30 64 38 65 31 66
REMARK SMILES IDX 37 67 32 68 33 69 34 70 35 71 36 72 59 73 60 74 68 75 61 76
REMARK SMILES IDX 67 77 62 78 63 79 64 80 65 81 66 82 45 83 46 84 54 85 47 86
REMARK SMILES IDX 53 87 48 88 49 89 50 90 51 91 52 92
REMARK H PARENT 12 7 17 29 73 48 43 59
REMARK Flexibility Score: inf
ROOT
ATOM      1  C   UNL A   1      35.573  31.193  28.000  1.00  0.00     0.023 C 
ENDROOT
BRANCH   1   2
ATOM      2  C   UNL A   1      34.725  29.935  27.858  1.00  0.00     0.023 C 
BRANCH   2   3
ATOM      3  C   UNL A   1      33.563  30.080  26.892  1.00  0.00     0.116 C 
BRANCH   3   4
ATOM      4  N   UNL A   1      33.829  29.623  25.552  1.00  0.00    -0.356 N 
ATOM      5  C   UNL A   1      32.925  29.286  24.595  1.00  0.00     0.224 C 
ATOM      6  O   UNL A   1      33.321  29.285  23.423  1.00  0.00    -0.275 OA
ATOM      7  H   UNL A   1      34.778  29.544  25.300  1.00  0.00     0.163 HD
BRANCH   5   8
ATOM      8  C   UNL A   1      31.480  28.871  24.903  1.00  0.00     0.098 C 
ATOM      9  N   UNL A   1      30.799  26.479  24.510  1.00  0.00    -0.341 N 
ATOM     10  C   UNL A   1      29.776  26.846  23.538  1.00  0.00     0.119 C 
ATOM     11  C   UNL A   1      31.297  27.462  25.468  1.00  0.00     0.133 C 
ATOM     12  C   UNL A   1      30.057  28.188  22.865  1.00  0.00     0.022 C 
ATOM     13  C   UNL A   1      30.461  29.286  23.839  1.00  0.00     0.017 C 
BRANCH   9  14
ATOM     14  C   UNL A   1      31.344  25.234  24.492  1.00  0.00     0.206 A 
ATOM     15  N   UNL A   1      32.532  24.951  23.851  1.00  0.00    -0.310 N 
ATOM     16  C   UNL A   1      32.846  23.631  24.099  1.00  0.00     0.070 A 
ATOM     17  N   UNL A   1      30.842  24.151  25.040  1.00  0.00    -0.213 NA
ATOM     18  C   UNL A   1      31.762  23.158  24.830  1.00  0.00     0.091 A 
ATOM     19  C   UNL A   1      33.936  22.816  23.769  1.00  0.00     0.029 A 
ATOM     20  C   UNL A   1      31.743  21.820  25.254  1.00  0.00     0.034 A 
ATOM     21  C   UNL A   1      33.905  21.486  24.212  1.00  0.00     0.006 A 
ATOM     22  C   UNL A   1      32.828  20.982  24.950  1.00  0.00    -0.049 A 
ATOM     23  C   UNL A   1      32.834  19.571  25.463  1.00  0.00     0.044 C 
BRANCH  15  24
ATOM     24  C   UNL A   1      33.320  25.874  23.057  1.00  0.00     0.122 C 
ATOM     25  C   UNL A   1      32.937  25.895  21.585  1.00  0.00     0.028 C 
ENDBRANCH  15  24
ENDBRANCH   9  14
ENDBRANCH   5   8
ENDBRANCH   3   4
ENDBRANCH   2   3
ENDBRANCH   1   2
BRANCH   1  26
ATOM     26  C   UNL A   1      34.841  32.422  28.561  1.00  0.00     0.116 C 
BRANCH  26  27
ATOM     27  N   UNL A   1      34.480  32.330  29.964  1.00  0.00    -0.352 N 
ATOM     28  C   UNL A   1      35.201  32.048  31.096  1.00  0.00     0.251 C 
ATOM     29  H   UNL A   1      33.528  32.507  30.138  1.00  0.00     0.163 HD
ATOM     30  O   UNL A   1      34.722  32.406  32.174  1.00  0.00    -0.269 OA
BRANCH  28  31
ATOM     31  C   UNL A   1      36.467  31.261  31.104  1.00  0.00     0.039 A 
ATOM     32  C   UNL A   1      37.726  31.790  30.841  1.00  0.00     0.014 A 
ATOM     33  C   UNL A   1      36.352  29.866  31.265  1.00  0.00     0.014 A 
ATOM     34  C   UNL A   1      38.808  30.960  30.604  1.00  0.00     0.010 A 
ATOM     35  C   UNL A   1      37.448  29.025  31.070  1.00  0.00     0.010 A 
ATOM     36  C   UNL A   1      38.665  29.575  30.683  1.00  0.00    -0.014 A 
BRANCH  36  37
ATOM     37  C   UNL A   1      39.864  28.791  30.409  1.00  0.00     0.031 A 
ATOM     38  C   UNL A   1      40.782  28.611  31.570  1.00  0.00     0.074 A 
ATOM     39  C   UNL A   1      40.165  28.242  29.219  1.00  0.00     0.049 A 
ATOM     40  N   UNL A   1      41.988  29.056  31.712  1.00  0.00    -0.248 NA
ATOM     41  C   UNL A   1      40.237  27.948  32.763  1.00  0.00     0.031 C 
ATOM     42  C   UNL A   1      39.309  28.083  28.042  1.00  0.00     0.029 A 
ATOM     43  N   UNL A   1      41.318  27.615  28.853  1.00  0.00    -0.354 N 
ATOM     44  C   UNL A   1      42.422  28.604  32.954  1.00  0.00     0.074 A 
ATOM     45  C   UNL A   1      41.270  28.026  33.602  1.00  0.00     0.031 C 
ATOM     46  C   UNL A   1      39.886  27.200  27.195  1.00  0.00     0.029 A 
ATOM     47  C   UNL A   1      41.210  26.868  27.692  1.00  0.00     0.049 A 
ATOM     48  H   UNL A   1      42.154  27.687  29.369  1.00  0.00     0.167 HD
ATOM     49  C   UNL A   1      43.733  28.592  33.319  1.00  0.00     0.031 A 
ATOM     50  C   UNL A   1      42.120  25.981  27.223  1.00  0.00     0.031 A 
ATOM     51  C   UNL A   1      44.544  29.431  32.484  1.00  0.00     0.049 A 
ATOM     52  C   UNL A   1      43.434  26.331  27.814  1.00  0.00     0.074 A 
ATOM     53  C   UNL A   1      44.598  30.787  32.235  1.00  0.00     0.029 A 
ATOM     54  N   UNL A   1      45.262  28.830  31.479  1.00  0.00    -0.354 N 
ATOM     55  N   UNL A   1      44.090  27.423  27.532  1.00  0.00    -0.248 NA
ATOM     56  C   UNL A   1      43.862  25.641  29.020  1.00  0.00     0.031 C 
ATOM     57  C   UNL A   1      44.935  30.897  30.856  1.00  0.00     0.029 A 
ATOM     58  C   UNL A   1      45.114  29.605  30.355  1.00  0.00     0.049 A 
ATOM     59  H   UNL A   1      45.784  27.999  31.550  1.00  0.00     0.167 HD
ATOM     60  C   UNL A   1      44.714  27.779  28.718  1.00  0.00     0.074 A 
ATOM     61  C   UNL A   1      44.628  26.590  29.560  1.00  0.00     0.031 C 
ATOM     62  C   UNL A   1      45.004  29.082  29.005  1.00  0.00     0.031 A 
BRANCH  49  63
ATOM     63  C   UNL A   1      44.317  27.587  34.276  1.00  0.00    -0.014 A 
ATOM     64  C   UNL A   1      44.643  27.921  35.607  1.00  0.00     0.010 A 
ATOM     65  C   UNL A   1      44.337  26.219  33.937  1.00  0.00     0.010 A 
ATOM     66  C   UNL A   1      45.012  26.956  36.545  1.00  0.00     0.020 A 
ATOM     67  C   UNL A   1      44.662  25.236  34.884  1.00  0.00     0.020 A 
ATOM     68  C   UNL A   1      45.008  25.615  36.181  1.00  0.00     0.054 A 
BRANCH  68  69
ATOM     69  S   UNL A   1      45.387  24.391  37.458  1.00  0.00     0.124 S 
ATOM     70  O   UNL A   1      45.061  23.139  36.780  1.00  0.00    -0.237 OA
ATOM     71  O   UNL A   1      46.808  24.624  37.702  1.00  0.00    -0.237 OA
ATOM     72  O   UNL A   1      44.498  24.755  38.558  1.00  0.00    -0.744 OA
ENDBRANCH  68  69
ENDBRANCH  49  63
BRANCH  50  73
ATOM     73  C   UNL A   1      41.827  24.621  26.704  1.00  0.00    -0.014 A 
ATOM     74  C   UNL A   1      40.917  23.788  27.389  1.00  0.00     0.010 A 
ATOM     75  C   UNL A   1      42.669  24.030  25.745  1.00  0.00     0.010 A 
ATOM     76  C   UNL A   1      40.908  22.406  27.191  1.00  0.00     0.020 A 
ATOM     77  C   UNL A   1      42.668  22.640  25.543  1.00  0.00     0.020 A 
ATOM     78  C   UNL A   1      41.814  21.835  26.300  1.00  0.00     0.054 A 
BRANCH  78  79
ATOM     79  S   UNL A   1      41.922  20.025  26.224  1.00  0.00     0.124 S 
ATOM     80  O   UNL A   1      40.572  19.662  25.788  1.00  0.00    -0.237 OA
ATOM     81  O   UNL A   1      42.973  19.816  25.225  1.00  0.00    -0.237 OA
ATOM     82  O   UNL A   1      42.268  19.637  27.579  1.00  0.00    -0.744 OA
ENDBRANCH  78  79
ENDBRANCH  50  73
BRANCH  62  83
ATOM     83  C   UNL A   1      44.929  30.116  27.900  1.00  0.00    -0.014 A 
ATOM     84  C   UNL A   1      46.130  30.730  27.501  1.00  0.00     0.010 A 
ATOM     85  C   UNL A   1      43.718  30.630  27.394  1.00  0.00     0.010 A 
ATOM     86  C   UNL A   1      46.128  31.843  26.658  1.00  0.00     0.020 A 
ATOM     87  C   UNL A   1      43.709  31.731  26.525  1.00  0.00     0.020 A 
ATOM     88  C   UNL A   1      44.916  32.348  26.184  1.00  0.00     0.054 A 
BRANCH  88  89
ATOM     89  S   UNL A   1      44.953  33.835  25.147  1.00  0.00     0.124 S 
ATOM     90  O   UNL A   1      46.354  34.243  25.240  1.00  0.00    -0.237 OA
ATOM     91  O   UNL A   1      44.538  33.329  23.840  1.00  0.00    -0.237 OA
ATOM     92  O   UNL A   1      44.001  34.740  25.787  1.00  0.00    -0.744 OA
ENDBRANCH  88  89
ENDBRANCH  62  83
ENDBRANCH  36  37
ENDBRANCH  28  31
ENDBRANCH  26  27
ENDBRANCH   1  26
TORSDOF 16
ENDMDL
MODEL 3
REMARK VINA RESULT:     -12.1      3.228      9.441
REMARK SMILES CCn1c(N2CCC[C@H](C(=O)NCCCCNC(=O)c3ccc(-c4c5nc(c(-c6ccc(S(=O)(=O)[O-])cc6)c6ccc([nH]6)c(-c6ccc(S(=O)(=O)[O-])cc6)c6nc(c(-c7ccc(S(=O)(=O)[O-])cc7)c7ccc4[nH]7)C=C6)C=C5)cc3)C2)nc2cc(C)ccc21
REMARK SMILES IDX 15 1 14 2 13 3 12 4 10 5 11 6 9 8 5 9 6 10 80 11 7 12 8 13
REMARK SMILES IDX 4 14 3 15 88 16 81 17 82 18 87 19 83 20 86 21 84 22 85 23
REMARK SMILES IDX 2 24 1 25 16 26 17 27 18 28 19 30 20 31 21 32 79 33 22 34
REMARK SMILES IDX 78 35 23 36 24 37 25 38 72 39 26 40 77 41 71 42 73 43 27 44
REMARK SMILES IDX 76 45 70 46 69 47 28 49 58 50 39 51 57 52 40 53 43 54 56 55
REMARK SMILES IDX 74 56 41 57 42 58 55 60 75 61 44 62 29 63 30 64 38 65 31 66
REMARK SMILES IDX 37 67 32 68 33 69 34 70 35 71 36 72 59 73 60 74 68 75 61 76
REMARK SMILES IDX 67 77 62 78 63 79 64 80 65 81 66 82 45 83 46 84 54 85 47 86
REMARK SMILES IDX 53 87 48 88 49 89 50 90 51 91 52 92
REMARK H PARENT 12 7 17 29 73 48 43 59
REMARK Flexibility Score: inf
ROOT
ATOM      1  C   UNL A   1      34.754  31.683  28.137  1.00  0.00     0.023 C 
ENDROOT
BRANCH   1   2
ATOM      2  C   UNL A   1      35.945  30.782  27.833  1.00  0.00     0.023 C 
BRANCH   2   3
ATOM      3  C   UNL A   1      35.565  29.357  27.474  1.00  0.00     0.116 C 
BRANCH   3   4
ATOM      4  N   UNL A   1      34.183  29.023  27.705  1.00  0.00    -0.356 N 
ATOM      5  C   UNL A   1      33.443  28.072  27.077  1.00  0.00     0.224 C 
ATOM      6  O   UNL A   1      32.421  27.682  27.654  1.00  0.00    -0.275 OA
ATOM      7  H   UNL A   1      33.719  29.547  28.398  1.00  0.00     0.163 HD
BRANCH   5   8
ATOM      8  C   UNL A   1      33.789  27.506  25.692  1.00  0.00     0.098 C 
ATOM      9  N   UNL A   1      32.182  27.893  23.793  1.00  0.00    -0.341 N 
ATOM     10  C   UNL A   1      31.965  26.467  23.579  1.00  0.00     0.119 C 
ATOM     11  C   UNL A   1      33.370  28.365  24.498  1.00  0.00     0.133 C 
ATOM     12  C   UNL A   1      32.237  25.636  24.832  1.00  0.00     0.022 C 
ATOM     13  C   UNL A   1      33.533  26.005  25.539  1.00  0.00     0.017 C 
BRANCH   9  14
ATOM     14  C   UNL A   1      31.247  28.794  23.392  1.00  0.00     0.206 A 
ATOM     15  N   UNL A   1      30.673  29.706  24.254  1.00  0.00    -0.310 N 
ATOM     16  C   UNL A   1      29.841  30.523  23.517  1.00  0.00     0.070 A 
ATOM     17  N   UNL A   1      30.750  28.922  22.182  1.00  0.00    -0.213 NA
ATOM     18  C   UNL A   1      29.901  29.997  22.232  1.00  0.00     0.091 A 
ATOM     19  C   UNL A   1      29.059  31.642  23.829  1.00  0.00     0.029 A 
ATOM     20  C   UNL A   1      29.153  30.591  21.203  1.00  0.00     0.034 A 
ATOM     21  C   UNL A   1      28.329  32.231  22.787  1.00  0.00     0.006 A 
ATOM     22  C   UNL A   1      28.370  31.723  21.483  1.00  0.00    -0.049 A 
ATOM     23  C   UNL A   1      27.626  32.395  20.366  1.00  0.00     0.044 C 
BRANCH  15  24
ATOM     24  C   UNL A   1      30.902  29.797  25.682  1.00  0.00     0.122 C 
ATOM     25  C   UNL A   1      31.565  31.097  26.112  1.00  0.00     0.028 C 
ENDBRANCH  15  24
ENDBRANCH   9  14
ENDBRANCH   5   8
ENDBRANCH   3   4
ENDBRANCH   2   3
ENDBRANCH   1   2
BRANCH   1  26
ATOM     26  C   UNL A   1      35.047  32.869  29.070  1.00  0.00     0.116 C 
BRANCH  26  27
ATOM     27  N   UNL A   1      34.640  32.675  30.450  1.00  0.00    -0.352 N 
ATOM     28  C   UNL A   1      35.308  32.250  31.569  1.00  0.00     0.251 C 
ATOM     29  H   UNL A   1      33.694  32.895  30.615  1.00  0.00     0.163 HD
ATOM     30  O   UNL A   1      34.819  32.540  32.663  1.00  0.00    -0.269 OA
BRANCH  28  31
ATOM     31  C   UNL A   1      36.524  31.388  31.537  1.00  0.00     0.039 A 
ATOM     32  C   UNL A   1      37.829  31.867  31.472  1.00  0.00     0.014 A 
ATOM     33  C   UNL A   1      36.320  29.998  31.436  1.00  0.00     0.014 A 
ATOM     34  C   UNL A   1      38.882  31.018  31.178  1.00  0.00     0.010 A 
ATOM     35  C   UNL A   1      37.383  29.130  31.182  1.00  0.00     0.010 A 
ATOM     36  C   UNL A   1      38.657  29.654  30.997  1.00  0.00    -0.014 A 
BRANCH  36  37
ATOM     37  C   UNL A   1      39.833  28.848  30.683  1.00  0.00     0.031 A 
ATOM     38  C   UNL A   1      40.783  28.647  31.814  1.00  0.00     0.074 A 
ATOM     39  C   UNL A   1      40.085  28.297  29.482  1.00  0.00     0.049 A 
ATOM     40  N   UNL A   1      42.001  29.070  31.920  1.00  0.00    -0.248 NA
ATOM     41  C   UNL A   1      40.263  27.990  33.022  1.00  0.00     0.031 C 
ATOM     42  C   UNL A   1      39.191  28.158  28.333  1.00  0.00     0.029 A 
ATOM     43  N   UNL A   1      41.215  27.651  29.079  1.00  0.00    -0.354 N 
ATOM     44  C   UNL A   1      42.465  28.605  33.146  1.00  0.00     0.074 A 
ATOM     45  C   UNL A   1      41.323  28.047  33.828  1.00  0.00     0.031 C 
ATOM     46  C   UNL A   1      39.724  27.268  27.465  1.00  0.00     0.029 A 
ATOM     47  C   UNL A   1      41.057  26.910  27.920  1.00  0.00     0.049 A 
ATOM     48  H   UNL A   1      42.068  27.706  29.569  1.00  0.00     0.167 HD
ATOM     49  C   UNL A   1      43.786  28.568  33.470  1.00  0.00     0.031 A 
ATOM     50  C   UNL A   1      41.934  26.007  27.420  1.00  0.00     0.031 A 
ATOM     51  C   UNL A   1      44.587  29.394  32.612  1.00  0.00     0.049 A 
ATOM     52  C   UNL A   1      43.272  26.331  27.970  1.00  0.00     0.074 A 
ATOM     53  C   UNL A   1      44.657  30.750  32.365  1.00  0.00     0.029 A 
ATOM     54  N   UNL A   1      45.261  28.784  31.583  1.00  0.00    -0.354 N 
ATOM     55  N   UNL A   1      43.939  27.411  27.670  1.00  0.00    -0.248 NA
ATOM     56  C   UNL A   1      43.725  25.629  29.161  1.00  0.00     0.031 C 
ATOM     57  C   UNL A   1      44.954  30.858  30.976  1.00  0.00     0.029 A 
ATOM     58  C   UNL A   1      45.093  29.565  30.466  1.00  0.00     0.049 A 
ATOM     59  H   UNL A   1      45.769  27.943  31.636  1.00  0.00     0.167 HD
ATOM     60  C   UNL A   1      44.607  27.752  28.837  1.00  0.00     0.074 A 
ATOM     61  C   UNL A   1      44.526  26.562  29.679  1.00  0.00     0.031 C 
ATOM     62  C   UNL A   1      44.930  29.048  29.119  1.00  0.00     0.031 A 
BRANCH  49  63
ATOM     63  C   UNL A   1      44.381  27.549  34.405  1.00  0.00    -0.014 A 
ATOM     64  C   UNL A   1      44.358  27.714  35.805  1.00  0.00     0.010 A 
ATOM     65  C   UNL A   1      44.771  26.286  33.916  1.00  0.00     0.010 A 
ATOM     66  C   UNL A   1      44.743  26.696  36.678  1.00  0.00     0.020 A 
ATOM     67  C   UNL A   1      45.116  25.241  34.786  1.00  0.00     0.020 A 
ATOM     68  C   UNL A   1      45.108  25.458  36.163  1.00  0.00     0.054 A 
BRANCH  68  69
ATOM     69  S   UNL A   1      45.494  24.135  37.335  1.00  0.00     0.124 S 
ATOM     70  O   UNL A   1      46.943  24.262  37.466  1.00  0.00    -0.237 OA
ATOM     71  O   UNL A   1      44.718  24.522  38.511  1.00  0.00    -0.237 OA
ATOM     72  O   UNL A   1      45.032  22.928  36.655  1.00  0.00    -0.744 OA
ENDBRANCH  68  69
ENDBRANCH  49  63
BRANCH  50  73
ATOM     73  C   UNL A   1      41.600  24.655  26.907  1.00  0.00    -0.014 A 
ATOM     74  C   UNL A   1      40.730  23.821  27.640  1.00  0.00     0.010 A 
ATOM     75  C   UNL A   1      42.376  24.069  25.890  1.00  0.00     0.010 A 
ATOM     76  C   UNL A   1      40.699  22.440  27.428  1.00  0.00     0.020 A 
ATOM     77  C   UNL A   1      42.352  22.681  25.674  1.00  0.00     0.020 A 
ATOM     78  C   UNL A   1      41.543  21.874  26.476  1.00  0.00     0.054 A 
BRANCH  78  79
ATOM     79  S   UNL A   1      41.634  20.064  26.374  1.00  0.00     0.124 S 
ATOM     80  O   UNL A   1      42.640  19.873  25.328  1.00  0.00    -0.237 OA
ATOM     81  O   UNL A   1      42.065  19.696  27.725  1.00  0.00    -0.237 OA
ATOM     82  O   UNL A   1      40.282  19.663  26.024  1.00  0.00    -0.744 OA
ENDBRANCH  78  79
ENDBRANCH  50  73
BRANCH  62  83
ATOM     83  C   UNL A   1      44.840  30.088  28.019  1.00  0.00    -0.014 A 
ATOM     84  C   UNL A   1      46.046  30.575  27.485  1.00  0.00     0.010 A 
ATOM     85  C   UNL A   1      43.639  30.724  27.646  1.00  0.00     0.010 A 
ATOM     86  C   UNL A   1      46.065  31.685  26.637  1.00  0.00     0.020 A 
ATOM     87  C   UNL A   1      43.648  31.823  26.773  1.00  0.00     0.020 A 
ATOM     88  C   UNL A   1      44.866  32.313  26.295  1.00  0.00     0.054 A 
BRANCH  88  89
ATOM     89  S   UNL A   1      44.940  33.791  25.248  1.00  0.00     0.124 S 
ATOM     90  O   UNL A   1      44.503  33.275  23.951  1.00  0.00    -0.237 OA
ATOM     91  O   UNL A   1      44.001  34.700  25.903  1.00  0.00    -0.237 OA
ATOM     92  O   UNL A   1      46.341  34.203  25.310  1.00  0.00    -0.744 OA
ENDBRANCH  88  89
ENDBRANCH  62  83
ENDBRANCH  36  37
ENDBRANCH  28  31
ENDBRANCH  26  27
ENDBRANCH   1  26
TORSDOF 16
ENDMDL
