MODEL 1
REMARK VINA RESULT:     -10.4      0.000      0.000
REMARK SMILES COc1cc(Br)c(N)c(C(=O)NCCCCNC(=O)c2ccc(-c3c4nc(c(-c5ccc(S(=O)(=O)[O-])cc5)c5ccc([nH]5)c(-c5ccc(S(=O)(=O)[O-])cc5)c5nc(c(-c6ccc(S(=O)(=O)[O-])cc6)c6ccc3[nH]6)C=C5)C=C4)cc2)c1
REMARK SMILES IDX 15 1 14 2 13 3 12 4 10 5 11 6 9 8 3 9 4 10 80 11 5 12 6 13
REMARK SMILES IDX 7 14 2 15 1 16 8 17 16 20 17 21 18 22 19 24 20 25 21 26
REMARK SMILES IDX 79 27 22 28 78 29 23 30 24 31 25 32 72 33 26 34 77 35 71 36
REMARK SMILES IDX 73 37 27 38 76 39 70 40 69 41 28 43 58 44 39 45 57 46 40 47
REMARK SMILES IDX 43 48 56 49 74 50 41 51 42 52 55 54 75 55 44 56 29 57 30 58
REMARK SMILES IDX 38 59 31 60 37 61 32 62 33 63 34 64 35 65 36 66 59 67 60 68
REMARK SMILES IDX 68 69 61 70 67 71 62 72 63 73 64 74 65 75 66 76 45 77 46 78
REMARK SMILES IDX 54 79 47 80 53 81 48 82 49 83 50 84 51 85 52 86
REMARK H PARENT 12 7 8 18 8 19 17 23 73 42 43 53
REMARK Flexibility Score: inf
ROOT
ATOM      1  C   UNL A   1      32.055  28.297  26.398  1.00  0.00     0.023 C 
ENDROOT
BRANCH   1   2
ATOM      2  C   UNL A   1      31.665  29.264  25.280  1.00  0.00     0.023 C 
BRANCH   2   3
ATOM      3  C   UNL A   1      31.373  28.649  23.914  1.00  0.00     0.116 C 
BRANCH   3   4
ATOM      4  N   UNL A   1      30.035  28.104  23.762  1.00  0.00    -0.352 N 
ATOM      5  C   UNL A   1      29.579  26.816  23.946  1.00  0.00     0.253 C 
ATOM      6  O   UNL A   1      28.381  26.588  23.782  1.00  0.00    -0.269 OA
ATOM      7  H   UNL A   1      29.349  28.753  23.485  1.00  0.00     0.163 HD
BRANCH   5   8
ATOM      8  C   UNL A   1      30.486  25.673  24.254  1.00  0.00     0.067 A 
ATOM      9  C   UNL A   1      31.315  24.224  26.037  1.00  0.00     0.120 A 
ATOM     10  C   UNL A   1      31.988  23.469  25.082  1.00  0.00     0.064 A 
ATOM     11  C   UNL A   1      30.536  25.300  25.618  1.00  0.00     0.062 A 
ATOM     12  C   UNL A   1      31.972  23.853  23.740  1.00  0.00     0.045 A 
ATOM     13  Br  UNL A   1      32.925  22.761  22.503  1.00  0.00    -0.048 Br
ATOM     14  C   UNL A   1      31.306  25.020  23.314  1.00  0.00     0.059 A 
BRANCH   9  15
ATOM     15  O   UNL A   1      31.497  23.800  27.322  1.00  0.00    -0.497 OA
ATOM     16  C   UNL A   1      32.459  22.776  27.545  1.00  0.00     0.278 C 
ENDBRANCH   9  15
BRANCH  14  17
ATOM     17  N   UNL A   1      31.432  25.446  21.992  1.00  0.00    -0.397 N 
ATOM     18  H   UNL A   1      32.267  25.277  21.498  1.00  0.00     0.156 HD
ATOM     19  H   UNL A   1      30.686  25.916  21.553  1.00  0.00     0.156 HD
ENDBRANCH  14  17
ENDBRANCH   5   8
ENDBRANCH   3   4
ENDBRANCH   2   3
ENDBRANCH   1   2
BRANCH   1  20
ATOM     20  C   UNL A   1      33.264  28.677  27.249  1.00  0.00     0.116 C 
BRANCH  20  21
ATOM     21  N   UNL A   1      33.378  30.104  27.510  1.00  0.00    -0.352 N 
ATOM     22  C   UNL A   1      34.434  30.846  27.990  1.00  0.00     0.251 C 
ATOM     23  H   UNL A   1      32.566  30.626  27.313  1.00  0.00     0.163 HD
ATOM     24  O   UNL A   1      34.279  32.044  28.212  1.00  0.00    -0.269 OA
BRANCH  22  25
ATOM     25  C   UNL A   1      35.739  30.207  28.281  1.00  0.00     0.039 A 
ATOM     26  C   UNL A   1      36.713  30.178  27.278  1.00  0.00     0.014 A 
ATOM     27  C   UNL A   1      36.014  29.651  29.530  1.00  0.00     0.014 A 
ATOM     28  C   UNL A   1      37.991  29.686  27.561  1.00  0.00     0.010 A 
ATOM     29  C   UNL A   1      37.311  29.242  29.837  1.00  0.00     0.010 A 
ATOM     30  C   UNL A   1      38.318  29.263  28.861  1.00  0.00    -0.014 A 
BRANCH  30  31
ATOM     31  C   UNL A   1      39.706  28.868  29.225  1.00  0.00     0.031 A 
ATOM     32  C   UNL A   1      40.609  29.829  29.951  1.00  0.00     0.074 A 
ATOM     33  C   UNL A   1      40.184  27.670  28.831  1.00  0.00     0.049 A 
ATOM     34  N   UNL A   1      41.864  29.685  30.292  1.00  0.00    -0.248 NA
ATOM     35  C   UNL A   1      40.034  31.133  30.313  1.00  0.00     0.031 C 
ATOM     36  C   UNL A   1      39.429  26.658  28.087  1.00  0.00     0.029 A 
ATOM     37  N   UNL A   1      41.424  27.102  28.996  1.00  0.00    -0.354 N 
ATOM     38  C   UNL A   1      42.237  30.888  30.882  1.00  0.00     0.074 A 
ATOM     39  C   UNL A   1      41.088  31.764  30.808  1.00  0.00     0.031 C 
ATOM     40  C   UNL A   1      40.207  25.579  27.899  1.00  0.00     0.029 A 
ATOM     41  C   UNL A   1      41.527  25.837  28.464  1.00  0.00     0.049 A 
ATOM     42  H   UNL A   1      42.167  27.557  29.453  1.00  0.00     0.167 HD
ATOM     43  C   UNL A   1      43.420  31.228  31.449  1.00  0.00     0.031 A 
ATOM     44  C   UNL A   1      42.565  24.978  28.434  1.00  0.00     0.031 A 
ATOM     45  C   UNL A   1      44.558  30.353  31.534  1.00  0.00     0.049 A 
ATOM     46  C   UNL A   1      43.872  25.380  29.059  1.00  0.00     0.074 A 
ATOM     47  C   UNL A   1      45.776  30.579  32.150  1.00  0.00     0.029 A 
ATOM     48  N   UNL A   1      44.622  29.083  30.976  1.00  0.00    -0.354 N 
ATOM     49  N   UNL A   1      44.182  26.496  29.673  1.00  0.00    -0.248 NA
ATOM     50  C   UNL A   1      44.967  24.402  28.990  1.00  0.00     0.031 C 
ATOM     51  C   UNL A   1      46.597  29.468  31.921  1.00  0.00     0.029 A 
ATOM     52  C   UNL A   1      45.870  28.526  31.209  1.00  0.00     0.049 A 
ATOM     53  H   UNL A   1      43.890  28.643  30.488  1.00  0.00     0.167 HD
ATOM     54  C   UNL A   1      45.500  26.343  30.091  1.00  0.00     0.074 A 
ATOM     55  C   UNL A   1      45.924  25.025  29.665  1.00  0.00     0.031 C 
ATOM     56  C   UNL A   1      46.285  27.216  30.772  1.00  0.00     0.031 A 
BRANCH  43  57
ATOM     57  C   UNL A   1      43.538  32.625  32.003  1.00  0.00    -0.014 A 
ATOM     58  C   UNL A   1      44.016  33.687  31.214  1.00  0.00     0.010 A 
ATOM     59  C   UNL A   1      43.176  32.878  33.339  1.00  0.00     0.010 A 
ATOM     60  C   UNL A   1      44.200  34.956  31.769  1.00  0.00     0.020 A 
ATOM     61  C   UNL A   1      43.329  34.154  33.890  1.00  0.00     0.020 A 
ATOM     62  C   UNL A   1      43.868  35.178  33.108  1.00  0.00     0.054 A 
BRANCH  62  63
ATOM     63  S   UNL A   1      44.146  36.826  33.815  1.00  0.00     0.124 S 
ATOM     64  O   UNL A   1      42.779  37.272  34.077  1.00  0.00    -0.237 OA
ATOM     65  O   UNL A   1      44.949  36.538  34.999  1.00  0.00    -0.237 OA
ATOM     66  O   UNL A   1      44.843  37.544  32.752  1.00  0.00    -0.744 OA
ENDBRANCH  62  63
ENDBRANCH  43  57
BRANCH  44  67
ATOM     67  C   UNL A   1      42.388  23.630  27.830  1.00  0.00    -0.014 A 
ATOM     68  C   UNL A   1      42.780  23.401  26.499  1.00  0.00     0.010 A 
ATOM     69  C   UNL A   1      41.870  22.562  28.585  1.00  0.00     0.010 A 
ATOM     70  C   UNL A   1      42.660  22.128  25.934  1.00  0.00     0.020 A 
ATOM     71  C   UNL A   1      41.773  21.282  28.031  1.00  0.00     0.020 A 
ATOM     72  C   UNL A   1      42.165  21.074  26.707  1.00  0.00     0.054 A 
BRANCH  72  73
ATOM     73  S   UNL A   1      42.100  19.414  25.978  1.00  0.00     0.124 S 
ATOM     74  O   UNL A   1      42.937  19.568  24.793  1.00  0.00    -0.237 OA
ATOM     75  O   UNL A   1      42.656  18.581  27.042  1.00  0.00    -0.237 OA
ATOM     76  O   UNL A   1      40.677  19.210  25.719  1.00  0.00    -0.744 OA
ENDBRANCH  72  73
ENDBRANCH  44  67
BRANCH  56  77
ATOM     77  C   UNL A   1      47.676  26.764  31.129  1.00  0.00    -0.014 A 
ATOM     78  C   UNL A   1      47.951  26.153  32.365  1.00  0.00     0.010 A 
ATOM     79  C   UNL A   1      48.712  26.905  30.189  1.00  0.00     0.010 A 
ATOM     80  C   UNL A   1      49.244  25.717  32.665  1.00  0.00     0.020 A 
ATOM     81  C   UNL A   1      50.000  26.446  30.474  1.00  0.00     0.020 A 
ATOM     82  C   UNL A   1      50.262  25.867  31.716  1.00  0.00     0.054 A 
BRANCH  82  83
ATOM     83  S   UNL A   1      51.922  25.250  32.110  1.00  0.00     0.124 S 
ATOM     84  O   UNL A   1      52.710  25.765  30.992  1.00  0.00    -0.237 OA
ATOM     85  O   UNL A   1      52.194  25.865  33.406  1.00  0.00    -0.237 OA
ATOM     86  O   UNL A   1      51.754  23.799  32.138  1.00  0.00    -0.744 OA
ENDBRANCH  82  83
ENDBRANCH  56  77
ENDBRANCH  30  31
ENDBRANCH  22  25
ENDBRANCH  20  21
ENDBRANCH   1  20
TORSDOF 16
ENDMDL
MODEL 2
REMARK VINA RESULT:     -10.1      4.786     10.585
REMARK SMILES COc1cc(Br)c(N)c(C(=O)NCCCCNC(=O)c2ccc(-c3c4nc(c(-c5ccc(S(=O)(=O)[O-])cc5)c5ccc([nH]5)c(-c5ccc(S(=O)(=O)[O-])cc5)c5nc(c(-c6ccc(S(=O)(=O)[O-])cc6)c6ccc3[nH]6)C=C5)C=C4)cc2)c1
REMARK SMILES IDX 15 1 14 2 13 3 12 4 10 5 11 6 9 8 3 9 4 10 80 11 5 12 6 13
REMARK SMILES IDX 7 14 2 15 1 16 8 17 16 20 17 21 18 22 19 24 20 25 21 26
REMARK SMILES IDX 79 27 22 28 78 29 23 30 24 31 25 32 72 33 26 34 77 35 71 36
REMARK SMILES IDX 73 37 27 38 76 39 70 40 69 41 28 43 58 44 39 45 57 46 40 47
REMARK SMILES IDX 43 48 56 49 74 50 41 51 42 52 55 54 75 55 44 56 29 57 30 58
REMARK SMILES IDX 38 59 31 60 37 61 32 62 33 63 34 64 35 65 36 66 59 67 60 68
REMARK SMILES IDX 68 69 61 70 67 71 62 72 63 73 64 74 65 75 66 76 45 77 46 78
REMARK SMILES IDX 54 79 47 80 53 81 48 82 49 83 50 84 51 85 52 86
REMARK H PARENT 12 7 8 18 8 19 17 23 73 42 43 53
REMARK Flexibility Score: inf
ROOT
ATOM      1  C   UNL A   1      39.008  22.421  26.195  1.00  0.00     0.023 C 
ENDROOT
BRANCH   1   2
ATOM      2  C   UNL A   1      37.608  22.899  25.806  1.00  0.00     0.023 C 
BRANCH   2   3
ATOM      3  C   UNL A   1      36.525  21.829  25.697  1.00  0.00     0.116 C 
BRANCH   3   4
ATOM      4  N   UNL A   1      35.547  21.836  26.771  1.00  0.00    -0.352 N 
ATOM      5  C   UNL A   1      34.199  21.553  26.740  1.00  0.00     0.253 C 
ATOM      6  O   UNL A   1      33.565  21.599  27.795  1.00  0.00    -0.269 OA
ATOM      7  H   UNL A   1      35.901  22.081  27.656  1.00  0.00     0.163 HD
BRANCH   5   8
ATOM      8  C   UNL A   1      33.458  21.274  25.477  1.00  0.00     0.067 A 
ATOM      9  C   UNL A   1      32.319  22.305  23.578  1.00  0.00     0.120 A 
ATOM     10  C   UNL A   1      32.171  21.044  23.009  1.00  0.00     0.064 A 
ATOM     11  C   UNL A   1      32.994  22.421  24.791  1.00  0.00     0.062 A 
ATOM     12  C   UNL A   1      32.595  19.906  23.697  1.00  0.00     0.045 A 
ATOM     13  Br  UNL A   1      32.350  18.221  22.842  1.00  0.00    -0.048 Br
ATOM     14  C   UNL A   1      33.153  19.989  24.988  1.00  0.00     0.059 A 
BRANCH   9  15
ATOM     15  O   UNL A   1      31.770  23.321  22.849  1.00  0.00    -0.497 OA
ATOM     16  C   UNL A   1      30.608  23.952  23.373  1.00  0.00     0.278 C 
ENDBRANCH   9  15
BRANCH  14  17
ATOM     17  N   UNL A   1      33.431  18.822  25.700  1.00  0.00    -0.397 N 
ATOM     18  H   UNL A   1      34.364  18.566  25.880  1.00  0.00     0.156 HD
ATOM     19  H   UNL A   1      32.693  18.255  26.022  1.00  0.00     0.156 HD
ENDBRANCH  14  17
ENDBRANCH   5   8
ENDBRANCH   3   4
ENDBRANCH   2   3
ENDBRANCH   1   2
BRANCH   1  20
ATOM     20  C   UNL A   1      39.926  23.443  26.861  1.00  0.00     0.116 C 
BRANCH  20  21
ATOM     21  N   UNL A   1      40.911  24.025  25.962  1.00  0.00    -0.352 N 
ATOM     22  C   UNL A   1      41.465  25.285  25.935  1.00  0.00     0.251 C 
ATOM     23  H   UNL A   1      41.236  23.419  25.257  1.00  0.00     0.163 HD
ATOM     24  O   UNL A   1      42.231  25.589  25.024  1.00  0.00    -0.269 OA
BRANCH  22  25
ATOM     25  C   UNL A   1      41.114  26.290  26.966  1.00  0.00     0.039 A 
ATOM     26  C   UNL A   1      40.211  25.935  27.973  1.00  0.00     0.014 A 
ATOM     27  C   UNL A   1      41.672  27.569  26.955  1.00  0.00     0.014 A 
ATOM     28  C   UNL A   1      39.950  26.824  29.021  1.00  0.00     0.010 A 
ATOM     29  C   UNL A   1      41.480  28.418  28.043  1.00  0.00     0.010 A 
ATOM     30  C   UNL A   1      40.626  28.053  29.095  1.00  0.00    -0.014 A 
BRANCH  30  31
ATOM     31  C   UNL A   1      40.475  28.956  30.268  1.00  0.00     0.031 A 
ATOM     32  C   UNL A   1      41.350  28.785  31.481  1.00  0.00     0.074 A 
ATOM     33  C   UNL A   1      39.492  29.880  30.279  1.00  0.00     0.049 A 
ATOM     34  N   UNL A   1      41.320  29.432  32.619  1.00  0.00    -0.248 NA
ATOM     35  C   UNL A   1      42.372  27.730  31.417  1.00  0.00     0.031 C 
ATOM     36  C   UNL A   1      38.547  30.125  29.186  1.00  0.00     0.029 A 
ATOM     37  N   UNL A   1      39.121  30.782  31.244  1.00  0.00    -0.354 N 
ATOM     38  C   UNL A   1      42.297  28.845  33.415  1.00  0.00     0.074 A 
ATOM     39  C   UNL A   1      42.867  27.760  32.646  1.00  0.00     0.031 C 
ATOM     40  C   UNL A   1      37.736  31.140  29.525  1.00  0.00     0.029 A 
ATOM     41  C   UNL A   1      38.068  31.586  30.874  1.00  0.00     0.049 A 
ATOM     42  H   UNL A   1      39.568  30.848  32.119  1.00  0.00     0.167 HD
ATOM     43  C   UNL A   1      42.697  29.185  34.664  1.00  0.00     0.031 A 
ATOM     44  C   UNL A   1      37.438  32.573  31.542  1.00  0.00     0.031 A 
ATOM     45  C   UNL A   1      42.138  30.271  35.424  1.00  0.00     0.049 A 
ATOM     46  C   UNL A   1      37.889  32.928  32.931  1.00  0.00     0.074 A 
ATOM     47  C   UNL A   1      42.522  30.739  36.668  1.00  0.00     0.029 A 
ATOM     48  N   UNL A   1      41.068  31.055  35.015  1.00  0.00    -0.354 N 
ATOM     49  N   UNL A   1      38.861  32.405  33.640  1.00  0.00    -0.248 NA
ATOM     50  C   UNL A   1      37.160  34.009  33.608  1.00  0.00     0.031 C 
ATOM     51  C   UNL A   1      41.651  31.772  37.036  1.00  0.00     0.029 A 
ATOM     52  C   UNL A   1      40.759  31.984  35.995  1.00  0.00     0.049 A 
ATOM     53  H   UNL A   1      40.598  30.964  34.155  1.00  0.00     0.167 HD
ATOM     54  C   UNL A   1      38.881  33.115  34.836  1.00  0.00     0.074 A 
ATOM     55  C   UNL A   1      37.828  34.107  34.751  1.00  0.00     0.031 C 
ATOM     56  C   UNL A   1      39.703  32.962  35.904  1.00  0.00     0.031 A 
BRANCH  43  57
ATOM     57  C   UNL A   1      43.783  28.347  35.289  1.00  0.00    -0.014 A 
ATOM     58  C   UNL A   1      43.487  27.148  35.961  1.00  0.00     0.010 A 
ATOM     59  C   UNL A   1      45.122  28.773  35.213  1.00  0.00     0.010 A 
ATOM     60  C   UNL A   1      44.495  26.429  36.609  1.00  0.00     0.020 A 
ATOM     61  C   UNL A   1      46.140  28.040  35.831  1.00  0.00     0.020 A 
ATOM     62  C   UNL A   1      45.815  26.889  36.550  1.00  0.00     0.054 A 
BRANCH  62  63
ATOM     63  S   UNL A   1      47.102  25.956  37.425  1.00  0.00     0.124 S 
ATOM     64  O   UNL A   1      47.623  26.961  38.348  1.00  0.00    -0.237 OA
ATOM     65  O   UNL A   1      46.349  24.868  38.043  1.00  0.00    -0.237 OA
ATOM     66  O   UNL A   1      48.018  25.551  36.362  1.00  0.00    -0.744 OA
ENDBRANCH  62  63
ENDBRANCH  43  57
BRANCH  44  67
ATOM     67  C   UNL A   1      36.342  33.329  30.877  1.00  0.00    -0.014 A 
ATOM     68  C   UNL A   1      35.117  33.519  31.541  1.00  0.00     0.010 A 
ATOM     69  C   UNL A   1      36.527  33.898  29.604  1.00  0.00     0.010 A 
ATOM     70  C   UNL A   1      34.096  34.265  30.945  1.00  0.00     0.020 A 
ATOM     71  C   UNL A   1      35.516  34.666  29.015  1.00  0.00     0.020 A 
ATOM     72  C   UNL A   1      34.306  34.841  29.689  1.00  0.00     0.054 A 
BRANCH  72  73
ATOM     73  S   UNL A   1      32.997  35.876  28.976  1.00  0.00     0.124 S 
ATOM     74  O   UNL A   1      32.329  34.945  28.074  1.00  0.00    -0.237 OA
ATOM     75  O   UNL A   1      32.233  36.274  30.157  1.00  0.00    -0.237 OA
ATOM     76  O   UNL A   1      33.733  36.960  28.328  1.00  0.00    -0.744 OA
ENDBRANCH  72  73
ENDBRANCH  44  67
BRANCH  56  77
ATOM     77  C   UNL A   1      39.519  33.908  37.061  1.00  0.00    -0.014 A 
ATOM     78  C   UNL A   1      38.965  33.473  38.278  1.00  0.00     0.010 A 
ATOM     79  C   UNL A   1      39.957  35.239  36.943  1.00  0.00     0.010 A 
ATOM     80  C   UNL A   1      38.828  34.363  39.348  1.00  0.00     0.020 A 
ATOM     81  C   UNL A   1      39.847  36.123  38.019  1.00  0.00     0.020 A 
ATOM     82  C   UNL A   1      39.270  35.683  39.211  1.00  0.00     0.054 A 
BRANCH  82  83
ATOM     83  S   UNL A   1      39.125  36.805  40.630  1.00  0.00     0.124 S 
ATOM     84  O   UNL A   1      40.488  36.810  41.154  1.00  0.00    -0.237 OA
ATOM     85  O   UNL A   1      38.687  38.053  40.008  1.00  0.00    -0.237 OA
ATOM     86  O   UNL A   1      38.131  36.158  41.482  1.00  0.00    -0.744 OA
ENDBRANCH  82  83
ENDBRANCH  56  77
ENDBRANCH  30  31
ENDBRANCH  22  25
ENDBRANCH  20  21
ENDBRANCH   1  20
TORSDOF 16
ENDMDL
MODEL 3
REMARK VINA RESULT:     -10.1      1.392      2.328
REMARK SMILES COc1cc(Br)c(N)c(C(=O)NCCCCNC(=O)c2ccc(-c3c4nc(c(-c5ccc(S(=O)(=O)[O-])cc5)c5ccc([nH]5)c(-c5ccc(S(=O)(=O)[O-])cc5)c5nc(c(-c6ccc(S(=O)(=O)[O-])cc6)c6ccc3[nH]6)C=C5)C=C4)cc2)c1
REMARK SMILES IDX 15 1 14 2 13 3 12 4 10 5 11 6 9 8 3 9 4 10 80 11 5 12 6 13
REMARK SMILES IDX 7 14 2 15 1 16 8 17 16 20 17 21 18 22 19 24 20 25 21 26
REMARK SMILES IDX 79 27 22 28 78 29 23 30 24 31 25 32 72 33 26 34 77 35 71 36
REMARK SMILES IDX 73 37 27 38 76 39 70 40 69 41 28 43 58 44 39 45 57 46 40 47
REMARK SMILES IDX 43 48 56 49 74 50 41 51 42 52 55 54 75 55 44 56 29 57 30 58
REMARK SMILES IDX 38 59 31 60 37 61 32 62 33 63 34 64 35 65 36 66 59 67 60 68
REMARK SMILES IDX 68 69 61 70 67 71 62 72 63 73 64 74 65 75 66 76 45 77 46 78
REMARK SMILES IDX 54 79 47 80 53 81 48 82 49 83 50 84 51 85 52 86
REMARK H PARENT 12 7 8 18 8 19 17 23 73 42 43 53
REMARK Flexibility Score: inf
ROOT
ATOM      1  C   UNL A   1      32.122  27.842  27.649  1.00  0.00     0.023 C 
ENDROOT
BRANCH   1   2
ATOM      2  C   UNL A   1      31.469  26.824  26.712  1.00  0.00     0.023 C 
BRANCH   2   3
ATOM      3  C   UNL A   1      32.315  25.619  26.313  1.00  0.00     0.116 C 
BRANCH   3   4
ATOM      4  N   UNL A   1      31.653  24.669  25.436  1.00  0.00    -0.352 N 
ATOM      5  C   UNL A   1      30.951  24.884  24.270  1.00  0.00     0.253 C 
ATOM      6  O   UNL A   1      30.492  23.910  23.673  1.00  0.00    -0.269 OA
ATOM      7  H   UNL A   1      31.715  23.728  25.718  1.00  0.00     0.163 HD
BRANCH   5   8
ATOM      8  C   UNL A   1      30.652  26.247  23.745  1.00  0.00     0.067 A 
ATOM      9  C   UNL A   1      31.630  28.236  22.720  1.00  0.00     0.120 A 
ATOM     10  C   UNL A   1      30.352  28.763  22.571  1.00  0.00     0.064 A 
ATOM     11  C   UNL A   1      31.775  26.965  23.271  1.00  0.00     0.062 A 
ATOM     12  C   UNL A   1      29.244  28.075  23.069  1.00  0.00     0.045 A 
ATOM     13  Br  UNL A   1      27.531  28.875  22.823  1.00  0.00    -0.048 Br
ATOM     14  C   UNL A   1      29.381  26.853  23.756  1.00  0.00     0.059 A 
BRANCH   9  15
ATOM     15  O   UNL A   1      32.633  29.055  22.283  1.00  0.00    -0.497 OA
ATOM     16  C   UNL A   1      33.799  29.152  23.091  1.00  0.00     0.278 C 
ENDBRANCH   9  15
BRANCH  14  17
ATOM     17  N   UNL A   1      28.268  26.270  24.362  1.00  0.00    -0.397 N 
ATOM     18  H   UNL A   1      27.512  25.962  23.811  1.00  0.00     0.156 HD
ATOM     19  H   UNL A   1      28.239  26.166  25.341  1.00  0.00     0.156 HD
ENDBRANCH  14  17
ENDBRANCH   5   8
ENDBRANCH   3   4
ENDBRANCH   2   3
ENDBRANCH   1   2
BRANCH   1  20
ATOM     20  C   UNL A   1      33.312  28.624  27.097  1.00  0.00     0.116 C 
BRANCH  20  21
ATOM     21  N   UNL A   1      33.351  30.015  27.519  1.00  0.00    -0.352 N 
ATOM     22  C   UNL A   1      34.358  30.742  28.114  1.00  0.00     0.251 C 
ATOM     23  H   UNL A   1      32.523  30.521  27.354  1.00  0.00     0.163 HD
ATOM     24  O   UNL A   1      34.141  31.900  28.463  1.00  0.00    -0.269 OA
BRANCH  22  25
ATOM     25  C   UNL A   1      35.682  30.131  28.377  1.00  0.00     0.039 A 
ATOM     26  C   UNL A   1      36.652  30.169  27.371  1.00  0.00     0.014 A 
ATOM     27  C   UNL A   1      35.978  29.534  29.603  1.00  0.00     0.014 A 
ATOM     28  C   UNL A   1      37.945  29.704  27.631  1.00  0.00     0.010 A 
ATOM     29  C   UNL A   1      37.287  29.152  29.890  1.00  0.00     0.010 A 
ATOM     30  C   UNL A   1      38.289  29.240  28.912  1.00  0.00    -0.014 A 
BRANCH  30  31
ATOM     31  C   UNL A   1      39.689  28.871  29.258  1.00  0.00     0.031 A 
ATOM     32  C   UNL A   1      40.584  29.851  29.968  1.00  0.00     0.074 A 
ATOM     33  C   UNL A   1      40.184  27.682  28.858  1.00  0.00     0.049 A 
ATOM     34  N   UNL A   1      41.847  29.731  30.292  1.00  0.00    -0.248 NA
ATOM     35  C   UNL A   1      39.991  31.145  30.337  1.00  0.00     0.031 C 
ATOM     36  C   UNL A   1      39.438  26.655  28.126  1.00  0.00     0.029 A 
ATOM     37  N   UNL A   1      41.436  27.137  29.006  1.00  0.00    -0.354 N 
ATOM     38  C   UNL A   1      42.206  30.941  30.875  1.00  0.00     0.074 A 
ATOM     39  C   UNL A   1      41.040  31.796  30.815  1.00  0.00     0.031 C 
ATOM     40  C   UNL A   1      40.232  25.590  27.929  1.00  0.00     0.029 A 
ATOM     41  C   UNL A   1      41.555  25.874  28.475  1.00  0.00     0.049 A 
ATOM     42  H   UNL A   1      42.178  27.607  29.451  1.00  0.00     0.167 HD
ATOM     43  C   UNL A   1      43.390  31.304  31.424  1.00  0.00     0.031 A 
ATOM     44  C   UNL A   1      42.609  25.035  28.431  1.00  0.00     0.031 A 
ATOM     45  C   UNL A   1      44.546  30.450  31.493  1.00  0.00     0.049 A 
ATOM     46  C   UNL A   1      43.917  25.461  29.036  1.00  0.00     0.074 A 
ATOM     47  C   UNL A   1      45.768  30.701  32.092  1.00  0.00     0.029 A 
ATOM     48  N   UNL A   1      44.626  29.181  30.937  1.00  0.00    -0.354 N 
ATOM     49  N   UNL A   1      44.215  26.584  29.644  1.00  0.00    -0.248 NA
ATOM     50  C   UNL A   1      45.028  24.504  28.953  1.00  0.00     0.031 C 
ATOM     51  C   UNL A   1      46.606  29.605  31.852  1.00  0.00     0.029 A 
ATOM     52  C   UNL A   1      45.886  28.648  31.153  1.00  0.00     0.049 A 
ATOM     53  H   UNL A   1      43.895  28.727  30.460  1.00  0.00     0.167 HD
ATOM     54  C   UNL A   1      45.541  26.457  30.043  1.00  0.00     0.074 A 
ATOM     55  C   UNL A   1      45.984  25.146  29.613  1.00  0.00     0.031 C 
ATOM     56  C   UNL A   1      46.319  27.345  30.712  1.00  0.00     0.031 A 
BRANCH  43  57
ATOM     57  C   UNL A   1      43.490  32.704  31.974  1.00  0.00    -0.014 A 
ATOM     58  C   UNL A   1      43.352  32.961  33.351  1.00  0.00     0.010 A 
ATOM     59  C   UNL A   1      43.714  33.783  31.099  1.00  0.00     0.010 A 
ATOM     60  C   UNL A   1      43.361  34.273  33.832  1.00  0.00     0.020 A 
ATOM     61  C   UNL A   1      43.756  35.095  31.581  1.00  0.00     0.020 A 
ATOM     62  C   UNL A   1      43.549  35.333  32.940  1.00  0.00     0.054 A 
BRANCH  62  63
ATOM     63  S   UNL A   1      43.525  37.029  33.585  1.00  0.00     0.124 S 
ATOM     64  O   UNL A   1      44.635  37.002  34.535  1.00  0.00    -0.237 OA
ATOM     65  O   UNL A   1      43.745  37.833  32.387  1.00  0.00    -0.237 OA
ATOM     66  O   UNL A   1      42.198  37.153  34.181  1.00  0.00    -0.744 OA
ENDBRANCH  62  63
ENDBRANCH  43  57
BRANCH  44  67
ATOM     67  C   UNL A   1      42.448  23.682  27.831  1.00  0.00    -0.014 A 
ATOM     68  C   UNL A   1      42.832  23.456  26.498  1.00  0.00     0.010 A 
ATOM     69  C   UNL A   1      41.954  22.608  28.594  1.00  0.00     0.010 A 
ATOM     70  C   UNL A   1      42.728  22.180  25.937  1.00  0.00     0.020 A 
ATOM     71  C   UNL A   1      41.872  21.325  28.044  1.00  0.00     0.020 A 
ATOM     72  C   UNL A   1      42.257  21.120  26.717  1.00  0.00     0.054 A 
BRANCH  72  73
ATOM     73  S   UNL A   1      42.212  19.457  25.992  1.00  0.00     0.124 S 
ATOM     74  O   UNL A   1      40.794  19.293  25.692  1.00  0.00    -0.237 OA
ATOM     75  O   UNL A   1      43.093  19.595  24.834  1.00  0.00    -0.237 OA
ATOM     76  O   UNL A   1      42.731  18.605  27.060  1.00  0.00    -0.744 OA
ENDBRANCH  72  73
ENDBRANCH  44  67
BRANCH  56  77
ATOM     77  C   UNL A   1      47.724  26.919  31.050  1.00  0.00    -0.014 A 
ATOM     78  C   UNL A   1      48.006  26.199  32.223  1.00  0.00     0.010 A 
ATOM     79  C   UNL A   1      48.767  27.199  30.149  1.00  0.00     0.010 A 
ATOM     80  C   UNL A   1      49.314  25.792  32.504  1.00  0.00     0.020 A 
ATOM     81  C   UNL A   1      50.070  26.769  30.412  1.00  0.00     0.020 A 
ATOM     82  C   UNL A   1      50.338  26.080  31.595  1.00  0.00     0.054 A 
BRANCH  82  83
ATOM     83  S   UNL A   1      52.018  25.498  31.958  1.00  0.00     0.124 S 
ATOM     84  O   UNL A   1      52.745  25.902  30.757  1.00  0.00    -0.237 OA
ATOM     85  O   UNL A   1      52.357  26.233  33.174  1.00  0.00    -0.237 OA
ATOM     86  O   UNL A   1      51.854  24.057  32.134  1.00  0.00    -0.744 OA
ENDBRANCH  82  83
ENDBRANCH  56  77
ENDBRANCH  30  31
ENDBRANCH  22  25
ENDBRANCH  20  21
ENDBRANCH   1  20
TORSDOF 16
ENDMDL
