MODEL 1
REMARK VINA RESULT:     -11.3      0.000      0.000
REMARK SMILES O=C(NCCCCNC(=O)c1ccnc(S[C@@H]2CCO[C@]3(CCOC3)C2)c1)c1ccc(-c2c3nc(c(-c4ccc(S(=O)(=O)[O-])cc4)c4ccc([nH]4)c(-c4ccc(S(=O)(=O)[O-])cc4)c4nc(c(-c5ccc(S(=O)(=O)[O-])cc5)c5ccc2[nH]5)C=C4)C=C3)cc1
REMARK SMILES IDX 5 1 4 2 3 3 1 4 2 5 28 7 29 8 87 9 30 10 86 11 31 12 32 13
REMARK SMILES IDX 33 14 80 15 34 16 85 17 79 18 81 19 35 20 84 21 78 22 77 23
REMARK SMILES IDX 36 25 66 26 47 27 65 28 48 29 51 30 64 31 82 32 49 33 50 34
REMARK SMILES IDX 63 36 83 37 52 38 37 39 38 40 46 41 39 42 45 43 40 44 41 45
REMARK SMILES IDX 42 46 43 47 44 48 67 49 68 50 76 51 69 52 75 53 70 54 71 55
REMARK SMILES IDX 72 56 73 57 74 58 53 59 54 60 62 61 55 62 61 63 56 64 57 65
REMARK SMILES IDX 58 66 59 67 60 68 6 69 7 70 8 71 9 72 10 74 11 75 12 76
REMARK SMILES IDX 27 77 13 78 15 79 14 80 16 81 17 82 18 83 26 84 19 85 21 86
REMARK SMILES IDX 20 87 22 88 25 89 23 90 24 91
REMARK H PARENT 3 6 81 24 51 35 8 73
REMARK Flexibility Score: inf
ROOT
ATOM      1  C   UNL A   1      33.057  28.123  25.850  1.00  0.00     0.023 C 
ENDROOT
BRANCH   1   2
ATOM      2  C   UNL A   1      33.321  28.419  27.322  1.00  0.00     0.116 C 
BRANCH   2   3
ATOM      3  N   UNL A   1      33.261  29.832  27.655  1.00  0.00    -0.352 N 
ATOM      4  O   UNL A   1      33.976  31.830  28.402  1.00  0.00    -0.269 OA
ATOM      5  C   UNL A   1      34.248  30.667  28.122  1.00  0.00     0.251 C 
ATOM      6  H   UNL A   1      32.382  30.254  27.529  1.00  0.00     0.163 HD
BRANCH   5   7
ATOM      7  C   UNL A   1      35.618  30.151  28.331  1.00  0.00     0.039 A 
ATOM      8  C   UNL A   1      36.022  29.651  29.569  1.00  0.00     0.014 A 
ATOM      9  C   UNL A   1      36.519  30.195  27.263  1.00  0.00     0.014 A 
ATOM     10  C   UNL A   1      37.364  29.347  29.783  1.00  0.00     0.010 A 
ATOM     11  C   UNL A   1      37.849  29.815  27.459  1.00  0.00     0.010 A 
ATOM     12  C   UNL A   1      38.294  29.434  28.734  1.00  0.00    -0.014 A 
BRANCH  12  13
ATOM     13  C   UNL A   1      39.720  29.110  28.994  1.00  0.00     0.031 A 
ATOM     14  C   UNL A   1      40.617  30.084  29.712  1.00  0.00     0.074 A 
ATOM     15  C   UNL A   1      40.195  27.906  28.619  1.00  0.00     0.049 A 
ATOM     16  N   UNL A   1      41.866  29.934  30.077  1.00  0.00    -0.248 NA
ATOM     17  C   UNL A   1      40.047  31.395  30.059  1.00  0.00     0.031 C 
ATOM     18  C   UNL A   1      39.426  26.882  27.906  1.00  0.00     0.029 A 
ATOM     19  N   UNL A   1      41.422  27.327  28.810  1.00  0.00    -0.354 N 
ATOM     20  C   UNL A   1      42.239  31.137  30.667  1.00  0.00     0.074 A 
ATOM     21  C   UNL A   1      41.089  32.013  30.598  1.00  0.00     0.031 C 
ATOM     22  C   UNL A   1      40.178  25.779  27.777  1.00  0.00     0.029 A 
ATOM     23  C   UNL A   1      41.495  26.034  28.351  1.00  0.00     0.049 A 
ATOM     24  H   UNL A   1      42.178  27.792  29.235  1.00  0.00     0.167 HD
ATOM     25  C   UNL A   1      43.429  31.480  31.217  1.00  0.00     0.031 A 
ATOM     26  C   UNL A   1      42.506  25.146  28.389  1.00  0.00     0.031 A 
ATOM     27  C   UNL A   1      44.566  30.602  31.303  1.00  0.00     0.049 A 
ATOM     28  C   UNL A   1      43.806  25.543  29.024  1.00  0.00     0.074 A 
ATOM     29  C   UNL A   1      45.803  30.847  31.875  1.00  0.00     0.029 A 
ATOM     30  N   UNL A   1      44.606  29.307  30.806  1.00  0.00    -0.354 N 
ATOM     31  N   UNL A   1      44.127  26.678  29.598  1.00  0.00    -0.248 NA
ATOM     32  C   UNL A   1      44.878  24.539  29.017  1.00  0.00     0.031 C 
ATOM     33  C   UNL A   1      46.603  29.712  31.693  1.00  0.00     0.029 A 
ATOM     34  C   UNL A   1      45.849  28.746  31.045  1.00  0.00     0.049 A 
ATOM     35  H   UNL A   1      43.860  28.855  30.352  1.00  0.00     0.167 HD
ATOM     36  C   UNL A   1      45.437  26.520  30.033  1.00  0.00     0.074 A 
ATOM     37  C   UNL A   1      45.840  25.176  29.671  1.00  0.00     0.031 C 
ATOM     38  C   UNL A   1      46.236  27.410  30.672  1.00  0.00     0.031 A 
BRANCH  25  39
ATOM     39  C   UNL A   1      43.570  32.881  31.751  1.00  0.00    -0.014 A 
ATOM     40  C   UNL A   1      43.333  33.174  33.104  1.00  0.00     0.010 A 
ATOM     41  C   UNL A   1      43.979  33.914  30.888  1.00  0.00     0.010 A 
ATOM     42  C   UNL A   1      43.464  34.483  33.578  1.00  0.00     0.020 A 
ATOM     43  C   UNL A   1      44.131  35.220  31.361  1.00  0.00     0.020 A 
ATOM     44  C   UNL A   1      43.853  35.501  32.700  1.00  0.00     0.054 A 
BRANCH  44  45
ATOM     45  S   UNL A   1      44.025  37.191  33.338  1.00  0.00     0.124 S 
ATOM     46  O   UNL A   1      42.752  37.381  34.027  1.00  0.00    -0.237 OA
ATOM     47  O   UNL A   1      45.198  37.094  34.203  1.00  0.00    -0.237 OA
ATOM     48  O   UNL A   1      44.208  37.997  32.134  1.00  0.00    -0.744 OA
ENDBRANCH  44  45
ENDBRANCH  25  39
BRANCH  26  49
ATOM     49  C   UNL A   1      42.310  23.787  27.821  1.00  0.00    -0.014 A 
ATOM     50  C   UNL A   1      42.550  23.545  26.457  1.00  0.00     0.010 A 
ATOM     51  C   UNL A   1      41.922  22.720  28.650  1.00  0.00     0.010 A 
ATOM     52  C   UNL A   1      42.401  22.259  25.932  1.00  0.00     0.020 A 
ATOM     53  C   UNL A   1      41.795  21.429  28.134  1.00  0.00     0.020 A 
ATOM     54  C   UNL A   1      42.027  21.208  26.775  1.00  0.00     0.054 A 
BRANCH  54  55
ATOM     55  S   UNL A   1      41.911  19.531  26.092  1.00  0.00     0.124 S 
ATOM     56  O   UNL A   1      40.487  19.425  25.790  1.00  0.00    -0.237 OA
ATOM     57  O   UNL A   1      42.801  19.593  24.936  1.00  0.00    -0.237 OA
ATOM     58  O   UNL A   1      42.386  18.688  27.188  1.00  0.00    -0.744 OA
ENDBRANCH  54  55
ENDBRANCH  26  49
BRANCH  38  59
ATOM     59  C   UNL A   1      47.617  26.945  31.037  1.00  0.00    -0.014 A 
ATOM     60  C   UNL A   1      47.841  26.188  32.201  1.00  0.00     0.010 A 
ATOM     61  C   UNL A   1      48.700  27.253  30.195  1.00  0.00     0.010 A 
ATOM     62  C   UNL A   1      49.134  25.779  32.536  1.00  0.00     0.020 A 
ATOM     63  C   UNL A   1      49.991  26.828  30.517  1.00  0.00     0.020 A 
ATOM     64  C   UNL A   1      50.202  26.108  31.696  1.00  0.00     0.054 A 
BRANCH  64  65
ATOM     65  S   UNL A   1      51.871  25.550  32.135  1.00  0.00     0.124 S 
ATOM     66  O   UNL A   1      52.269  26.542  33.130  1.00  0.00    -0.237 OA
ATOM     67  O   UNL A   1      51.639  24.202  32.649  1.00  0.00    -0.237 OA
ATOM     68  O   UNL A   1      52.598  25.609  30.869  1.00  0.00    -0.744 OA
ENDBRANCH  64  65
ENDBRANCH  38  59
ENDBRANCH  12  13
ENDBRANCH   5   7
ENDBRANCH   2   3
ENDBRANCH   1   2
BRANCH   1  69
ATOM     69  C   UNL A   1      31.638  28.394  25.339  1.00  0.00     0.023 C 
BRANCH  69  70
ATOM     70  C   UNL A   1      31.374  28.026  23.882  1.00  0.00     0.116 C 
BRANCH  70  71
ATOM     71  N   UNL A   1      32.461  28.424  23.019  1.00  0.00    -0.352 N 
ATOM     72  C   UNL A   1      33.362  27.660  22.345  1.00  0.00     0.251 C 
ATOM     73  H   UNL A   1      32.566  29.396  22.901  1.00  0.00     0.163 HD
ATOM     74  O   UNL A   1      34.181  28.192  21.605  1.00  0.00    -0.269 OA
BRANCH  72  75
ATOM     75  C   UNL A   1      33.328  26.194  22.452  1.00  0.00     0.044 A 
ATOM     76  C   UNL A   1      32.798  25.465  21.397  1.00  0.00     0.034 A 
ATOM     77  C   UNL A   1      34.034  25.569  23.479  1.00  0.00     0.049 A 
ATOM     78  C   UNL A   1      33.031  24.108  21.407  1.00  0.00     0.113 A 
ATOM     79  C   UNL A   1      34.316  24.224  23.347  1.00  0.00     0.097 A 
ATOM     80  N   UNL A   1      33.787  23.486  22.339  1.00  0.00    -0.250 NA
BRANCH  79  81
ATOM     81  S   UNL A   1      35.355  23.296  24.450  1.00  0.00    -0.103 SA
BRANCH  81  82
ATOM     82  C   UNL A   1      34.261  22.236  25.517  1.00  0.00     0.058 C 
ATOM     83  C   UNL A   1      33.851  20.920  24.851  1.00  0.00     0.043 C 
ATOM     84  C   UNL A   1      33.116  22.899  26.300  1.00  0.00     0.053 C 
ATOM     85  C   UNL A   1      32.343  20.792  24.685  1.00  0.00     0.162 C 
ATOM     86  C   UNL A   1      31.773  22.949  25.544  1.00  0.00     0.095 C 
ATOM     87  O   UNL A   1      31.771  22.066  24.424  1.00  0.00    -0.372 OA
ATOM     88  C   UNL A   1      31.449  24.381  25.122  1.00  0.00     0.066 C 
ATOM     89  C   UNL A   1      30.558  22.656  26.429  1.00  0.00     0.195 C 
ATOM     90  C   UNL A   1      30.551  24.933  26.217  1.00  0.00     0.163 C 
ATOM     91  O   UNL A   1      30.278  23.867  27.133  1.00  0.00    -0.378 OA
ENDBRANCH  81  82
ENDBRANCH  79  81
ENDBRANCH  72  75
ENDBRANCH  70  71
ENDBRANCH  69  70
ENDBRANCH   1  69
TORSDOF 16
ENDMDL
MODEL 2
REMARK VINA RESULT:     -11.3      1.230      2.086
REMARK SMILES O=C(NCCCCNC(=O)c1ccnc(S[C@@H]2CCO[C@]3(CCOC3)C2)c1)c1ccc(-c2c3nc(c(-c4ccc(S(=O)(=O)[O-])cc4)c4ccc([nH]4)c(-c4ccc(S(=O)(=O)[O-])cc4)c4nc(c(-c5ccc(S(=O)(=O)[O-])cc5)c5ccc2[nH]5)C=C4)C=C3)cc1
REMARK SMILES IDX 5 1 4 2 3 3 1 4 2 5 28 7 29 8 87 9 30 10 86 11 31 12 32 13
REMARK SMILES IDX 33 14 80 15 34 16 85 17 79 18 81 19 35 20 84 21 78 22 77 23
REMARK SMILES IDX 36 25 66 26 47 27 65 28 48 29 51 30 64 31 82 32 49 33 50 34
REMARK SMILES IDX 63 36 83 37 52 38 37 39 38 40 46 41 39 42 45 43 40 44 41 45
REMARK SMILES IDX 42 46 43 47 44 48 67 49 68 50 76 51 69 52 75 53 70 54 71 55
REMARK SMILES IDX 72 56 73 57 74 58 53 59 54 60 62 61 55 62 61 63 56 64 57 65
REMARK SMILES IDX 58 66 59 67 60 68 6 69 7 70 8 71 9 72 10 74 11 75 12 76
REMARK SMILES IDX 27 77 13 78 15 79 14 80 16 81 17 82 18 83 26 84 19 85 21 86
REMARK SMILES IDX 20 87 22 88 25 89 23 90 24 91
REMARK H PARENT 3 6 81 24 51 35 8 73
REMARK Flexibility Score: inf
ROOT
ATOM      1  C   UNL A   1      33.822  28.272  25.771  1.00  0.00     0.023 C 
ENDROOT
BRANCH   1   2
ATOM      2  C   UNL A   1      33.507  28.521  27.242  1.00  0.00     0.116 C 
BRANCH   2   3
ATOM      3  N   UNL A   1      33.492  29.928  27.607  1.00  0.00    -0.352 N 
ATOM      4  O   UNL A   1      34.263  31.878  28.419  1.00  0.00    -0.269 OA
ATOM      5  C   UNL A   1      34.497  30.713  28.118  1.00  0.00     0.251 C 
ATOM      6  H   UNL A   1      32.633  30.386  27.468  1.00  0.00     0.163 HD
BRANCH   5   7
ATOM      7  C   UNL A   1      35.841  30.140  28.349  1.00  0.00     0.039 A 
ATOM      8  C   UNL A   1      36.165  29.517  29.555  1.00  0.00     0.014 A 
ATOM      9  C   UNL A   1      36.800  30.256  27.338  1.00  0.00     0.014 A 
ATOM     10  C   UNL A   1      37.485  29.155  29.809  1.00  0.00     0.010 A 
ATOM     11  C   UNL A   1      38.107  29.821  27.567  1.00  0.00     0.010 A 
ATOM     12  C   UNL A   1      38.472  29.311  28.822  1.00  0.00    -0.014 A 
BRANCH  12  13
ATOM     13  C   UNL A   1      39.874  28.923  29.124  1.00  0.00     0.031 A 
ATOM     14  C   UNL A   1      40.778  29.836  29.911  1.00  0.00     0.074 A 
ATOM     15  C   UNL A   1      40.318  27.715  28.725  1.00  0.00     0.049 A 
ATOM     16  N   UNL A   1      42.005  29.625  30.317  1.00  0.00    -0.248 NA
ATOM     17  C   UNL A   1      40.244  31.156  30.283  1.00  0.00     0.031 C 
ATOM     18  C   UNL A   1      39.539  26.747  27.948  1.00  0.00     0.029 A 
ATOM     19  N   UNL A   1      41.514  27.082  28.942  1.00  0.00    -0.354 N 
ATOM     20  C   UNL A   1      42.400  30.791  30.964  1.00  0.00     0.074 A 
ATOM     21  C   UNL A   1      41.287  31.713  30.883  1.00  0.00     0.031 C 
ATOM     22  C   UNL A   1      40.254  25.621  27.808  1.00  0.00     0.029 A 
ATOM     23  C   UNL A   1      41.556  25.803  28.441  1.00  0.00     0.049 A 
ATOM     24  H   UNL A   1      42.270  27.503  29.412  1.00  0.00     0.167 HD
ATOM     25  C   UNL A   1      43.579  31.069  31.571  1.00  0.00     0.031 A 
ATOM     26  C   UNL A   1      42.530  24.876  28.486  1.00  0.00     0.031 A 
ATOM     27  C   UNL A   1      44.678  30.145  31.669  1.00  0.00     0.049 A 
ATOM     28  C   UNL A   1      43.818  25.201  29.183  1.00  0.00     0.074 A 
ATOM     29  C   UNL A   1      45.900  30.321  32.296  1.00  0.00     0.029 A 
ATOM     30  N   UNL A   1      44.689  28.867  31.128  1.00  0.00    -0.354 N 
ATOM     31  N   UNL A   1      44.159  26.301  29.809  1.00  0.00    -0.248 NA
ATOM     32  C   UNL A   1      44.851  24.156  29.182  1.00  0.00     0.031 C 
ATOM     33  C   UNL A   1      46.663  29.163  32.104  1.00  0.00     0.029 A 
ATOM     34  C   UNL A   1      45.900  28.250  31.394  1.00  0.00     0.049 A 
ATOM     35  H   UNL A   1      43.944  28.460  30.630  1.00  0.00     0.167 HD
ATOM     36  C   UNL A   1      45.444  26.078  30.288  1.00  0.00     0.074 A 
ATOM     37  C   UNL A   1      45.811  24.732  29.894  1.00  0.00     0.031 C 
ATOM     38  C   UNL A   1      46.250  26.914  30.988  1.00  0.00     0.031 A 
BRANCH  25  39
ATOM     39  C   UNL A   1      43.752  32.444  32.159  1.00  0.00    -0.014 A 
ATOM     40  C   UNL A   1      44.274  33.503  31.398  1.00  0.00     0.010 A 
ATOM     41  C   UNL A   1      43.351  32.687  33.486  1.00  0.00     0.010 A 
ATOM     42  C   UNL A   1      44.431  34.772  31.965  1.00  0.00     0.020 A 
ATOM     43  C   UNL A   1      43.487  33.958  34.050  1.00  0.00     0.020 A 
ATOM     44  C   UNL A   1      44.045  34.989  33.292  1.00  0.00     0.054 A 
BRANCH  44  45
ATOM     45  S   UNL A   1      44.250  36.645  34.005  1.00  0.00     0.124 S 
ATOM     46  O   UNL A   1      44.853  36.340  35.300  1.00  0.00    -0.237 OA
ATOM     47  O   UNL A   1      45.130  37.305  33.044  1.00  0.00    -0.237 OA
ATOM     48  O   UNL A   1      42.888  37.169  34.060  1.00  0.00    -0.744 OA
ENDBRANCH  44  45
ENDBRANCH  25  39
BRANCH  26  49
ATOM     49  C   UNL A   1      42.306  23.546  27.862  1.00  0.00    -0.014 A 
ATOM     50  C   UNL A   1      42.860  23.248  26.605  1.00  0.00     0.010 A 
ATOM     51  C   UNL A   1      41.572  22.558  28.542  1.00  0.00     0.010 A 
ATOM     52  C   UNL A   1      42.679  21.984  26.037  1.00  0.00     0.020 A 
ATOM     53  C   UNL A   1      41.409  21.287  27.987  1.00  0.00     0.020 A 
ATOM     54  C   UNL A   1      41.956  21.011  26.734  1.00  0.00     0.054 A 
BRANCH  54  55
ATOM     55  S   UNL A   1      41.795  19.352  26.015  1.00  0.00     0.124 S 
ATOM     56  O   UNL A   1      42.304  18.506  27.090  1.00  0.00    -0.237 OA
ATOM     57  O   UNL A   1      40.360  19.253  25.756  1.00  0.00    -0.237 OA
ATOM     58  O   UNL A   1      42.631  19.420  24.818  1.00  0.00    -0.744 OA
ENDBRANCH  54  55
ENDBRANCH  26  49
BRANCH  38  59
ATOM     59  C   UNL A   1      47.597  26.383  31.389  1.00  0.00    -0.014 A 
ATOM     60  C   UNL A   1      48.689  26.435  30.505  1.00  0.00     0.010 A 
ATOM     61  C   UNL A   1      47.777  25.842  32.675  1.00  0.00     0.010 A 
ATOM     62  C   UNL A   1      49.930  25.920  30.887  1.00  0.00     0.020 A 
ATOM     63  C   UNL A   1      49.021  25.345  33.068  1.00  0.00     0.020 A 
ATOM     64  C   UNL A   1      50.086  25.371  32.163  1.00  0.00     0.054 A 
BRANCH  64  65
ATOM     65  S   UNL A   1      51.710  24.727  32.651  1.00  0.00     0.124 S 
ATOM     66  O   UNL A   1      51.610  23.325  32.253  1.00  0.00    -0.237 OA
ATOM     67  O   UNL A   1      52.633  25.540  31.862  1.00  0.00    -0.237 OA
ATOM     68  O   UNL A   1      51.756  24.966  34.091  1.00  0.00    -0.744 OA
ENDBRANCH  64  65
ENDBRANCH  38  59
ENDBRANCH  12  13
ENDBRANCH   5   7
ENDBRANCH   2   3
ENDBRANCH   1   2
BRANCH   1  69
ATOM     69  C   UNL A   1      33.165  29.215  24.758  1.00  0.00     0.023 C 
BRANCH  69  70
ATOM     70  C   UNL A   1      32.383  28.543  23.634  1.00  0.00     0.116 C 
BRANCH  70  71
ATOM     71  N   UNL A   1      33.226  27.701  22.818  1.00  0.00    -0.352 N 
ATOM     72  C   UNL A   1      33.218  26.349  22.663  1.00  0.00     0.251 C 
ATOM     73  H   UNL A   1      33.910  28.177  22.295  1.00  0.00     0.163 HD
ATOM     74  O   UNL A   1      33.985  25.822  21.866  1.00  0.00    -0.269 OA
BRANCH  72  75
ATOM     75  C   UNL A   1      32.258  25.518  23.403  1.00  0.00     0.044 A 
ATOM     76  C   UNL A   1      31.279  24.843  22.691  1.00  0.00     0.034 A 
ATOM     77  C   UNL A   1      32.497  25.236  24.748  1.00  0.00     0.049 A 
ATOM     78  C   UNL A   1      30.582  23.869  23.371  1.00  0.00     0.113 A 
ATOM     79  C   UNL A   1      31.831  24.168  25.315  1.00  0.00     0.097 A 
ATOM     80  N   UNL A   1      30.850  23.510  24.647  1.00  0.00    -0.250 NA
BRANCH  79  81
ATOM     81  S   UNL A   1      32.134  23.538  26.949  1.00  0.00    -0.103 SA
BRANCH  81  82
ATOM     82  C   UNL A   1      33.699  22.535  26.899  1.00  0.00     0.058 C 
ATOM     83  C   UNL A   1      34.876  23.275  26.256  1.00  0.00     0.043 C 
ATOM     84  C   UNL A   1      33.623  21.054  26.492  1.00  0.00     0.053 C 
ATOM     85  C   UNL A   1      35.409  22.566  25.020  1.00  0.00     0.162 C 
ATOM     86  C   UNL A   1      33.799  20.799  24.981  1.00  0.00     0.095 C 
ATOM     87  O   UNL A   1      34.344  21.938  24.319  1.00  0.00    -0.372 OA
ATOM     88  C   UNL A   1      32.475  20.371  24.353  1.00  0.00     0.066 C 
ATOM     89  C   UNL A   1      34.650  19.566  24.662  1.00  0.00     0.195 C 
ATOM     90  C   UNL A   1      32.502  18.851  24.344  1.00  0.00     0.163 C 
ATOM     91  O   UNL A   1      33.788  18.437  24.816  1.00  0.00    -0.378 OA
ENDBRANCH  81  82
ENDBRANCH  79  81
ENDBRANCH  72  75
ENDBRANCH  70  71
ENDBRANCH  69  70
ENDBRANCH   1  69
TORSDOF 16
ENDMDL
MODEL 3
REMARK VINA RESULT:     -11.0      4.437     10.152
REMARK SMILES O=C(NCCCCNC(=O)c1ccnc(S[C@@H]2CCO[C@]3(CCOC3)C2)c1)c1ccc(-c2c3nc(c(-c4ccc(S(=O)(=O)[O-])cc4)c4ccc([nH]4)c(-c4ccc(S(=O)(=O)[O-])cc4)c4nc(c(-c5ccc(S(=O)(=O)[O-])cc5)c5ccc2[nH]5)C=C4)C=C3)cc1
REMARK SMILES IDX 5 1 4 2 3 3 1 4 2 5 28 7 29 8 87 9 30 10 86 11 31 12 32 13
REMARK SMILES IDX 33 14 80 15 34 16 85 17 79 18 81 19 35 20 84 21 78 22 77 23
REMARK SMILES IDX 36 25 66 26 47 27 65 28 48 29 51 30 64 31 82 32 49 33 50 34
REMARK SMILES IDX 63 36 83 37 52 38 37 39 38 40 46 41 39 42 45 43 40 44 41 45
REMARK SMILES IDX 42 46 43 47 44 48 67 49 68 50 76 51 69 52 75 53 70 54 71 55
REMARK SMILES IDX 72 56 73 57 74 58 53 59 54 60 62 61 55 62 61 63 56 64 57 65
REMARK SMILES IDX 58 66 59 67 60 68 6 69 7 70 8 71 9 72 10 74 11 75 12 76
REMARK SMILES IDX 27 77 13 78 15 79 14 80 16 81 17 82 18 83 26 84 19 85 21 86
REMARK SMILES IDX 20 87 22 88 25 89 23 90 24 91
REMARK H PARENT 3 6 81 24 51 35 8 73
REMARK Flexibility Score: inf
ROOT
ATOM      1  C   UNL A   1      40.623  21.527  27.306  1.00  0.00     0.023 C 
ENDROOT
BRANCH   1   2
ATOM      2  C   UNL A   1      41.247  22.894  27.567  1.00  0.00     0.116 C 
BRANCH   2   3
ATOM      3  N   UNL A   1      41.224  23.778  26.413  1.00  0.00    -0.352 N 
ATOM      4  O   UNL A   1      41.045  25.704  25.266  1.00  0.00    -0.269 OA
ATOM      5  C   UNL A   1      41.102  25.145  26.356  1.00  0.00     0.251 C 
ATOM      6  H   UNL A   1      41.307  23.329  25.541  1.00  0.00     0.163 HD
BRANCH   5   7
ATOM      7  C   UNL A   1      40.992  25.931  27.604  1.00  0.00     0.039 A 
ATOM      8  C   UNL A   1      39.865  25.840  28.421  1.00  0.00     0.014 A 
ATOM      9  C   UNL A   1      42.037  26.797  27.943  1.00  0.00     0.014 A 
ATOM     10  C   UNL A   1      39.712  26.726  29.483  1.00  0.00     0.010 A 
ATOM     11  C   UNL A   1      41.915  27.631  29.056  1.00  0.00     0.010 A 
ATOM     12  C   UNL A   1      40.731  27.637  29.808  1.00  0.00    -0.014 A 
BRANCH  12  13
ATOM     13  C   UNL A   1      40.536  28.575  30.943  1.00  0.00     0.031 A 
ATOM     14  C   UNL A   1      41.439  28.533  32.147  1.00  0.00     0.074 A 
ATOM     15  C   UNL A   1      39.564  29.505  30.862  1.00  0.00     0.049 A 
ATOM     16  N   UNL A   1      41.449  29.320  33.194  1.00  0.00    -0.248 NA
ATOM     17  C   UNL A   1      42.455  27.469  32.190  1.00  0.00     0.031 C 
ATOM     18  C   UNL A   1      38.618  29.640  29.750  1.00  0.00     0.029 A 
ATOM     19  N   UNL A   1      39.229  30.529  31.709  1.00  0.00    -0.354 N 
ATOM     20  C   UNL A   1      42.446  28.831  34.031  1.00  0.00     0.074 A 
ATOM     21  C   UNL A   1      43.011  27.669  33.378  1.00  0.00     0.031 C 
ATOM     22  C   UNL A   1      37.853  30.722  29.954  1.00  0.00     0.029 A 
ATOM     23  C   UNL A   1      38.218  31.328  31.231  1.00  0.00     0.049 A 
ATOM     24  H   UNL A   1      39.669  30.677  32.577  1.00  0.00     0.167 HD
ATOM     25  C   UNL A   1      42.857  29.306  35.232  1.00  0.00     0.031 A 
ATOM     26  C   UNL A   1      37.649  32.429  31.754  1.00  0.00     0.031 A 
ATOM     27  C   UNL A   1      42.309  30.473  35.873  1.00  0.00     0.049 A 
ATOM     28  C   UNL A   1      38.137  32.948  33.075  1.00  0.00     0.074 A 
ATOM     29  C   UNL A   1      42.683  31.054  37.072  1.00  0.00     0.029 A 
ATOM     30  N   UNL A   1      41.272  31.241  35.364  1.00  0.00    -0.354 N 
ATOM     31  N   UNL A   1      39.098  32.483  33.836  1.00  0.00    -0.248 NA
ATOM     32  C   UNL A   1      37.463  34.140  33.605  1.00  0.00     0.031 C 
ATOM     33  C   UNL A   1      41.849  32.153  37.307  1.00  0.00     0.029 A 
ATOM     34  C   UNL A   1      40.983  32.281  36.232  1.00  0.00     0.049 A 
ATOM     35  H   UNL A   1      40.810  31.072  34.512  1.00  0.00     0.167 HD
ATOM     36  C   UNL A   1      39.154  33.335  34.932  1.00  0.00     0.074 A 
ATOM     37  C   UNL A   1      38.142  34.352  34.725  1.00  0.00     0.031 C 
ATOM     38  C   UNL A   1      39.968  33.279  36.014  1.00  0.00     0.031 A 
BRANCH  25  39
ATOM     39  C   UNL A   1      43.941  28.544  35.947  1.00  0.00    -0.014 A 
ATOM     40  C   UNL A   1      43.636  27.485  36.819  1.00  0.00     0.010 A 
ATOM     41  C   UNL A   1      45.289  28.874  35.716  1.00  0.00     0.010 A 
ATOM     42  C   UNL A   1      44.658  26.795  37.478  1.00  0.00     0.020 A 
ATOM     43  C   UNL A   1      46.315  28.173  36.356  1.00  0.00     0.020 A 
ATOM     44  C   UNL A   1      45.991  27.149  37.249  1.00  0.00     0.054 A 
BRANCH  44  45
ATOM     45  S   UNL A   1      47.302  26.234  38.108  1.00  0.00     0.124 S 
ATOM     46  O   UNL A   1      46.543  25.179  38.773  1.00  0.00    -0.237 OA
ATOM     47  O   UNL A   1      48.161  25.793  37.013  1.00  0.00    -0.237 OA
ATOM     48  O   UNL A   1      47.894  27.231  38.997  1.00  0.00    -0.744 OA
ENDBRANCH  44  45
ENDBRANCH  25  39
BRANCH  26  49
ATOM     49  C   UNL A   1      36.565  33.119  31.009  1.00  0.00    -0.014 A 
ATOM     50  C   UNL A   1      35.231  33.023  31.442  1.00  0.00     0.010 A 
ATOM     51  C   UNL A   1      36.867  33.909  29.886  1.00  0.00     0.010 A 
ATOM     52  C   UNL A   1      34.217  33.702  30.762  1.00  0.00     0.020 A 
ATOM     53  C   UNL A   1      35.860  34.608  29.218  1.00  0.00     0.020 A 
ATOM     54  C   UNL A   1      34.539  34.493  29.655  1.00  0.00     0.054 A 
BRANCH  54  55
ATOM     55  S   UNL A   1      33.222  35.428  28.829  1.00  0.00     0.124 S 
ATOM     56  O   UNL A   1      33.983  36.387  28.034  1.00  0.00    -0.237 OA
ATOM     57  O   UNL A   1      32.520  34.394  28.072  1.00  0.00    -0.237 OA
ATOM     58  O   UNL A   1      32.462  35.996  29.941  1.00  0.00    -0.744 OA
ENDBRANCH  54  55
ENDBRANCH  26  49
BRANCH  38  59
ATOM     59  C   UNL A   1      39.808  34.362  37.044  1.00  0.00    -0.014 A 
ATOM     60  C   UNL A   1      40.484  35.588  36.915  1.00  0.00     0.010 A 
ATOM     61  C   UNL A   1      38.955  34.156  38.142  1.00  0.00     0.010 A 
ATOM     62  C   UNL A   1      40.338  36.578  37.890  1.00  0.00     0.020 A 
ATOM     63  C   UNL A   1      38.791  35.151  39.108  1.00  0.00     0.020 A 
ATOM     64  C   UNL A   1      39.499  36.350  38.985  1.00  0.00     0.054 A 
BRANCH  64  65
ATOM     65  S   UNL A   1      39.304  37.654  40.231  1.00  0.00     0.124 S 
ATOM     66  O   UNL A   1      38.940  36.885  41.418  1.00  0.00    -0.237 OA
ATOM     67  O   UNL A   1      40.628  38.272  40.264  1.00  0.00    -0.237 OA
ATOM     68  O   UNL A   1      38.245  38.497  39.683  1.00  0.00    -0.744 OA
ENDBRANCH  64  65
ENDBRANCH  38  59
ENDBRANCH  12  13
ENDBRANCH   5   7
ENDBRANCH   2   3
ENDBRANCH   1   2
BRANCH   1  69
ATOM     69  C   UNL A   1      40.029  21.298  25.913  1.00  0.00     0.023 C 
BRANCH  69  70
ATOM     70  C   UNL A   1      38.507  21.358  25.821  1.00  0.00     0.116 C 
BRANCH  70  71
ATOM     71  N   UNL A   1      38.000  22.681  26.100  1.00  0.00    -0.352 N 
ATOM     72  C   UNL A   1      36.793  23.232  25.800  1.00  0.00     0.251 C 
ATOM     73  H   UNL A   1      38.623  23.274  26.578  1.00  0.00     0.163 HD
ATOM     74  O   UNL A   1      36.528  24.365  26.182  1.00  0.00    -0.269 OA
BRANCH  72  75
ATOM     75  C   UNL A   1      35.779  22.458  25.069  1.00  0.00     0.044 A 
ATOM     76  C   UNL A   1      35.210  21.357  25.691  1.00  0.00     0.034 A 
ATOM     77  C   UNL A   1      35.245  22.978  23.891  1.00  0.00     0.049 A 
ATOM     78  C   UNL A   1      34.083  20.829  25.102  1.00  0.00     0.113 A 
ATOM     79  C   UNL A   1      34.051  22.457  23.435  1.00  0.00     0.097 A 
ATOM     80  N   UNL A   1      33.490  21.364  24.011  1.00  0.00    -0.250 NA
BRANCH  79  81
ATOM     81  S   UNL A   1      33.121  23.104  22.066  1.00  0.00    -0.103 SA
BRANCH  81  82
ATOM     82  C   UNL A   1      32.391  24.735  22.583  1.00  0.00     0.058 C 
ATOM     83  C   UNL A   1      33.433  25.847  22.736  1.00  0.00     0.043 C 
ATOM     84  C   UNL A   1      31.321  24.755  23.687  1.00  0.00     0.053 C 
ATOM     85  C   UNL A   1      33.488  26.409  24.149  1.00  0.00     0.162 C 
ATOM     86  C   UNL A   1      31.880  24.926  25.114  1.00  0.00     0.095 C 
ATOM     87  O   UNL A   1      33.232  25.379  25.094  1.00  0.00    -0.372 OA
ATOM     88  C   UNL A   1      31.742  23.625  25.901  1.00  0.00     0.066 C 
ATOM     89  C   UNL A   1      31.041  25.855  25.996  1.00  0.00     0.195 C 
ATOM     90  C   UNL A   1      30.443  23.757  26.679  1.00  0.00     0.163 C 
ATOM     91  O   UNL A   1      29.935  25.076  26.454  1.00  0.00    -0.378 OA
ENDBRANCH  81  82
ENDBRANCH  79  81
ENDBRANCH  72  75
ENDBRANCH  70  71
ENDBRANCH  69  70
ENDBRANCH   1  69
TORSDOF 16
ENDMDL
