MODEL 1
REMARK VINA RESULT:      -8.3      0.000      0.000
REMARK SMILES O=C(CSc1nc(-c2cccc(Br)c2)c[nH]1)NCCCCNC(=O)c1ccc(-c2c3nc(c(-c4ccc(S(=O)(=O)[O-])cc4)c4ccc([nH]4)c(-c4ccc(S(=O)(=O)[O-])cc4)c4nc(c(-c5ccc(S(=O)(=O)[O-])cc5)c5ccc2[nH]5)C=C4)C=C3)cc1
REMARK SMILES IDX 19 1 18 2 17 3 1 4 2 5 3 7 4 8 5 9 6 10 16 11 7 12 15 13
REMARK SMILES IDX 8 15 9 16 14 17 10 18 12 19 11 20 13 21 20 22 21 23 22 24
REMARK SMILES IDX 23 25 24 27 25 28 26 29 84 30 27 31 83 32 28 33 29 34 30 35
REMARK SMILES IDX 77 36 31 37 82 38 76 39 78 40 32 41 81 42 75 43 74 44 33 46
REMARK SMILES IDX 63 47 44 48 62 49 45 50 48 51 61 52 79 53 46 54 47 55 60 57
REMARK SMILES IDX 80 58 49 59 34 60 35 61 43 62 36 63 42 64 37 65 38 66 39 67
REMARK SMILES IDX 40 68 41 69 64 70 65 71 73 72 66 73 72 74 67 75 68 76 69 77
REMARK SMILES IDX 70 78 71 79 50 80 51 81 59 82 52 83 58 84 53 85 54 86 55 87
REMARK SMILES IDX 56 88 57 89
REMARK H PARENT 17 6 16 14 22 26 78 45 48 56
REMARK Flexibility Score: inf
ROOT
ATOM      1  C   UNL A   1      35.392  33.746  31.259  1.00  0.00     0.023 C 
ENDROOT
BRANCH   1   2
ATOM      2  C   UNL A   1      36.750  33.075  31.061  1.00  0.00     0.116 C 
BRANCH   2   3
ATOM      3  N   UNL A   1      37.397  32.739  32.310  1.00  0.00    -0.355 N 
ATOM      4  O   UNL A   1      36.205  30.815  32.685  1.00  0.00    -0.274 OA
ATOM      5  C   UNL A   1      37.119  31.577  32.999  1.00  0.00     0.230 C 
ATOM      6  H   UNL A   1      38.061  33.364  32.683  1.00  0.00     0.163 HD
BRANCH   5   7
ATOM      7  C   UNL A   1      37.912  31.367  34.279  1.00  0.00     0.178 C 
BRANCH   7   8
ATOM      8  S   UNL A   1      39.638  31.927  34.192  1.00  0.00    -0.078 SA
BRANCH   8   9
ATOM      9  C   UNL A   1      40.455  30.435  33.937  1.00  0.00     0.166 A 
ATOM     10  N   UNL A   1      41.702  30.153  34.214  1.00  0.00    -0.223 NA
ATOM     11  N   UNL A   1      39.787  29.360  33.426  1.00  0.00    -0.339 N 
ATOM     12  C   UNL A   1      41.861  28.841  33.836  1.00  0.00     0.089 A 
ATOM     13  C   UNL A   1      40.683  28.329  33.334  1.00  0.00     0.113 A 
ATOM     14  H   UNL A   1      38.837  29.332  33.170  1.00  0.00     0.168 HD
BRANCH  12  15
ATOM     15  C   UNL A   1      43.091  28.100  34.009  1.00  0.00     0.003 A 
ATOM     16  C   UNL A   1      44.177  28.709  34.651  1.00  0.00     0.010 A 
ATOM     17  C   UNL A   1      43.214  26.786  33.544  1.00  0.00     0.026 A 
ATOM     18  C   UNL A   1      45.367  28.006  34.849  1.00  0.00     0.002 A 
ATOM     19  C   UNL A   1      44.412  26.095  33.731  1.00  0.00     0.018 A 
ATOM     20  C   UNL A   1      45.486  26.696  34.387  1.00  0.00     0.016 A 
ATOM     21  Br  UNL A   1      44.586  24.326  33.083  1.00  0.00    -0.051 Br
ENDBRANCH  12  15
ENDBRANCH   8   9
ENDBRANCH   7   8
ENDBRANCH   5   7
ENDBRANCH   2   3
ENDBRANCH   1   2
BRANCH   1  22
ATOM     22  C   UNL A   1      34.441  33.657  30.063  1.00  0.00     0.023 C 
BRANCH  22  23
ATOM     23  C   UNL A   1      35.019  33.024  28.801  1.00  0.00     0.116 C 
BRANCH  23  24
ATOM     24  N   UNL A   1      34.176  31.976  28.247  1.00  0.00    -0.352 N 
ATOM     25  C   UNL A   1      34.491  30.676  27.927  1.00  0.00     0.251 C 
ATOM     26  H   UNL A   1      33.242  32.236  28.076  1.00  0.00     0.163 HD
ATOM     27  O   UNL A   1      33.664  29.977  27.345  1.00  0.00    -0.269 OA
BRANCH  25  28
ATOM     28  C   UNL A   1      35.828  30.125  28.248  1.00  0.00     0.039 A 
ATOM     29  C   UNL A   1      36.809  30.113  27.252  1.00  0.00     0.014 A 
ATOM     30  C   UNL A   1      36.121  29.621  29.518  1.00  0.00     0.014 A 
ATOM     31  C   UNL A   1      38.099  29.667  27.550  1.00  0.00     0.010 A 
ATOM     32  C   UNL A   1      37.427  29.250  29.835  1.00  0.00     0.010 A 
ATOM     33  C   UNL A   1      38.433  29.271  28.856  1.00  0.00    -0.014 A 
BRANCH  33  34
ATOM     34  C   UNL A   1      39.827  28.894  29.218  1.00  0.00     0.031 A 
ATOM     35  C   UNL A   1      40.738  29.887  29.889  1.00  0.00     0.074 A 
ATOM     36  C   UNL A   1      40.297  27.674  28.884  1.00  0.00     0.049 A 
ATOM     37  N   UNL A   1      41.997  29.759  30.220  1.00  0.00    -0.248 NA
ATOM     38  C   UNL A   1      40.166  31.205  30.208  1.00  0.00     0.031 C 
ATOM     39  C   UNL A   1      39.531  26.630  28.197  1.00  0.00     0.029 A 
ATOM     40  N   UNL A   1      41.533  27.107  29.070  1.00  0.00    -0.354 N 
ATOM     41  C   UNL A   1      42.371  30.977  30.776  1.00  0.00     0.074 A 
ATOM     42  C   UNL A   1      41.220  31.850  30.687  1.00  0.00     0.031 C 
ATOM     43  C   UNL A   1      40.307  25.545  28.043  1.00  0.00     0.029 A 
ATOM     44  C   UNL A   1      41.636  25.827  28.574  1.00  0.00     0.049 A 
ATOM     45  H   UNL A   1      42.277  27.573  29.517  1.00  0.00     0.167 HD
ATOM     46  C   UNL A   1      43.556  31.333  31.329  1.00  0.00     0.031 A 
ATOM     47  C   UNL A   1      42.682  24.978  28.539  1.00  0.00     0.031 A 
ATOM     48  C   UNL A   1      44.700  30.464  31.417  1.00  0.00     0.049 A 
ATOM     49  C   UNL A   1      43.996  25.404  29.136  1.00  0.00     0.074 A 
ATOM     50  C   UNL A   1      45.930  30.718  32.000  1.00  0.00     0.029 A 
ATOM     51  N   UNL A   1      44.760  29.175  30.909  1.00  0.00    -0.354 N 
ATOM     52  N   UNL A   1      44.309  26.541  29.712  1.00  0.00    -0.248 NA
ATOM     53  C   UNL A   1      45.094  24.428  29.091  1.00  0.00     0.031 C 
ATOM     54  C   UNL A   1      46.752  29.607  31.791  1.00  0.00     0.029 A 
ATOM     55  C   UNL A   1      46.013  28.632  31.140  1.00  0.00     0.049 A 
ATOM     56  H   UNL A   1      44.020  28.713  30.451  1.00  0.00     0.167 HD
ATOM     57  C   UNL A   1      45.631  26.405  30.122  1.00  0.00     0.074 A 
ATOM     58  C   UNL A   1      46.052  25.072  29.743  1.00  0.00     0.031 C 
ATOM     59  C   UNL A   1      46.423  27.304  30.758  1.00  0.00     0.031 A 
BRANCH  46  60
ATOM     60  C   UNL A   1      43.677  32.732  31.878  1.00  0.00    -0.014 A 
ATOM     61  C   UNL A   1      43.510  32.991  33.251  1.00  0.00     0.010 A 
ATOM     62  C   UNL A   1      44.005  33.796  31.019  1.00  0.00     0.010 A 
ATOM     63  C   UNL A   1      43.626  34.293  33.747  1.00  0.00     0.020 A 
ATOM     64  C   UNL A   1      44.152  35.095  31.514  1.00  0.00     0.020 A 
ATOM     65  C   UNL A   1      43.944  35.338  32.873  1.00  0.00     0.054 A 
BRANCH  65  66
ATOM     66  S   UNL A   1      44.106  37.013  33.548  1.00  0.00     0.124 S 
ATOM     67  O   UNL A   1      42.735  37.307  33.957  1.00  0.00    -0.237 OA
ATOM     68  O   UNL A   1      45.059  36.827  34.640  1.00  0.00    -0.237 OA
ATOM     69  O   UNL A   1      44.601  37.797  32.419  1.00  0.00    -0.744 OA
ENDBRANCH  65  66
ENDBRANCH  46  60
BRANCH  47  70
ATOM     70  C   UNL A   1      42.528  23.634  27.915  1.00  0.00    -0.014 A 
ATOM     71  C   UNL A   1      42.779  23.444  26.545  1.00  0.00     0.010 A 
ATOM     72  C   UNL A   1      42.136  22.530  28.695  1.00  0.00     0.010 A 
ATOM     73  C   UNL A   1      42.624  22.182  25.963  1.00  0.00     0.020 A 
ATOM     74  C   UNL A   1      42.009  21.260  28.124  1.00  0.00     0.020 A 
ATOM     75  C   UNL A   1      42.243  21.097  26.758  1.00  0.00     0.054 A 
BRANCH  75  76
ATOM     76  S   UNL A   1      42.094  19.459  25.991  1.00  0.00     0.124 S 
ATOM     77  O   UNL A   1      42.613  18.586  27.039  1.00  0.00    -0.237 OA
ATOM     78  O   UNL A   1      40.660  19.361  25.736  1.00  0.00    -0.237 OA
ATOM     79  O   UNL A   1      42.927  19.566  24.795  1.00  0.00    -0.744 OA
ENDBRANCH  75  76
ENDBRANCH  47  70
BRANCH  59  80
ATOM     80  C   UNL A   1      47.820  26.868  31.120  1.00  0.00    -0.014 A 
ATOM     81  C   UNL A   1      48.076  26.119  32.282  1.00  0.00     0.010 A 
ATOM     82  C   UNL A   1      48.885  27.169  30.250  1.00  0.00     0.010 A 
ATOM     83  C   UNL A   1      49.378  25.707  32.584  1.00  0.00     0.020 A 
ATOM     84  C   UNL A   1      50.182  26.731  30.532  1.00  0.00     0.020 A 
ATOM     85  C   UNL A   1      50.422  26.014  31.706  1.00  0.00     0.054 A 
BRANCH  85  86
ATOM     86  S   UNL A   1      52.094  25.428  32.098  1.00  0.00     0.124 S 
ATOM     87  O   UNL A   1      51.883  23.991  32.253  1.00  0.00    -0.237 OA
ATOM     88  O   UNL A   1      52.856  25.826  30.917  1.00  0.00    -0.237 OA
ATOM     89  O   UNL A   1      52.434  26.144  33.324  1.00  0.00    -0.744 OA
ENDBRANCH  85  86
ENDBRANCH  59  80
ENDBRANCH  33  34
ENDBRANCH  25  28
ENDBRANCH  23  24
ENDBRANCH  22  23
ENDBRANCH   1  22
TORSDOF 17
ENDMDL
MODEL 2
REMARK VINA RESULT:      -7.9      5.039     12.043
REMARK SMILES O=C(CSc1nc(-c2cccc(Br)c2)c[nH]1)NCCCCNC(=O)c1ccc(-c2c3nc(c(-c4ccc(S(=O)(=O)[O-])cc4)c4ccc([nH]4)c(-c4ccc(S(=O)(=O)[O-])cc4)c4nc(c(-c5ccc(S(=O)(=O)[O-])cc5)c5ccc2[nH]5)C=C4)C=C3)cc1
REMARK SMILES IDX 19 1 18 2 17 3 1 4 2 5 3 7 4 8 5 9 6 10 16 11 7 12 15 13
REMARK SMILES IDX 8 15 9 16 14 17 10 18 12 19 11 20 13 21 20 22 21 23 22 24
REMARK SMILES IDX 23 25 24 27 25 28 26 29 84 30 27 31 83 32 28 33 29 34 30 35
REMARK SMILES IDX 77 36 31 37 82 38 76 39 78 40 32 41 81 42 75 43 74 44 33 46
REMARK SMILES IDX 63 47 44 48 62 49 45 50 48 51 61 52 79 53 46 54 47 55 60 57
REMARK SMILES IDX 80 58 49 59 34 60 35 61 43 62 36 63 42 64 37 65 38 66 39 67
REMARK SMILES IDX 40 68 41 69 64 70 65 71 73 72 66 73 72 74 67 75 68 76 69 77
REMARK SMILES IDX 70 78 71 79 50 80 51 81 59 82 52 83 58 84 53 85 54 86 55 87
REMARK SMILES IDX 56 88 57 89
REMARK H PARENT 17 6 16 14 22 26 78 45 48 56
REMARK Flexibility Score: inf
ROOT
ATOM      1  C   UNL A   1      43.352  23.339  28.265  1.00  0.00     0.023 C 
ENDROOT
BRANCH   1   2
ATOM      2  C   UNL A   1      42.416  22.132  28.288  1.00  0.00     0.116 C 
BRANCH   2   3
ATOM      3  N   UNL A   1      41.382  22.206  27.280  1.00  0.00    -0.355 N 
ATOM      4  O   UNL A   1      40.634  20.054  27.549  1.00  0.00    -0.274 OA
ATOM      5  C   UNL A   1      40.509  21.166  27.037  1.00  0.00     0.230 C 
ATOM      6  H   UNL A   1      41.298  23.030  26.747  1.00  0.00     0.163 HD
BRANCH   5   7
ATOM      7  C   UNL A   1      39.464  21.423  25.963  1.00  0.00     0.178 C 
BRANCH   7   8
ATOM      8  S   UNL A   1      38.566  22.991  26.151  1.00  0.00    -0.078 SA
BRANCH   8   9
ATOM      9  C   UNL A   1      36.940  22.464  25.953  1.00  0.00     0.166 A 
ATOM     10  N   UNL A   1      36.499  21.532  25.149  1.00  0.00    -0.223 NA
ATOM     11  N   UNL A   1      35.942  23.005  26.711  1.00  0.00    -0.339 N 
ATOM     12  C   UNL A   1      35.143  21.484  25.372  1.00  0.00     0.089 A 
ATOM     13  C   UNL A   1      34.773  22.399  26.336  1.00  0.00     0.113 A 
ATOM     14  H   UNL A   1      36.044  23.700  27.400  1.00  0.00     0.168 HD
BRANCH  12  15
ATOM     15  C   UNL A   1      34.255  20.550  24.718  1.00  0.00     0.003 A 
ATOM     16  C   UNL A   1      33.093  21.025  24.096  1.00  0.00     0.010 A 
ATOM     17  C   UNL A   1      34.537  19.179  24.696  1.00  0.00     0.026 A 
ATOM     18  C   UNL A   1      32.232  20.144  23.438  1.00  0.00     0.002 A 
ATOM     19  C   UNL A   1      33.663  18.303  24.051  1.00  0.00     0.018 A 
ATOM     20  C   UNL A   1      32.517  18.779  23.416  1.00  0.00     0.016 A 
ATOM     21  Br  UNL A   1      34.034  16.448  24.041  1.00  0.00    -0.051 Br
ENDBRANCH  12  15
ENDBRANCH   8   9
ENDBRANCH   7   8
ENDBRANCH   5   7
ENDBRANCH   2   3
ENDBRANCH   1   2
BRANCH   1  22
ATOM     22  C   UNL A   1      44.272  23.428  27.046  1.00  0.00     0.023 C 
BRANCH  22  23
ATOM     23  C   UNL A   1      44.312  24.782  26.342  1.00  0.00     0.116 C 
BRANCH  23  24
ATOM     24  N   UNL A   1      43.148  25.027  25.505  1.00  0.00    -0.352 N 
ATOM     25  C   UNL A   1      42.011  25.753  25.775  1.00  0.00     0.251 C 
ATOM     26  H   UNL A   1      43.178  24.612  24.613  1.00  0.00     0.163 HD
ATOM     27  O   UNL A   1      41.075  25.735  24.978  1.00  0.00    -0.269 OA
BRANCH  25  28
ATOM     28  C   UNL A   1      41.894  26.527  27.033  1.00  0.00     0.039 A 
ATOM     29  C   UNL A   1      42.625  27.711  27.165  1.00  0.00     0.014 A 
ATOM     30  C   UNL A   1      41.075  26.095  28.080  1.00  0.00     0.014 A 
ATOM     31  C   UNL A   1      42.476  28.498  28.311  1.00  0.00     0.010 A 
ATOM     32  C   UNL A   1      40.869  26.917  29.186  1.00  0.00     0.010 A 
ATOM     33  C   UNL A   1      41.563  28.130  29.315  1.00  0.00    -0.014 A 
BRANCH  33  34
ATOM     34  C   UNL A   1      41.313  29.007  30.491  1.00  0.00     0.031 A 
ATOM     35  C   UNL A   1      42.148  28.872  31.737  1.00  0.00     0.074 A 
ATOM     36  C   UNL A   1      40.291  29.887  30.463  1.00  0.00     0.049 A 
ATOM     37  N   UNL A   1      42.036  29.503  32.878  1.00  0.00    -0.248 NA
ATOM     38  C   UNL A   1      43.235  27.880  31.705  1.00  0.00     0.031 C 
ATOM     39  C   UNL A   1      39.381  30.093  29.333  1.00  0.00     0.029 A 
ATOM     40  N   UNL A   1      39.838  30.768  31.414  1.00  0.00    -0.354 N 
ATOM     41  C   UNL A   1      43.027  28.981  33.701  1.00  0.00     0.074 A 
ATOM     42  C   UNL A   1      43.695  27.943  32.947  1.00  0.00     0.031 C 
ATOM     43  C   UNL A   1      38.498  31.054  29.647  1.00  0.00     0.029 A 
ATOM     44  C   UNL A   1      38.745  31.501  31.014  1.00  0.00     0.049 A 
ATOM     45  H   UNL A   1      40.258  30.866  32.299  1.00  0.00     0.167 HD
ATOM     46  C   UNL A   1      43.366  29.345  34.961  1.00  0.00     0.031 A 
ATOM     47  C   UNL A   1      38.013  32.422  31.672  1.00  0.00     0.031 A 
ATOM     48  C   UNL A   1      42.700  30.378  35.711  1.00  0.00     0.049 A 
ATOM     49  C   UNL A   1      38.391  32.792  33.081  1.00  0.00     0.074 A 
ATOM     50  C   UNL A   1      42.999  30.850  36.978  1.00  0.00     0.029 A 
ATOM     51  N   UNL A   1      41.602  31.100  35.267  1.00  0.00    -0.354 N 
ATOM     52  N   UNL A   1      39.373  32.328  33.819  1.00  0.00    -0.248 NA
ATOM     53  C   UNL A   1      37.573  33.819  33.741  1.00  0.00     0.031 C 
ATOM     54  C   UNL A   1      42.046  31.813  37.323  1.00  0.00     0.029 A 
ATOM     55  C   UNL A   1      41.195  31.993  36.244  1.00  0.00     0.049 A 
ATOM     56  H   UNL A   1      41.174  30.993  34.386  1.00  0.00     0.167 HD
ATOM     57  C   UNL A   1      39.306  33.028  35.020  1.00  0.00     0.074 A 
ATOM     58  C   UNL A   1      38.199  33.956  34.902  1.00  0.00     0.031 C 
ATOM     59  C   UNL A   1      40.092  32.912  36.118  1.00  0.00     0.031 A 
BRANCH  46  60
ATOM     60  C   UNL A   1      44.509  28.611  35.616  1.00  0.00    -0.014 A 
ATOM     61  C   UNL A   1      45.834  29.069  35.490  1.00  0.00     0.010 A 
ATOM     62  C   UNL A   1      44.252  27.474  36.404  1.00  0.00     0.010 A 
ATOM     63  C   UNL A   1      46.883  28.379  36.103  1.00  0.00     0.020 A 
ATOM     64  C   UNL A   1      45.295  26.799  37.043  1.00  0.00     0.020 A 
ATOM     65  C   UNL A   1      46.607  27.246  36.874  1.00  0.00     0.054 A 
BRANCH  65  66
ATOM     66  S   UNL A   1      47.988  26.382  37.672  1.00  0.00     0.124 S 
ATOM     67  O   UNL A   1      49.058  26.556  36.693  1.00  0.00    -0.237 OA
ATOM     68  O   UNL A   1      48.152  27.125  38.919  1.00  0.00    -0.237 OA
ATOM     69  O   UNL A   1      47.501  25.013  37.825  1.00  0.00    -0.744 OA
ENDBRANCH  65  66
ENDBRANCH  46  60
BRANCH  47  70
ATOM     70  C   UNL A   1      36.845  33.061  31.003  1.00  0.00    -0.014 A 
ATOM     71  C   UNL A   1      37.026  33.903  29.892  1.00  0.00     0.010 A 
ATOM     72  C   UNL A   1      35.540  32.821  31.472  1.00  0.00     0.010 A 
ATOM     73  C   UNL A   1      35.926  34.508  29.274  1.00  0.00     0.020 A 
ATOM     74  C   UNL A   1      34.436  33.399  30.838  1.00  0.00     0.020 A 
ATOM     75  C   UNL A   1      34.638  34.249  29.750  1.00  0.00     0.054 A 
BRANCH  75  76
ATOM     76  S   UNL A   1      33.223  35.006  28.903  1.00  0.00     0.124 S 
ATOM     77  O   UNL A   1      32.300  35.245  30.007  1.00  0.00    -0.237 OA
ATOM     78  O   UNL A   1      33.817  36.199  28.305  1.00  0.00    -0.237 OA
ATOM     79  O   UNL A   1      32.807  33.980  27.949  1.00  0.00    -0.744 OA
ENDBRANCH  75  76
ENDBRANCH  47  70
BRANCH  59  80
ATOM     80  C   UNL A   1      39.811  33.837  37.276  1.00  0.00    -0.014 A 
ATOM     81  C   UNL A   1      38.950  33.462  38.322  1.00  0.00     0.010 A 
ATOM     82  C   UNL A   1      40.468  35.080  37.342  1.00  0.00     0.010 A 
ATOM     83  C   UNL A   1      38.724  34.328  39.396  1.00  0.00     0.020 A 
ATOM     84  C   UNL A   1      40.270  35.934  38.430  1.00  0.00     0.020 A 
ATOM     85  C   UNL A   1      39.387  35.558  39.443  1.00  0.00     0.054 A 
BRANCH  85  86
ATOM     86  S   UNL A   1      39.113  36.643  40.872  1.00  0.00     0.124 S 
ATOM     87  O   UNL A   1      40.479  36.956  41.282  1.00  0.00    -0.237 OA
ATOM     88  O   UNL A   1      38.362  37.753  40.289  1.00  0.00    -0.237 OA
ATOM     89  O   UNL A   1      38.359  35.808  41.803  1.00  0.00    -0.744 OA
ENDBRANCH  85  86
ENDBRANCH  59  80
ENDBRANCH  33  34
ENDBRANCH  25  28
ENDBRANCH  23  24
ENDBRANCH  22  23
ENDBRANCH   1  22
TORSDOF 17
ENDMDL
MODEL 3
REMARK VINA RESULT:      -7.8      2.101      8.949
REMARK SMILES O=C(CSc1nc(-c2cccc(Br)c2)c[nH]1)NCCCCNC(=O)c1ccc(-c2c3nc(c(-c4ccc(S(=O)(=O)[O-])cc4)c4ccc([nH]4)c(-c4ccc(S(=O)(=O)[O-])cc4)c4nc(c(-c5ccc(S(=O)(=O)[O-])cc5)c5ccc2[nH]5)C=C4)C=C3)cc1
REMARK SMILES IDX 19 1 18 2 17 3 1 4 2 5 3 7 4 8 5 9 6 10 16 11 7 12 15 13
REMARK SMILES IDX 8 15 9 16 14 17 10 18 12 19 11 20 13 21 20 22 21 23 22 24
REMARK SMILES IDX 23 25 24 27 25 28 26 29 84 30 27 31 83 32 28 33 29 34 30 35
REMARK SMILES IDX 77 36 31 37 82 38 76 39 78 40 32 41 81 42 75 43 74 44 33 46
REMARK SMILES IDX 63 47 44 48 62 49 45 50 48 51 61 52 79 53 46 54 47 55 60 57
REMARK SMILES IDX 80 58 49 59 34 60 35 61 43 62 36 63 42 64 37 65 38 66 39 67
REMARK SMILES IDX 40 68 41 69 64 70 65 71 73 72 66 73 72 74 67 75 68 76 69 77
REMARK SMILES IDX 70 78 71 79 50 80 51 81 59 82 52 83 58 84 53 85 54 86 55 87
REMARK SMILES IDX 56 88 57 89
REMARK H PARENT 17 6 16 14 22 26 78 45 48 56
REMARK Flexibility Score: inf
ROOT
ATOM      1  C   UNL A   1      33.960  34.391  27.963  1.00  0.00     0.023 C 
ENDROOT
BRANCH   1   2
ATOM      2  C   UNL A   1      33.605  35.742  28.580  1.00  0.00     0.116 C 
BRANCH   2   3
ATOM      3  N   UNL A   1      33.704  35.742  30.024  1.00  0.00    -0.355 N 
ATOM      4  O   UNL A   1      33.035  37.918  30.307  1.00  0.00    -0.274 OA
ATOM      5  C   UNL A   1      33.335  36.827  30.791  1.00  0.00     0.230 C 
ATOM      6  H   UNL A   1      34.049  34.937  30.475  1.00  0.00     0.163 HD
BRANCH   5   7
ATOM      7  C   UNL A   1      33.476  36.647  32.294  1.00  0.00     0.178 C 
BRANCH   7   8
ATOM      8  S   UNL A   1      33.235  34.940  32.870  1.00  0.00    -0.078 SA
BRANCH   8   9
ATOM      9  C   UNL A   1      34.859  34.375  32.911  1.00  0.00     0.166 A 
ATOM     10  N   UNL A   1      35.275  33.169  33.203  1.00  0.00    -0.223 NA
ATOM     11  N   UNL A   1      35.888  35.208  32.580  1.00  0.00    -0.339 N 
ATOM     12  C   UNL A   1      36.643  33.229  33.084  1.00  0.00     0.089 A 
ATOM     13  C   UNL A   1      37.048  34.491  32.705  1.00  0.00     0.113 A 
ATOM     14  H   UNL A   1      35.811  36.149  32.301  1.00  0.00     0.168 HD
BRANCH  12  15
ATOM     15  C   UNL A   1      37.515  32.091  33.277  1.00  0.00     0.003 A 
ATOM     16  C   UNL A   1      37.060  30.810  32.935  1.00  0.00     0.010 A 
ATOM     17  C   UNL A   1      38.803  32.248  33.800  1.00  0.00     0.026 A 
ATOM     18  C   UNL A   1      37.892  29.699  33.091  1.00  0.00     0.002 A 
ATOM     19  C   UNL A   1      39.622  31.131  33.968  1.00  0.00     0.018 A 
ATOM     20  C   UNL A   1      39.176  29.859  33.610  1.00  0.00     0.016 A 
ATOM     21  Br  UNL A   1      41.356  31.341  34.696  1.00  0.00    -0.051 Br
ENDBRANCH  12  15
ENDBRANCH   8   9
ENDBRANCH   7   8
ENDBRANCH   5   7
ENDBRANCH   2   3
ENDBRANCH   1   2
BRANCH   1  22
ATOM     22  C   UNL A   1      35.217  33.725  28.529  1.00  0.00     0.023 C 
BRANCH  22  23
ATOM     23  C   UNL A   1      34.980  32.492  29.397  1.00  0.00     0.116 C 
BRANCH  23  24
ATOM     24  N   UNL A   1      34.243  31.442  28.712  1.00  0.00    -0.352 N 
ATOM     25  C   UNL A   1      34.695  30.254  28.185  1.00  0.00     0.251 C 
ATOM     26  H   UNL A   1      33.277  31.605  28.610  1.00  0.00     0.163 HD
ATOM     27  O   UNL A   1      33.931  29.552  27.526  1.00  0.00    -0.269 OA
BRANCH  25  28
ATOM     28  C   UNL A   1      36.102  29.833  28.379  1.00  0.00     0.039 A 
ATOM     29  C   UNL A   1      37.012  30.023  27.334  1.00  0.00     0.014 A 
ATOM     30  C   UNL A   1      36.530  29.254  29.576  1.00  0.00     0.014 A 
ATOM     31  C   UNL A   1      38.360  29.703  27.517  1.00  0.00     0.010 A 
ATOM     32  C   UNL A   1      37.886  29.007  29.784  1.00  0.00     0.010 A 
ATOM     33  C   UNL A   1      38.818  29.231  28.759  1.00  0.00    -0.014 A 
BRANCH  33  34
ATOM     34  C   UNL A   1      40.266  28.986  29.006  1.00  0.00     0.031 A 
ATOM     35  C   UNL A   1      40.881  27.651  28.678  1.00  0.00     0.074 A 
ATOM     36  C   UNL A   1      41.017  29.945  29.585  1.00  0.00     0.049 A 
ATOM     37  N   UNL A   1      42.104  27.234  28.881  1.00  0.00    -0.248 NA
ATOM     38  C   UNL A   1      40.000  26.644  28.064  1.00  0.00     0.031 C 
ATOM     39  C   UNL A   1      40.537  31.269  29.988  1.00  0.00     0.029 A 
ATOM     40  N   UNL A   1      42.342  29.952  29.944  1.00  0.00    -0.354 N 
ATOM     41  C   UNL A   1      42.139  25.919  28.431  1.00  0.00     0.074 A 
ATOM     42  C   UNL A   1      40.800  25.589  27.996  1.00  0.00     0.031 C 
ATOM     43  C   UNL A   1      41.557  31.966  30.514  1.00  0.00     0.029 A 
ATOM     44  C   UNL A   1      42.750  31.128  30.531  1.00  0.00     0.049 A 
ATOM     45  H   UNL A   1      42.944  29.187  29.795  1.00  0.00     0.167 HD
ATOM     46  C   UNL A   1      43.193  25.069  28.367  1.00  0.00     0.031 A 
ATOM     47  C   UNL A   1      43.945  31.491  31.038  1.00  0.00     0.031 A 
ATOM     48  C   UNL A   1      44.525  25.399  28.801  1.00  0.00     0.049 A 
ATOM     49  C   UNL A   1      45.094  30.520  30.979  1.00  0.00     0.074 A 
ATOM     50  C   UNL A   1      45.668  24.620  28.734  1.00  0.00     0.029 A 
ATOM     51  N   UNL A   1      44.897  26.601  29.383  1.00  0.00    -0.354 N 
ATOM     52  N   UNL A   1      45.120  29.302  30.492  1.00  0.00    -0.248 NA
ATOM     53  C   UNL A   1      46.380  30.979  31.524  1.00  0.00     0.031 C 
ATOM     54  C   UNL A   1      46.716  25.328  29.330  1.00  0.00     0.029 A 
ATOM     55  C   UNL A   1      46.243  26.575  29.705  1.00  0.00     0.049 A 
ATOM     56  H   UNL A   1      44.292  27.362  29.544  1.00  0.00     0.167 HD
ATOM     57  C   UNL A   1      46.429  28.860  30.648  1.00  0.00     0.074 A 
ATOM     58  C   UNL A   1      47.168  29.946  31.258  1.00  0.00     0.031 C 
ATOM     59  C   UNL A   1      46.970  27.662  30.313  1.00  0.00     0.031 A 
BRANCH  46  60
ATOM     60  C   UNL A   1      42.942  23.690  27.810  1.00  0.00    -0.014 A 
ATOM     61  C   UNL A   1      42.390  22.672  28.610  1.00  0.00     0.010 A 
ATOM     62  C   UNL A   1      43.219  23.420  26.457  1.00  0.00     0.010 A 
ATOM     63  C   UNL A   1      42.163  21.399  28.080  1.00  0.00     0.020 A 
ATOM     64  C   UNL A   1      42.964  22.157  25.915  1.00  0.00     0.020 A 
ATOM     65  C   UNL A   1      42.453  21.149  26.736  1.00  0.00     0.054 A 
BRANCH  65  66
ATOM     66  S   UNL A   1      42.130  19.492  26.072  1.00  0.00     0.124 S 
ATOM     67  O   UNL A   1      40.684  19.528  25.866  1.00  0.00    -0.237 OA
ATOM     68  O   UNL A   1      42.937  19.473  24.854  1.00  0.00    -0.237 OA
ATOM     69  O   UNL A   1      42.586  18.598  27.133  1.00  0.00    -0.744 OA
ENDBRANCH  65  66
ENDBRANCH  46  60
BRANCH  47  70
ATOM     70  C   UNL A   1      44.117  32.840  31.646  1.00  0.00    -0.014 A 
ATOM     71  C   UNL A   1      43.949  33.032  33.028  1.00  0.00     0.010 A 
ATOM     72  C   UNL A   1      44.461  33.942  30.841  1.00  0.00     0.010 A 
ATOM     73  C   UNL A   1      44.102  34.303  33.592  1.00  0.00     0.020 A 
ATOM     74  C   UNL A   1      44.645  35.208  31.405  1.00  0.00     0.020 A 
ATOM     75  C   UNL A   1      44.453  35.382  32.776  1.00  0.00     0.054 A 
BRANCH  75  76
ATOM     76  S   UNL A   1      44.694  37.012  33.537  1.00  0.00     0.124 S 
ATOM     77  O   UNL A   1      43.554  37.761  33.017  1.00  0.00    -0.237 OA
ATOM     78  O   UNL A   1      44.651  36.702  34.963  1.00  0.00    -0.237 OA
ATOM     79  O   UNL A   1      46.001  37.432  33.036  1.00  0.00    -0.744 OA
ENDBRANCH  75  76
ENDBRANCH  47  70
BRANCH  59  80
ATOM     80  C   UNL A   1      48.444  27.469  30.564  1.00  0.00    -0.014 A 
ATOM     81  C   UNL A   1      49.405  27.822  29.601  1.00  0.00     0.010 A 
ATOM     82  C   UNL A   1      48.874  26.975  31.811  1.00  0.00     0.010 A 
ATOM     83  C   UNL A   1      50.767  27.654  29.866  1.00  0.00     0.020 A 
ATOM     84  C   UNL A   1      50.235  26.837  32.092  1.00  0.00     0.020 A 
ATOM     85  C   UNL A   1      51.173  27.164  31.111  1.00  0.00     0.054 A 
BRANCH  85  86
ATOM     86  S   UNL A   1      52.949  27.000  31.448  1.00  0.00     0.124 S 
ATOM     87  O   UNL A   1      52.982  26.996  32.907  1.00  0.00    -0.237 OA
ATOM     88  O   UNL A   1      53.278  25.728  30.809  1.00  0.00    -0.237 OA
ATOM     89  O   UNL A   1      53.533  28.179  30.814  1.00  0.00    -0.744 OA
ENDBRANCH  85  86
ENDBRANCH  59  80
ENDBRANCH  33  34
ENDBRANCH  25  28
ENDBRANCH  23  24
ENDBRANCH  22  23
ENDBRANCH   1  22
TORSDOF 17
ENDMDL
