MODEL 1
REMARK VINA RESULT:      -9.6      0.000      0.000
REMARK SMILES O=C(CCCc1ccc2c(c1Br)C=CC2)NCCCCNC(=O)c1ccc(-c2c3nc(c(-c4ccc(S(=O)(=O)[O-])cc4)c4ccc([nH]4)c(-c4ccc(S(=O)(=O)[O-])cc4)c4nc(c(-c5ccc(S(=O)(=O)[O-])cc5)c5ccc2[nH]5)C=C4)C=C3)cc1
REMARK SMILES IDX 18 1 17 2 16 3 1 4 2 5 3 7 4 8 5 9 6 10 7 11 11 12 8 13
REMARK SMILES IDX 10 14 12 15 9 16 13 17 15 18 14 19 19 20 20 21 21 22 22 23
REMARK SMILES IDX 23 25 24 26 25 27 83 28 26 29 82 30 27 31 28 32 29 33 76 34
REMARK SMILES IDX 30 35 81 36 75 37 77 38 31 39 80 40 74 41 73 42 32 44 62 45
REMARK SMILES IDX 43 46 61 47 44 48 47 49 60 50 78 51 45 52 46 53 59 55 79 56
REMARK SMILES IDX 48 57 33 58 34 59 42 60 35 61 41 62 36 63 37 64 38 65 39 66
REMARK SMILES IDX 40 67 63 68 64 69 72 70 65 71 71 72 66 73 67 74 68 75 69 76
REMARK SMILES IDX 70 77 49 78 50 79 58 80 51 81 57 82 52 83 53 84 54 85 55 86
REMARK SMILES IDX 56 87
REMARK H PARENT 16 6 21 24 77 43 47 54
REMARK Flexibility Score: inf
ROOT
ATOM      1  C   UNL A   1      42.250  22.708  28.379  1.00  0.00     0.023 C 
ENDROOT
BRANCH   1   2
ATOM      2  C   UNL A   1      43.516  22.974  27.557  1.00  0.00     0.116 C 
BRANCH   2   3
ATOM      3  N   UNL A   1      43.522  24.303  26.981  1.00  0.00    -0.356 N 
ATOM      4  O   UNL A   1      45.148  23.962  25.411  1.00  0.00    -0.275 OA
ATOM      5  C   UNL A   1      44.324  24.701  25.942  1.00  0.00     0.220 C 
ATOM      6  H   UNL A   1      42.905  24.969  27.362  1.00  0.00     0.163 HD
BRANCH   5   7
ATOM      7  C   UNL A   1      44.174  26.166  25.529  1.00  0.00     0.100 C 
BRANCH   7   8
ATOM      8  C   UNL A   1      45.460  26.989  25.461  1.00  0.00     0.015 C 
BRANCH   8   9
ATOM      9  C   UNL A   1      45.902  27.807  26.683  1.00  0.00     0.037 C 
BRANCH   9  10
ATOM     10  C   UNL A   1      45.415  29.235  26.892  1.00  0.00    -0.033 A 
ATOM     11  C   UNL A   1      44.008  29.432  26.816  1.00  0.00     0.005 A 
ATOM     12  C   UNL A   1      46.204  30.319  27.336  1.00  0.00     0.028 A 
ATOM     13  C   UNL A   1      43.393  30.621  27.230  1.00  0.00     0.005 A 
ATOM     14  C   UNL A   1      45.576  31.462  27.833  1.00  0.00    -0.008 A 
ATOM     15  Br  UNL A   1      48.091  30.397  27.248  1.00  0.00    -0.050 Br
ATOM     16  C   UNL A   1      44.189  31.612  27.767  1.00  0.00    -0.036 A 
ATOM     17  C   UNL A   1      46.132  32.629  28.514  1.00  0.00     0.005 C 
ATOM     18  C   UNL A   1      43.789  32.934  28.348  1.00  0.00     0.063 C 
ATOM     19  C   UNL A   1      45.121  33.457  28.817  1.00  0.00    -0.022 C 
ENDBRANCH   9  10
ENDBRANCH   8   9
ENDBRANCH   7   8
ENDBRANCH   5   7
ENDBRANCH   2   3
ENDBRANCH   1   2
BRANCH   1  20
ATOM     20  C   UNL A   1      41.205  21.785  27.735  1.00  0.00     0.023 C 
BRANCH  20  21
ATOM     21  C   UNL A   1      41.079  21.883  26.221  1.00  0.00     0.116 C 
BRANCH  21  22
ATOM     22  N   UNL A   1      39.696  22.003  25.800  1.00  0.00    -0.352 N 
ATOM     23  C   UNL A   1      38.778  22.983  26.099  1.00  0.00     0.251 C 
ATOM     24  H   UNL A   1      39.368  21.282  25.216  1.00  0.00     0.163 HD
ATOM     25  O   UNL A   1      37.598  22.817  25.820  1.00  0.00    -0.269 OA
BRANCH  23  26
ATOM     26  C   UNL A   1      39.213  24.228  26.773  1.00  0.00     0.039 A 
ATOM     27  C   UNL A   1      38.815  24.455  28.094  1.00  0.00     0.014 A 
ATOM     28  C   UNL A   1      39.981  25.184  26.100  1.00  0.00     0.014 A 
ATOM     29  C   UNL A   1      39.224  25.616  28.754  1.00  0.00     0.010 A 
ATOM     30  C   UNL A   1      40.434  26.316  26.777  1.00  0.00     0.010 A 
ATOM     31  C   UNL A   1      40.051  26.547  28.107  1.00  0.00    -0.014 A 
BRANCH  31  32
ATOM     32  C   UNL A   1      40.488  27.789  28.793  1.00  0.00     0.031 A 
ATOM     33  C   UNL A   1      41.876  27.878  29.364  1.00  0.00     0.074 A 
ATOM     34  C   UNL A   1      39.634  28.823  28.928  1.00  0.00     0.049 A 
ATOM     35  N   UNL A   1      42.431  28.863  30.022  1.00  0.00    -0.248 NA
ATOM     36  C   UNL A   1      42.750  26.708  29.182  1.00  0.00     0.031 C 
ATOM     37  C   UNL A   1      38.259  28.856  28.428  1.00  0.00     0.029 A 
ATOM     38  N   UNL A   1      39.800  30.047  29.528  1.00  0.00    -0.354 N 
ATOM     39  C   UNL A   1      43.714  28.430  30.337  1.00  0.00     0.074 A 
ATOM     40  C   UNL A   1      43.843  27.080  29.835  1.00  0.00     0.031 C 
ATOM     41  C   UNL A   1      37.716  30.051  28.717  1.00  0.00     0.029 A 
ATOM     42  C   UNL A   1      38.690  30.855  29.451  1.00  0.00     0.049 A 
ATOM     43  H   UNL A   1      40.636  30.321  29.971  1.00  0.00     0.167 HD
ATOM     44  C   UNL A   1      44.701  29.103  30.970  1.00  0.00     0.031 A 
ATOM     45  C   UNL A   1      38.478  32.102  29.919  1.00  0.00     0.031 A 
ATOM     46  C   UNL A   1      44.581  30.450  31.456  1.00  0.00     0.049 A 
ATOM     47  C   UNL A   1      39.580  32.816  30.651  1.00  0.00     0.074 A 
ATOM     48  C   UNL A   1      45.548  31.228  32.070  1.00  0.00     0.029 A 
ATOM     49  N   UNL A   1      43.432  31.220  31.382  1.00  0.00    -0.354 N 
ATOM     50  N   UNL A   1      40.796  32.401  30.911  1.00  0.00    -0.248 NA
ATOM     51  C   UNL A   1      39.285  34.168  31.149  1.00  0.00     0.031 C 
ATOM     52  C   UNL A   1      44.968  32.452  32.412  1.00  0.00     0.029 A 
ATOM     53  C   UNL A   1      43.657  32.455  31.964  1.00  0.00     0.049 A 
ATOM     54  H   UNL A   1      42.582  30.932  30.978  1.00  0.00     0.167 HD
ATOM     55  C   UNL A   1      41.418  33.445  31.585  1.00  0.00     0.074 A 
ATOM     56  C   UNL A   1      40.446  34.515  31.690  1.00  0.00     0.031 C 
ATOM     57  C   UNL A   1      42.683  33.511  32.065  1.00  0.00     0.031 A 
BRANCH  44  58
ATOM     58  C   UNL A   1      46.014  28.399  31.174  1.00  0.00    -0.014 A 
ATOM     59  C   UNL A   1      46.179  27.477  32.223  1.00  0.00     0.010 A 
ATOM     60  C   UNL A   1      47.063  28.597  30.258  1.00  0.00     0.010 A 
ATOM     61  C   UNL A   1      47.378  26.772  32.358  1.00  0.00     0.020 A 
ATOM     62  C   UNL A   1      48.255  27.878  30.379  1.00  0.00     0.020 A 
ATOM     63  C   UNL A   1      48.404  26.972  31.430  1.00  0.00     0.054 A 
BRANCH  63  64
ATOM     64  S   UNL A   1      49.932  26.010  31.613  1.00  0.00     0.124 S 
ATOM     65  O   UNL A   1      49.536  24.988  32.579  1.00  0.00    -0.237 OA
ATOM     66  O   UNL A   1      50.167  25.533  30.253  1.00  0.00    -0.237 OA
ATOM     67  O   UNL A   1      50.900  26.985  32.109  1.00  0.00    -0.744 OA
ENDBRANCH  63  64
ENDBRANCH  44  58
BRANCH  45  68
ATOM     68  C   UNL A   1      37.165  32.758  29.682  1.00  0.00    -0.014 A 
ATOM     69  C   UNL A   1      36.240  32.891  30.731  1.00  0.00     0.010 A 
ATOM     70  C   UNL A   1      36.855  33.294  28.419  1.00  0.00     0.010 A 
ATOM     71  C   UNL A   1      35.029  33.558  30.523  1.00  0.00     0.020 A 
ATOM     72  C   UNL A   1      35.653  33.978  28.214  1.00  0.00     0.020 A 
ATOM     73  C   UNL A   1      34.749  34.109  29.269  1.00  0.00     0.054 A 
BRANCH  73  74
ATOM     74  S   UNL A   1      33.201  35.029  29.048  1.00  0.00     0.124 S 
ATOM     75  O   UNL A   1      32.524  34.252  28.014  1.00  0.00    -0.237 OA
ATOM     76  O   UNL A   1      32.610  34.958  30.383  1.00  0.00    -0.237 OA
ATOM     77  O   UNL A   1      33.646  36.359  28.640  1.00  0.00    -0.744 OA
ENDBRANCH  73  74
ENDBRANCH  45  68
BRANCH  57  78
ATOM     78  C   UNL A   1      43.119  34.782  32.740  1.00  0.00    -0.014 A 
ATOM     79  C   UNL A   1      43.051  34.917  34.137  1.00  0.00     0.010 A 
ATOM     80  C   UNL A   1      43.723  35.799  31.977  1.00  0.00     0.010 A 
ATOM     81  C   UNL A   1      43.581  36.050  34.761  1.00  0.00     0.020 A 
ATOM     82  C   UNL A   1      44.271  36.924  32.599  1.00  0.00     0.020 A 
ATOM     83  C   UNL A   1      44.197  37.040  33.988  1.00  0.00     0.054 A 
BRANCH  83  84
ATOM     84  S   UNL A   1      44.935  38.464  34.836  1.00  0.00     0.124 S 
ATOM     85  O   UNL A   1      46.132  38.713  34.036  1.00  0.00    -0.237 OA
ATOM     86  O   UNL A   1      43.885  39.473  34.726  1.00  0.00    -0.237 OA
ATOM     87  O   UNL A   1      45.186  37.975  36.189  1.00  0.00    -0.744 OA
ENDBRANCH  83  84
ENDBRANCH  57  78
ENDBRANCH  31  32
ENDBRANCH  23  26
ENDBRANCH  21  22
ENDBRANCH  20  21
ENDBRANCH   1  20
TORSDOF 17
ENDMDL
MODEL 2
REMARK VINA RESULT:      -9.6      1.447      2.515
REMARK SMILES O=C(CCCc1ccc2c(c1Br)C=CC2)NCCCCNC(=O)c1ccc(-c2c3nc(c(-c4ccc(S(=O)(=O)[O-])cc4)c4ccc([nH]4)c(-c4ccc(S(=O)(=O)[O-])cc4)c4nc(c(-c5ccc(S(=O)(=O)[O-])cc5)c5ccc2[nH]5)C=C4)C=C3)cc1
REMARK SMILES IDX 18 1 17 2 16 3 1 4 2 5 3 7 4 8 5 9 6 10 7 11 11 12 8 13
REMARK SMILES IDX 10 14 12 15 9 16 13 17 15 18 14 19 19 20 20 21 21 22 22 23
REMARK SMILES IDX 23 25 24 26 25 27 83 28 26 29 82 30 27 31 28 32 29 33 76 34
REMARK SMILES IDX 30 35 81 36 75 37 77 38 31 39 80 40 74 41 73 42 32 44 62 45
REMARK SMILES IDX 43 46 61 47 44 48 47 49 60 50 78 51 45 52 46 53 59 55 79 56
REMARK SMILES IDX 48 57 33 58 34 59 42 60 35 61 41 62 36 63 37 64 38 65 39 66
REMARK SMILES IDX 40 67 63 68 64 69 72 70 65 71 71 72 66 73 67 74 68 75 69 76
REMARK SMILES IDX 70 77 49 78 50 79 58 80 51 81 57 82 52 83 53 84 54 85 55 86
REMARK SMILES IDX 56 87
REMARK H PARENT 16 6 21 24 77 43 47 54
REMARK Flexibility Score: inf
ROOT
ATOM      1  C   UNL A   1      42.028  19.494  26.134  1.00  0.00     0.023 C 
ENDROOT
BRANCH   1   2
ATOM      2  C   UNL A   1      43.342  18.925  25.584  1.00  0.00     0.116 C 
BRANCH   2   3
ATOM      3  N   UNL A   1      44.173  19.951  24.989  1.00  0.00    -0.356 N 
ATOM      4  O   UNL A   1      46.204  18.974  25.368  1.00  0.00    -0.275 OA
ATOM      5  C   UNL A   1      45.541  19.900  24.910  1.00  0.00     0.220 C 
ATOM      6  H   UNL A   1      43.724  20.743  24.615  1.00  0.00     0.163 HD
BRANCH   5   7
ATOM      7  C   UNL A   1      46.201  21.121  24.267  1.00  0.00     0.100 C 
BRANCH   7   8
ATOM      8  C   UNL A   1      45.342  22.381  24.160  1.00  0.00     0.015 C 
BRANCH   8   9
ATOM      9  C   UNL A   1      44.980  23.161  25.432  1.00  0.00     0.037 C 
BRANCH   9  10
ATOM     10  C   UNL A   1      44.830  24.676  25.410  1.00  0.00    -0.033 A 
ATOM     11  C   UNL A   1      43.527  25.170  25.124  1.00  0.00     0.005 A 
ATOM     12  C   UNL A   1      45.805  25.608  25.831  1.00  0.00     0.028 A 
ATOM     13  C   UNL A   1      43.175  26.513  25.314  1.00  0.00     0.005 A 
ATOM     14  C   UNL A   1      45.421  26.921  26.106  1.00  0.00    -0.008 A 
ATOM     15  Br  UNL A   1      47.654  25.248  25.989  1.00  0.00    -0.050 Br
ATOM     16  C   UNL A   1      44.124  27.366  25.837  1.00  0.00    -0.036 A 
ATOM     17  C   UNL A   1      46.166  28.018  26.718  1.00  0.00     0.005 C 
ATOM     18  C   UNL A   1      43.995  28.814  26.206  1.00  0.00     0.063 C 
ATOM     19  C   UNL A   1      45.357  29.085  26.787  1.00  0.00    -0.022 C 
ENDBRANCH   9  10
ENDBRANCH   8   9
ENDBRANCH   7   8
ENDBRANCH   5   7
ENDBRANCH   2   3
ENDBRANCH   1   2
BRANCH   1  20
ATOM     20  C   UNL A   1      41.867  21.020  26.059  1.00  0.00     0.023 C 
BRANCH  20  21
ATOM     21  C   UNL A   1      40.766  21.613  26.926  1.00  0.00     0.116 C 
BRANCH  21  22
ATOM     22  N   UNL A   1      39.549  21.844  26.172  1.00  0.00    -0.352 N 
ATOM     23  C   UNL A   1      38.739  22.956  26.149  1.00  0.00     0.251 C 
ATOM     24  H   UNL A   1      39.260  21.100  25.596  1.00  0.00     0.163 HD
ATOM     25  O   UNL A   1      37.641  22.898  25.609  1.00  0.00    -0.269 OA
BRANCH  23  26
ATOM     26  C   UNL A   1      39.185  24.214  26.791  1.00  0.00     0.039 A 
ATOM     27  C   UNL A   1      38.886  24.425  28.140  1.00  0.00     0.014 A 
ATOM     28  C   UNL A   1      39.863  25.196  26.062  1.00  0.00     0.014 A 
ATOM     29  C   UNL A   1      39.308  25.599  28.771  1.00  0.00     0.010 A 
ATOM     30  C   UNL A   1      40.331  26.342  26.706  1.00  0.00     0.010 A 
ATOM     31  C   UNL A   1      40.048  26.558  28.062  1.00  0.00    -0.014 A 
BRANCH  31  32
ATOM     32  C   UNL A   1      40.497  27.813  28.717  1.00  0.00     0.031 A 
ATOM     33  C   UNL A   1      41.901  27.920  29.245  1.00  0.00     0.074 A 
ATOM     34  C   UNL A   1      39.641  28.844  28.861  1.00  0.00     0.049 A 
ATOM     35  N   UNL A   1      42.469  28.917  29.871  1.00  0.00    -0.248 NA
ATOM     36  C   UNL A   1      42.777  26.752  29.055  1.00  0.00     0.031 C 
ATOM     37  C   UNL A   1      38.251  28.861  28.402  1.00  0.00     0.029 A 
ATOM     38  N   UNL A   1      39.817  30.078  29.437  1.00  0.00    -0.354 N 
ATOM     39  C   UNL A   1      43.763  28.498  30.154  1.00  0.00     0.074 A 
ATOM     40  C   UNL A   1      43.887  27.141  29.669  1.00  0.00     0.031 C 
ATOM     41  C   UNL A   1      37.710  30.057  28.688  1.00  0.00     0.029 A 
ATOM     42  C   UNL A   1      38.700  30.878  29.381  1.00  0.00     0.049 A 
ATOM     43  H   UNL A   1      40.664  30.363  29.850  1.00  0.00     0.167 HD
ATOM     44  C   UNL A   1      44.765  29.186  30.747  1.00  0.00     0.031 A 
ATOM     45  C   UNL A   1      38.494  32.130  29.835  1.00  0.00     0.031 A 
ATOM     46  C   UNL A   1      44.650  30.540  31.216  1.00  0.00     0.049 A 
ATOM     47  C   UNL A   1      39.612  32.863  30.523  1.00  0.00     0.074 A 
ATOM     48  C   UNL A   1      45.630  31.332  31.790  1.00  0.00     0.029 A 
ATOM     49  N   UNL A   1      43.494  31.302  31.165  1.00  0.00    -0.354 N 
ATOM     50  N   UNL A   1      40.838  32.459  30.754  1.00  0.00    -0.248 NA
ATOM     51  C   UNL A   1      39.323  34.221  31.009  1.00  0.00     0.031 C 
ATOM     52  C   UNL A   1      45.052  32.559  32.130  1.00  0.00     0.029 A 
ATOM     53  C   UNL A   1      43.728  32.547  31.721  1.00  0.00     0.049 A 
ATOM     54  H   UNL A   1      42.635  31.002  30.790  1.00  0.00     0.167 HD
ATOM     55  C   UNL A   1      41.472  33.517  31.393  1.00  0.00     0.074 A 
ATOM     56  C   UNL A   1      40.497  34.583  31.510  1.00  0.00     0.031 C 
ATOM     57  C   UNL A   1      42.751  33.599  31.834  1.00  0.00     0.031 A 
BRANCH  44  58
ATOM     58  C   UNL A   1      46.087  28.493  30.923  1.00  0.00    -0.014 A 
ATOM     59  C   UNL A   1      47.088  28.594  29.941  1.00  0.00     0.010 A 
ATOM     60  C   UNL A   1      46.361  27.805  32.119  1.00  0.00     0.010 A 
ATOM     61  C   UNL A   1      48.339  28.009  30.149  1.00  0.00     0.020 A 
ATOM     62  C   UNL A   1      47.619  27.237  32.338  1.00  0.00     0.020 A 
ATOM     63  C   UNL A   1      48.599  27.342  31.349  1.00  0.00     0.054 A 
BRANCH  63  64
ATOM     64  S   UNL A   1      50.248  26.629  31.601  1.00  0.00     0.124 S 
ATOM     65  O   UNL A   1      50.827  26.716  30.263  1.00  0.00    -0.237 OA
ATOM     66  O   UNL A   1      50.828  27.525  32.597  1.00  0.00    -0.237 OA
ATOM     67  O   UNL A   1      49.973  25.271  32.067  1.00  0.00    -0.744 OA
ENDBRANCH  63  64
ENDBRANCH  44  58
BRANCH  45  68
ATOM     68  C   UNL A   1      37.170  32.775  29.627  1.00  0.00    -0.014 A 
ATOM     69  C   UNL A   1      36.392  33.168  30.730  1.00  0.00     0.010 A 
ATOM     70  C   UNL A   1      36.705  33.041  28.327  1.00  0.00     0.010 A 
ATOM     71  C   UNL A   1      35.174  33.825  30.535  1.00  0.00     0.020 A 
ATOM     72  C   UNL A   1      35.496  33.715  28.130  1.00  0.00     0.020 A 
ATOM     73  C   UNL A   1      34.740  34.106  29.236  1.00  0.00     0.054 A 
BRANCH  73  74
ATOM     74  S   UNL A   1      33.188  35.021  29.016  1.00  0.00     0.124 S 
ATOM     75  O   UNL A   1      33.662  36.344  28.622  1.00  0.00    -0.237 OA
ATOM     76  O   UNL A   1      32.523  34.248  27.969  1.00  0.00    -0.237 OA
ATOM     77  O   UNL A   1      32.557  34.948  30.331  1.00  0.00    -0.744 OA
ENDBRANCH  73  74
ENDBRANCH  45  68
BRANCH  57  78
ATOM     78  C   UNL A   1      43.199  34.882  32.477  1.00  0.00    -0.014 A 
ATOM     79  C   UNL A   1      43.685  35.947  31.700  1.00  0.00     0.010 A 
ATOM     80  C   UNL A   1      43.009  35.066  33.859  1.00  0.00     0.010 A 
ATOM     81  C   UNL A   1      43.975  37.177  32.296  1.00  0.00     0.020 A 
ATOM     82  C   UNL A   1      43.278  36.301  34.455  1.00  0.00     0.020 A 
ATOM     83  C   UNL A   1      43.758  37.349  33.667  1.00  0.00     0.054 A 
BRANCH  83  84
ATOM     84  S   UNL A   1      44.079  38.979  34.396  1.00  0.00     0.124 S 
ATOM     85  O   UNL A   1      45.361  39.339  33.794  1.00  0.00    -0.237 OA
ATOM     86  O   UNL A   1      42.931  39.758  33.940  1.00  0.00    -0.237 OA
ATOM     87  O   UNL A   1      44.121  38.718  35.833  1.00  0.00    -0.744 OA
ENDBRANCH  83  84
ENDBRANCH  57  78
ENDBRANCH  31  32
ENDBRANCH  23  26
ENDBRANCH  21  22
ENDBRANCH  20  21
ENDBRANCH   1  20
TORSDOF 17
ENDMDL
MODEL 3
REMARK VINA RESULT:      -9.3      4.699      8.591
REMARK SMILES O=C(CCCc1ccc2c(c1Br)C=CC2)NCCCCNC(=O)c1ccc(-c2c3nc(c(-c4ccc(S(=O)(=O)[O-])cc4)c4ccc([nH]4)c(-c4ccc(S(=O)(=O)[O-])cc4)c4nc(c(-c5ccc(S(=O)(=O)[O-])cc5)c5ccc2[nH]5)C=C4)C=C3)cc1
REMARK SMILES IDX 18 1 17 2 16 3 1 4 2 5 3 7 4 8 5 9 6 10 7 11 11 12 8 13
REMARK SMILES IDX 10 14 12 15 9 16 13 17 15 18 14 19 19 20 20 21 21 22 22 23
REMARK SMILES IDX 23 25 24 26 25 27 83 28 26 29 82 30 27 31 28 32 29 33 76 34
REMARK SMILES IDX 30 35 81 36 75 37 77 38 31 39 80 40 74 41 73 42 32 44 62 45
REMARK SMILES IDX 43 46 61 47 44 48 47 49 60 50 78 51 45 52 46 53 59 55 79 56
REMARK SMILES IDX 48 57 33 58 34 59 42 60 35 61 41 62 36 63 37 64 38 65 39 66
REMARK SMILES IDX 40 67 63 68 64 69 72 70 65 71 71 72 66 73 67 74 68 75 69 76
REMARK SMILES IDX 70 77 49 78 50 79 58 80 51 81 57 82 52 83 53 84 54 85 55 86
REMARK SMILES IDX 56 87
REMARK H PARENT 16 6 21 24 77 43 47 54
REMARK Flexibility Score: inf
ROOT
ATOM      1  C   UNL A   1      36.998  20.354  25.018  1.00  0.00     0.023 C 
ENDROOT
BRANCH   1   2
ATOM      2  C   UNL A   1      37.058  21.886  25.020  1.00  0.00     0.116 C 
BRANCH   2   3
ATOM      3  N   UNL A   1      35.854  22.479  24.476  1.00  0.00    -0.356 N 
ATOM      4  O   UNL A   1      36.650  22.953  22.387  1.00  0.00    -0.275 OA
ATOM      5  C   UNL A   1      35.728  22.958  23.197  1.00  0.00     0.220 C 
ATOM      6  H   UNL A   1      35.069  22.543  25.067  1.00  0.00     0.163 HD
BRANCH   5   7
ATOM      7  C   UNL A   1      34.367  23.571  22.864  1.00  0.00     0.100 C 
BRANCH   7   8
ATOM      8  C   UNL A   1      33.279  23.429  23.928  1.00  0.00     0.015 C 
BRANCH   8   9
ATOM      9  C   UNL A   1      32.095  22.485  23.680  1.00  0.00     0.037 C 
BRANCH   9  10
ATOM     10  C   UNL A   1      32.288  20.975  23.632  1.00  0.00    -0.033 A 
ATOM     11  C   UNL A   1      31.900  20.333  22.424  1.00  0.00     0.005 A 
ATOM     12  C   UNL A   1      32.985  20.202  24.588  1.00  0.00     0.028 A 
ATOM     13  C   UNL A   1      32.244  19.006  22.134  1.00  0.00     0.005 A 
ATOM     14  C   UNL A   1      33.404  18.914  24.251  1.00  0.00    -0.008 A 
ATOM     15  Br  UNL A   1      33.348  20.740  26.364  1.00  0.00    -0.050 Br
ATOM     16  C   UNL A   1      33.025  18.324  23.043  1.00  0.00    -0.036 A 
ATOM     17  C   UNL A   1      34.281  17.986  24.961  1.00  0.00     0.005 C 
ATOM     18  C   UNL A   1      33.592  16.939  22.950  1.00  0.00     0.063 C 
ATOM     19  C   UNL A   1      34.398  16.874  24.221  1.00  0.00    -0.022 C 
ENDBRANCH   9  10
ENDBRANCH   8   9
ENDBRANCH   7   8
ENDBRANCH   5   7
ENDBRANCH   2   3
ENDBRANCH   1   2
BRANCH   1  20
ATOM     20  C   UNL A   1      38.348  19.623  24.985  1.00  0.00     0.023 C 
BRANCH  20  21
ATOM     21  C   UNL A   1      39.401  20.131  25.958  1.00  0.00     0.116 C 
BRANCH  21  22
ATOM     22  N   UNL A   1      40.490  19.187  26.121  1.00  0.00    -0.352 N 
ATOM     23  C   UNL A   1      41.835  19.429  26.278  1.00  0.00     0.251 C 
ATOM     24  H   UNL A   1      40.229  18.237  26.120  1.00  0.00     0.163 HD
ATOM     25  O   UNL A   1      42.633  18.504  26.198  1.00  0.00    -0.269 OA
BRANCH  23  26
ATOM     26  C   UNL A   1      42.318  20.807  26.524  1.00  0.00     0.039 A 
ATOM     27  C   UNL A   1      42.595  21.630  25.428  1.00  0.00     0.014 A 
ATOM     28  C   UNL A   1      42.532  21.277  27.824  1.00  0.00     0.014 A 
ATOM     29  C   UNL A   1      43.039  22.938  25.636  1.00  0.00     0.010 A 
ATOM     30  C   UNL A   1      42.923  22.599  28.031  1.00  0.00     0.010 A 
ATOM     31  C   UNL A   1      43.191  23.439  26.939  1.00  0.00    -0.014 A 
BRANCH  31  32
ATOM     32  C   UNL A   1      43.669  24.824  27.175  1.00  0.00     0.031 A 
ATOM     33  C   UNL A   1      45.110  25.170  26.925  1.00  0.00     0.074 A 
ATOM     34  C   UNL A   1      42.819  25.762  27.638  1.00  0.00     0.049 A 
ATOM     35  N   UNL A   1      45.723  26.313  27.099  1.00  0.00    -0.248 NA
ATOM     36  C   UNL A   1      45.979  24.093  26.423  1.00  0.00     0.031 C 
ATOM     37  C   UNL A   1      41.401  25.550  27.931  1.00  0.00     0.029 A 
ATOM     38  N   UNL A   1      43.028  27.084  27.944  1.00  0.00    -0.354 N 
ATOM     39  C   UNL A   1      47.045  26.091  26.736  1.00  0.00     0.074 A 
ATOM     40  C   UNL A   1      47.159  24.696  26.370  1.00  0.00     0.031 C 
ATOM     41  C   UNL A   1      40.861  26.708  28.346  1.00  0.00     0.029 A 
ATOM     42  C   UNL A   1      41.899  27.735  28.384  1.00  0.00     0.049 A 
ATOM     43  H   UNL A   1      43.904  27.525  27.857  1.00  0.00     0.167 HD
ATOM     44  C   UNL A   1      48.069  26.973  26.693  1.00  0.00     0.031 A 
ATOM     45  C   UNL A   1      41.719  29.013  28.773  1.00  0.00     0.031 A 
ATOM     46  C   UNL A   1      47.956  28.363  27.040  1.00  0.00     0.049 A 
ATOM     47  C   UNL A   1      42.880  29.967  28.750  1.00  0.00     0.074 A 
ATOM     48  C   UNL A   1      48.934  29.342  26.983  1.00  0.00     0.029 A 
ATOM     49  N   UNL A   1      46.803  28.973  27.506  1.00  0.00    -0.354 N 
ATOM     50  N   UNL A   1      44.117  29.744  28.374  1.00  0.00    -0.248 NA
ATOM     51  C   UNL A   1      42.625  31.343  29.199  1.00  0.00     0.031 C 
ATOM     52  C   UNL A   1      48.383  30.534  27.460  1.00  0.00     0.029 A 
ATOM     53  C   UNL A   1      47.050  30.309  27.766  1.00  0.00     0.049 A 
ATOM     54  H   UNL A   1      45.937  28.522  27.635  1.00  0.00     0.167 HD
ATOM     55  C   UNL A   1      44.782  30.956  28.522  1.00  0.00     0.074 A 
ATOM     56  C   UNL A   1      43.811  31.910  29.018  1.00  0.00     0.031 C 
ATOM     57  C   UNL A   1      46.078  31.249  28.261  1.00  0.00     0.031 A 
BRANCH  44  58
ATOM     58  C   UNL A   1      49.414  26.470  26.246  1.00  0.00    -0.014 A 
ATOM     59  C   UNL A   1      49.851  26.664  24.924  1.00  0.00     0.010 A 
ATOM     60  C   UNL A   1      50.281  25.872  27.179  1.00  0.00     0.010 A 
ATOM     61  C   UNL A   1      51.132  26.260  24.540  1.00  0.00     0.020 A 
ATOM     62  C   UNL A   1      51.570  25.485  26.802  1.00  0.00     0.020 A 
ATOM     63  C   UNL A   1      51.985  25.681  25.484  1.00  0.00     0.054 A 
BRANCH  63  64
ATOM     64  S   UNL A   1      53.655  25.204  24.959  1.00  0.00     0.124 S 
ATOM     65  O   UNL A   1      53.729  25.774  23.617  1.00  0.00    -0.237 OA
ATOM     66  O   UNL A   1      54.495  25.850  25.964  1.00  0.00    -0.237 OA
ATOM     67  O   UNL A   1      53.632  23.744  25.009  1.00  0.00    -0.744 OA
ENDBRANCH  63  64
ENDBRANCH  44  58
BRANCH  45  68
ATOM     68  C   UNL A   1      40.366  29.463  29.197  1.00  0.00    -0.014 A 
ATOM     69  C   UNL A   1      40.055  29.584  30.562  1.00  0.00     0.010 A 
ATOM     70  C   UNL A   1      39.401  29.819  28.237  1.00  0.00     0.010 A 
ATOM     71  C   UNL A   1      38.803  30.062  30.961  1.00  0.00     0.020 A 
ATOM     72  C   UNL A   1      38.156  30.315  28.634  1.00  0.00     0.020 A 
ATOM     73  C   UNL A   1      37.866  30.437  29.993  1.00  0.00     0.054 A 
BRANCH  73  74
ATOM     74  S   UNL A   1      36.275  31.118  30.540  1.00  0.00     0.124 S 
ATOM     75  O   UNL A   1      35.468  31.030  29.327  1.00  0.00    -0.237 OA
ATOM     76  O   UNL A   1      35.905  30.203  31.617  1.00  0.00    -0.237 OA
ATOM     77  O   UNL A   1      36.612  32.473  30.971  1.00  0.00    -0.744 OA
ENDBRANCH  73  74
ENDBRANCH  45  68
BRANCH  57  78
ATOM     78  C   UNL A   1      46.545  32.661  28.485  1.00  0.00    -0.014 A 
ATOM     79  C   UNL A   1      46.416  33.632  27.478  1.00  0.00     0.010 A 
ATOM     80  C   UNL A   1      46.997  33.045  29.761  1.00  0.00     0.010 A 
ATOM     81  C   UNL A   1      46.733  34.967  27.745  1.00  0.00     0.020 A 
ATOM     82  C   UNL A   1      47.295  34.382  30.037  1.00  0.00     0.020 A 
ATOM     83  C   UNL A   1      47.159  35.334  29.025  1.00  0.00     0.054 A 
BRANCH  83  84
ATOM     84  S   UNL A   1      47.495  37.086  29.355  1.00  0.00     0.124 S 
ATOM     85  O   UNL A   1      46.427  37.751  28.613  1.00  0.00    -0.237 OA
ATOM     86  O   UNL A   1      47.388  37.158  30.810  1.00  0.00    -0.237 OA
ATOM     87  O   UNL A   1      48.840  37.291  28.822  1.00  0.00    -0.744 OA
ENDBRANCH  83  84
ENDBRANCH  57  78
ENDBRANCH  31  32
ENDBRANCH  23  26
ENDBRANCH  21  22
ENDBRANCH  20  21
ENDBRANCH   1  20
TORSDOF 17
ENDMDL
