MODEL 1
REMARK VINA RESULT:     -11.2      0.000      0.000
REMARK SMILES O=C(NCCCCNC(=O)[C@@H](F)[C@H]1CCCc2cccnc21)c1ccc(-c2c3nc(c(-c4ccc(S(=O)(=O)[O-])cc4)c4ccc([nH]4)c(-c4ccc(S(=O)(=O)[O-])cc4)c4nc(c(-c5ccc(S(=O)(=O)[O-])cc5)c5ccc2[nH]5)C=C4)C=C3)cc1
REMARK SMILES IDX 4 1 3 2 1 3 2 4 23 6 24 7 82 8 25 9 81 10 26 11 27 12 28 13
REMARK SMILES IDX 75 14 29 15 80 16 74 17 76 18 30 19 79 20 73 21 72 22 31 24
REMARK SMILES IDX 61 25 42 26 60 27 43 28 46 29 59 30 77 31 44 32 45 33 58 35
REMARK SMILES IDX 78 36 47 37 32 38 33 39 41 40 34 41 40 42 35 43 36 44 37 45
REMARK SMILES IDX 38 46 39 47 62 48 63 49 71 50 64 51 70 52 65 53 66 54 67 55
REMARK SMILES IDX 68 56 69 57 48 58 49 59 57 60 50 61 56 62 51 63 52 64 53 65
REMARK SMILES IDX 54 66 55 67 5 68 6 69 7 70 8 71 9 72 10 74 11 75 12 76 13 77
REMARK SMILES IDX 14 78 22 79 15 80 17 81 21 82 16 83 18 84 20 85 19 86
REMARK H PARENT 3 5 76 23 46 34 8 73
REMARK Flexibility Score: inf
ROOT
ATOM      1  C   UNL A   1      33.499  28.472  27.066  1.00  0.00     0.116 C 
ENDROOT
BRANCH   1   2
ATOM      2  N   UNL A   1      33.451  29.858  27.510  1.00  0.00    -0.352 N 
ATOM      3  O   UNL A   1      34.195  31.782  28.425  1.00  0.00    -0.269 OA
ATOM      4  C   UNL A   1      34.438  30.633  28.082  1.00  0.00     0.251 C 
ATOM      5  H   UNL A   1      32.585  30.309  27.383  1.00  0.00     0.163 HD
BRANCH   4   6
ATOM      6  C   UNL A   1      35.776  30.047  28.321  1.00  0.00     0.039 A 
ATOM      7  C   UNL A   1      36.110  29.512  29.567  1.00  0.00     0.014 A 
ATOM      8  C   UNL A   1      36.724  30.083  27.294  1.00  0.00     0.014 A 
ATOM      9  C   UNL A   1      37.433  29.175  29.839  1.00  0.00     0.010 A 
ATOM     10  C   UNL A   1      38.035  29.670  27.547  1.00  0.00     0.010 A 
ATOM     11  C   UNL A   1      38.413  29.260  28.836  1.00  0.00    -0.014 A 
BRANCH  11  12
ATOM     12  C   UNL A   1      39.820  28.900  29.148  1.00  0.00     0.031 A 
ATOM     13  C   UNL A   1      40.735  29.871  29.850  1.00  0.00     0.074 A 
ATOM     14  C   UNL A   1      40.272  27.677  28.811  1.00  0.00     0.049 A 
ATOM     15  N   UNL A   1      41.988  29.715  30.196  1.00  0.00    -0.248 NA
ATOM     16  C   UNL A   1      40.175  31.185  30.198  1.00  0.00     0.031 C 
ATOM     17  C   UNL A   1      39.487  26.652  28.120  1.00  0.00     0.029 A 
ATOM     18  N   UNL A   1      41.494  27.086  29.006  1.00  0.00    -0.354 N 
ATOM     19  C   UNL A   1      42.376  30.918  30.777  1.00  0.00     0.074 A 
ATOM     20  C   UNL A   1      41.229  31.798  30.722  1.00  0.00     0.031 C 
ATOM     21  C   UNL A   1      40.237  25.550  27.973  1.00  0.00     0.029 A 
ATOM     22  C   UNL A   1      41.569  25.808  28.510  1.00  0.00     0.049 A 
ATOM     23  H   UNL A   1      42.244  27.535  29.459  1.00  0.00     0.167 HD
ATOM     24  C   UNL A   1      43.576  31.256  31.308  1.00  0.00     0.031 A 
ATOM     25  C   UNL A   1      42.599  24.941  28.465  1.00  0.00     0.031 A 
ATOM     26  C   UNL A   1      44.714  30.375  31.369  1.00  0.00     0.049 A 
ATOM     27  C   UNL A   1      43.919  25.338  29.054  1.00  0.00     0.074 A 
ATOM     28  C   UNL A   1      45.958  30.612  31.929  1.00  0.00     0.029 A 
ATOM     29  N   UNL A   1      44.751  29.091  30.845  1.00  0.00    -0.354 N 
ATOM     30  N   UNL A   1      44.252  26.465  29.635  1.00  0.00    -0.248 NA
ATOM     31  C   UNL A   1      45.001  24.348  28.983  1.00  0.00     0.031 C 
ATOM     32  C   UNL A   1      46.761  29.488  31.703  1.00  0.00     0.029 A 
ATOM     33  C   UNL A   1      46.004  28.533  31.044  1.00  0.00     0.049 A 
ATOM     34  H   UNL A   1      43.998  28.642  30.397  1.00  0.00     0.167 HD
ATOM     35  C   UNL A   1      45.583  26.320  30.005  1.00  0.00     0.074 A 
ATOM     36  C   UNL A   1      45.987  24.989  29.599  1.00  0.00     0.031 C 
ATOM     37  C   UNL A   1      46.396  27.213  30.621  1.00  0.00     0.031 A 
BRANCH  24  38
ATOM     38  C   UNL A   1      43.731  32.658  31.838  1.00  0.00    -0.014 A 
ATOM     39  C   UNL A   1      44.186  33.705  31.018  1.00  0.00     0.010 A 
ATOM     40  C   UNL A   1      43.391  32.936  33.176  1.00  0.00     0.010 A 
ATOM     41  C   UNL A   1      44.346  34.994  31.537  1.00  0.00     0.020 A 
ATOM     42  C   UNL A   1      43.528  34.227  33.692  1.00  0.00     0.020 A 
ATOM     43  C   UNL A   1      44.026  35.244  32.875  1.00  0.00     0.054 A 
BRANCH  43  44
ATOM     44  S   UNL A   1      44.250  36.921  33.531  1.00  0.00     0.124 S 
ATOM     45  O   UNL A   1      43.190  36.994  34.534  1.00  0.00    -0.237 OA
ATOM     46  O   UNL A   1      45.611  36.884  34.059  1.00  0.00    -0.237 OA
ATOM     47  O   UNL A   1      44.062  37.778  32.362  1.00  0.00    -0.744 OA
ENDBRANCH  43  44
ENDBRANCH  24  38
BRANCH  25  48
ATOM     48  C   UNL A   1      42.400  23.621  27.811  1.00  0.00    -0.014 A 
ATOM     49  C   UNL A   1      42.876  23.386  26.512  1.00  0.00     0.010 A 
ATOM     50  C   UNL A   1      41.804  22.568  28.530  1.00  0.00     0.010 A 
ATOM     51  C   UNL A   1      42.768  22.113  25.944  1.00  0.00     0.020 A 
ATOM     52  C   UNL A   1      41.717  21.291  27.973  1.00  0.00     0.020 A 
ATOM     53  C   UNL A   1      42.197  21.071  26.681  1.00  0.00     0.054 A 
BRANCH  53  54
ATOM     54  S   UNL A   1      42.162  19.403  25.968  1.00  0.00     0.124 S 
ATOM     55  O   UNL A   1      42.719  18.599  27.051  1.00  0.00    -0.237 OA
ATOM     56  O   UNL A   1      40.740  19.201  25.697  1.00  0.00    -0.237 OA
ATOM     57  O   UNL A   1      43.001  19.525  24.778  1.00  0.00    -0.744 OA
ENDBRANCH  53  54
ENDBRANCH  25  48
BRANCH  37  58
ATOM     58  C   UNL A   1      47.807  26.774  30.902  1.00  0.00    -0.014 A 
ATOM     59  C   UNL A   1      48.861  27.147  30.049  1.00  0.00     0.010 A 
ATOM     60  C   UNL A   1      48.088  26.025  32.058  1.00  0.00     0.010 A 
ATOM     61  C   UNL A   1      50.171  26.756  30.336  1.00  0.00     0.020 A 
ATOM     62  C   UNL A   1      49.400  25.651  32.359  1.00  0.00     0.020 A 
ATOM     63  C   UNL A   1      50.432  26.008  31.489  1.00  0.00     0.054 A 
BRANCH  63  64
ATOM     64  S   UNL A   1      52.147  25.553  31.868  1.00  0.00     0.124 S 
ATOM     65  O   UNL A   1      52.815  25.800  30.592  1.00  0.00    -0.237 OA
ATOM     66  O   UNL A   1      52.495  26.472  32.947  1.00  0.00    -0.237 OA
ATOM     67  O   UNL A   1      52.052  24.149  32.260  1.00  0.00    -0.744 OA
ENDBRANCH  63  64
ENDBRANCH  37  58
ENDBRANCH  11  12
ENDBRANCH   4   6
ENDBRANCH   1   2
BRANCH   1  68
ATOM     68  C   UNL A   1      32.369  28.082  26.116  1.00  0.00     0.023 C 
BRANCH  68  69
ATOM     69  C   UNL A   1      31.191  27.326  26.730  1.00  0.00     0.023 C 
BRANCH  69  70
ATOM     70  C   UNL A   1      30.599  26.224  25.865  1.00  0.00     0.116 C 
BRANCH  70  71
ATOM     71  N   UNL A   1      30.397  24.959  26.536  1.00  0.00    -0.354 N 
ATOM     72  C   UNL A   1      31.327  23.975  26.728  1.00  0.00     0.255 C 
ATOM     73  H   UNL A   1      29.495  24.789  26.891  1.00  0.00     0.163 HD
ATOM     74  O   UNL A   1      31.089  23.108  27.576  1.00  0.00    -0.272 OA
BRANCH  72  75
ATOM     75  C   UNL A   1      32.611  23.909  25.896  1.00  0.00     0.264 C 
ATOM     76  F   UNL A   1      33.686  24.468  26.529  1.00  0.00    -0.236 F 
BRANCH  75  77
ATOM     77  C   UNL A   1      32.960  22.519  25.325  1.00  0.00     0.082 C 
ATOM     78  C   UNL A   1      32.109  22.192  24.083  1.00  0.00     0.014 C 
ATOM     79  C   UNL A   1      34.417  22.392  24.938  1.00  0.00     0.050 A 
ATOM     80  C   UNL A   1      32.420  23.130  22.918  1.00  0.00     0.006 C 
ATOM     81  C   UNL A   1      34.859  22.800  23.675  1.00  0.00    -0.026 A 
ATOM     82  N   UNL A   1      35.254  21.879  25.873  1.00  0.00    -0.261 NA
ATOM     83  C   UNL A   1      33.910  23.181  22.570  1.00  0.00     0.037 C 
ATOM     84  C   UNL A   1      36.236  22.777  23.424  1.00  0.00     0.007 A 
ATOM     85  C   UNL A   1      36.573  21.825  25.575  1.00  0.00     0.111 A 
ATOM     86  C   UNL A   1      37.110  22.294  24.391  1.00  0.00     0.020 A 
ENDBRANCH  75  77
ENDBRANCH  72  75
ENDBRANCH  70  71
ENDBRANCH  69  70
ENDBRANCH  68  69
ENDBRANCH   1  68
TORSDOF 15
ENDMDL
MODEL 2
REMARK VINA RESULT:     -11.2      3.500      6.138
REMARK SMILES O=C(NCCCCNC(=O)[C@@H](F)[C@H]1CCCc2cccnc21)c1ccc(-c2c3nc(c(-c4ccc(S(=O)(=O)[O-])cc4)c4ccc([nH]4)c(-c4ccc(S(=O)(=O)[O-])cc4)c4nc(c(-c5ccc(S(=O)(=O)[O-])cc5)c5ccc2[nH]5)C=C4)C=C3)cc1
REMARK SMILES IDX 4 1 3 2 1 3 2 4 23 6 24 7 82 8 25 9 81 10 26 11 27 12 28 13
REMARK SMILES IDX 75 14 29 15 80 16 74 17 76 18 30 19 79 20 73 21 72 22 31 24
REMARK SMILES IDX 61 25 42 26 60 27 43 28 46 29 59 30 77 31 44 32 45 33 58 35
REMARK SMILES IDX 78 36 47 37 32 38 33 39 41 40 34 41 40 42 35 43 36 44 37 45
REMARK SMILES IDX 38 46 39 47 62 48 63 49 71 50 64 51 70 52 65 53 66 54 67 55
REMARK SMILES IDX 68 56 69 57 48 58 49 59 57 60 50 61 56 62 51 63 52 64 53 65
REMARK SMILES IDX 54 66 55 67 5 68 6 69 7 70 8 71 9 72 10 74 11 75 12 76 13 77
REMARK SMILES IDX 14 78 22 79 15 80 17 81 21 82 16 83 18 84 20 85 19 86
REMARK H PARENT 3 5 76 23 46 34 8 73
REMARK Flexibility Score: inf
ROOT
ATOM      1  C   UNL A   1      34.206  32.359  28.581  1.00  0.00     0.116 C 
ENDROOT
BRANCH   1   2
ATOM      2  N   UNL A   1      33.733  31.148  27.925  1.00  0.00    -0.352 N 
ATOM      3  O   UNL A   1      33.840  29.064  27.068  1.00  0.00    -0.269 OA
ATOM      4  C   UNL A   1      34.401  29.969  27.670  1.00  0.00     0.251 C 
ATOM      5  H   UNL A   1      32.798  31.175  27.617  1.00  0.00     0.163 HD
BRANCH   4   6
ATOM      6  C   UNL A   1      35.814  29.827  28.088  1.00  0.00     0.039 A 
ATOM      7  C   UNL A   1      36.854  30.070  27.188  1.00  0.00     0.014 A 
ATOM      8  C   UNL A   1      36.096  29.397  29.388  1.00  0.00     0.014 A 
ATOM      9  C   UNL A   1      38.156  29.716  27.529  1.00  0.00     0.010 A 
ATOM     10  C   UNL A   1      37.415  29.117  29.754  1.00  0.00     0.010 A 
ATOM     11  C   UNL A   1      38.451  29.225  28.812  1.00  0.00    -0.014 A 
BRANCH  11  12
ATOM     12  C   UNL A   1      39.847  28.849  29.155  1.00  0.00     0.031 A 
ATOM     13  C   UNL A   1      40.755  29.805  29.882  1.00  0.00     0.074 A 
ATOM     14  C   UNL A   1      40.293  27.622  28.820  1.00  0.00     0.049 A 
ATOM     15  N   UNL A   1      41.999  29.634  30.255  1.00  0.00    -0.248 NA
ATOM     16  C   UNL A   1      40.202  31.124  30.225  1.00  0.00     0.031 C 
ATOM     17  C   UNL A   1      39.513  26.610  28.105  1.00  0.00     0.029 A 
ATOM     18  N   UNL A   1      41.504  27.018  29.039  1.00  0.00    -0.354 N 
ATOM     19  C   UNL A   1      42.386  30.830  30.852  1.00  0.00     0.074 A 
ATOM     20  C   UNL A   1      41.249  31.722  30.777  1.00  0.00     0.031 C 
ATOM     21  C   UNL A   1      40.255  25.501  27.969  1.00  0.00     0.029 A 
ATOM     22  C   UNL A   1      41.577  25.742  28.536  1.00  0.00     0.049 A 
ATOM     23  H   UNL A   1      42.248  27.457  29.511  1.00  0.00     0.167 HD
ATOM     24  C   UNL A   1      43.577  31.152  31.412  1.00  0.00     0.031 A 
ATOM     25  C   UNL A   1      42.599  24.865  28.510  1.00  0.00     0.031 A 
ATOM     26  C   UNL A   1      44.704  30.259  31.493  1.00  0.00     0.049 A 
ATOM     27  C   UNL A   1      43.909  25.245  29.130  1.00  0.00     0.074 A 
ATOM     28  C   UNL A   1      45.938  30.479  32.082  1.00  0.00     0.029 A 
ATOM     29  N   UNL A   1      44.740  28.978  30.962  1.00  0.00    -0.354 N 
ATOM     30  N   UNL A   1      44.241  26.365  29.725  1.00  0.00    -0.248 NA
ATOM     31  C   UNL A   1      44.982  24.243  29.078  1.00  0.00     0.031 C 
ATOM     32  C   UNL A   1      46.734  29.349  31.867  1.00  0.00     0.029 A 
ATOM     33  C   UNL A   1      45.982  28.406  31.185  1.00  0.00     0.049 A 
ATOM     34  H   UNL A   1      43.992  28.540  30.495  1.00  0.00     0.167 HD
ATOM     35  C   UNL A   1      45.562  26.204  30.124  1.00  0.00     0.074 A 
ATOM     36  C   UNL A   1      45.961  24.870  29.719  1.00  0.00     0.031 C 
ATOM     37  C   UNL A   1      46.370  27.084  30.764  1.00  0.00     0.031 A 
BRANCH  24  38
ATOM     38  C   UNL A   1      43.735  32.550  31.954  1.00  0.00    -0.014 A 
ATOM     39  C   UNL A   1      43.356  32.873  33.268  1.00  0.00     0.010 A 
ATOM     40  C   UNL A   1      44.296  33.551  31.138  1.00  0.00     0.010 A 
ATOM     41  C   UNL A   1      43.488  34.182  33.742  1.00  0.00     0.020 A 
ATOM     42  C   UNL A   1      44.451  34.855  31.615  1.00  0.00     0.020 A 
ATOM     43  C   UNL A   1      44.025  35.168  32.907  1.00  0.00     0.054 A 
BRANCH  43  44
ATOM     44  S   UNL A   1      44.178  36.862  33.539  1.00  0.00     0.124 S 
ATOM     45  O   UNL A   1      43.869  37.653  32.351  1.00  0.00    -0.237 OA
ATOM     46  O   UNL A   1      43.175  36.905  34.600  1.00  0.00    -0.237 OA
ATOM     47  O   UNL A   1      45.565  36.937  33.995  1.00  0.00    -0.744 OA
ENDBRANCH  43  44
ENDBRANCH  24  38
BRANCH  25  48
ATOM     48  C   UNL A   1      42.401  23.551  27.844  1.00  0.00    -0.014 A 
ATOM     49  C   UNL A   1      42.862  23.333  26.536  1.00  0.00     0.010 A 
ATOM     50  C   UNL A   1      41.821  22.485  28.558  1.00  0.00     0.010 A 
ATOM     51  C   UNL A   1      42.756  22.066  25.955  1.00  0.00     0.020 A 
ATOM     52  C   UNL A   1      41.735  21.214  27.988  1.00  0.00     0.020 A 
ATOM     53  C   UNL A   1      42.201  21.012  26.688  1.00  0.00     0.054 A 
BRANCH  53  54
ATOM     54  S   UNL A   1      42.169  19.351  25.957  1.00  0.00     0.124 S 
ATOM     55  O   UNL A   1      42.743  18.540  27.024  1.00  0.00    -0.237 OA
ATOM     56  O   UNL A   1      40.746  19.143  25.699  1.00  0.00    -0.237 OA
ATOM     57  O   UNL A   1      42.994  19.492  24.759  1.00  0.00    -0.744 OA
ENDBRANCH  53  54
ENDBRANCH  25  48
BRANCH  37  58
ATOM     58  C   UNL A   1      47.769  26.629  31.073  1.00  0.00    -0.014 A 
ATOM     59  C   UNL A   1      48.826  26.892  30.184  1.00  0.00     0.010 A 
ATOM     60  C   UNL A   1      48.038  25.977  32.290  1.00  0.00     0.010 A 
ATOM     61  C   UNL A   1      50.126  26.488  30.496  1.00  0.00     0.020 A 
ATOM     62  C   UNL A   1      49.341  25.591  32.614  1.00  0.00     0.020 A 
ATOM     63  C   UNL A   1      50.376  25.838  31.709  1.00  0.00     0.054 A 
BRANCH  63  64
ATOM     64  S   UNL A   1      52.079  25.366  32.116  1.00  0.00     0.124 S 
ATOM     65  O   UNL A   1      52.333  26.153  33.320  1.00  0.00    -0.237 OA
ATOM     66  O   UNL A   1      51.976  23.923  32.319  1.00  0.00    -0.237 OA
ATOM     67  O   UNL A   1      52.840  25.769  30.936  1.00  0.00    -0.744 OA
ENDBRANCH  63  64
ENDBRANCH  37  58
ENDBRANCH  11  12
ENDBRANCH   4   6
ENDBRANCH   1   2
BRANCH   1  68
ATOM     68  C   UNL A   1      33.467  33.627  28.158  1.00  0.00     0.023 C 
BRANCH  68  69
ATOM     69  C   UNL A   1      34.146  34.956  28.488  1.00  0.00     0.023 C 
BRANCH  69  70
ATOM     70  C   UNL A   1      33.756  35.578  29.819  1.00  0.00     0.116 C 
BRANCH  70  71
ATOM     71  N   UNL A   1      33.375  34.636  30.848  1.00  0.00    -0.354 N 
ATOM     72  C   UNL A   1      34.115  34.267  31.937  1.00  0.00     0.255 C 
ATOM     73  H   UNL A   1      32.490  34.217  30.754  1.00  0.00     0.163 HD
ATOM     74  O   UNL A   1      33.534  33.703  32.871  1.00  0.00    -0.272 OA
BRANCH  72  75
ATOM     75  C   UNL A   1      35.628  34.500  31.998  1.00  0.00     0.264 C 
ATOM     76  F   UNL A   1      36.029  35.109  33.154  1.00  0.00    -0.236 F 
BRANCH  75  77
ATOM     77  C   UNL A   1      36.502  33.268  31.684  1.00  0.00     0.082 C 
ATOM     78  C   UNL A   1      37.241  33.431  30.342  1.00  0.00     0.014 C 
ATOM     79  C   UNL A   1      37.533  32.991  32.754  1.00  0.00     0.050 A 
ATOM     80  C   UNL A   1      38.258  34.569  30.388  1.00  0.00     0.006 C 
ATOM     81  C   UNL A   1      38.777  33.629  32.729  1.00  0.00    -0.026 A 
ATOM     82  N   UNL A   1      37.184  32.113  33.726  1.00  0.00    -0.261 NA
ATOM     83  C   UNL A   1      39.244  34.446  31.553  1.00  0.00     0.037 C 
ATOM     84  C   UNL A   1      39.638  33.429  33.815  1.00  0.00     0.007 A 
ATOM     85  C   UNL A   1      38.064  31.907  34.734  1.00  0.00     0.111 A 
ATOM     86  C   UNL A   1      39.274  32.565  34.840  1.00  0.00     0.020 A 
ENDBRANCH  75  77
ENDBRANCH  72  75
ENDBRANCH  70  71
ENDBRANCH  69  70
ENDBRANCH  68  69
ENDBRANCH   1  68
TORSDOF 15
ENDMDL
MODEL 3
REMARK VINA RESULT:     -11.0      1.264      1.806
REMARK SMILES O=C(NCCCCNC(=O)[C@@H](F)[C@H]1CCCc2cccnc21)c1ccc(-c2c3nc(c(-c4ccc(S(=O)(=O)[O-])cc4)c4ccc([nH]4)c(-c4ccc(S(=O)(=O)[O-])cc4)c4nc(c(-c5ccc(S(=O)(=O)[O-])cc5)c5ccc2[nH]5)C=C4)C=C3)cc1
REMARK SMILES IDX 4 1 3 2 1 3 2 4 23 6 24 7 82 8 25 9 81 10 26 11 27 12 28 13
REMARK SMILES IDX 75 14 29 15 80 16 74 17 76 18 30 19 79 20 73 21 72 22 31 24
REMARK SMILES IDX 61 25 42 26 60 27 43 28 46 29 59 30 77 31 44 32 45 33 58 35
REMARK SMILES IDX 78 36 47 37 32 38 33 39 41 40 34 41 40 42 35 43 36 44 37 45
REMARK SMILES IDX 38 46 39 47 62 48 63 49 71 50 64 51 70 52 65 53 66 54 67 55
REMARK SMILES IDX 68 56 69 57 48 58 49 59 57 60 50 61 56 62 51 63 52 64 53 65
REMARK SMILES IDX 54 66 55 67 5 68 6 69 7 70 8 71 9 72 10 74 11 75 12 76 13 77
REMARK SMILES IDX 14 78 22 79 15 80 17 81 21 82 16 83 18 84 20 85 19 86
REMARK H PARENT 3 5 76 23 46 34 8 73
REMARK Flexibility Score: inf
ROOT
ATOM      1  C   UNL A   1      33.287  28.430  27.182  1.00  0.00     0.116 C 
ENDROOT
BRANCH   1   2
ATOM      2  N   UNL A   1      33.247  29.849  27.507  1.00  0.00    -0.352 N 
ATOM      3  O   UNL A   1      34.007  31.842  28.241  1.00  0.00    -0.269 OA
ATOM      4  C   UNL A   1      34.244  30.668  27.992  1.00  0.00     0.251 C 
ATOM      5  H   UNL A   1      32.378  30.288  27.360  1.00  0.00     0.163 HD
BRANCH   4   6
ATOM      6  C   UNL A   1      35.587  30.104  28.253  1.00  0.00     0.039 A 
ATOM      7  C   UNL A   1      35.921  29.608  29.515  1.00  0.00     0.014 A 
ATOM      8  C   UNL A   1      36.539  30.120  27.230  1.00  0.00     0.014 A 
ATOM      9  C   UNL A   1      37.246  29.292  29.802  1.00  0.00     0.010 A 
ATOM     10  C   UNL A   1      37.853  29.728  27.500  1.00  0.00     0.010 A 
ATOM     11  C   UNL A   1      38.230  29.360  28.801  1.00  0.00    -0.014 A 
BRANCH  11  12
ATOM     12  C   UNL A   1      39.640  29.024  29.130  1.00  0.00     0.031 A 
ATOM     13  C   UNL A   1      40.533  30.014  29.831  1.00  0.00     0.074 A 
ATOM     14  C   UNL A   1      40.113  27.804  28.807  1.00  0.00     0.049 A 
ATOM     15  N   UNL A   1      41.785  29.880  30.190  1.00  0.00    -0.248 NA
ATOM     16  C   UNL A   1      39.951  31.323  30.163  1.00  0.00     0.031 C 
ATOM     17  C   UNL A   1      39.350  26.762  28.117  1.00  0.00     0.029 A 
ATOM     18  N   UNL A   1      41.342  27.234  29.019  1.00  0.00    -0.354 N 
ATOM     19  C   UNL A   1      42.149  31.094  30.765  1.00  0.00     0.074 A 
ATOM     20  C   UNL A   1      40.989  31.956  30.691  1.00  0.00     0.031 C 
ATOM     21  C   UNL A   1      40.118  25.671  27.987  1.00  0.00     0.029 A 
ATOM     22  C   UNL A   1      41.441  25.953  28.534  1.00  0.00     0.049 A 
ATOM     23  H   UNL A   1      42.080  27.698  29.475  1.00  0.00     0.167 HD
ATOM     24  C   UNL A   1      43.339  31.454  31.304  1.00  0.00     0.031 A 
ATOM     25  C   UNL A   1      42.484  25.102  28.506  1.00  0.00     0.031 A 
ATOM     26  C   UNL A   1      44.490  30.591  31.382  1.00  0.00     0.049 A 
ATOM     27  C   UNL A   1      43.792  25.524  29.104  1.00  0.00     0.074 A 
ATOM     28  C   UNL A   1      45.725  30.851  31.952  1.00  0.00     0.029 A 
ATOM     29  N   UNL A   1      44.551  29.303  30.870  1.00  0.00    -0.354 N 
ATOM     30  N   UNL A   1      44.103  26.660  29.678  1.00  0.00    -0.248 NA
ATOM     31  C   UNL A   1      44.890  24.549  29.051  1.00  0.00     0.031 C 
ATOM     32  C   UNL A   1      46.546  29.738  31.742  1.00  0.00     0.029 A 
ATOM     33  C   UNL A   1      45.810  28.767  31.085  1.00  0.00     0.049 A 
ATOM     34  H   UNL A   1      43.809  28.840  30.419  1.00  0.00     0.167 HD
ATOM     35  C   UNL A   1      45.432  26.539  30.062  1.00  0.00     0.074 A 
ATOM     36  C   UNL A   1      45.860  25.210  29.671  1.00  0.00     0.031 C 
ATOM     37  C   UNL A   1      46.226  27.449  30.677  1.00  0.00     0.031 A 
BRANCH  24  38
ATOM     38  C   UNL A   1      43.468  32.863  31.823  1.00  0.00    -0.014 A 
ATOM     39  C   UNL A   1      43.841  33.924  30.979  1.00  0.00     0.010 A 
ATOM     40  C   UNL A   1      43.186  33.133  33.175  1.00  0.00     0.010 A 
ATOM     41  C   UNL A   1      43.979  35.219  31.487  1.00  0.00     0.020 A 
ATOM     42  C   UNL A   1      43.300  34.430  33.682  1.00  0.00     0.020 A 
ATOM     43  C   UNL A   1      43.718  35.462  32.840  1.00  0.00     0.054 A 
BRANCH  43  44
ATOM     44  S   UNL A   1      43.912  37.148  33.480  1.00  0.00     0.124 S 
ATOM     45  O   UNL A   1      42.672  37.326  34.233  1.00  0.00    -0.237 OA
ATOM     46  O   UNL A   1      45.126  37.051  34.287  1.00  0.00    -0.237 OA
ATOM     47  O   UNL A   1      44.032  37.965  32.275  1.00  0.00    -0.744 OA
ENDBRANCH  43  44
ENDBRANCH  24  38
BRANCH  25  48
ATOM     48  C   UNL A   1      42.311  23.773  27.862  1.00  0.00    -0.014 A 
ATOM     49  C   UNL A   1      42.764  23.547  26.553  1.00  0.00     0.010 A 
ATOM     50  C   UNL A   1      41.764  22.705  28.598  1.00  0.00     0.010 A 
ATOM     51  C   UNL A   1      42.683  22.269  25.992  1.00  0.00     0.020 A 
ATOM     52  C   UNL A   1      41.703  21.423  28.048  1.00  0.00     0.020 A 
ATOM     53  C   UNL A   1      42.160  21.213  26.747  1.00  0.00     0.054 A 
BRANCH  53  54
ATOM     54  S   UNL A   1      42.161  19.541  26.040  1.00  0.00     0.124 S 
ATOM     55  O   UNL A   1      43.047  19.698  24.892  1.00  0.00    -0.237 OA
ATOM     56  O   UNL A   1      42.683  18.731  27.138  1.00  0.00    -0.237 OA
ATOM     57  O   UNL A   1      40.754  19.307  25.722  1.00  0.00    -0.744 OA
ENDBRANCH  53  54
ENDBRANCH  25  48
BRANCH  37  58
ATOM     58  C   UNL A   1      47.640  27.034  30.975  1.00  0.00    -0.014 A 
ATOM     59  C   UNL A   1      47.944  26.278  32.121  1.00  0.00     0.010 A 
ATOM     60  C   UNL A   1      48.668  27.361  30.073  1.00  0.00     0.010 A 
ATOM     61  C   UNL A   1      49.258  25.875  32.372  1.00  0.00     0.020 A 
ATOM     62  C   UNL A   1      49.980  26.941  30.310  1.00  0.00     0.020 A 
ATOM     63  C   UNL A   1      50.269  26.212  31.465  1.00  0.00     0.054 A 
BRANCH  63  64
ATOM     64  S   UNL A   1      51.959  25.638  31.786  1.00  0.00     0.124 S 
ATOM     65  O   UNL A   1      52.357  26.481  32.911  1.00  0.00    -0.237 OA
ATOM     66  O   UNL A   1      51.768  24.224  32.098  1.00  0.00    -0.237 OA
ATOM     67  O   UNL A   1      52.657  25.903  30.530  1.00  0.00    -0.744 OA
ENDBRANCH  63  64
ENDBRANCH  37  58
ENDBRANCH  11  12
ENDBRANCH   4   6
ENDBRANCH   1   2
BRANCH   1  68
ATOM     68  C   UNL A   1      32.014  27.904  26.524  1.00  0.00     0.023 C 
BRANCH  68  69
ATOM     69  C   UNL A   1      31.809  28.258  25.051  1.00  0.00     0.023 C 
BRANCH  69  70
ATOM     70  C   UNL A   1      31.623  27.075  24.114  1.00  0.00     0.116 C 
BRANCH  70  71
ATOM     71  N   UNL A   1      32.600  26.973  23.053  1.00  0.00    -0.354 N 
ATOM     72  C   UNL A   1      33.263  25.846  22.654  1.00  0.00     0.255 C 
ATOM     73  H   UNL A   1      32.809  27.803  22.567  1.00  0.00     0.163 HD
ATOM     74  O   UNL A   1      33.819  25.859  21.550  1.00  0.00    -0.272 OA
BRANCH  72  75
ATOM     75  C   UNL A   1      33.358  24.609  23.552  1.00  0.00     0.264 C 
ATOM     76  F   UNL A   1      33.421  23.440  22.846  1.00  0.00    -0.236 F 
BRANCH  75  77
ATOM     77  C   UNL A   1      34.451  24.663  24.640  1.00  0.00     0.082 C 
ATOM     78  C   UNL A   1      33.849  24.965  26.026  1.00  0.00     0.014 C 
ATOM     79  C   UNL A   1      35.240  23.377  24.745  1.00  0.00     0.050 A 
ATOM     80  C   UNL A   1      32.939  23.838  26.508  1.00  0.00     0.006 C 
ATOM     81  C   UNL A   1      34.782  22.322  25.540  1.00  0.00    -0.026 A 
ATOM     82  N   UNL A   1      36.388  23.306  24.028  1.00  0.00    -0.261 NA
ATOM     83  C   UNL A   1      33.621  22.467  26.488  1.00  0.00     0.037 C 
ATOM     84  C   UNL A   1      35.488  21.113  25.495  1.00  0.00     0.007 A 
ATOM     85  C   UNL A   1      37.071  22.137  24.049  1.00  0.00     0.111 A 
ATOM     86  C   UNL A   1      36.644  21.013  24.730  1.00  0.00     0.020 A 
ENDBRANCH  75  77
ENDBRANCH  72  75
ENDBRANCH  70  71
ENDBRANCH  69  70
ENDBRANCH  68  69
ENDBRANCH   1  68
TORSDOF 15
ENDMDL
