MODEL 1
REMARK VINA RESULT:     -10.8      0.000      0.000
REMARK SMILES C[C@@H](Nc1cccc(C(=O)NCCCCNC(=O)c2ccc(-c3c4nc(c(-c5ccc(S(=O)(=O)[O-])cc5)c5ccc([nH]5)c(-c5ccc(S(=O)(=O)[O-])cc5)c5nc(c(-c6ccc(S(=O)(=O)[O-])cc6)c6ccc3[nH]6)C=C5)C=C4)cc2)c1)C1CC[NH+](C)CC1
REMARK SMILES IDX 13 1 12 2 11 3 9 4 10 5 8 7 4 8 5 9 79 10 6 11 7 12 3 13
REMARK SMILES IDX 2 15 1 16 80 17 81 18 86 19 82 20 85 21 83 22 84 23 14 25
REMARK SMILES IDX 15 26 16 27 17 28 18 30 19 31 20 32 78 33 21 34 77 35 22 36
REMARK SMILES IDX 23 37 24 38 71 39 25 40 76 41 70 42 72 43 26 44 75 45 69 46
REMARK SMILES IDX 68 47 27 49 57 50 38 51 56 52 39 53 42 54 55 55 73 56 40 57
REMARK SMILES IDX 41 58 54 60 74 61 43 62 28 63 29 64 37 65 30 66 36 67 31 68
REMARK SMILES IDX 32 69 33 70 34 71 35 72 58 73 59 74 67 75 60 76 66 77 61 78
REMARK SMILES IDX 62 79 63 80 64 81 65 82 44 83 45 84 53 85 46 86 52 87 47 88
REMARK SMILES IDX 48 89 49 90 50 91 51 92
REMARK H PARENT 11 6 3 14 83 24 16 29 72 48 42 59
REMARK Flexibility Score: inf
ROOT
ATOM      1  C   UNL A   1      34.617  31.159  27.912  1.00  0.00     0.023 C 
ENDROOT
BRANCH   1   2
ATOM      2  C   UNL A   1      34.302  29.866  27.155  1.00  0.00     0.116 C 
BRANCH   2   3
ATOM      3  N   UNL A   1      33.131  29.195  27.695  1.00  0.00    -0.352 N 
ATOM      4  C   UNL A   1      32.290  28.210  27.241  1.00  0.00     0.251 C 
ATOM      5  O   UNL A   1      31.398  27.817  27.995  1.00  0.00    -0.269 OA
ATOM      6  H   UNL A   1      32.886  29.521  28.591  1.00  0.00     0.163 HD
BRANCH   4   7
ATOM      7  C   UNL A   1      32.434  27.486  25.963  1.00  0.00     0.041 A 
ATOM      8  C   UNL A   1      33.633  25.358  23.942  1.00  0.00     0.035 A 
ATOM      9  C   UNL A   1      32.755  26.175  22.564  1.00  0.00     0.026 A 
ATOM     10  C   UNL A   1      33.616  26.116  25.617  1.00  0.00     0.039 A 
ATOM     11  C   UNL A   1      31.693  27.623  22.896  1.00  0.00     0.003 A 
ATOM     12  C   UNL A   1      31.492  28.220  24.602  1.00  0.00     0.014 A 
BRANCH   8  13
ATOM     13  N   UNL A   1      33.806  23.968  23.777  1.00  0.00    -0.382 N 
ATOM     14  H   UNL A   1      33.220  23.505  23.135  1.00  0.00     0.160 HD
BRANCH  13  15
ATOM     15  C   UNL A   1      34.828  23.142  24.517  1.00  0.00     0.079 C 
ATOM     16  C   UNL A   1      36.134  23.162  23.698  1.00  0.00     0.031 C 
BRANCH  15  17
ATOM     17  C   UNL A   1      34.654  21.663  25.031  1.00  0.00     0.022 C 
ATOM     18  C   UNL A   1      33.486  20.816  24.566  1.00  0.00     0.067 C 
ATOM     19  C   UNL A   1      34.633  21.449  26.510  1.00  0.00     0.067 C 
ATOM     20  C   UNL A   1      32.151  21.103  25.279  1.00  0.00     0.262 C 
ATOM     21  C   UNL A   1      33.441  22.193  27.048  1.00  0.00     0.262 C 
ATOM     22  N   UNL A   1      32.055  22.383  26.217  1.00  0.00    -0.337 N 
ATOM     23  C   UNL A   1      30.725  23.991  26.226  1.00  0.00     0.332 C 
ATOM     24  H   UNL A   1      31.185  22.860  26.454  1.00  0.00     0.347 HD
ENDBRANCH  15  17
ENDBRANCH  13  15
ENDBRANCH   8  13
ENDBRANCH   4   7
ENDBRANCH   2   3
ENDBRANCH   1   2
BRANCH   1  25
ATOM     25  C   UNL A   1      33.456  32.146  27.885  1.00  0.00     0.023 C 
BRANCH  25  26
ATOM     26  C   UNL A   1      33.917  33.570  27.625  1.00  0.00     0.116 C 
BRANCH  26  27
ATOM     27  N   UNL A   1      33.064  34.579  28.242  1.00  0.00    -0.352 N 
ATOM     28  C   UNL A   1      33.175  35.072  29.525  1.00  0.00     0.251 C 
ATOM     29  H   UNL A   1      32.337  34.945  27.687  1.00  0.00     0.163 HD
ATOM     30  O   UNL A   1      32.350  35.852  29.985  1.00  0.00    -0.269 OA
BRANCH  28  31
ATOM     31  C   UNL A   1      34.301  34.581  30.345  1.00  0.00     0.039 A 
ATOM     32  C   UNL A   1      34.053  33.657  31.360  1.00  0.00     0.014 A 
ATOM     33  C   UNL A   1      35.609  34.916  29.985  1.00  0.00     0.014 A 
ATOM     34  C   UNL A   1      35.130  33.014  31.973  1.00  0.00     0.010 A 
ATOM     35  C   UNL A   1      36.669  34.200  30.524  1.00  0.00     0.010 A 
ATOM     36  C   UNL A   1      36.445  33.251  31.533  1.00  0.00    -0.014 A 
BRANCH  36  37
ATOM     37  C   UNL A   1      37.602  32.542  32.139  1.00  0.00     0.031 A 
ATOM     38  C   UNL A   1      38.153  33.018  33.459  1.00  0.00     0.074 A 
ATOM     39  C   UNL A   1      38.185  31.511  31.492  1.00  0.00     0.049 A 
ATOM     40  N   UNL A   1      39.175  32.565  34.137  1.00  0.00    -0.248 NA
ATOM     41  C   UNL A   1      37.485  34.172  34.085  1.00  0.00     0.031 C 
ATOM     42  C   UNL A   1      37.776  30.984  30.188  1.00  0.00     0.029 A 
ATOM     43  N   UNL A   1      39.248  30.718  31.848  1.00  0.00    -0.354 N 
ATOM     44  C   UNL A   1      39.278  33.383  35.255  1.00  0.00     0.074 A 
ATOM     45  C   UNL A   1      38.263  34.403  35.131  1.00  0.00     0.031 C 
ATOM     46  C   UNL A   1      38.550  29.932  29.874  1.00  0.00     0.029 A 
ATOM     47  C   UNL A   1      39.540  29.735  30.929  1.00  0.00     0.049 A 
ATOM     48  H   UNL A   1      39.755  30.841  32.682  1.00  0.00     0.167 HD
ATOM     49  C   UNL A   1      40.119  33.279  36.310  1.00  0.00     0.031 A 
ATOM     50  C   UNL A   1      40.496  28.784  30.936  1.00  0.00     0.031 A 
ATOM     51  C   UNL A   1      41.116  32.252  36.441  1.00  0.00     0.049 A 
ATOM     52  C   UNL A   1      41.432  28.701  32.114  1.00  0.00     0.074 A 
ATOM     53  C   UNL A   1      41.985  32.029  37.494  1.00  0.00     0.029 A 
ATOM     54  N   UNL A   1      41.374  31.276  35.492  1.00  0.00    -0.354 N 
ATOM     55  N   UNL A   1      41.468  29.445  33.195  1.00  0.00    -0.248 NA
ATOM     56  C   UNL A   1      42.447  27.639  32.082  1.00  0.00     0.031 C 
ATOM     57  C   UNL A   1      42.810  30.953  37.154  1.00  0.00     0.029 A 
ATOM     58  C   UNL A   1      42.406  30.461  35.924  1.00  0.00     0.049 A 
ATOM     59  H   UNL A   1      40.896  31.177  34.637  1.00  0.00     0.167 HD
ATOM     60  C   UNL A   1      42.483  28.916  33.985  1.00  0.00     0.074 A 
ATOM     61  C   UNL A   1      43.024  27.782  33.266  1.00  0.00     0.031 C 
ATOM     62  C   UNL A   1      42.924  29.328  35.199  1.00  0.00     0.031 A 
BRANCH  49  63
ATOM     63  C   UNL A   1      39.989  34.301  37.410  1.00  0.00    -0.014 A 
ATOM     64  C   UNL A   1      40.741  35.490  37.388  1.00  0.00     0.010 A 
ATOM     65  C   UNL A   1      39.072  34.092  38.455  1.00  0.00     0.010 A 
ATOM     66  C   UNL A   1      40.604  36.434  38.409  1.00  0.00     0.020 A 
ATOM     67  C   UNL A   1      38.907  35.048  39.461  1.00  0.00     0.020 A 
ATOM     68  C   UNL A   1      39.686  36.208  39.438  1.00  0.00     0.054 A 
BRANCH  68  69
ATOM     69  S   UNL A   1      39.501  37.471  40.726  1.00  0.00     0.124 S 
ATOM     70  O   UNL A   1      40.849  38.029  40.795  1.00  0.00    -0.237 OA
ATOM     71  O   UNL A   1      38.482  38.353  40.162  1.00  0.00    -0.237 OA
ATOM     72  O   UNL A   1      39.080  36.710  41.900  1.00  0.00    -0.744 OA
ENDBRANCH  68  69
ENDBRANCH  49  63
BRANCH  50  73
ATOM     73  C   UNL A   1      40.613  27.824  29.803  1.00  0.00    -0.014 A 
ATOM     74  C   UNL A   1      41.581  28.012  28.800  1.00  0.00     0.010 A 
ATOM     75  C   UNL A   1      39.742  26.723  29.706  1.00  0.00     0.010 A 
ATOM     76  C   UNL A   1      41.654  27.140  27.708  1.00  0.00     0.020 A 
ATOM     77  C   UNL A   1      39.833  25.829  28.635  1.00  0.00     0.020 A 
ATOM     78  C   UNL A   1      40.778  26.053  27.633  1.00  0.00     0.054 A 
BRANCH  78  79
ATOM     79  S   UNL A   1      40.907  24.920  26.221  1.00  0.00     0.124 S 
ATOM     80  O   UNL A   1      39.547  24.396  26.127  1.00  0.00    -0.237 OA
ATOM     81  O   UNL A   1      41.317  25.812  25.140  1.00  0.00    -0.237 OA
ATOM     82  O   UNL A   1      41.922  23.959  26.646  1.00  0.00    -0.744 OA
ENDBRANCH  78  79
ENDBRANCH  50  73
BRANCH  62  83
ATOM     83  C   UNL A   1      44.012  28.520  35.858  1.00  0.00    -0.014 A 
ATOM     84  C   UNL A   1      45.370  28.842  35.695  1.00  0.00     0.010 A 
ATOM     85  C   UNL A   1      43.656  27.454  36.707  1.00  0.00     0.010 A 
ATOM     86  C   UNL A   1      46.356  28.089  36.339  1.00  0.00     0.020 A 
ATOM     87  C   UNL A   1      44.637  26.722  37.380  1.00  0.00     0.020 A 
ATOM     88  C   UNL A   1      45.981  27.034  37.179  1.00  0.00     0.054 A 
BRANCH  88  89
ATOM     89  S   UNL A   1      47.278  26.102  38.038  1.00  0.00     0.124 S 
ATOM     90  O   UNL A   1      46.527  25.452  39.108  1.00  0.00    -0.237 OA
ATOM     91  O   UNL A   1      47.779  25.214  36.991  1.00  0.00    -0.237 OA
ATOM     92  O   UNL A   1      48.218  27.134  38.473  1.00  0.00    -0.744 OA
ENDBRANCH  88  89
ENDBRANCH  62  83
ENDBRANCH  36  37
ENDBRANCH  28  31
ENDBRANCH  26  27
ENDBRANCH  25  26
ENDBRANCH   1  25
TORSDOF 17
ENDMDL
MODEL 2
REMARK VINA RESULT:     -10.5      6.671     11.002
REMARK SMILES C[C@@H](Nc1cccc(C(=O)NCCCCNC(=O)c2ccc(-c3c4nc(c(-c5ccc(S(=O)(=O)[O-])cc5)c5ccc([nH]5)c(-c5ccc(S(=O)(=O)[O-])cc5)c5nc(c(-c6ccc(S(=O)(=O)[O-])cc6)c6ccc3[nH]6)C=C5)C=C4)cc2)c1)C1CC[NH+](C)CC1
REMARK SMILES IDX 13 1 12 2 11 3 9 4 10 5 8 7 4 8 5 9 79 10 6 11 7 12 3 13
REMARK SMILES IDX 2 15 1 16 80 17 81 18 86 19 82 20 85 21 83 22 84 23 14 25
REMARK SMILES IDX 15 26 16 27 17 28 18 30 19 31 20 32 78 33 21 34 77 35 22 36
REMARK SMILES IDX 23 37 24 38 71 39 25 40 76 41 70 42 72 43 26 44 75 45 69 46
REMARK SMILES IDX 68 47 27 49 57 50 38 51 56 52 39 53 42 54 55 55 73 56 40 57
REMARK SMILES IDX 41 58 54 60 74 61 43 62 28 63 29 64 37 65 30 66 36 67 31 68
REMARK SMILES IDX 32 69 33 70 34 71 35 72 58 73 59 74 67 75 60 76 66 77 61 78
REMARK SMILES IDX 62 79 63 80 64 81 65 82 44 83 45 84 53 85 46 86 52 87 47 88
REMARK SMILES IDX 48 89 49 90 50 91 51 92
REMARK H PARENT 11 6 3 14 83 24 16 29 72 48 42 59
REMARK Flexibility Score: inf
ROOT
ATOM      1  C   UNL A   1      39.188  23.117  26.438  1.00  0.00     0.023 C 
ENDROOT
BRANCH   1   2
ATOM      2  C   UNL A   1      37.827  23.697  26.044  1.00  0.00     0.116 C 
BRANCH   2   3
ATOM      3  N   UNL A   1      37.505  23.422  24.654  1.00  0.00    -0.352 N 
ATOM      4  C   UNL A   1      36.338  23.295  23.942  1.00  0.00     0.251 C 
ATOM      5  O   UNL A   1      36.417  23.111  22.726  1.00  0.00    -0.269 OA
ATOM      6  H   UNL A   1      38.306  23.300  24.095  1.00  0.00     0.163 HD
BRANCH   4   7
ATOM      7  C   UNL A   1      34.980  23.482  24.488  1.00  0.00     0.041 A 
ATOM      8  C   UNL A   1      32.662  24.930  26.096  1.00  0.00     0.035 A 
ATOM      9  C   UNL A   1      31.636  23.424  25.969  1.00  0.00     0.026 A 
ATOM     10  C   UNL A   1      34.404  24.903  25.509  1.00  0.00     0.039 A 
ATOM     11  C   UNL A   1      32.272  21.965  25.074  1.00  0.00     0.003 A 
ATOM     12  C   UNL A   1      33.909  22.035  24.286  1.00  0.00     0.014 A 
BRANCH   8  13
ATOM     13  N   UNL A   1      31.926  26.133  26.128  1.00  0.00    -0.382 N 
ATOM     14  H   UNL A   1      30.987  26.105  25.832  1.00  0.00     0.160 HD
BRANCH  13  15
ATOM     15  C   UNL A   1      32.479  27.459  26.585  1.00  0.00     0.079 C 
ATOM     16  C   UNL A   1      31.503  28.046  27.624  1.00  0.00     0.031 C 
BRANCH  15  17
ATOM     17  C   UNL A   1      32.924  28.663  25.670  1.00  0.00     0.022 C 
ATOM     18  C   UNL A   1      31.983  29.822  25.409  1.00  0.00     0.067 C 
ATOM     19  C   UNL A   1      33.414  28.336  24.296  1.00  0.00     0.067 C 
ATOM     20  C   UNL A   1      30.903  29.557  24.344  1.00  0.00     0.262 C 
ATOM     21  C   UNL A   1      32.273  27.687  23.562  1.00  0.00     0.262 C 
ATOM     22  N   UNL A   1      30.711  28.069  23.817  1.00  0.00    -0.337 N 
ATOM     23  C   UNL A   1      29.025  26.844  23.727  1.00  0.00     0.332 C 
ATOM     24  H   UNL A   1      29.852  27.711  23.401  1.00  0.00     0.347 HD
ENDBRANCH  15  17
ENDBRANCH  13  15
ENDBRANCH   8  13
ENDBRANCH   4   7
ENDBRANCH   2   3
ENDBRANCH   1   2
BRANCH   1  25
ATOM     25  C   UNL A   1      39.365  21.678  25.967  1.00  0.00     0.023 C 
BRANCH  25  26
ATOM     26  C   UNL A   1      40.139  20.837  26.968  1.00  0.00     0.116 C 
BRANCH  26  27
ATOM     27  N   UNL A   1      40.853  19.720  26.360  1.00  0.00    -0.352 N 
ATOM     28  C   UNL A   1      42.155  19.731  25.904  1.00  0.00     0.251 C 
ATOM     29  H   UNL A   1      40.356  18.875  26.266  1.00  0.00     0.163 HD
ATOM     30  O   UNL A   1      42.637  18.767  25.321  1.00  0.00    -0.269 OA
BRANCH  28  31
ATOM     31  C   UNL A   1      42.932  20.972  26.101  1.00  0.00     0.039 A 
ATOM     32  C   UNL A   1      43.182  21.800  25.007  1.00  0.00     0.014 A 
ATOM     33  C   UNL A   1      43.256  21.380  27.397  1.00  0.00     0.014 A 
ATOM     34  C   UNL A   1      43.701  23.077  25.225  1.00  0.00     0.010 A 
ATOM     35  C   UNL A   1      43.673  22.686  27.616  1.00  0.00     0.010 A 
ATOM     36  C   UNL A   1      43.914  23.546  26.534  1.00  0.00    -0.014 A 
BRANCH  36  37
ATOM     37  C   UNL A   1      44.420  24.919  26.790  1.00  0.00     0.031 A 
ATOM     38  C   UNL A   1      43.464  25.985  27.260  1.00  0.00     0.074 A 
ATOM     39  C   UNL A   1      45.716  25.221  26.561  1.00  0.00     0.049 A 
ATOM     40  N   UNL A   1      43.694  27.249  27.504  1.00  0.00    -0.248 NA
ATOM     41  C   UNL A   1      42.059  25.585  27.452  1.00  0.00     0.031 C 
ATOM     42  C   UNL A   1      46.732  24.291  26.063  1.00  0.00     0.029 A 
ATOM     43  N   UNL A   1      46.401  26.401  26.721  1.00  0.00    -0.354 N 
ATOM     44  C   UNL A   1      42.467  27.793  27.864  1.00  0.00     0.074 A 
ATOM     45  C   UNL A   1      41.483  26.743  27.737  1.00  0.00     0.031 C 
ATOM     46  C   UNL A   1      47.915  24.923  25.997  1.00  0.00     0.029 A 
ATOM     47  C   UNL A   1      47.738  26.313  26.405  1.00  0.00     0.049 A 
ATOM     48  H   UNL A   1      45.975  27.231  27.032  1.00  0.00     0.167 HD
ATOM     49  C   UNL A   1      42.185  29.044  28.294  1.00  0.00     0.031 A 
ATOM     50  C   UNL A   1      48.709  27.248  26.439  1.00  0.00     0.031 A 
ATOM     51  C   UNL A   1      43.169  30.082  28.437  1.00  0.00     0.049 A 
ATOM     52  C   UNL A   1      48.366  28.640  26.904  1.00  0.00     0.074 A 
ATOM     53  C   UNL A   1      42.995  31.370  28.912  1.00  0.00     0.029 A 
ATOM     54  N   UNL A   1      44.509  29.950  28.111  1.00  0.00    -0.354 N 
ATOM     55  N   UNL A   1      47.209  29.115  27.305  1.00  0.00    -0.248 NA
ATOM     56  C   UNL A   1      49.461  29.618  26.937  1.00  0.00     0.031 C 
ATOM     57  C   UNL A   1      44.220  32.036  28.817  1.00  0.00     0.029 A 
ATOM     58  C   UNL A   1      45.171  31.142  28.353  1.00  0.00     0.049 A 
ATOM     59  H   UNL A   1      44.929  29.132  27.760  1.00  0.00     0.167 HD
ATOM     60  C   UNL A   1      47.450  30.435  27.673  1.00  0.00     0.074 A 
ATOM     61  C   UNL A   1      48.861  30.677  27.461  1.00  0.00     0.031 C 
ATOM     62  C   UNL A   1      46.580  31.362  28.147  1.00  0.00     0.031 A 
BRANCH  49  63
ATOM     63  C   UNL A   1      40.754  29.355  28.647  1.00  0.00    -0.014 A 
ATOM     64  C   UNL A   1      39.753  29.388  27.659  1.00  0.00     0.010 A 
ATOM     65  C   UNL A   1      40.396  29.574  29.989  1.00  0.00     0.010 A 
ATOM     66  C   UNL A   1      38.428  29.668  28.001  1.00  0.00     0.020 A 
ATOM     67  C   UNL A   1      39.066  29.822  30.341  1.00  0.00     0.020 A 
ATOM     68  C   UNL A   1      38.093  29.881  29.341  1.00  0.00     0.054 A 
BRANCH  68  69
ATOM     69  S   UNL A   1      36.357  30.201  29.758  1.00  0.00     0.124 S 
ATOM     70  O   UNL A   1      36.191  29.412  30.977  1.00  0.00    -0.237 OA
ATOM     71  O   UNL A   1      36.336  31.650  29.939  1.00  0.00    -0.237 OA
ATOM     72  O   UNL A   1      35.623  29.710  28.594  1.00  0.00    -0.744 OA
ENDBRANCH  68  69
ENDBRANCH  49  63
BRANCH  50  73
ATOM     73  C   UNL A   1      50.102  26.903  26.037  1.00  0.00    -0.014 A 
ATOM     74  C   UNL A   1      51.043  26.483  26.995  1.00  0.00     0.010 A 
ATOM     75  C   UNL A   1      50.505  27.012  24.693  1.00  0.00     0.010 A 
ATOM     76  C   UNL A   1      52.365  26.212  26.624  1.00  0.00     0.020 A 
ATOM     77  C   UNL A   1      51.816  26.709  24.312  1.00  0.00     0.020 A 
ATOM     78  C   UNL A   1      52.742  26.328  25.283  1.00  0.00     0.054 A 
BRANCH  78  79
ATOM     79  S   UNL A   1      54.455  25.947  24.820  1.00  0.00     0.124 S 
ATOM     80  O   UNL A   1      54.501  24.498  24.992  1.00  0.00    -0.237 OA
ATOM     81  O   UNL A   1      54.520  26.423  23.441  1.00  0.00    -0.237 OA
ATOM     82  O   UNL A   1      55.246  26.718  25.776  1.00  0.00    -0.744 OA
ENDBRANCH  78  79
ENDBRANCH  50  73
BRANCH  62  83
ATOM     83  C   UNL A   1      47.137  32.710  28.525  1.00  0.00    -0.014 A 
ATOM     84  C   UNL A   1      47.121  33.791  27.626  1.00  0.00     0.010 A 
ATOM     85  C   UNL A   1      47.626  32.910  29.829  1.00  0.00     0.010 A 
ATOM     86  C   UNL A   1      47.621  35.037  28.013  1.00  0.00     0.020 A 
ATOM     87  C   UNL A   1      48.093  34.163  30.231  1.00  0.00     0.020 A 
ATOM     88  C   UNL A   1      48.102  35.215  29.315  1.00  0.00     0.054 A 
BRANCH  88  89
ATOM     89  S   UNL A   1      48.704  36.854  29.805  1.00  0.00     0.124 S 
ATOM     90  O   UNL A   1      47.519  37.440  30.425  1.00  0.00    -0.237 OA
ATOM     91  O   UNL A   1      49.798  36.533  30.718  1.00  0.00    -0.237 OA
ATOM     92  O   UNL A   1      49.113  37.466  28.542  1.00  0.00    -0.744 OA
ENDBRANCH  88  89
ENDBRANCH  62  83
ENDBRANCH  36  37
ENDBRANCH  28  31
ENDBRANCH  26  27
ENDBRANCH  25  26
ENDBRANCH   1  25
TORSDOF 17
ENDMDL
MODEL 3
REMARK VINA RESULT:     -10.5      6.597     12.160
REMARK SMILES C[C@@H](Nc1cccc(C(=O)NCCCCNC(=O)c2ccc(-c3c4nc(c(-c5ccc(S(=O)(=O)[O-])cc5)c5ccc([nH]5)c(-c5ccc(S(=O)(=O)[O-])cc5)c5nc(c(-c6ccc(S(=O)(=O)[O-])cc6)c6ccc3[nH]6)C=C5)C=C4)cc2)c1)C1CC[NH+](C)CC1
REMARK SMILES IDX 13 1 12 2 11 3 9 4 10 5 8 7 4 8 5 9 79 10 6 11 7 12 3 13
REMARK SMILES IDX 2 15 1 16 80 17 81 18 86 19 82 20 85 21 83 22 84 23 14 25
REMARK SMILES IDX 15 26 16 27 17 28 18 30 19 31 20 32 78 33 21 34 77 35 22 36
REMARK SMILES IDX 23 37 24 38 71 39 25 40 76 41 70 42 72 43 26 44 75 45 69 46
REMARK SMILES IDX 68 47 27 49 57 50 38 51 56 52 39 53 42 54 55 55 73 56 40 57
REMARK SMILES IDX 41 58 54 60 74 61 43 62 28 63 29 64 37 65 30 66 36 67 31 68
REMARK SMILES IDX 32 69 33 70 34 71 35 72 58 73 59 74 67 75 60 76 66 77 61 78
REMARK SMILES IDX 62 79 63 80 64 81 65 82 44 83 45 84 53 85 46 86 52 87 47 88
REMARK SMILES IDX 48 89 49 90 50 91 51 92
REMARK H PARENT 11 6 3 14 83 24 16 29 72 48 42 59
REMARK Flexibility Score: inf
ROOT
ATOM      1  C   UNL A   1      39.389  22.311  26.375  1.00  0.00     0.023 C 
ENDROOT
BRANCH   1   2
ATOM      2  C   UNL A   1      38.039  22.965  26.069  1.00  0.00     0.116 C 
BRANCH   2   3
ATOM      3  N   UNL A   1      37.724  22.918  24.651  1.00  0.00    -0.352 N 
ATOM      4  C   UNL A   1      36.563  22.962  23.919  1.00  0.00     0.251 C 
ATOM      5  O   UNL A   1      36.652  22.957  22.690  1.00  0.00    -0.269 OA
ATOM      6  H   UNL A   1      38.526  22.838  24.087  1.00  0.00     0.163 HD
BRANCH   4   7
ATOM      7  C   UNL A   1      35.209  23.138  24.478  1.00  0.00     0.041 A 
ATOM      8  C   UNL A   1      32.755  24.713  25.723  1.00  0.00     0.035 A 
ATOM      9  C   UNL A   1      31.950  23.127  26.139  1.00  0.00     0.026 A 
ATOM     10  C   UNL A   1      34.466  24.724  25.050  1.00  0.00     0.039 A 
ATOM     11  C   UNL A   1      32.762  21.553  25.693  1.00  0.00     0.003 A 
ATOM     12  C   UNL A   1      34.349  21.578  24.807  1.00  0.00     0.014 A 
BRANCH   8  13
ATOM     13  N   UNL A   1      31.857  25.763  25.436  1.00  0.00    -0.382 N 
ATOM     14  H   UNL A   1      30.962  25.522  25.103  1.00  0.00     0.160 HD
BRANCH  13  15
ATOM     15  C   UNL A   1      32.173  27.227  25.606  1.00  0.00     0.079 C 
ATOM     16  C   UNL A   1      31.686  27.657  27.004  1.00  0.00     0.031 C 
BRANCH  15  17
ATOM     17  C   UNL A   1      31.784  28.398  24.626  1.00  0.00     0.022 C 
ATOM     18  C   UNL A   1      30.640  28.235  23.645  1.00  0.00     0.067 C 
ATOM     19  C   UNL A   1      32.868  28.955  23.759  1.00  0.00     0.067 C 
ATOM     20  C   UNL A   1      30.980  27.433  22.375  1.00  0.00     0.262 C 
ATOM     21  C   UNL A   1      33.341  27.840  22.869  1.00  0.00     0.262 C 
ATOM     22  N   UNL A   1      32.367  26.657  22.321  1.00  0.00    -0.337 N 
ATOM     23  C   UNL A   1      32.813  24.655  21.939  1.00  0.00     0.332 C 
ATOM     24  H   UNL A   1      32.552  25.850  21.725  1.00  0.00     0.347 HD
ENDBRANCH  15  17
ENDBRANCH  13  15
ENDBRANCH   8  13
ENDBRANCH   4   7
ENDBRANCH   2   3
ENDBRANCH   1   2
BRANCH   1  25
ATOM     25  C   UNL A   1      39.429  20.844  25.967  1.00  0.00     0.023 C 
BRANCH  25  26
ATOM     26  C   UNL A   1      40.350  20.024  26.855  1.00  0.00     0.116 C 
BRANCH  26  27
ATOM     27  N   UNL A   1      41.470  19.427  26.137  1.00  0.00    -0.352 N 
ATOM     28  C   UNL A   1      42.629  20.065  25.750  1.00  0.00     0.251 C 
ATOM     29  H   UNL A   1      41.391  18.472  25.908  1.00  0.00     0.163 HD
ATOM     30  O   UNL A   1      43.474  19.500  25.067  1.00  0.00    -0.269 OA
BRANCH  28  31
ATOM     31  C   UNL A   1      42.790  21.479  26.147  1.00  0.00     0.039 A 
ATOM     32  C   UNL A   1      43.112  21.783  27.469  1.00  0.00     0.014 A 
ATOM     33  C   UNL A   1      42.784  22.473  25.164  1.00  0.00     0.014 A 
ATOM     34  C   UNL A   1      43.497  23.085  27.794  1.00  0.00     0.010 A 
ATOM     35  C   UNL A   1      43.266  23.738  25.471  1.00  0.00     0.010 A 
ATOM     36  C   UNL A   1      43.616  24.064  26.790  1.00  0.00    -0.014 A 
BRANCH  36  37
ATOM     37  C   UNL A   1      44.070  25.443  27.106  1.00  0.00     0.031 A 
ATOM     38  C   UNL A   1      45.503  25.829  26.842  1.00  0.00     0.074 A 
ATOM     39  C   UNL A   1      43.220  26.329  27.665  1.00  0.00     0.049 A 
ATOM     40  N   UNL A   1      46.108  26.964  27.080  1.00  0.00    -0.248 NA
ATOM     41  C   UNL A   1      46.378  24.795  26.263  1.00  0.00     0.031 C 
ATOM     42  C   UNL A   1      41.821  26.065  28.012  1.00  0.00     0.029 A 
ATOM     43  N   UNL A   1      43.410  27.637  28.040  1.00  0.00    -0.354 N 
ATOM     44  C   UNL A   1      47.429  26.775  26.693  1.00  0.00     0.074 A 
ATOM     45  C   UNL A   1      47.557  25.398  26.273  1.00  0.00     0.031 C 
ATOM     46  C   UNL A   1      41.270  27.185  28.509  1.00  0.00     0.029 A 
ATOM     47  C   UNL A   1      42.283  28.234  28.560  1.00  0.00     0.049 A 
ATOM     48  H   UNL A   1      44.271  28.103  27.947  1.00  0.00     0.167 HD
ATOM     49  C   UNL A   1      48.441  27.672  26.656  1.00  0.00     0.031 A 
ATOM     50  C   UNL A   1      42.090  29.485  29.024  1.00  0.00     0.031 A 
ATOM     51  C   UNL A   1      48.307  29.046  27.056  1.00  0.00     0.049 A 
ATOM     52  C   UNL A   1      43.238  30.461  28.990  1.00  0.00     0.074 A 
ATOM     53  C   UNL A   1      49.258  30.050  27.012  1.00  0.00     0.029 A 
ATOM     54  N   UNL A   1      47.150  29.610  27.571  1.00  0.00    -0.354 N 
ATOM     55  N   UNL A   1      44.464  30.279  28.556  1.00  0.00    -0.248 NA
ATOM     56  C   UNL A   1      42.973  31.816  29.494  1.00  0.00     0.031 C 
ATOM     57  C   UNL A   1      48.694  31.207  27.555  1.00  0.00     0.029 A 
ATOM     58  C   UNL A   1      47.370  30.944  27.870  1.00  0.00     0.049 A 
ATOM     59  H   UNL A   1      46.299  29.134  27.704  1.00  0.00     0.167 HD
ATOM     60  C   UNL A   1      45.102  31.507  28.700  1.00  0.00     0.074 A 
ATOM     61  C   UNL A   1      44.124  32.425  29.246  1.00  0.00     0.031 C 
ATOM     62  C   UNL A   1      46.381  31.846  28.402  1.00  0.00     0.031 A 
BRANCH  49  63
ATOM     63  C   UNL A   1      49.780  27.195  26.159  1.00  0.00    -0.014 A 
ATOM     64  C   UNL A   1      50.728  26.645  27.042  1.00  0.00     0.010 A 
ATOM     65  C   UNL A   1      50.079  27.254  24.786  1.00  0.00     0.010 A 
ATOM     66  C   UNL A   1      51.963  26.197  26.566  1.00  0.00     0.020 A 
ATOM     67  C   UNL A   1      51.300  26.776  24.301  1.00  0.00     0.020 A 
ATOM     68  C   UNL A   1      52.240  26.263  25.198  1.00  0.00     0.054 A 
BRANCH  68  69
ATOM     69  S   UNL A   1      53.834  25.634  24.606  1.00  0.00     0.124 S 
ATOM     70  O   UNL A   1      53.615  24.190  24.627  1.00  0.00    -0.237 OA
ATOM     71  O   UNL A   1      53.940  26.235  23.278  1.00  0.00    -0.237 OA
ATOM     72  O   UNL A   1      54.792  26.134  25.590  1.00  0.00    -0.744 OA
ENDBRANCH  68  69
ENDBRANCH  49  63
BRANCH  50  73
ATOM     73  C   UNL A   1      40.757  29.898  29.548  1.00  0.00    -0.014 A 
ATOM     74  C   UNL A   1      40.510  29.932  30.933  1.00  0.00     0.010 A 
ATOM     75  C   UNL A   1      39.717  30.240  28.665  1.00  0.00     0.010 A 
ATOM     76  C   UNL A   1      39.242  30.267  31.422  1.00  0.00     0.020 A 
ATOM     77  C   UNL A   1      38.458  30.609  29.150  1.00  0.00     0.020 A 
ATOM     78  C   UNL A   1      38.224  30.603  30.525  1.00  0.00     0.054 A 
BRANCH  78  79
ATOM     79  S   UNL A   1      36.595  31.059  31.182  1.00  0.00     0.124 S 
ATOM     80  O   UNL A   1      35.797  31.171  29.964  1.00  0.00    -0.237 OA
ATOM     81  O   UNL A   1      36.276  29.924  32.045  1.00  0.00    -0.237 OA
ATOM     82  O   UNL A   1      36.848  32.315  31.884  1.00  0.00    -0.744 OA
ENDBRANCH  78  79
ENDBRANCH  50  73
BRANCH  62  83
ATOM     83  C   UNL A   1      46.788  33.282  28.607  1.00  0.00    -0.014 A 
ATOM     84  C   UNL A   1      46.618  34.247  27.599  1.00  0.00     0.010 A 
ATOM     85  C   UNL A   1      47.291  33.680  29.860  1.00  0.00     0.010 A 
ATOM     86  C   UNL A   1      46.981  35.577  27.828  1.00  0.00     0.020 A 
ATOM     87  C   UNL A   1      47.622  35.015  30.104  1.00  0.00     0.020 A 
ATOM     88  C   UNL A   1      47.479  35.952  29.081  1.00  0.00     0.054 A 
BRANCH  88  89
ATOM     89  S   UNL A   1      47.901  37.693  29.365  1.00  0.00     0.124 S 
ATOM     90  O   UNL A   1      47.057  38.373  28.388  1.00  0.00    -0.237 OA
ATOM     91  O   UNL A   1      47.527  37.888  30.764  1.00  0.00    -0.237 OA
ATOM     92  O   UNL A   1      49.337  37.751  29.096  1.00  0.00    -0.744 OA
ENDBRANCH  88  89
ENDBRANCH  62  83
ENDBRANCH  36  37
ENDBRANCH  28  31
ENDBRANCH  26  27
ENDBRANCH  25  26
ENDBRANCH   1  25
TORSDOF 17
ENDMDL
