MODEL 1
REMARK VINA RESULT:     -10.6      0.000      0.000
REMARK SMILES CC[C@H](C)[C@@H](NC(=O)c1csc(NC(C)=O)n1)C(=O)NCCCCNC(=O)c1ccc(-c2c3nc(c(-c4ccc(S(=O)(=O)[O-])cc4)c4ccc([nH]4)c(-c4ccc(S(=O)(=O)[O-])cc4)c4nc(c(-c5ccc(S(=O)(=O)[O-])cc5)c5ccc2[nH]5)C=C4)C=C3)cc1
REMARK SMILES IDX 22 1 21 2 20 3 18 4 19 5 5 7 3 8 4 9 2 10 1 11 6 12 7 13
REMARK SMILES IDX 8 15 9 16 10 17 17 18 11 19 12 20 13 21 14 22 15 24 16 25
REMARK SMILES IDX 23 26 24 27 25 28 26 29 27 31 28 32 29 33 87 34 30 35 86 36
REMARK SMILES IDX 31 37 32 38 33 39 80 40 34 41 85 42 79 43 81 44 35 45 84 46
REMARK SMILES IDX 78 47 77 48 36 50 66 51 47 52 65 53 48 54 51 55 64 56 82 57
REMARK SMILES IDX 49 58 50 59 63 61 83 62 52 63 37 64 38 65 46 66 39 67 45 68
REMARK SMILES IDX 40 69 41 70 42 71 43 72 44 73 67 74 68 75 76 76 69 77 75 78
REMARK SMILES IDX 70 79 71 80 72 81 73 82 74 83 53 84 54 85 62 86 55 87 61 88
REMARK SMILES IDX 56 89 57 90 58 91 59 92 60 93
REMARK H PARENT 20 6 6 14 13 23 25 30 81 49 51 60
REMARK Flexibility Score: inf
ROOT
ATOM      1  C   UNL A   1      32.294  26.869  26.040  1.00  0.00     0.023 C 
ENDROOT
BRANCH   1   2
ATOM      2  C   UNL A   1      32.287  25.414  26.493  1.00  0.00     0.116 C 
BRANCH   2   3
ATOM      3  N   UNL A   1      31.411  24.618  25.659  1.00  0.00    -0.354 N 
ATOM      4  C   UNL A   1      31.660  23.987  24.476  1.00  0.00     0.242 C 
ATOM      5  O   UNL A   1      30.699  23.479  23.885  1.00  0.00    -0.273 OA
ATOM      6  H   UNL A   1      30.492  24.517  25.998  1.00  0.00     0.163 HD
BRANCH   4   7
ATOM      7  C   UNL A   1      33.056  24.047  23.808  1.00  0.00     0.174 C 
BRANCH   7   8
ATOM      8  C   UNL A   1      33.791  22.681  24.074  1.00  0.00     0.018 C 
ATOM      9  C   UNL A   1      35.244  22.686  23.568  1.00  0.00     0.010 C 
BRANCH   8  10
ATOM     10  C   UNL A   1      33.765  22.238  25.559  1.00  0.00     0.002 C 
ATOM     11  C   UNL A   1      34.863  22.889  26.394  1.00  0.00     0.004 C 
ENDBRANCH   8  10
ENDBRANCH   7   8
BRANCH   7  12
ATOM     12  N   UNL A   1      33.039  24.325  22.349  1.00  0.00    -0.339 N 
ATOM     13  C   UNL A   1      32.949  25.495  21.632  1.00  0.00     0.271 C 
ATOM     14  H   UNL A   1      33.103  23.518  21.790  1.00  0.00     0.164 HD
ATOM     15  O   UNL A   1      33.192  25.441  20.425  1.00  0.00    -0.267 OA
BRANCH  13  16
ATOM     16  C   UNL A   1      32.403  26.698  22.252  1.00  0.00     0.141 A 
ATOM     17  C   UNL A   1      33.157  27.846  22.436  1.00  0.00     0.102 A 
ATOM     18  N   UNL A   1      31.078  26.824  22.641  1.00  0.00    -0.215 NA
ATOM     19  S   UNL A   1      32.138  29.146  22.886  1.00  0.00    -0.104 S 
ATOM     20  C   UNL A   1      30.801  28.093  22.843  1.00  0.00     0.190 A 
BRANCH  20  21
ATOM     21  N   UNL A   1      29.507  28.516  22.989  1.00  0.00    -0.302 N 
ATOM     22  C   UNL A   1      28.874  29.472  22.231  1.00  0.00     0.223 C 
ATOM     23  H   UNL A   1      28.978  28.093  23.704  1.00  0.00     0.172 HD
ATOM     24  C   UNL A   1      27.455  29.729  22.674  1.00  0.00     0.114 C 
ATOM     25  O   UNL A   1      29.335  30.063  21.261  1.00  0.00    -0.275 OA
ENDBRANCH  20  21
ENDBRANCH  13  16
ENDBRANCH   7  12
ENDBRANCH   4   7
ENDBRANCH   2   3
ENDBRANCH   1   2
BRANCH   1  26
ATOM     26  C   UNL A   1      33.228  27.769  26.852  1.00  0.00     0.023 C 
BRANCH  26  27
ATOM     27  C   UNL A   1      34.032  28.763  26.023  1.00  0.00     0.116 C 
BRANCH  27  28
ATOM     28  N   UNL A   1      33.838  30.141  26.457  1.00  0.00    -0.352 N 
ATOM     29  C   UNL A   1      34.576  30.836  27.385  1.00  0.00     0.251 C 
ATOM     30  H   UNL A   1      33.092  30.628  26.039  1.00  0.00     0.163 HD
ATOM     31  O   UNL A   1      34.233  31.950  27.763  1.00  0.00    -0.269 OA
BRANCH  29  32
ATOM     32  C   UNL A   1      35.779  30.185  27.936  1.00  0.00     0.039 A 
ATOM     33  C   UNL A   1      36.982  30.267  27.231  1.00  0.00     0.014 A 
ATOM     34  C   UNL A   1      35.725  29.603  29.205  1.00  0.00     0.014 A 
ATOM     35  C   UNL A   1      38.157  29.822  27.835  1.00  0.00     0.010 A 
ATOM     36  C   UNL A   1      36.904  29.215  29.825  1.00  0.00     0.010 A 
ATOM     37  C   UNL A   1      38.131  29.328  29.149  1.00  0.00    -0.014 A 
BRANCH  37  38
ATOM     38  C   UNL A   1      39.368  28.926  29.859  1.00  0.00     0.031 A 
ATOM     39  C   UNL A   1      39.832  29.723  31.043  1.00  0.00     0.074 A 
ATOM     40  C   UNL A   1      40.132  27.933  29.366  1.00  0.00     0.049 A 
ATOM     41  N   UNL A   1      40.959  29.644  31.702  1.00  0.00    -0.248 NA
ATOM     42  C   UNL A   1      38.920  30.772  31.525  1.00  0.00     0.031 C 
ATOM     43  C   UNL A   1      39.811  27.118  28.193  1.00  0.00     0.029 A 
ATOM     44  N   UNL A   1      41.355  27.463  29.773  1.00  0.00    -0.354 N 
ATOM     45  C   UNL A   1      40.910  30.659  32.648  1.00  0.00     0.074 A 
ATOM     46  C   UNL A   1      39.655  31.356  32.460  1.00  0.00     0.031 C 
ATOM     47  C   UNL A   1      40.814  26.252  27.972  1.00  0.00     0.029 A 
ATOM     48  C   UNL A   1      41.864  26.478  28.962  1.00  0.00     0.049 A 
ATOM     49  H   UNL A   1      41.825  27.801  30.570  1.00  0.00     0.167 HD
ATOM     50  C   UNL A   1      41.826  30.980  33.592  1.00  0.00     0.031 A 
ATOM     51  C   UNL A   1      43.051  25.842  28.995  1.00  0.00     0.031 A 
ATOM     52  C   UNL A   1      43.064  30.277  33.783  1.00  0.00     0.049 A 
ATOM     53  C   UNL A   1      44.040  26.187  30.070  1.00  0.00     0.074 A 
ATOM     54  C   UNL A   1      44.028  30.476  34.755  1.00  0.00     0.029 A 
ATOM     55  N   UNL A   1      43.512  29.238  32.980  1.00  0.00    -0.354 N 
ATOM     56  N   UNL A   1      43.950  27.102  31.005  1.00  0.00    -0.248 NA
ATOM     57  C   UNL A   1      45.286  25.407  30.105  1.00  0.00     0.031 C 
ATOM     58  C   UNL A   1      45.076  29.580  34.519  1.00  0.00     0.029 A 
ATOM     59  C   UNL A   1      44.745  28.795  33.425  1.00  0.00     0.049 A 
ATOM     60  H   UNL A   1      43.025  28.871  32.207  1.00  0.00     0.167 HD
ATOM     61  C   UNL A   1      45.117  26.997  31.753  1.00  0.00     0.074 A 
ATOM     62  C   UNL A   1      45.894  25.923  31.167  1.00  0.00     0.031 C 
ATOM     63  C   UNL A   1      45.504  27.721  32.832  1.00  0.00     0.031 A 
BRANCH  50  64
ATOM     64  C   UNL A   1      41.517  32.167  34.465  1.00  0.00    -0.014 A 
ATOM     65  C   UNL A   1      40.943  32.003  35.739  1.00  0.00     0.010 A 
ATOM     66  C   UNL A   1      41.782  33.464  33.994  1.00  0.00     0.010 A 
ATOM     67  C   UNL A   1      40.574  33.118  36.496  1.00  0.00     0.020 A 
ATOM     68  C   UNL A   1      41.440  34.582  34.759  1.00  0.00     0.020 A 
ATOM     69  C   UNL A   1      40.813  34.401  35.994  1.00  0.00     0.054 A 
BRANCH  69  70
ATOM     70  S   UNL A   1      40.299  35.835  36.979  1.00  0.00     0.124 S 
ATOM     71  O   UNL A   1      39.853  36.765  35.944  1.00  0.00    -0.237 OA
ATOM     72  O   UNL A   1      39.242  35.286  37.825  1.00  0.00    -0.237 OA
ATOM     73  O   UNL A   1      41.518  36.223  37.685  1.00  0.00    -0.744 OA
ENDBRANCH  69  70
ENDBRANCH  50  64
BRANCH  51  74
ATOM     74  C   UNL A   1      43.346  24.804  27.972  1.00  0.00    -0.014 A 
ATOM     75  C   UNL A   1      44.164  25.105  26.870  1.00  0.00     0.010 A 
ATOM     76  C   UNL A   1      42.874  23.488  28.137  1.00  0.00     0.010 A 
ATOM     77  C   UNL A   1      44.515  24.107  25.956  1.00  0.00     0.020 A 
ATOM     78  C   UNL A   1      43.238  22.484  27.235  1.00  0.00     0.020 A 
ATOM     79  C   UNL A   1      44.057  22.800  26.149  1.00  0.00     0.054 A 
BRANCH  79  80
ATOM     80  S   UNL A   1      44.612  21.500  25.011  1.00  0.00     0.124 S 
ATOM     81  O   UNL A   1      45.976  21.257  25.467  1.00  0.00    -0.237 OA
ATOM     82  O   UNL A   1      43.657  20.423  25.268  1.00  0.00    -0.237 OA
ATOM     83  O   UNL A   1      44.491  22.124  23.695  1.00  0.00    -0.744 OA
ENDBRANCH  79  80
ENDBRANCH  51  74
BRANCH  63  84
ATOM     84  C   UNL A   1      46.813  27.362  33.478  1.00  0.00    -0.014 A 
ATOM     85  C   UNL A   1      46.887  26.366  34.466  1.00  0.00     0.010 A 
ATOM     86  C   UNL A   1      47.997  27.970  33.021  1.00  0.00     0.010 A 
ATOM     87  C   UNL A   1      48.125  25.990  34.995  1.00  0.00     0.020 A 
ATOM     88  C   UNL A   1      49.238  27.582  33.533  1.00  0.00     0.020 A 
ATOM     89  C   UNL A   1      49.293  26.598  34.523  1.00  0.00     0.054 A 
BRANCH  89  90
ATOM     90  S   UNL A   1      50.894  26.040  35.168  1.00  0.00     0.124 S 
ATOM     91  O   UNL A   1      50.939  24.653  34.712  1.00  0.00    -0.237 OA
ATOM     92  O   UNL A   1      51.838  26.946  34.518  1.00  0.00    -0.237 OA
ATOM     93  O   UNL A   1      50.764  26.218  36.613  1.00  0.00    -0.744 OA
ENDBRANCH  89  90
ENDBRANCH  63  84
ENDBRANCH  37  38
ENDBRANCH  29  32
ENDBRANCH  27  28
ENDBRANCH  26  27
ENDBRANCH   1  26
TORSDOF 19
ENDMDL
MODEL 2
REMARK VINA RESULT:     -10.5      3.014      9.050
REMARK SMILES CC[C@H](C)[C@@H](NC(=O)c1csc(NC(C)=O)n1)C(=O)NCCCCNC(=O)c1ccc(-c2c3nc(c(-c4ccc(S(=O)(=O)[O-])cc4)c4ccc([nH]4)c(-c4ccc(S(=O)(=O)[O-])cc4)c4nc(c(-c5ccc(S(=O)(=O)[O-])cc5)c5ccc2[nH]5)C=C4)C=C3)cc1
REMARK SMILES IDX 22 1 21 2 20 3 18 4 19 5 5 7 3 8 4 9 2 10 1 11 6 12 7 13
REMARK SMILES IDX 8 15 9 16 10 17 17 18 11 19 12 20 13 21 14 22 15 24 16 25
REMARK SMILES IDX 23 26 24 27 25 28 26 29 27 31 28 32 29 33 87 34 30 35 86 36
REMARK SMILES IDX 31 37 32 38 33 39 80 40 34 41 85 42 79 43 81 44 35 45 84 46
REMARK SMILES IDX 78 47 77 48 36 50 66 51 47 52 65 53 48 54 51 55 64 56 82 57
REMARK SMILES IDX 49 58 50 59 63 61 83 62 52 63 37 64 38 65 46 66 39 67 45 68
REMARK SMILES IDX 40 69 41 70 42 71 43 72 44 73 67 74 68 75 76 76 69 77 75 78
REMARK SMILES IDX 70 79 71 80 72 81 73 82 74 83 53 84 54 85 62 86 55 87 61 88
REMARK SMILES IDX 56 89 57 90 58 91 59 92 60 93
REMARK H PARENT 20 6 6 14 13 23 25 30 81 49 51 60
REMARK Flexibility Score: inf
ROOT
ATOM      1  C   UNL A   1      35.113  21.700  26.200  1.00  0.00     0.023 C 
ENDROOT
BRANCH   1   2
ATOM      2  C   UNL A   1      33.708  21.579  25.624  1.00  0.00     0.116 C 
BRANCH   2   3
ATOM      3  N   UNL A   1      32.725  22.103  26.550  1.00  0.00    -0.354 N 
ATOM      4  C   UNL A   1      31.917  23.196  26.446  1.00  0.00     0.242 C 
ATOM      5  O   UNL A   1      31.253  23.514  27.441  1.00  0.00    -0.273 OA
ATOM      6  H   UNL A   1      32.624  21.589  27.384  1.00  0.00     0.163 HD
BRANCH   4   7
ATOM      7  C   UNL A   1      31.953  24.110  25.196  1.00  0.00     0.174 C 
BRANCH   7   8
ATOM      8  C   UNL A   1      32.142  23.202  23.925  1.00  0.00     0.018 C 
ATOM      9  C   UNL A   1      30.807  22.668  23.378  1.00  0.00     0.010 C 
BRANCH   8  10
ATOM     10  C   UNL A   1      32.929  23.889  22.780  1.00  0.00     0.002 C 
ATOM     11  C   UNL A   1      34.179  24.616  23.268  1.00  0.00     0.004 C 
ENDBRANCH   8  10
ENDBRANCH   7   8
BRANCH   7  12
ATOM     12  N   UNL A   1      30.755  24.970  25.017  1.00  0.00    -0.339 N 
ATOM     13  C   UNL A   1      30.583  26.209  24.444  1.00  0.00     0.271 C 
ATOM     14  H   UNL A   1      29.927  24.579  25.377  1.00  0.00     0.164 HD
ATOM     15  O   UNL A   1      29.427  26.579  24.231  1.00  0.00    -0.267 OA
BRANCH  13  16
ATOM     16  C   UNL A   1      31.721  27.108  24.280  1.00  0.00     0.141 A 
ATOM     17  C   UNL A   1      32.044  27.682  23.061  1.00  0.00     0.102 A 
ATOM     18  N   UNL A   1      32.526  27.521  25.330  1.00  0.00    -0.215 NA
ATOM     19  S   UNL A   1      33.214  28.910  23.289  1.00  0.00    -0.104 S 
ATOM     20  C   UNL A   1      33.233  28.564  24.955  1.00  0.00     0.190 A 
BRANCH  20  21
ATOM     21  N   UNL A   1      33.917  29.316  25.872  1.00  0.00    -0.302 N 
ATOM     22  C   UNL A   1      33.383  30.286  26.688  1.00  0.00     0.223 C 
ATOM     23  H   UNL A   1      34.883  29.147  25.956  1.00  0.00     0.172 HD
ATOM     24  C   UNL A   1      34.416  30.953  27.561  1.00  0.00     0.114 C 
ATOM     25  O   UNL A   1      32.201  30.598  26.780  1.00  0.00    -0.275 OA
ENDBRANCH  20  21
ENDBRANCH  13  16
ENDBRANCH   7  12
ENDBRANCH   4   7
ENDBRANCH   2   3
ENDBRANCH   1   2
BRANCH   1  26
ATOM     26  C   UNL A   1      35.604  23.142  26.346  1.00  0.00     0.023 C 
BRANCH  26  27
ATOM     27  C   UNL A   1      36.882  23.459  25.579  1.00  0.00     0.116 C 
BRANCH  27  28
ATOM     28  N   UNL A   1      37.965  22.533  25.887  1.00  0.00    -0.352 N 
ATOM     29  C   UNL A   1      39.171  22.824  26.478  1.00  0.00     0.251 C 
ATOM     30  H   UNL A   1      37.815  21.591  25.643  1.00  0.00     0.163 HD
ATOM     31  O   UNL A   1      40.055  21.980  26.564  1.00  0.00    -0.269 OA
BRANCH  29  32
ATOM     32  C   UNL A   1      39.380  24.195  26.977  1.00  0.00     0.039 A 
ATOM     33  C   UNL A   1      38.979  24.517  28.275  1.00  0.00     0.014 A 
ATOM     34  C   UNL A   1      40.081  25.113  26.189  1.00  0.00     0.014 A 
ATOM     35  C   UNL A   1      39.346  25.749  28.816  1.00  0.00     0.010 A 
ATOM     36  C   UNL A   1      40.493  26.313  26.751  1.00  0.00     0.010 A 
ATOM     37  C   UNL A   1      40.136  26.639  28.070  1.00  0.00    -0.014 A 
BRANCH  37  38
ATOM     38  C   UNL A   1      40.620  27.920  28.638  1.00  0.00     0.031 A 
ATOM     39  C   UNL A   1      42.007  27.998  29.205  1.00  0.00     0.074 A 
ATOM     40  C   UNL A   1      39.777  28.962  28.755  1.00  0.00     0.049 A 
ATOM     41  N   UNL A   1      42.566  28.964  29.888  1.00  0.00    -0.248 NA
ATOM     42  C   UNL A   1      42.864  26.820  29.008  1.00  0.00     0.031 C 
ATOM     43  C   UNL A   1      38.389  28.989  28.286  1.00  0.00     0.029 A 
ATOM     44  N   UNL A   1      39.954  30.191  29.340  1.00  0.00    -0.354 N 
ATOM     45  C   UNL A   1      43.825  28.491  30.238  1.00  0.00     0.074 A 
ATOM     46  C   UNL A   1      43.935  27.146  29.714  1.00  0.00     0.031 C 
ATOM     47  C   UNL A   1      37.841  30.174  28.605  1.00  0.00     0.029 A 
ATOM     48  C   UNL A   1      38.823  30.972  29.334  1.00  0.00     0.049 A 
ATOM     49  H   UNL A   1      40.811  30.486  29.726  1.00  0.00     0.167 HD
ATOM     50  C   UNL A   1      44.803  29.123  30.929  1.00  0.00     0.031 A 
ATOM     51  C   UNL A   1      38.593  32.184  29.875  1.00  0.00     0.031 A 
ATOM     52  C   UNL A   1      44.693  30.463  31.435  1.00  0.00     0.049 A 
ATOM     53  C   UNL A   1      39.700  32.885  30.608  1.00  0.00     0.074 A 
ATOM     54  C   UNL A   1      45.649  31.221  32.086  1.00  0.00     0.029 A 
ATOM     55  N   UNL A   1      43.550  31.247  31.350  1.00  0.00    -0.354 N 
ATOM     56  N   UNL A   1      40.911  32.455  30.870  1.00  0.00    -0.248 NA
ATOM     57  C   UNL A   1      39.416  34.237  31.110  1.00  0.00     0.031 C 
ATOM     58  C   UNL A   1      45.075  32.451  32.425  1.00  0.00     0.029 A 
ATOM     59  C   UNL A   1      43.774  32.474  31.948  1.00  0.00     0.049 A 
ATOM     60  H   UNL A   1      42.706  30.970  30.926  1.00  0.00     0.167 HD
ATOM     61  C   UNL A   1      41.543  33.490  31.549  1.00  0.00     0.074 A 
ATOM     62  C   UNL A   1      40.582  34.571  31.651  1.00  0.00     0.031 C 
ATOM     63  C   UNL A   1      42.807  33.541  32.037  1.00  0.00     0.031 A 
BRANCH  50  64
ATOM     64  C   UNL A   1      46.062  28.343  31.194  1.00  0.00    -0.014 A 
ATOM     65  C   UNL A   1      47.218  28.541  30.418  1.00  0.00     0.010 A 
ATOM     66  C   UNL A   1      46.081  27.380  32.219  1.00  0.00     0.010 A 
ATOM     67  C   UNL A   1      48.347  27.742  30.615  1.00  0.00     0.020 A 
ATOM     68  C   UNL A   1      47.218  26.597  32.438  1.00  0.00     0.020 A 
ATOM     69  C   UNL A   1      48.334  26.765  31.614  1.00  0.00     0.054 A 
BRANCH  69  70
ATOM     70  S   UNL A   1      49.798  25.717  31.833  1.00  0.00     0.124 S 
ATOM     71  O   UNL A   1      49.854  25.011  30.555  1.00  0.00    -0.237 OA
ATOM     72  O   UNL A   1      50.863  26.691  32.059  1.00  0.00    -0.237 OA
ATOM     73  O   UNL A   1      49.460  24.889  32.989  1.00  0.00    -0.744 OA
ENDBRANCH  69  70
ENDBRANCH  50  64
BRANCH  51  74
ATOM     74  C   UNL A   1      37.250  32.804  29.720  1.00  0.00    -0.014 A 
ATOM     75  C   UNL A   1      36.307  32.724  30.759  1.00  0.00     0.010 A 
ATOM     76  C   UNL A   1      36.938  33.544  28.564  1.00  0.00     0.010 A 
ATOM     77  C   UNL A   1      35.078  33.381  30.650  1.00  0.00     0.020 A 
ATOM     78  C   UNL A   1      35.717  34.218  28.460  1.00  0.00     0.020 A 
ATOM     79  C   UNL A   1      34.794  34.132  29.504  1.00  0.00     0.054 A 
BRANCH  79  80
ATOM     80  S   UNL A   1      33.239  35.065  29.431  1.00  0.00     0.124 S 
ATOM     81  O   UNL A   1      33.697  36.391  29.034  1.00  0.00    -0.237 OA
ATOM     82  O   UNL A   1      32.475  34.331  28.424  1.00  0.00    -0.237 OA
ATOM     83  O   UNL A   1      32.716  34.961  30.792  1.00  0.00    -0.744 OA
ENDBRANCH  79  80
ENDBRANCH  51  74
BRANCH  63  84
ATOM     84  C   UNL A   1      43.246  34.817  32.700  1.00  0.00    -0.014 A 
ATOM     85  C   UNL A   1      43.800  35.870  31.953  1.00  0.00     0.010 A 
ATOM     86  C   UNL A   1      43.015  34.994  34.076  1.00  0.00     0.010 A 
ATOM     87  C   UNL A   1      44.125  37.079  32.575  1.00  0.00     0.020 A 
ATOM     88  C   UNL A   1      43.321  36.208  34.697  1.00  0.00     0.020 A 
ATOM     89  C   UNL A   1      43.881  37.241  33.943  1.00  0.00     0.054 A 
BRANCH  89  90
ATOM     90  S   UNL A   1      44.240  38.843  34.714  1.00  0.00     0.124 S 
ATOM     91  O   UNL A   1      43.302  39.728  34.027  1.00  0.00    -0.237 OA
ATOM     92  O   UNL A   1      43.952  38.596  36.125  1.00  0.00    -0.237 OA
ATOM     93  O   UNL A   1      45.651  39.067  34.403  1.00  0.00    -0.744 OA
ENDBRANCH  89  90
ENDBRANCH  63  84
ENDBRANCH  37  38
ENDBRANCH  29  32
ENDBRANCH  27  28
ENDBRANCH  26  27
ENDBRANCH   1  26
TORSDOF 19
ENDMDL
MODEL 3
REMARK VINA RESULT:     -10.5      2.249      2.836
REMARK SMILES CC[C@H](C)[C@@H](NC(=O)c1csc(NC(C)=O)n1)C(=O)NCCCCNC(=O)c1ccc(-c2c3nc(c(-c4ccc(S(=O)(=O)[O-])cc4)c4ccc([nH]4)c(-c4ccc(S(=O)(=O)[O-])cc4)c4nc(c(-c5ccc(S(=O)(=O)[O-])cc5)c5ccc2[nH]5)C=C4)C=C3)cc1
REMARK SMILES IDX 22 1 21 2 20 3 18 4 19 5 5 7 3 8 4 9 2 10 1 11 6 12 7 13
REMARK SMILES IDX 8 15 9 16 10 17 17 18 11 19 12 20 13 21 14 22 15 24 16 25
REMARK SMILES IDX 23 26 24 27 25 28 26 29 27 31 28 32 29 33 87 34 30 35 86 36
REMARK SMILES IDX 31 37 32 38 33 39 80 40 34 41 85 42 79 43 81 44 35 45 84 46
REMARK SMILES IDX 78 47 77 48 36 50 66 51 47 52 65 53 48 54 51 55 64 56 82 57
REMARK SMILES IDX 49 58 50 59 63 61 83 62 52 63 37 64 38 65 46 66 39 67 45 68
REMARK SMILES IDX 40 69 41 70 42 71 43 72 44 73 67 74 68 75 76 76 69 77 75 78
REMARK SMILES IDX 70 79 71 80 72 81 73 82 74 83 53 84 54 85 62 86 55 87 61 88
REMARK SMILES IDX 56 89 57 90 58 91 59 92 60 93
REMARK H PARENT 20 6 6 14 13 23 25 30 81 49 51 60
REMARK Flexibility Score: inf
ROOT
ATOM      1  C   UNL A   1      33.907  25.674  25.714  1.00  0.00     0.023 C 
ENDROOT
BRANCH   1   2
ATOM      2  C   UNL A   1      33.150  24.456  26.228  1.00  0.00     0.116 C 
BRANCH   2   3
ATOM      3  N   UNL A   1      31.943  24.237  25.459  1.00  0.00    -0.354 N 
ATOM      4  C   UNL A   1      31.784  23.962  24.133  1.00  0.00     0.242 C 
ATOM      5  O   UNL A   1      30.631  23.952  23.684  1.00  0.00    -0.273 OA
ATOM      6  H   UNL A   1      31.105  24.295  25.974  1.00  0.00     0.163 HD
BRANCH   4   7
ATOM      7  C   UNL A   1      33.002  23.836  23.185  1.00  0.00     0.174 C 
BRANCH   7   8
ATOM      8  C   UNL A   1      33.470  22.334  23.177  1.00  0.00     0.018 C 
ATOM      9  C   UNL A   1      34.674  22.087  24.102  1.00  0.00     0.010 C 
BRANCH   8  10
ATOM     10  C   UNL A   1      32.342  21.328  23.521  1.00  0.00     0.002 C 
ATOM     11  C   UNL A   1      32.110  20.296  22.423  1.00  0.00     0.004 C 
ENDBRANCH   8  10
ENDBRANCH   7   8
BRANCH   7  12
ATOM     12  N   UNL A   1      32.757  24.287  21.791  1.00  0.00    -0.339 N 
ATOM     13  C   UNL A   1      32.853  25.518  21.185  1.00  0.00     0.271 C 
ATOM     14  H   UNL A   1      32.470  23.566  21.185  1.00  0.00     0.164 HD
ATOM     15  O   UNL A   1      32.810  25.550  19.954  1.00  0.00    -0.267 OA
BRANCH  13  16
ATOM     16  C   UNL A   1      32.814  26.736  21.988  1.00  0.00     0.141 A 
ATOM     17  C   UNL A   1      33.961  27.431  22.338  1.00  0.00     0.102 A 
ATOM     18  N   UNL A   1      31.638  27.341  22.405  1.00  0.00    -0.215 NA
ATOM     19  S   UNL A   1      33.540  28.956  22.992  1.00  0.00    -0.104 S 
ATOM     20  C   UNL A   1      31.895  28.568  22.801  1.00  0.00     0.190 A 
BRANCH  20  21
ATOM     21  N   UNL A   1      30.880  29.461  23.023  1.00  0.00    -0.302 N 
ATOM     22  C   UNL A   1      29.534  29.183  23.000  1.00  0.00     0.223 C 
ATOM     23  H   UNL A   1      31.140  30.390  23.219  1.00  0.00     0.172 HD
ATOM     24  C   UNL A   1      28.679  30.400  23.252  1.00  0.00     0.114 C 
ATOM     25  O   UNL A   1      29.014  28.084  22.841  1.00  0.00    -0.275 OA
ENDBRANCH  20  21
ENDBRANCH  13  16
ENDBRANCH   7  12
ENDBRANCH   4   7
ENDBRANCH   2   3
ENDBRANCH   1   2
BRANCH   1  26
ATOM     26  C   UNL A   1      33.352  27.009  26.214  1.00  0.00     0.023 C 
BRANCH  26  27
ATOM     27  C   UNL A   1      34.409  28.015  26.649  1.00  0.00     0.116 C 
BRANCH  27  28
ATOM     28  N   UNL A   1      33.855  29.341  26.894  1.00  0.00    -0.352 N 
ATOM     29  C   UNL A   1      34.416  30.359  27.627  1.00  0.00     0.251 C 
ATOM     30  H   UNL A   1      32.978  29.528  26.487  1.00  0.00     0.163 HD
ATOM     31  O   UNL A   1      33.791  31.384  27.870  1.00  0.00    -0.269 OA
BRANCH  29  32
ATOM     32  C   UNL A   1      35.785  30.165  28.139  1.00  0.00     0.039 A 
ATOM     33  C   UNL A   1      35.965  29.681  29.437  1.00  0.00     0.014 A 
ATOM     34  C   UNL A   1      36.872  30.353  27.281  1.00  0.00     0.014 A 
ATOM     35  C   UNL A   1      37.244  29.317  29.856  1.00  0.00     0.010 A 
ATOM     36  C   UNL A   1      38.133  29.936  27.682  1.00  0.00     0.010 A 
ATOM     37  C   UNL A   1      38.329  29.407  28.970  1.00  0.00    -0.014 A 
BRANCH  37  38
ATOM     38  C   UNL A   1      39.688  28.949  29.346  1.00  0.00     0.031 A 
ATOM     39  C   UNL A   1      40.651  29.922  29.960  1.00  0.00     0.074 A 
ATOM     40  C   UNL A   1      40.090  27.706  29.021  1.00  0.00     0.049 A 
ATOM     41  N   UNL A   1      41.926  29.774  30.213  1.00  0.00    -0.248 NA
ATOM     42  C   UNL A   1      40.115  31.248  30.303  1.00  0.00     0.031 C 
ATOM     43  C   UNL A   1      39.259  26.686  28.376  1.00  0.00     0.029 A 
ATOM     44  N   UNL A   1      41.314  27.101  29.158  1.00  0.00    -0.354 N 
ATOM     45  C   UNL A   1      42.353  31.001  30.703  1.00  0.00     0.074 A 
ATOM     46  C   UNL A   1      41.209  31.887  30.688  1.00  0.00     0.031 C 
ATOM     47  C   UNL A   1      39.999  25.584  28.171  1.00  0.00     0.029 A 
ATOM     48  C   UNL A   1      41.363  25.833  28.631  1.00  0.00     0.049 A 
ATOM     49  H   UNL A   1      42.084  27.534  29.593  1.00  0.00     0.167 HD
ATOM     50  C   UNL A   1      43.588  31.356  31.132  1.00  0.00     0.031 A 
ATOM     51  C   UNL A   1      42.393  24.973  28.510  1.00  0.00     0.031 A 
ATOM     52  C   UNL A   1      44.716  30.468  31.158  1.00  0.00     0.049 A 
ATOM     53  C   UNL A   1      43.747  25.372  29.023  1.00  0.00     0.074 A 
ATOM     54  C   UNL A   1      45.991  30.707  31.638  1.00  0.00     0.029 A 
ATOM     55  N   UNL A   1      44.707  29.167  30.675  1.00  0.00    -0.354 N 
ATOM     56  N   UNL A   1      44.121  26.512  29.552  1.00  0.00    -0.248 NA
ATOM     57  C   UNL A   1      44.815  24.366  28.935  1.00  0.00     0.031 C 
ATOM     58  C   UNL A   1      46.763  29.562  31.416  1.00  0.00     0.029 A 
ATOM     59  C   UNL A   1      45.957  28.595  30.834  1.00  0.00     0.049 A 
ATOM     60  H   UNL A   1      43.926  28.718  30.278  1.00  0.00     0.167 HD
ATOM     61  C   UNL A   1      45.463  26.357  29.879  1.00  0.00     0.074 A 
ATOM     62  C   UNL A   1      45.833  25.009  29.496  1.00  0.00     0.031 C 
ATOM     63  C   UNL A   1      46.308  27.250  30.451  1.00  0.00     0.031 A 
BRANCH  50  64
ATOM     64  C   UNL A   1      43.768  32.782  31.579  1.00  0.00    -0.014 A 
ATOM     65  C   UNL A   1      43.700  33.131  32.940  1.00  0.00     0.010 A 
ATOM     66  C   UNL A   1      43.985  33.789  30.623  1.00  0.00     0.010 A 
ATOM     67  C   UNL A   1      43.775  34.472  33.330  1.00  0.00     0.020 A 
ATOM     68  C   UNL A   1      44.088  35.127  31.010  1.00  0.00     0.020 A 
ATOM     69  C   UNL A   1      43.954  35.462  32.360  1.00  0.00     0.054 A 
BRANCH  69  70
ATOM     70  S   UNL A   1      44.016  37.197  32.883  1.00  0.00     0.124 S 
ATOM     71  O   UNL A   1      45.320  37.265  33.540  1.00  0.00    -0.237 OA
ATOM     72  O   UNL A   1      43.913  37.922  31.619  1.00  0.00    -0.237 OA
ATOM     73  O   UNL A   1      42.863  37.332  33.770  1.00  0.00    -0.744 OA
ENDBRANCH  69  70
ENDBRANCH  50  64
BRANCH  51  74
ATOM     74  C   UNL A   1      42.160  23.646  27.882  1.00  0.00    -0.014 A 
ATOM     75  C   UNL A   1      42.386  23.461  26.507  1.00  0.00     0.010 A 
ATOM     76  C   UNL A   1      41.788  22.542  28.671  1.00  0.00     0.010 A 
ATOM     77  C   UNL A   1      42.253  22.193  25.933  1.00  0.00     0.020 A 
ATOM     78  C   UNL A   1      41.672  21.269  28.104  1.00  0.00     0.020 A 
ATOM     79  C   UNL A   1      41.905  21.103  26.737  1.00  0.00     0.054 A 
BRANCH  79  80
ATOM     80  S   UNL A   1      41.845  19.449  25.992  1.00  0.00     0.124 S 
ATOM     81  O   UNL A   1      42.743  19.595  24.852  1.00  0.00    -0.237 OA
ATOM     82  O   UNL A   1      42.329  18.594  27.075  1.00  0.00    -0.237 OA
ATOM     83  O   UNL A   1      40.432  19.277  25.661  1.00  0.00    -0.744 OA
ENDBRANCH  79  80
ENDBRANCH  51  74
BRANCH  63  84
ATOM     84  C   UNL A   1      47.713  26.796  30.733  1.00  0.00    -0.014 A 
ATOM     85  C   UNL A   1      48.732  26.953  29.780  1.00  0.00     0.010 A 
ATOM     86  C   UNL A   1      48.032  26.290  32.007  1.00  0.00     0.010 A 
ATOM     87  C   UNL A   1      50.049  26.601  30.092  1.00  0.00     0.020 A 
ATOM     88  C   UNL A   1      49.350  25.956  32.329  1.00  0.00     0.020 A 
ATOM     89  C   UNL A   1      50.350  26.107  31.366  1.00  0.00     0.054 A 
BRANCH  89  90
ATOM     90  S   UNL A   1      52.076  25.729  31.774  1.00  0.00     0.124 S 
ATOM     91  O   UNL A   1      52.010  24.302  32.081  1.00  0.00    -0.237 OA
ATOM     92  O   UNL A   1      52.784  26.075  30.543  1.00  0.00    -0.237 OA
ATOM     93  O   UNL A   1      52.360  26.599  32.914  1.00  0.00    -0.744 OA
ENDBRANCH  89  90
ENDBRANCH  63  84
ENDBRANCH  37  38
ENDBRANCH  29  32
ENDBRANCH  27  28
ENDBRANCH  26  27
ENDBRANCH   1  26
TORSDOF 19
ENDMDL
