MODEL 1
REMARK VINA RESULT:     -14.0      0.000      0.000
REMARK SMILES Cc1cc([N+](=O)[O-])ccc1NC(=O)[C@@H]1[C@@H](C(=O)NCCCCNC(=O)c2ccc(-c3c4nc(c(-c5ccc(S(=O)(=O)[O-])cc5)c5ccc([nH]5)c(-c5ccc(S(=O)(=O)[O-])cc5)c5nc(c(-c6ccc(S(=O)(=O)[O-])cc6)c6ccc3[nH]6)C=C5)C=C4)cc2)[C@H]2C=C[C@@H]1C2
REMARK SMILES IDX 20 1 19 2 18 3 16 4 17 5 15 7 14 8 89 9 86 10 88 11 90 12
REMARK SMILES IDX 87 13 12 14 11 15 13 17 10 18 1 19 2 20 3 21 4 22 9 23 8 24
REMARK SMILES IDX 5 25 6 26 7 27 21 28 22 29 23 30 24 31 25 33 26 34 27 35
REMARK SMILES IDX 85 36 28 37 84 38 29 39 30 40 31 41 78 42 32 43 83 44 77 45
REMARK SMILES IDX 79 46 33 47 82 48 76 49 75 50 34 52 64 53 45 54 63 55 46 56
REMARK SMILES IDX 49 57 62 58 80 59 47 60 48 61 61 63 81 64 50 65 35 66 36 67
REMARK SMILES IDX 44 68 37 69 43 70 38 71 39 72 40 73 41 74 42 75 65 76 66 77
REMARK SMILES IDX 74 78 67 79 73 80 68 81 69 82 70 83 71 84 72 85 51 86 52 87
REMARK SMILES IDX 60 88 53 89 59 90 54 91 55 92 56 93 57 94 58 95
REMARK H PARENT 18 6 11 16 23 32 79 51 49 62
REMARK Flexibility Score: inf
ROOT
ATOM      1  C   UNL A   1      35.817  22.987  24.857  1.00  0.00     0.023 C 
ENDROOT
BRANCH   1   2
ATOM      2  C   UNL A   1      34.871  24.119  25.273  1.00  0.00     0.116 C 
BRANCH   2   3
ATOM      3  N   UNL A   1      34.666  25.117  24.236  1.00  0.00    -0.356 N 
ATOM      4  C   UNL A   1      33.800  26.162  24.143  1.00  0.00     0.224 C 
ATOM      5  O   UNL A   1      33.855  26.839  23.112  1.00  0.00    -0.275 OA
ATOM      6  H   UNL A   1      35.263  25.019  23.458  1.00  0.00     0.163 HD
BRANCH   4   7
ATOM      7  C   UNL A   1      32.740  26.419  25.211  1.00  0.00     0.098 C 
ATOM      8  C   UNL A   1      31.533  27.276  24.632  1.00  0.00     0.099 C 
ATOM      9  C   UNL A   1      31.380  28.393  25.699  1.00  0.00     0.025 C 
ATOM     10  C   UNL A   1      33.184  27.293  26.414  1.00  0.00     0.025 C 
ATOM     11  C   UNL A   1      32.559  29.321  25.527  1.00  0.00    -0.027 C 
ATOM     12  C   UNL A   1      31.819  27.687  26.980  1.00  0.00     0.017 C 
ATOM     13  C   UNL A   1      33.645  28.652  25.940  1.00  0.00    -0.027 C 
BRANCH   8  14
ATOM     14  C   UNL A   1      30.237  26.512  24.421  1.00  0.00     0.228 C 
ATOM     15  N   UNL A   1      29.180  27.043  23.720  1.00  0.00    -0.326 N 
ATOM     16  H   UNL A   1      28.406  26.437  23.676  1.00  0.00     0.169 HD
ATOM     17  O   UNL A   1      30.063  25.392  24.910  1.00  0.00    -0.274 OA
BRANCH  15  18
ATOM     18  C   UNL A   1      28.964  28.266  23.047  1.00  0.00     0.044 A 
ATOM     19  C   UNL A   1      26.450  28.197  23.660  1.00  0.00     0.047 C 
ATOM     20  C   UNL A   1      27.678  28.856  23.082  1.00  0.00    -0.021 A 
ATOM     21  C   UNL A   1      27.489  30.146  22.539  1.00  0.00     0.091 A 
ATOM     22  C   UNL A   1      28.555  30.838  21.955  1.00  0.00     0.269 A 
ATOM     23  C   UNL A   1      29.981  28.941  22.358  1.00  0.00     0.033 A 
ATOM     24  C   UNL A   1      29.796  30.226  21.834  1.00  0.00     0.088 A 
BRANCH  22  25
ATOM     25  N   UNL A   1      28.364  32.209  21.471  1.00  0.00     0.062 N 
ATOM     26  O   UNL A   1      27.983  32.357  20.300  1.00  0.00    -0.258 OA
ATOM     27  O   UNL A   1      28.580  33.137  22.262  1.00  0.00    -0.258 OA
ENDBRANCH  22  25
ENDBRANCH  15  18
ENDBRANCH   8  14
ENDBRANCH   4   7
ENDBRANCH   2   3
ENDBRANCH   1   2
BRANCH   1  28
ATOM     28  C   UNL A   1      36.907  22.618  25.859  1.00  0.00     0.023 C 
BRANCH  28  29
ATOM     29  C   UNL A   1      38.075  23.596  25.912  1.00  0.00     0.116 C 
BRANCH  29  30
ATOM     30  N   UNL A   1      39.147  23.162  26.795  1.00  0.00    -0.352 N 
ATOM     31  C   UNL A   1      40.028  23.956  27.508  1.00  0.00     0.251 C 
ATOM     32  H   UNL A   1      39.261  22.189  26.895  1.00  0.00     0.163 HD
ATOM     33  O   UNL A   1      41.069  23.529  27.981  1.00  0.00    -0.269 OA
BRANCH  31  34
ATOM     34  C   UNL A   1      39.582  25.332  27.809  1.00  0.00     0.039 A 
ATOM     35  C   UNL A   1      40.101  26.357  27.009  1.00  0.00     0.014 A 
ATOM     36  C   UNL A   1      38.911  25.613  28.995  1.00  0.00     0.014 A 
ATOM     37  C   UNL A   1      40.108  27.663  27.491  1.00  0.00     0.010 A 
ATOM     38  C   UNL A   1      39.005  26.888  29.515  1.00  0.00     0.010 A 
ATOM     39  C   UNL A   1      39.644  27.901  28.784  1.00  0.00    -0.014 A 
BRANCH  39  40
ATOM     40  C   UNL A   1      39.843  29.161  29.489  1.00  0.00     0.031 A 
ATOM     41  C   UNL A   1      38.825  30.230  29.385  1.00  0.00     0.074 A 
ATOM     42  C   UNL A   1      40.909  29.316  30.306  1.00  0.00     0.049 A 
ATOM     43  N   UNL A   1      39.048  31.485  29.599  1.00  0.00    -0.248 NA
ATOM     44  C   UNL A   1      37.457  29.954  28.962  1.00  0.00     0.031 C 
ATOM     45  C   UNL A   1      41.099  30.362  31.306  1.00  0.00     0.029 A 
ATOM     46  N   UNL A   1      42.150  28.678  30.241  1.00  0.00    -0.354 N 
ATOM     47  C   UNL A   1      37.822  32.113  29.658  1.00  0.00     0.074 A 
ATOM     48  C   UNL A   1      36.880  31.143  29.152  1.00  0.00     0.031 C 
ATOM     49  C   UNL A   1      42.415  30.501  31.530  1.00  0.00     0.029 A 
ATOM     50  C   UNL A   1      43.106  29.652  30.572  1.00  0.00     0.049 A 
ATOM     51  H   UNL A   1      42.320  27.736  30.009  1.00  0.00     0.167 HD
ATOM     52  C   UNL A   1      37.708  33.321  30.282  1.00  0.00     0.031 A 
ATOM     53  C   UNL A   1      44.099  30.062  29.731  1.00  0.00     0.031 A 
ATOM     54  C   UNL A   1      39.013  33.849  30.679  1.00  0.00     0.049 A 
ATOM     55  C   UNL A   1      44.055  31.548  29.449  1.00  0.00     0.074 A 
ATOM     56  C   UNL A   1      39.689  33.873  31.889  1.00  0.00     0.029 A 
ATOM     57  N   UNL A   1      39.941  34.189  29.702  1.00  0.00    -0.354 N 
ATOM     58  N   UNL A   1      43.020  32.304  29.696  1.00  0.00    -0.248 NA
ATOM     59  C   UNL A   1      45.147  32.291  28.823  1.00  0.00     0.031 C 
ATOM     60  C   UNL A   1      41.058  34.131  31.618  1.00  0.00     0.029 A 
ATOM     61  C   UNL A   1      41.205  34.295  30.252  1.00  0.00     0.049 A 
ATOM     62  H   UNL A   1      39.729  34.334  28.751  1.00  0.00     0.167 HD
ATOM     63  C   UNL A   1      43.276  33.584  29.284  1.00  0.00     0.074 A 
ATOM     64  C   UNL A   1      44.625  33.529  28.751  1.00  0.00     0.031 C 
ATOM     65  C   UNL A   1      42.357  34.585  29.410  1.00  0.00     0.031 A 
BRANCH  52  66
ATOM     66  C   UNL A   1      36.391  33.850  30.823  1.00  0.00    -0.014 A 
ATOM     67  C   UNL A   1      35.337  34.135  29.928  1.00  0.00     0.010 A 
ATOM     68  C   UNL A   1      36.152  34.169  32.172  1.00  0.00     0.010 A 
ATOM     69  C   UNL A   1      34.171  34.804  30.335  1.00  0.00     0.020 A 
ATOM     70  C   UNL A   1      35.011  34.872  32.589  1.00  0.00     0.020 A 
ATOM     71  C   UNL A   1      34.031  35.201  31.662  1.00  0.00     0.054 A 
BRANCH  71  72
ATOM     72  S   UNL A   1      32.571  36.154  32.155  1.00  0.00     0.124 S 
ATOM     73  O   UNL A   1      33.098  37.017  33.209  1.00  0.00    -0.237 OA
ATOM     74  O   UNL A   1      32.202  36.827  30.914  1.00  0.00    -0.237 OA
ATOM     75  O   UNL A   1      31.628  35.133  32.610  1.00  0.00    -0.744 OA
ENDBRANCH  71  72
ENDBRANCH  52  66
BRANCH  53  76
ATOM     76  C   UNL A   1      44.552  29.029  28.759  1.00  0.00    -0.014 A 
ATOM     77  C   UNL A   1      44.037  29.102  27.447  1.00  0.00     0.010 A 
ATOM     78  C   UNL A   1      45.736  28.307  28.988  1.00  0.00     0.010 A 
ATOM     79  C   UNL A   1      44.777  28.618  26.366  1.00  0.00     0.020 A 
ATOM     80  C   UNL A   1      46.477  27.814  27.902  1.00  0.00     0.020 A 
ATOM     81  C   UNL A   1      46.023  28.034  26.599  1.00  0.00     0.054 A 
BRANCH  81  82
ATOM     82  S   UNL A   1      47.111  27.759  25.168  1.00  0.00     0.124 S 
ATOM     83  O   UNL A   1      47.317  26.315  25.207  1.00  0.00    -0.237 OA
ATOM     84  O   UNL A   1      46.285  28.247  24.063  1.00  0.00    -0.237 OA
ATOM     85  O   UNL A   1      48.282  28.571  25.477  1.00  0.00    -0.744 OA
ENDBRANCH  81  82
ENDBRANCH  53  76
BRANCH  65  86
ATOM     86  C   UNL A   1      42.494  35.967  28.827  1.00  0.00    -0.014 A 
ATOM     87  C   UNL A   1      43.217  37.003  29.439  1.00  0.00     0.010 A 
ATOM     88  C   UNL A   1      41.978  36.214  27.533  1.00  0.00     0.010 A 
ATOM     89  C   UNL A   1      43.359  38.252  28.819  1.00  0.00     0.020 A 
ATOM     90  C   UNL A   1      42.148  37.441  26.889  1.00  0.00     0.020 A 
ATOM     91  C   UNL A   1      42.817  38.465  27.550  1.00  0.00     0.054 A 
BRANCH  91  92
ATOM     92  S   UNL A   1      43.048  40.065  26.733  1.00  0.00     0.124 S 
ATOM     93  O   UNL A   1      43.249  40.957  27.872  1.00  0.00    -0.237 OA
ATOM     94  O   UNL A   1      44.227  39.842  25.897  1.00  0.00    -0.237 OA
ATOM     95  O   UNL A   1      41.801  40.257  25.998  1.00  0.00    -0.744 OA
ENDBRANCH  91  92
ENDBRANCH  65  86
ENDBRANCH  39  40
ENDBRANCH  31  34
ENDBRANCH  29  30
ENDBRANCH  28  29
ENDBRANCH   1  28
TORSDOF 17
ENDMDL
MODEL 2
REMARK VINA RESULT:     -13.9      2.274      4.135
REMARK SMILES Cc1cc([N+](=O)[O-])ccc1NC(=O)[C@@H]1[C@@H](C(=O)NCCCCNC(=O)c2ccc(-c3c4nc(c(-c5ccc(S(=O)(=O)[O-])cc5)c5ccc([nH]5)c(-c5ccc(S(=O)(=O)[O-])cc5)c5nc(c(-c6ccc(S(=O)(=O)[O-])cc6)c6ccc3[nH]6)C=C5)C=C4)cc2)[C@H]2C=C[C@@H]1C2
REMARK SMILES IDX 20 1 19 2 18 3 16 4 17 5 15 7 14 8 89 9 86 10 88 11 90 12
REMARK SMILES IDX 87 13 12 14 11 15 13 17 10 18 1 19 2 20 3 21 4 22 9 23 8 24
REMARK SMILES IDX 5 25 6 26 7 27 21 28 22 29 23 30 24 31 25 33 26 34 27 35
REMARK SMILES IDX 85 36 28 37 84 38 29 39 30 40 31 41 78 42 32 43 83 44 77 45
REMARK SMILES IDX 79 46 33 47 82 48 76 49 75 50 34 52 64 53 45 54 63 55 46 56
REMARK SMILES IDX 49 57 62 58 80 59 47 60 48 61 61 63 81 64 50 65 35 66 36 67
REMARK SMILES IDX 44 68 37 69 43 70 38 71 39 72 40 73 41 74 42 75 65 76 66 77
REMARK SMILES IDX 74 78 67 79 73 80 68 81 69 82 70 83 71 84 72 85 51 86 52 87
REMARK SMILES IDX 60 88 53 89 59 90 54 91 55 92 56 93 57 94 58 95
REMARK H PARENT 18 6 11 16 23 32 79 51 49 62
REMARK Flexibility Score: inf
ROOT
ATOM      1  C   UNL A   1      36.857  22.488  24.131  1.00  0.00     0.023 C 
ENDROOT
BRANCH   1   2
ATOM      2  C   UNL A   1      35.975  23.740  24.147  1.00  0.00     0.116 C 
BRANCH   2   3
ATOM      3  N   UNL A   1      34.722  23.579  23.427  1.00  0.00    -0.356 N 
ATOM      4  C   UNL A   1      33.604  24.351  23.371  1.00  0.00     0.224 C 
ATOM      5  O   UNL A   1      32.677  23.938  22.668  1.00  0.00    -0.275 OA
ATOM      6  H   UNL A   1      34.674  22.762  22.879  1.00  0.00     0.163 HD
BRANCH   4   7
ATOM      7  C   UNL A   1      33.459  25.611  24.222  1.00  0.00     0.098 C 
ATOM      8  C   UNL A   1      31.969  25.784  24.747  1.00  0.00     0.099 C 
ATOM      9  C   UNL A   1      31.658  27.260  24.377  1.00  0.00     0.025 C 
ATOM     10  C   UNL A   1      33.680  26.958  23.484  1.00  0.00     0.025 C 
ATOM     11  C   UNL A   1      31.489  27.304  22.877  1.00  0.00    -0.027 C 
ATOM     12  C   UNL A   1      33.031  27.922  24.480  1.00  0.00     0.017 C 
ATOM     13  C   UNL A   1      32.701  27.104  22.341  1.00  0.00    -0.027 C 
BRANCH   8  14
ATOM     14  C   UNL A   1      31.768  25.518  26.229  1.00  0.00     0.228 C 
ATOM     15  N   UNL A   1      31.903  24.262  26.772  1.00  0.00    -0.326 N 
ATOM     16  H   UNL A   1      31.731  24.242  27.741  1.00  0.00     0.169 HD
ATOM     17  O   UNL A   1      31.433  26.418  27.006  1.00  0.00    -0.274 OA
BRANCH  15  18
ATOM     18  C   UNL A   1      32.234  22.995  26.243  1.00  0.00     0.044 A 
ATOM     19  C   UNL A   1      34.503  23.031  27.489  1.00  0.00     0.047 C 
ATOM     20  C   UNL A   1      33.441  22.373  26.644  1.00  0.00    -0.021 A 
ATOM     21  C   UNL A   1      33.709  21.047  26.236  1.00  0.00     0.091 A 
ATOM     22  C   UNL A   1      32.803  20.351  25.430  1.00  0.00     0.269 A 
ATOM     23  C   UNL A   1      31.403  22.308  25.347  1.00  0.00     0.033 A 
ATOM     24  C   UNL A   1      31.663  20.989  24.957  1.00  0.00     0.088 A 
BRANCH  22  25
ATOM     25  N   UNL A   1      33.055  18.949  25.084  1.00  0.00     0.062 N 
ATOM     26  O   UNL A   1      32.392  18.083  25.675  1.00  0.00    -0.258 OA
ATOM     27  O   UNL A   1      33.904  18.711  24.214  1.00  0.00    -0.258 OA
ENDBRANCH  22  25
ENDBRANCH  15  18
ENDBRANCH   8  14
ENDBRANCH   4   7
ENDBRANCH   2   3
ENDBRANCH   1   2
BRANCH   1  28
ATOM     28  C   UNL A   1      37.579  22.155  25.434  1.00  0.00     0.023 C 
BRANCH  28  29
ATOM     29  C   UNL A   1      38.196  23.356  26.141  1.00  0.00     0.116 C 
BRANCH  29  30
ATOM     30  N   UNL A   1      39.380  23.020  26.916  1.00  0.00    -0.352 N 
ATOM     31  C   UNL A   1      40.295  23.890  27.482  1.00  0.00     0.251 C 
ATOM     32  H   UNL A   1      39.553  22.060  27.053  1.00  0.00     0.163 HD
ATOM     33  O   UNL A   1      41.403  23.536  27.853  1.00  0.00    -0.269 OA
BRANCH  31  34
ATOM     34  C   UNL A   1      39.819  25.260  27.759  1.00  0.00     0.039 A 
ATOM     35  C   UNL A   1      40.302  26.281  26.932  1.00  0.00     0.014 A 
ATOM     36  C   UNL A   1      39.156  25.550  28.948  1.00  0.00     0.014 A 
ATOM     37  C   UNL A   1      40.282  27.596  27.387  1.00  0.00     0.010 A 
ATOM     38  C   UNL A   1      39.224  26.838  29.440  1.00  0.00     0.010 A 
ATOM     39  C   UNL A   1      39.828  27.850  28.680  1.00  0.00    -0.014 A 
BRANCH  39  40
ATOM     40  C   UNL A   1      40.004  29.130  29.356  1.00  0.00     0.031 A 
ATOM     41  C   UNL A   1      38.965  30.176  29.230  1.00  0.00     0.074 A 
ATOM     42  C   UNL A   1      41.069  29.324  30.166  1.00  0.00     0.049 A 
ATOM     43  N   UNL A   1      39.164  31.439  29.416  1.00  0.00    -0.248 NA
ATOM     44  C   UNL A   1      37.602  29.864  28.817  1.00  0.00     0.031 C 
ATOM     45  C   UNL A   1      41.241  30.395  31.142  1.00  0.00     0.029 A 
ATOM     46  N   UNL A   1      42.322  28.709  30.112  1.00  0.00    -0.354 N 
ATOM     47  C   UNL A   1      37.926  32.044  29.464  1.00  0.00     0.074 A 
ATOM     48  C   UNL A   1      37.002  31.045  28.983  1.00  0.00     0.031 C 
ATOM     49  C   UNL A   1      42.555  30.565  31.359  1.00  0.00     0.029 A 
ATOM     50  C   UNL A   1      43.259  29.709  30.419  1.00  0.00     0.049 A 
ATOM     51  H   UNL A   1      42.510  27.766  29.901  1.00  0.00     0.167 HD
ATOM     52  C   UNL A   1      37.790  33.264  30.062  1.00  0.00     0.031 A 
ATOM     53  C   UNL A   1      44.243  30.118  29.565  1.00  0.00     0.031 A 
ATOM     54  C   UNL A   1      39.085  33.826  30.443  1.00  0.00     0.049 A 
ATOM     55  C   UNL A   1      44.168  31.597  29.251  1.00  0.00     0.074 A 
ATOM     56  C   UNL A   1      39.764  33.890  31.650  1.00  0.00     0.029 A 
ATOM     57  N   UNL A   1      40.005  34.162  29.455  1.00  0.00    -0.354 N 
ATOM     58  N   UNL A   1      43.120  32.338  29.483  1.00  0.00    -0.248 NA
ATOM     59  C   UNL A   1      45.244  32.347  28.605  1.00  0.00     0.031 C 
ATOM     60  C   UNL A   1      41.127  34.169  31.369  1.00  0.00     0.029 A 
ATOM     61  C   UNL A   1      41.267  34.305  29.999  1.00  0.00     0.049 A 
ATOM     62  H   UNL A   1      39.788  34.282  28.502  1.00  0.00     0.167 HD
ATOM     63  C   UNL A   1      43.349  33.613  29.042  1.00  0.00     0.074 A 
ATOM     64  C   UNL A   1      44.698  33.572  28.507  1.00  0.00     0.031 C 
ATOM     65  C   UNL A   1      42.411  34.598  29.148  1.00  0.00     0.031 A 
BRANCH  52  66
ATOM     66  C   UNL A   1      36.465  33.780  30.594  1.00  0.00    -0.014 A 
ATOM     67  C   UNL A   1      35.451  34.158  29.687  1.00  0.00     0.010 A 
ATOM     68  C   UNL A   1      36.180  33.996  31.955  1.00  0.00     0.010 A 
ATOM     69  C   UNL A   1      34.285  34.820  30.102  1.00  0.00     0.020 A 
ATOM     70  C   UNL A   1      35.038  34.690  32.384  1.00  0.00     0.020 A 
ATOM     71  C   UNL A   1      34.101  35.115  31.451  1.00  0.00     0.054 A 
BRANCH  71  72
ATOM     72  S   UNL A   1      32.643  36.059  31.964  1.00  0.00     0.124 S 
ATOM     73  O   UNL A   1      33.193  36.968  32.967  1.00  0.00    -0.237 OA
ATOM     74  O   UNL A   1      32.217  36.681  30.715  1.00  0.00    -0.237 OA
ATOM     75  O   UNL A   1      31.737  35.039  32.490  1.00  0.00    -0.744 OA
ENDBRANCH  71  72
ENDBRANCH  52  66
BRANCH  53  76
ATOM     76  C   UNL A   1      44.713  29.074  28.616  1.00  0.00    -0.014 A 
ATOM     77  C   UNL A   1      44.080  29.008  27.357  1.00  0.00     0.010 A 
ATOM     78  C   UNL A   1      45.982  28.489  28.772  1.00  0.00     0.010 A 
ATOM     79  C   UNL A   1      44.767  28.528  26.240  1.00  0.00     0.020 A 
ATOM     80  C   UNL A   1      46.672  28.001  27.651  1.00  0.00     0.020 A 
ATOM     81  C   UNL A   1      46.083  28.087  26.387  1.00  0.00     0.054 A 
BRANCH  81  82
ATOM     82  S   UNL A   1      47.063  27.826  24.877  1.00  0.00     0.124 S 
ATOM     83  O   UNL A   1      46.461  28.776  23.947  1.00  0.00    -0.237 OA
ATOM     84  O   UNL A   1      48.413  28.161  25.332  1.00  0.00    -0.237 OA
ATOM     85  O   UNL A   1      46.840  26.417  24.572  1.00  0.00    -0.744 OA
ENDBRANCH  81  82
ENDBRANCH  53  76
BRANCH  65  86
ATOM     86  C   UNL A   1      42.520  35.969  28.534  1.00  0.00    -0.014 A 
ATOM     87  C   UNL A   1      41.856  36.351  27.357  1.00  0.00     0.010 A 
ATOM     88  C   UNL A   1      43.223  36.976  29.236  1.00  0.00     0.010 A 
ATOM     89  C   UNL A   1      41.948  37.660  26.865  1.00  0.00     0.020 A 
ATOM     90  C   UNL A   1      43.287  38.293  28.777  1.00  0.00     0.020 A 
ATOM     91  C   UNL A   1      42.669  38.622  27.575  1.00  0.00     0.054 A 
BRANCH  91  92
ATOM     92  S   UNL A   1      42.742  40.324  26.960  1.00  0.00     0.124 S 
ATOM     93  O   UNL A   1      43.264  41.041  28.121  1.00  0.00    -0.237 OA
ATOM     94  O   UNL A   1      43.656  40.224  25.823  1.00  0.00    -0.237 OA
ATOM     95  O   UNL A   1      41.355  40.621  26.610  1.00  0.00    -0.744 OA
ENDBRANCH  91  92
ENDBRANCH  65  86
ENDBRANCH  39  40
ENDBRANCH  31  34
ENDBRANCH  29  30
ENDBRANCH  28  29
ENDBRANCH   1  28
TORSDOF 17
ENDMDL
MODEL 3
REMARK VINA RESULT:     -13.8      4.947     11.523
REMARK SMILES Cc1cc([N+](=O)[O-])ccc1NC(=O)[C@@H]1[C@@H](C(=O)NCCCCNC(=O)c2ccc(-c3c4nc(c(-c5ccc(S(=O)(=O)[O-])cc5)c5ccc([nH]5)c(-c5ccc(S(=O)(=O)[O-])cc5)c5nc(c(-c6ccc(S(=O)(=O)[O-])cc6)c6ccc3[nH]6)C=C5)C=C4)cc2)[C@H]2C=C[C@@H]1C2
REMARK SMILES IDX 20 1 19 2 18 3 16 4 17 5 15 7 14 8 89 9 86 10 88 11 90 12
REMARK SMILES IDX 87 13 12 14 11 15 13 17 10 18 1 19 2 20 3 21 4 22 9 23 8 24
REMARK SMILES IDX 5 25 6 26 7 27 21 28 22 29 23 30 24 31 25 33 26 34 27 35
REMARK SMILES IDX 85 36 28 37 84 38 29 39 30 40 31 41 78 42 32 43 83 44 77 45
REMARK SMILES IDX 79 46 33 47 82 48 76 49 75 50 34 52 64 53 45 54 63 55 46 56
REMARK SMILES IDX 49 57 62 58 80 59 47 60 48 61 61 63 81 64 50 65 35 66 36 67
REMARK SMILES IDX 44 68 37 69 43 70 38 71 39 72 40 73 41 74 42 75 65 76 66 77
REMARK SMILES IDX 74 78 67 79 73 80 68 81 69 82 70 83 71 84 72 85 51 86 52 87
REMARK SMILES IDX 60 88 53 89 59 90 54 91 55 92 56 93 57 94 58 95
REMARK H PARENT 18 6 11 16 23 32 79 51 49 62
REMARK Flexibility Score: inf
ROOT
ATOM      1  C   UNL A   1      32.343  30.734  26.088  1.00  0.00     0.023 C 
ENDROOT
BRANCH   1   2
ATOM      2  C   UNL A   1      31.229  30.142  25.218  1.00  0.00     0.116 C 
BRANCH   2   3
ATOM      3  N   UNL A   1      31.720  29.393  24.074  1.00  0.00    -0.356 N 
ATOM      4  C   UNL A   1      31.913  28.061  23.878  1.00  0.00     0.224 C 
ATOM      5  O   UNL A   1      32.365  27.720  22.781  1.00  0.00    -0.275 OA
ATOM      6  H   UNL A   1      31.956  29.951  23.297  1.00  0.00     0.163 HD
BRANCH   4   7
ATOM      7  C   UNL A   1      31.687  27.048  24.997  1.00  0.00     0.098 C 
ATOM      8  C   UNL A   1      32.491  25.703  24.731  1.00  0.00     0.099 C 
ATOM      9  C   UNL A   1      31.402  24.618  24.948  1.00  0.00     0.025 C 
ATOM     10  C   UNL A   1      30.238  26.511  25.145  1.00  0.00     0.025 C 
ATOM     11  C   UNL A   1      30.474  24.692  23.758  1.00  0.00    -0.027 C 
ATOM     12  C   UNL A   1      30.497  25.265  25.994  1.00  0.00     0.017 C 
ATOM     13  C   UNL A   1      29.788  25.838  23.868  1.00  0.00    -0.027 C 
BRANCH   8  14
ATOM     14  C   UNL A   1      33.698  25.481  25.625  1.00  0.00     0.228 C 
ATOM     15  N   UNL A   1      34.217  24.230  25.859  1.00  0.00    -0.326 N 
ATOM     16  H   UNL A   1      34.990  24.241  26.467  1.00  0.00     0.169 HD
ATOM     17  O   UNL A   1      34.243  26.419  26.218  1.00  0.00    -0.274 OA
BRANCH  15  18
ATOM     18  C   UNL A   1      33.882  22.931  25.415  1.00  0.00     0.044 A 
ATOM     19  C   UNL A   1      33.616  22.127  27.861  1.00  0.00     0.047 C 
ATOM     20  C   UNL A   1      33.523  21.946  26.367  1.00  0.00    -0.021 A 
ATOM     21  C   UNL A   1      33.047  20.692  25.924  1.00  0.00     0.091 A 
ATOM     22  C   UNL A   1      32.943  20.409  24.559  1.00  0.00     0.269 A 
ATOM     23  C   UNL A   1      33.870  22.574  24.059  1.00  0.00     0.033 A 
ATOM     24  C   UNL A   1      33.384  21.336  23.622  1.00  0.00     0.088 A 
BRANCH  22  25
ATOM     25  N   UNL A   1      32.370  19.134  24.114  1.00  0.00     0.062 N 
ATOM     26  O   UNL A   1      32.010  18.330  24.987  1.00  0.00    -0.258 OA
ATOM     27  O   UNL A   1      32.266  18.941  22.896  1.00  0.00    -0.258 OA
ENDBRANCH  22  25
ENDBRANCH  15  18
ENDBRANCH   8  14
ENDBRANCH   4   7
ENDBRANCH   2   3
ENDBRANCH   1   2
BRANCH   1  28
ATOM     28  C   UNL A   1      32.849  29.852  27.226  1.00  0.00     0.023 C 
BRANCH  28  29
ATOM     29  C   UNL A   1      34.362  29.672  27.263  1.00  0.00     0.116 C 
BRANCH  29  30
ATOM     30  N   UNL A   1      35.080  30.905  27.546  1.00  0.00    -0.352 N 
ATOM     31  C   UNL A   1      36.310  31.044  28.166  1.00  0.00     0.251 C 
ATOM     32  H   UNL A   1      34.639  31.740  27.266  1.00  0.00     0.163 HD
ATOM     33  O   UNL A   1      36.701  32.103  28.629  1.00  0.00    -0.269 OA
BRANCH  31  34
ATOM     34  C   UNL A   1      37.210  29.874  28.116  1.00  0.00     0.039 A 
ATOM     35  C   UNL A   1      37.307  29.097  29.277  1.00  0.00     0.014 A 
ATOM     36  C   UNL A   1      38.118  29.727  27.072  1.00  0.00     0.014 A 
ATOM     37  C   UNL A   1      38.428  28.294  29.469  1.00  0.00     0.010 A 
ATOM     38  C   UNL A   1      39.273  29.008  27.305  1.00  0.00     0.010 A 
ATOM     39  C   UNL A   1      39.449  28.331  28.520  1.00  0.00    -0.014 A 
BRANCH  39  40
ATOM     40  C   UNL A   1      40.768  27.750  28.737  1.00  0.00     0.031 A 
ATOM     41  C   UNL A   1      41.007  26.327  28.407  1.00  0.00     0.074 A 
ATOM     42  C   UNL A   1      41.790  28.531  29.153  1.00  0.00     0.049 A 
ATOM     43  N   UNL A   1      41.952  25.603  28.908  1.00  0.00    -0.248 NA
ATOM     44  C   UNL A   1      40.133  25.588  27.504  1.00  0.00     0.031 C 
ATOM     45  C   UNL A   1      43.211  28.201  29.125  1.00  0.00     0.029 A 
ATOM     46  N   UNL A   1      41.730  29.711  29.899  1.00  0.00    -0.354 N 
ATOM     47  C   UNL A   1      42.006  24.437  28.172  1.00  0.00     0.074 A 
ATOM     48  C   UNL A   1      40.794  24.433  27.388  1.00  0.00     0.031 C 
ATOM     49  C   UNL A   1      43.839  28.946  30.048  1.00  0.00     0.029 A 
ATOM     50  C   UNL A   1      42.814  29.663  30.790  1.00  0.00     0.049 A 
ATOM     51  H   UNL A   1      41.062  30.430  29.817  1.00  0.00     0.167 HD
ATOM     52  C   UNL A   1      43.144  23.684  28.178  1.00  0.00     0.031 A 
ATOM     53  C   UNL A   1      42.684  29.667  32.149  1.00  0.00     0.031 A 
ATOM     54  C   UNL A   1      44.123  24.192  29.137  1.00  0.00     0.049 A 
ATOM     55  C   UNL A   1      43.304  28.449  32.802  1.00  0.00     0.074 A 
ATOM     56  C   UNL A   1      45.261  24.971  28.996  1.00  0.00     0.029 A 
ATOM     57  N   UNL A   1      43.831  24.164  30.496  1.00  0.00    -0.354 N 
ATOM     58  N   UNL A   1      43.630  27.364  32.155  1.00  0.00    -0.248 NA
ATOM     59  C   UNL A   1      43.558  28.336  34.236  1.00  0.00     0.031 C 
ATOM     60  C   UNL A   1      45.591  25.496  30.273  1.00  0.00     0.029 A 
ATOM     61  C   UNL A   1      44.675  25.010  31.190  1.00  0.00     0.049 A 
ATOM     62  H   UNL A   1      43.121  23.619  30.908  1.00  0.00     0.167 HD
ATOM     63  C   UNL A   1      44.117  26.433  33.031  1.00  0.00     0.074 A 
ATOM     64  C   UNL A   1      44.060  27.091  34.324  1.00  0.00     0.031 C 
ATOM     65  C   UNL A   1      44.522  25.195  32.625  1.00  0.00     0.031 A 
BRANCH  52  66
ATOM     66  C   UNL A   1      43.486  22.697  27.075  1.00  0.00    -0.014 A 
ATOM     67  C   UNL A   1      42.651  21.579  26.860  1.00  0.00     0.010 A 
ATOM     68  C   UNL A   1      44.644  22.760  26.278  1.00  0.00     0.010 A 
ATOM     69  C   UNL A   1      43.011  20.533  25.994  1.00  0.00     0.020 A 
ATOM     70  C   UNL A   1      45.038  21.706  25.439  1.00  0.00     0.020 A 
ATOM     71  C   UNL A   1      44.225  20.587  25.314  1.00  0.00     0.054 A 
BRANCH  71  72
ATOM     72  S   UNL A   1      44.727  19.187  24.280  1.00  0.00     0.124 S 
ATOM     73  O   UNL A   1      44.479  19.686  22.930  1.00  0.00    -0.237 OA
ATOM     74  O   UNL A   1      46.130  19.017  24.643  1.00  0.00    -0.237 OA
ATOM     75  O   UNL A   1      43.841  18.105  24.707  1.00  0.00    -0.744 OA
ENDBRANCH  71  72
ENDBRANCH  52  66
BRANCH  53  76
ATOM     76  C   UNL A   1      41.476  30.375  32.653  1.00  0.00    -0.014 A 
ATOM     77  C   UNL A   1      40.318  29.602  32.881  1.00  0.00     0.010 A 
ATOM     78  C   UNL A   1      41.595  31.626  33.283  1.00  0.00     0.010 A 
ATOM     79  C   UNL A   1      39.386  29.986  33.847  1.00  0.00     0.020 A 
ATOM     80  C   UNL A   1      40.656  32.016  34.250  1.00  0.00     0.020 A 
ATOM     81  C   UNL A   1      39.598  31.161  34.569  1.00  0.00     0.054 A 
BRANCH  81  82
ATOM     82  S   UNL A   1      38.585  31.437  36.055  1.00  0.00     0.124 S 
ATOM     83  O   UNL A   1      38.472  30.092  36.609  1.00  0.00    -0.237 OA
ATOM     84  O   UNL A   1      39.420  32.364  36.821  1.00  0.00    -0.237 OA
ATOM     85  O   UNL A   1      37.353  32.005  35.520  1.00  0.00    -0.744 OA
ENDBRANCH  81  82
ENDBRANCH  53  76
BRANCH  65  86
ATOM     86  C   UNL A   1      44.902  24.063  33.543  1.00  0.00    -0.014 A 
ATOM     87  C   UNL A   1      44.062  22.973  33.825  1.00  0.00     0.010 A 
ATOM     88  C   UNL A   1      46.219  24.015  34.057  1.00  0.00     0.010 A 
ATOM     89  C   UNL A   1      44.494  21.918  34.640  1.00  0.00     0.020 A 
ATOM     90  C   UNL A   1      46.673  22.949  34.837  1.00  0.00     0.020 A 
ATOM     91  C   UNL A   1      45.795  21.916  35.147  1.00  0.00     0.054 A 
BRANCH  91  92
ATOM     92  S   UNL A   1      46.362  20.525  36.159  1.00  0.00     0.124 S 
ATOM     93  O   UNL A   1      45.733  20.813  37.445  1.00  0.00    -0.237 OA
ATOM     94  O   UNL A   1      45.831  19.363  35.448  1.00  0.00    -0.237 OA
ATOM     95  O   UNL A   1      47.817  20.652  36.129  1.00  0.00    -0.744 OA
ENDBRANCH  91  92
ENDBRANCH  65  86
ENDBRANCH  39  40
ENDBRANCH  31  34
ENDBRANCH  29  30
ENDBRANCH  28  29
ENDBRANCH   1  28
TORSDOF 17
ENDMDL
