MODEL 1
REMARK VINA RESULT:     -10.7      0.000      0.000
REMARK SMILES CN(C)C(=O)c1cccc(N2CCC3(CC2)[C@H](C(=O)NCCCCNC(=O)c2ccc(-c4c5nc(c(-c6ccc(S(=O)(=O)[O-])cc6)c6ccc([nH]6)c(-c6ccc(S(=O)(=O)[O-])cc6)c6nc(c(-c7ccc(S(=O)(=O)[O-])cc7)c7ccc4[nH]7)C=C6)C=C5)cc2)CC(=O)N3C)n1
REMARK SMILES IDX 23 1 22 2 21 3 20 4 18 5 19 6 17 8 11 9 12 10 16 11 13 12
REMARK SMILES IDX 15 13 14 14 91 15 88 16 89 17 92 18 90 19 10 20 6 21 7 22
REMARK SMILES IDX 93 23 8 24 9 25 4 26 1 27 2 28 3 29 5 30 24 31 25 32 26 33
REMARK SMILES IDX 27 35 28 36 29 37 87 38 30 39 86 40 31 41 32 42 33 43 80 44
REMARK SMILES IDX 34 45 85 46 79 47 81 48 35 49 84 50 78 51 77 52 36 54 66 55
REMARK SMILES IDX 47 56 65 57 48 58 51 59 64 60 82 61 49 62 50 63 63 65 83 66
REMARK SMILES IDX 52 67 37 68 38 69 46 70 39 71 45 72 40 73 41 74 42 75 43 76
REMARK SMILES IDX 44 77 67 78 68 79 76 80 69 81 75 82 70 83 71 84 72 85 73 86
REMARK SMILES IDX 74 87 53 88 54 89 62 90 55 91 61 92 56 93 57 94 58 95 59 96
REMARK SMILES IDX 60 97
REMARK H PARENT 20 7 25 34 81 53 51 64
REMARK Flexibility Score: inf
ROOT
ATOM      1  C   UNL A   1      36.163  23.369  25.698  1.00  0.00     0.023 C 
ENDROOT
BRANCH   1   2
ATOM      2  C   UNL A   1      35.186  22.937  26.786  1.00  0.00     0.023 C 
BRANCH   2   3
ATOM      3  C   UNL A   1      33.751  23.451  26.596  1.00  0.00     0.116 C 
BRANCH   3   4
ATOM      4  N   UNL A   1      33.389  23.773  25.223  1.00  0.00    -0.356 N 
ATOM      5  C   UNL A   1      32.511  24.649  24.665  1.00  0.00     0.226 C 
ATOM      6  O   UNL A   1      32.514  24.715  23.429  1.00  0.00    -0.275 OA
ATOM      7  H   UNL A   1      33.885  23.245  24.557  1.00  0.00     0.163 HD
BRANCH   5   8
ATOM      8  C   UNL A   1      31.529  25.536  25.442  1.00  0.00     0.113 C 
ATOM      9  N   UNL A   1      33.473  29.156  26.659  1.00  0.00    -0.356 N 
ATOM     10  C   UNL A   1      33.731  28.758  25.293  1.00  0.00     0.120 C 
ATOM     11  C   UNL A   1      32.115  29.044  27.173  1.00  0.00     0.120 C 
ATOM     12  C   UNL A   1      33.299  27.315  25.196  1.00  0.00     0.051 C 
ATOM     13  C   UNL A   1      31.543  27.632  26.922  1.00  0.00     0.051 C 
ATOM     14  C   UNL A   1      31.811  27.067  25.491  1.00  0.00     0.058 C 
ATOM     15  N   UNL A   1      30.786  27.573  24.556  1.00  0.00    -0.339 N 
ATOM     16  C   UNL A   1      30.097  25.356  24.958  1.00  0.00     0.116 C 
ATOM     17  C   UNL A   1      29.771  26.656  24.293  1.00  0.00     0.223 C 
ATOM     18  C   UNL A   1      30.720  28.898  23.971  1.00  0.00     0.147 C 
ATOM     19  O   UNL A   1      28.777  26.848  23.611  1.00  0.00    -0.275 OA
BRANCH   9  20
ATOM     20  C   UNL A   1      34.452  29.926  27.249  1.00  0.00     0.129 A 
ATOM     21  C   UNL A   1      35.203  32.015  27.949  1.00  0.00     0.130 A 
ATOM     22  C   UNL A   1      36.500  31.561  28.132  1.00  0.00     0.034 A 
ATOM     23  N   UNL A   1      34.189  31.225  27.512  1.00  0.00    -0.226 NA
ATOM     24  C   UNL A   1      36.768  30.231  27.848  1.00  0.00     0.006 A 
ATOM     25  C   UNL A   1      35.732  29.405  27.418  1.00  0.00     0.047 A 
BRANCH  21  26
ATOM     26  C   UNL A   1      34.841  33.421  28.313  1.00  0.00     0.272 C 
ATOM     27  C   UNL A   1      33.882  35.044  29.870  1.00  0.00     0.146 C 
ATOM     28  N   UNL A   1      34.359  33.698  29.599  1.00  0.00    -0.343 N 
ATOM     29  C   UNL A   1      34.448  32.788  30.733  1.00  0.00     0.146 C 
ATOM     30  O   UNL A   1      34.932  34.290  27.444  1.00  0.00    -0.267 OA
ENDBRANCH  21  26
ENDBRANCH   9  20
ENDBRANCH   5   8
ENDBRANCH   3   4
ENDBRANCH   2   3
ENDBRANCH   1   2
BRANCH   1  31
ATOM     31  C   UNL A   1      37.496  23.843  26.252  1.00  0.00     0.116 C 
BRANCH  31  32
ATOM     32  N   UNL A   1      38.517  22.802  26.174  1.00  0.00    -0.352 N 
ATOM     33  C   UNL A   1      39.874  22.909  26.336  1.00  0.00     0.251 C 
ATOM     34  H   UNL A   1      38.184  21.898  25.975  1.00  0.00     0.163 HD
ATOM     35  O   UNL A   1      40.617  21.990  26.007  1.00  0.00    -0.269 OA
BRANCH  33  36
ATOM     36  C   UNL A   1      40.414  24.152  26.907  1.00  0.00     0.039 A 
ATOM     37  C   UNL A   1      40.955  24.141  28.192  1.00  0.00     0.014 A 
ATOM     38  C   UNL A   1      40.432  25.313  26.130  1.00  0.00     0.014 A 
ATOM     39  C   UNL A   1      41.586  25.287  28.673  1.00  0.00     0.010 A 
ATOM     40  C   UNL A   1      41.139  26.418  26.571  1.00  0.00     0.010 A 
ATOM     41  C   UNL A   1      41.718  26.418  27.849  1.00  0.00    -0.014 A 
BRANCH  41  42
ATOM     42  C   UNL A   1      42.455  27.623  28.292  1.00  0.00     0.031 A 
ATOM     43  C   UNL A   1      43.932  27.724  28.034  1.00  0.00     0.074 A 
ATOM     44  C   UNL A   1      41.813  28.569  29.005  1.00  0.00     0.049 A 
ATOM     45  N   UNL A   1      44.777  28.637  28.437  1.00  0.00    -0.248 NA
ATOM     46  C   UNL A   1      44.548  26.639  27.251  1.00  0.00     0.031 C 
ATOM     47  C   UNL A   1      40.392  28.547  29.363  1.00  0.00     0.029 A 
ATOM     48  N   UNL A   1      42.278  29.728  29.571  1.00  0.00    -0.354 N 
ATOM     49  C   UNL A   1      46.022  28.222  27.980  1.00  0.00     0.074 A 
ATOM     50  C   UNL A   1      45.833  26.953  27.316  1.00  0.00     0.031 C 
ATOM     51  C   UNL A   1      40.098  29.654  30.064  1.00  0.00     0.029 A 
ATOM     52  C   UNL A   1      41.314  30.440  30.243  1.00  0.00     0.049 A 
ATOM     53  H   UNL A   1      43.215  30.023  29.501  1.00  0.00     0.167 HD
ATOM     54  C   UNL A   1      47.213  28.855  28.086  1.00  0.00     0.031 A 
ATOM     55  C   UNL A   1      41.403  31.590  30.936  1.00  0.00     0.031 A 
ATOM     56  C   UNL A   1      47.387  30.130  28.726  1.00  0.00     0.049 A 
ATOM     57  C   UNL A   1      42.737  32.280  31.030  1.00  0.00     0.074 A 
ATOM     58  C   UNL A   1      48.538  30.892  28.829  1.00  0.00     0.029 A 
ATOM     59  N   UNL A   1      46.380  30.833  29.370  1.00  0.00    -0.354 N 
ATOM     60  N   UNL A   1      43.892  31.907  30.533  1.00  0.00    -0.248 NA
ATOM     61  C   UNL A   1      42.775  33.549  31.768  1.00  0.00     0.031 C 
ATOM     62  C   UNL A   1      48.236  32.035  29.576  1.00  0.00     0.029 A 
ATOM     63  C   UNL A   1      46.886  32.010  29.892  1.00  0.00     0.049 A 
ATOM     64  H   UNL A   1      45.444  30.538  29.445  1.00  0.00     0.167 HD
ATOM     65  C   UNL A   1      44.792  32.906  30.881  1.00  0.00     0.074 A 
ATOM     66  C   UNL A   1      44.044  33.908  31.614  1.00  0.00     0.031 C 
ATOM     67  C   UNL A   1      46.120  32.990  30.620  1.00  0.00     0.031 A 
BRANCH  54  68
ATOM     68  C   UNL A   1      48.418  28.174  27.493  1.00  0.00    -0.014 A 
ATOM     69  C   UNL A   1      49.213  27.304  28.261  1.00  0.00     0.010 A 
ATOM     70  C   UNL A   1      48.741  28.380  26.140  1.00  0.00     0.010 A 
ATOM     71  C   UNL A   1      50.331  26.684  27.700  1.00  0.00     0.020 A 
ATOM     72  C   UNL A   1      49.843  27.738  25.565  1.00  0.00     0.020 A 
ATOM     73  C   UNL A   1      50.640  26.907  26.355  1.00  0.00     0.054 A 
BRANCH  73  74
ATOM     74  S   UNL A   1      52.080  26.064  25.644  1.00  0.00     0.124 S 
ATOM     75  O   UNL A   1      53.187  26.810  26.237  1.00  0.00    -0.237 OA
ATOM     76  O   UNL A   1      51.919  24.694  26.123  1.00  0.00    -0.237 OA
ATOM     77  O   UNL A   1      51.910  26.242  24.204  1.00  0.00    -0.744 OA
ENDBRANCH  73  74
ENDBRANCH  54  68
BRANCH  55  78
ATOM     78  C   UNL A   1      40.194  32.167  31.584  1.00  0.00    -0.014 A 
ATOM     79  C   UNL A   1      39.827  31.779  32.885  1.00  0.00     0.010 A 
ATOM     80  C   UNL A   1      39.409  33.120  30.908  1.00  0.00     0.010 A 
ATOM     81  C   UNL A   1      38.687  32.317  33.490  1.00  0.00     0.020 A 
ATOM     82  C   UNL A   1      38.284  33.680  31.521  1.00  0.00     0.020 A 
ATOM     83  C   UNL A   1      37.923  33.264  32.804  1.00  0.00     0.054 A 
BRANCH  83  84
ATOM     84  S   UNL A   1      36.476  33.986  33.628  1.00  0.00     0.124 S 
ATOM     85  O   UNL A   1      36.007  34.944  32.633  1.00  0.00    -0.237 OA
ATOM     86  O   UNL A   1      35.619  32.822  33.841  1.00  0.00    -0.237 OA
ATOM     87  O   UNL A   1      37.033  34.569  34.847  1.00  0.00    -0.744 OA
ENDBRANCH  83  84
ENDBRANCH  55  78
BRANCH  67  88
ATOM     88  C   UNL A   1      46.842  34.215  31.108  1.00  0.00    -0.014 A 
ATOM     89  C   UNL A   1      46.920  35.375  30.316  1.00  0.00     0.010 A 
ATOM     90  C   UNL A   1      47.400  34.224  32.399  1.00  0.00     0.010 A 
ATOM     91  C   UNL A   1      47.573  36.513  30.797  1.00  0.00     0.020 A 
ATOM     92  C   UNL A   1      48.028  35.368  32.893  1.00  0.00     0.020 A 
ATOM     93  C   UNL A   1      48.123  36.502  32.083  1.00  0.00     0.054 A 
BRANCH  93  94
ATOM     94  S   UNL A   1      48.926  38.006  32.700  1.00  0.00     0.124 S 
ATOM     95  O   UNL A   1      50.160  37.478  33.274  1.00  0.00    -0.237 OA
ATOM     96  O   UNL A   1      49.087  38.806  31.488  1.00  0.00    -0.237 OA
ATOM     97  O   UNL A   1      47.967  38.537  33.667  1.00  0.00    -0.744 OA
ENDBRANCH  93  94
ENDBRANCH  67  88
ENDBRANCH  41  42
ENDBRANCH  33  36
ENDBRANCH  31  32
ENDBRANCH   1  31
TORSDOF 16
ENDMDL
MODEL 2
REMARK VINA RESULT:     -10.5      4.774      8.781
REMARK SMILES CN(C)C(=O)c1cccc(N2CCC3(CC2)[C@H](C(=O)NCCCCNC(=O)c2ccc(-c4c5nc(c(-c6ccc(S(=O)(=O)[O-])cc6)c6ccc([nH]6)c(-c6ccc(S(=O)(=O)[O-])cc6)c6nc(c(-c7ccc(S(=O)(=O)[O-])cc7)c7ccc4[nH]7)C=C6)C=C5)cc2)CC(=O)N3C)n1
REMARK SMILES IDX 23 1 22 2 21 3 20 4 18 5 19 6 17 8 11 9 12 10 16 11 13 12
REMARK SMILES IDX 15 13 14 14 91 15 88 16 89 17 92 18 90 19 10 20 6 21 7 22
REMARK SMILES IDX 93 23 8 24 9 25 4 26 1 27 2 28 3 29 5 30 24 31 25 32 26 33
REMARK SMILES IDX 27 35 28 36 29 37 87 38 30 39 86 40 31 41 32 42 33 43 80 44
REMARK SMILES IDX 34 45 85 46 79 47 81 48 35 49 84 50 78 51 77 52 36 54 66 55
REMARK SMILES IDX 47 56 65 57 48 58 51 59 64 60 82 61 49 62 50 63 63 65 83 66
REMARK SMILES IDX 52 67 37 68 38 69 46 70 39 71 45 72 40 73 41 74 42 75 43 76
REMARK SMILES IDX 44 77 67 78 68 79 76 80 69 81 75 82 70 83 71 84 72 85 73 86
REMARK SMILES IDX 74 87 53 88 54 89 62 90 55 91 61 92 56 93 57 94 58 95 59 96
REMARK SMILES IDX 60 97
REMARK H PARENT 20 7 25 34 81 53 51 64
REMARK Flexibility Score: inf
ROOT
ATOM      1  C   UNL A   1      33.754  32.512  27.827  1.00  0.00     0.023 C 
ENDROOT
BRANCH   1   2
ATOM      2  C   UNL A   1      34.568  31.291  28.245  1.00  0.00     0.023 C 
BRANCH   2   3
ATOM      3  C   UNL A   1      34.348  30.049  27.370  1.00  0.00     0.116 C 
BRANCH   3   4
ATOM      4  N   UNL A   1      33.134  29.299  27.659  1.00  0.00    -0.356 N 
ATOM      5  C   UNL A   1      32.311  28.520  26.907  1.00  0.00     0.226 C 
ATOM      6  O   UNL A   1      31.386  27.961  27.509  1.00  0.00    -0.275 OA
ATOM      7  H   UNL A   1      32.848  29.372  28.597  1.00  0.00     0.163 HD
BRANCH   5   8
ATOM      8  C   UNL A   1      32.440  28.297  25.394  1.00  0.00     0.113 C 
ATOM      9  N   UNL A   1      33.951  24.363  24.616  1.00  0.00    -0.356 N 
ATOM     10  C   UNL A   1      32.913  24.427  25.621  1.00  0.00     0.120 C 
ATOM     11  C   UNL A   1      33.799  25.159  23.406  1.00  0.00     0.120 C 
ATOM     12  C   UNL A   1      32.809  25.881  26.013  1.00  0.00     0.051 C 
ATOM     13  C   UNL A   1      33.492  26.633  23.748  1.00  0.00     0.051 C 
ATOM     14  C   UNL A   1      32.423  26.831  24.869  1.00  0.00     0.058 C 
ATOM     15  N   UNL A   1      31.069  26.757  24.283  1.00  0.00    -0.339 N 
ATOM     16  C   UNL A   1      31.383  29.068  24.615  1.00  0.00     0.116 C 
ATOM     17  C   UNL A   1      30.488  28.004  24.064  1.00  0.00     0.223 C 
ATOM     18  C   UNL A   1      30.359  25.558  23.880  1.00  0.00     0.147 C 
ATOM     19  O   UNL A   1      29.410  28.220  23.533  1.00  0.00    -0.275 OA
BRANCH   9  20
ATOM     20  C   UNL A   1      34.822  23.300  24.727  1.00  0.00     0.129 A 
ATOM     21  C   UNL A   1      35.163  21.010  24.956  1.00  0.00     0.130 A 
ATOM     22  C   UNL A   1      36.504  21.173  25.268  1.00  0.00     0.034 A 
ATOM     23  N   UNL A   1      34.325  22.045  24.693  1.00  0.00    -0.226 NA
ATOM     24  C   UNL A   1      37.006  22.465  25.315  1.00  0.00     0.006 A 
ATOM     25  C   UNL A   1      36.161  23.534  25.028  1.00  0.00     0.047 A 
BRANCH  21  26
ATOM     26  C   UNL A   1      34.587  19.635  24.817  1.00  0.00     0.272 C 
ATOM     27  C   UNL A   1      32.718  18.073  25.024  1.00  0.00     0.146 C 
ATOM     28  N   UNL A   1      33.215  19.439  25.024  1.00  0.00    -0.343 N 
ATOM     29  C   UNL A   1      32.223  20.503  25.080  1.00  0.00     0.146 C 
ATOM     30  O   UNL A   1      35.355  18.704  24.570  1.00  0.00    -0.267 OA
ENDBRANCH  21  26
ENDBRANCH   9  20
ENDBRANCH   5   8
ENDBRANCH   3   4
ENDBRANCH   2   3
ENDBRANCH   1   2
BRANCH   1  31
ATOM     31  C   UNL A   1      34.360  33.821  28.305  1.00  0.00     0.116 C 
BRANCH  31  32
ATOM     32  N   UNL A   1      33.449  34.554  29.179  1.00  0.00    -0.352 N 
ATOM     33  C   UNL A   1      33.442  34.633  30.548  1.00  0.00     0.251 C 
ATOM     34  H   UNL A   1      32.739  35.059  28.722  1.00  0.00     0.163 HD
ATOM     35  O   UNL A   1      32.473  35.094  31.142  1.00  0.00    -0.269 OA
BRANCH  33  36
ATOM     36  C   UNL A   1      34.619  34.145  31.282  1.00  0.00     0.039 A 
ATOM     37  C   UNL A   1      34.691  32.803  31.654  1.00  0.00     0.014 A 
ATOM     38  C   UNL A   1      35.675  35.022  31.546  1.00  0.00     0.014 A 
ATOM     39  C   UNL A   1      35.866  32.320  32.228  1.00  0.00     0.010 A 
ATOM     40  C   UNL A   1      36.871  34.522  32.029  1.00  0.00     0.010 A 
ATOM     41  C   UNL A   1      36.976  33.168  32.380  1.00  0.00    -0.014 A 
BRANCH  41  42
ATOM     42  C   UNL A   1      38.268  32.671  32.908  1.00  0.00     0.031 A 
ATOM     43  C   UNL A   1      39.140  31.809  32.039  1.00  0.00     0.074 A 
ATOM     44  C   UNL A   1      38.601  32.919  34.189  1.00  0.00     0.049 A 
ATOM     45  N   UNL A   1      40.246  31.184  32.346  1.00  0.00    -0.248 NA
ATOM     46  C   UNL A   1      38.690  31.587  30.653  1.00  0.00     0.031 C 
ATOM     47  C   UNL A   1      37.805  33.700  35.140  1.00  0.00     0.029 A 
ATOM     48  N   UNL A   1      39.695  32.526  34.918  1.00  0.00    -0.354 N 
ATOM     49  C   UNL A   1      40.608  30.479  31.205  1.00  0.00     0.074 A 
ATOM     50  C   UNL A   1      39.580  30.709  30.217  1.00  0.00     0.031 C 
ATOM     51  C   UNL A   1      38.449  33.748  36.317  1.00  0.00     0.029 A 
ATOM     52  C   UNL A   1      39.678  32.969  36.219  1.00  0.00     0.049 A 
ATOM     53  H   UNL A   1      40.422  31.979  34.544  1.00  0.00     0.167 HD
ATOM     54  C   UNL A   1      41.712  29.725  30.993  1.00  0.00     0.031 A 
ATOM     55  C   UNL A   1      40.551  32.761  37.223  1.00  0.00     0.031 A 
ATOM     56  C   UNL A   1      42.742  29.523  31.974  1.00  0.00     0.049 A 
ATOM     57  C   UNL A   1      41.776  31.928  36.958  1.00  0.00     0.074 A 
ATOM     58  C   UNL A   1      43.935  28.834  31.840  1.00  0.00     0.029 A 
ATOM     59  N   UNL A   1      42.704  30.012  33.271  1.00  0.00    -0.354 N 
ATOM     60  N   UNL A   1      42.136  31.324  35.851  1.00  0.00    -0.248 NA
ATOM     61  C   UNL A   1      42.714  31.758  38.074  1.00  0.00     0.031 C 
ATOM     62  C   UNL A   1      44.596  28.868  33.073  1.00  0.00     0.029 A 
ATOM     63  C   UNL A   1      43.841  29.624  33.956  1.00  0.00     0.049 A 
ATOM     64  H   UNL A   1      41.975  30.556  33.648  1.00  0.00     0.167 HD
ATOM     65  C   UNL A   1      43.355  30.719  36.131  1.00  0.00     0.074 A 
ATOM     66  C   UNL A   1      43.678  31.044  37.506  1.00  0.00     0.031 C 
ATOM     67  C   UNL A   1      44.138  29.959  35.326  1.00  0.00     0.031 A 
BRANCH  54  68
ATOM     68  C   UNL A   1      41.857  29.067  29.647  1.00  0.00    -0.014 A 
ATOM     69  C   UNL A   1      42.476  29.735  28.575  1.00  0.00     0.010 A 
ATOM     70  C   UNL A   1      41.398  27.751  29.458  1.00  0.00     0.010 A 
ATOM     71  C   UNL A   1      42.599  29.115  27.329  1.00  0.00     0.020 A 
ATOM     72  C   UNL A   1      41.545  27.116  28.221  1.00  0.00     0.020 A 
ATOM     73  C   UNL A   1      42.130  27.810  27.160  1.00  0.00     0.054 A 
BRANCH  73  74
ATOM     74  S   UNL A   1      42.330  27.019  25.540  1.00  0.00     0.124 S 
ATOM     75  O   UNL A   1      42.397  28.173  24.649  1.00  0.00    -0.237 OA
ATOM     76  O   UNL A   1      43.578  26.275  25.699  1.00  0.00    -0.237 OA
ATOM     77  O   UNL A   1      41.131  26.195  25.406  1.00  0.00    -0.744 OA
ENDBRANCH  73  74
ENDBRANCH  54  68
BRANCH  55  78
ATOM     78  C   UNL A   1      40.305  33.360  38.562  1.00  0.00    -0.014 A 
ATOM     79  C   UNL A   1      39.478  32.708  39.494  1.00  0.00     0.010 A 
ATOM     80  C   UNL A   1      40.908  34.580  38.920  1.00  0.00     0.010 A 
ATOM     81  C   UNL A   1      39.242  33.274  40.751  1.00  0.00     0.020 A 
ATOM     82  C   UNL A   1      40.696  35.135  40.186  1.00  0.00     0.020 A 
ATOM     83  C   UNL A   1      39.853  34.484  41.088  1.00  0.00     0.054 A 
BRANCH  83  84
ATOM     84  S   UNL A   1      39.573  35.177  42.742  1.00  0.00     0.124 S 
ATOM     85  O   UNL A   1      40.922  35.192  43.297  1.00  0.00    -0.237 OA
ATOM     86  O   UNL A   1      38.994  36.484  42.444  1.00  0.00    -0.237 OA
ATOM     87  O   UNL A   1      38.651  34.224  43.359  1.00  0.00    -0.744 OA
ENDBRANCH  83  84
ENDBRANCH  55  78
BRANCH  67  88
ATOM     88  C   UNL A   1      45.430  29.450  35.903  1.00  0.00    -0.014 A 
ATOM     89  C   UNL A   1      46.607  30.216  35.832  1.00  0.00     0.010 A 
ATOM     90  C   UNL A   1      45.451  28.214  36.573  1.00  0.00     0.010 A 
ATOM     91  C   UNL A   1      47.793  29.738  36.396  1.00  0.00     0.020 A 
ATOM     92  C   UNL A   1      46.627  27.746  37.163  1.00  0.00     0.020 A 
ATOM     93  C   UNL A   1      47.795  28.506  37.058  1.00  0.00     0.054 A 
BRANCH  93  94
ATOM     94  S   UNL A   1      49.336  27.928  37.821  1.00  0.00     0.124 S 
ATOM     95  O   UNL A   1      49.185  26.478  37.748  1.00  0.00    -0.237 OA
ATOM     96  O   UNL A   1      50.360  28.499  36.949  1.00  0.00    -0.237 OA
ATOM     97  O   UNL A   1      49.287  28.493  39.168  1.00  0.00    -0.744 OA
ENDBRANCH  93  94
ENDBRANCH  67  88
ENDBRANCH  41  42
ENDBRANCH  33  36
ENDBRANCH  31  32
ENDBRANCH   1  31
TORSDOF 16
ENDMDL
MODEL 3
REMARK VINA RESULT:     -10.4      3.752     11.139
REMARK SMILES CN(C)C(=O)c1cccc(N2CCC3(CC2)[C@H](C(=O)NCCCCNC(=O)c2ccc(-c4c5nc(c(-c6ccc(S(=O)(=O)[O-])cc6)c6ccc([nH]6)c(-c6ccc(S(=O)(=O)[O-])cc6)c6nc(c(-c7ccc(S(=O)(=O)[O-])cc7)c7ccc4[nH]7)C=C6)C=C5)cc2)CC(=O)N3C)n1
REMARK SMILES IDX 23 1 22 2 21 3 20 4 18 5 19 6 17 8 11 9 12 10 16 11 13 12
REMARK SMILES IDX 15 13 14 14 91 15 88 16 89 17 92 18 90 19 10 20 6 21 7 22
REMARK SMILES IDX 93 23 8 24 9 25 4 26 1 27 2 28 3 29 5 30 24 31 25 32 26 33
REMARK SMILES IDX 27 35 28 36 29 37 87 38 30 39 86 40 31 41 32 42 33 43 80 44
REMARK SMILES IDX 34 45 85 46 79 47 81 48 35 49 84 50 78 51 77 52 36 54 66 55
REMARK SMILES IDX 47 56 65 57 48 58 51 59 64 60 82 61 49 62 50 63 63 65 83 66
REMARK SMILES IDX 52 67 37 68 38 69 46 70 39 71 45 72 40 73 41 74 42 75 43 76
REMARK SMILES IDX 44 77 67 78 68 79 76 80 69 81 75 82 70 83 71 84 72 85 73 86
REMARK SMILES IDX 74 87 53 88 54 89 62 90 55 91 61 92 56 93 57 94 58 95 59 96
REMARK SMILES IDX 60 97
REMARK H PARENT 20 7 25 34 81 53 51 64
REMARK Flexibility Score: inf
ROOT
ATOM      1  C   UNL A   1      35.010  32.572  30.972  1.00  0.00     0.023 C 
ENDROOT
BRANCH   1   2
ATOM      2  C   UNL A   1      36.372  32.830  31.606  1.00  0.00     0.023 C 
BRANCH   2   3
ATOM      3  C   UNL A   1      36.547  34.238  32.193  1.00  0.00     0.116 C 
BRANCH   3   4
ATOM      4  N   UNL A   1      37.913  34.591  32.551  1.00  0.00    -0.356 N 
ATOM      5  C   UNL A   1      38.758  34.191  33.538  1.00  0.00     0.226 C 
ATOM      6  O   UNL A   1      39.905  34.654  33.500  1.00  0.00    -0.275 OA
ATOM      7  H   UNL A   1      38.310  35.263  31.951  1.00  0.00     0.163 HD
BRANCH   5   8
ATOM      8  C   UNL A   1      38.395  33.232  34.681  1.00  0.00     0.113 C 
ATOM      9  N   UNL A   1      41.142  29.944  34.762  1.00  0.00    -0.356 N 
ATOM     10  C   UNL A   1      41.754  31.242  34.586  1.00  0.00     0.120 C 
ATOM     11  C   UNL A   1      40.068  29.806  35.735  1.00  0.00     0.120 C 
ATOM     12  C   UNL A   1      40.634  32.176  34.198  1.00  0.00     0.051 C 
ATOM     13  C   UNL A   1      38.976  30.873  35.509  1.00  0.00     0.051 C 
ATOM     14  C   UNL A   1      39.519  32.314  35.247  1.00  0.00     0.058 C 
ATOM     15  N   UNL A   1      39.805  32.980  36.534  1.00  0.00    -0.339 N 
ATOM     16  C   UNL A   1      37.774  33.965  35.861  1.00  0.00     0.116 C 
ATOM     17  C   UNL A   1      38.805  33.862  36.939  1.00  0.00     0.223 C 
ATOM     18  C   UNL A   1      40.949  32.754  37.396  1.00  0.00     0.147 C 
ATOM     19  O   UNL A   1      38.767  34.484  37.989  1.00  0.00    -0.275 OA
BRANCH   9  20
ATOM     20  C   UNL A   1      41.851  28.878  34.250  1.00  0.00     0.129 A 
ATOM     21  C   UNL A   1      43.475  27.236  34.532  1.00  0.00     0.130 A 
ATOM     22  C   UNL A   1      43.516  26.948  33.177  1.00  0.00     0.034 A 
ATOM     23  N   UNL A   1      42.666  28.183  35.073  1.00  0.00    -0.226 NA
ATOM     24  C   UNL A   1      42.686  27.674  32.335  1.00  0.00     0.006 A 
ATOM     25  C   UNL A   1      41.838  28.634  32.879  1.00  0.00     0.047 A 
BRANCH  21  26
ATOM     26  C   UNL A   1      44.293  26.431  35.495  1.00  0.00     0.272 C 
ATOM     27  C   UNL A   1      44.490  24.652  37.159  1.00  0.00     0.146 C 
ATOM     28  N   UNL A   1      43.718  25.320  36.125  1.00  0.00    -0.343 N 
ATOM     29  C   UNL A   1      42.474  24.683  35.716  1.00  0.00     0.146 C 
ATOM     30  O   UNL A   1      45.440  26.807  35.741  1.00  0.00    -0.267 OA
ENDBRANCH  21  26
ENDBRANCH   9  20
ENDBRANCH   5   8
ENDBRANCH   3   4
ENDBRANCH   2   3
ENDBRANCH   1   2
BRANCH   1  31
ATOM     31  C   UNL A   1      35.010  32.767  29.465  1.00  0.00     0.116 C 
BRANCH  31  32
ATOM     32  N   UNL A   1      34.142  31.804  28.794  1.00  0.00    -0.352 N 
ATOM     33  C   UNL A   1      34.478  30.642  28.148  1.00  0.00     0.251 C 
ATOM     34  H   UNL A   1      33.182  32.020  28.805  1.00  0.00     0.163 HD
ATOM     35  O   UNL A   1      33.664  30.066  27.434  1.00  0.00    -0.269 OA
BRANCH  33  36
ATOM     36  C   UNL A   1      35.837  30.110  28.328  1.00  0.00     0.039 A 
ATOM     37  C   UNL A   1      36.764  30.226  27.292  1.00  0.00     0.014 A 
ATOM     38  C   UNL A   1      36.198  29.549  29.556  1.00  0.00     0.014 A 
ATOM     39  C   UNL A   1      38.085  29.843  27.518  1.00  0.00     0.010 A 
ATOM     40  C   UNL A   1      37.527  29.258  29.807  1.00  0.00     0.010 A 
ATOM     41  C   UNL A   1      38.482  29.396  28.789  1.00  0.00    -0.014 A 
BRANCH  41  42
ATOM     42  C   UNL A   1      39.892  29.061  29.091  1.00  0.00     0.031 A 
ATOM     43  C   UNL A   1      40.800  30.117  29.654  1.00  0.00     0.074 A 
ATOM     44  C   UNL A   1      40.369  27.842  28.769  1.00  0.00     0.049 A 
ATOM     45  N   UNL A   1      42.087  30.061  29.881  1.00  0.00    -0.248 NA
ATOM     46  C   UNL A   1      40.191  31.422  29.969  1.00  0.00     0.031 C 
ATOM     47  C   UNL A   1      39.591  26.756  28.167  1.00  0.00     0.029 A 
ATOM     48  N   UNL A   1      41.630  27.318  28.890  1.00  0.00    -0.354 N 
ATOM     49  C   UNL A   1      42.442  31.324  30.339  1.00  0.00     0.074 A 
ATOM     50  C   UNL A   1      41.250  32.141  30.308  1.00  0.00     0.031 C 
ATOM     51  C   UNL A   1      40.386  25.688  27.996  1.00  0.00     0.029 A 
ATOM     52  C   UNL A   1      41.736  26.025  28.434  1.00  0.00     0.049 A 
ATOM     53  H   UNL A   1      42.388  27.819  29.269  1.00  0.00     0.167 HD
ATOM     54  C   UNL A   1      43.650  31.758  30.767  1.00  0.00     0.031 A 
ATOM     55  C   UNL A   1      42.804  25.209  28.366  1.00  0.00     0.031 A 
ATOM     56  C   UNL A   1      44.824  30.931  30.818  1.00  0.00     0.049 A 
ATOM     57  C   UNL A   1      44.134  25.711  28.859  1.00  0.00     0.074 A 
ATOM     58  C   UNL A   1      46.082  31.250  31.299  1.00  0.00     0.029 A 
ATOM     59  N   UNL A   1      44.884  29.619  30.374  1.00  0.00    -0.354 N 
ATOM     60  N   UNL A   1      44.437  26.888  29.352  1.00  0.00    -0.248 NA
ATOM     61  C   UNL A   1      45.261  24.772  28.795  1.00  0.00     0.031 C 
ATOM     62  C   UNL A   1      46.915  30.143  31.103  1.00  0.00     0.029 A 
ATOM     63  C   UNL A   1      46.162  29.119  30.549  1.00  0.00     0.049 A 
ATOM     64  H   UNL A   1      44.129  29.116  29.991  1.00  0.00     0.167 HD
ATOM     65  C   UNL A   1      45.786  26.825  29.677  1.00  0.00     0.074 A 
ATOM     66  C   UNL A   1      46.235  25.488  29.341  1.00  0.00     0.031 C 
ATOM     67  C   UNL A   1      46.585  27.785  30.205  1.00  0.00     0.031 A 
BRANCH  54  68
ATOM     68  C   UNL A   1      43.756  33.191  31.215  1.00  0.00    -0.014 A 
ATOM     69  C   UNL A   1      44.000  34.225  30.293  1.00  0.00     0.010 A 
ATOM     70  C   UNL A   1      43.576  33.514  32.572  1.00  0.00     0.010 A 
ATOM     71  C   UNL A   1      44.102  35.550  30.724  1.00  0.00     0.020 A 
ATOM     72  C   UNL A   1      43.648  34.842  33.004  1.00  0.00     0.020 A 
ATOM     73  C   UNL A   1      43.927  35.849  32.078  1.00  0.00     0.054 A 
BRANCH  73  74
ATOM     74  S   UNL A   1      44.034  37.582  32.604  1.00  0.00     0.124 S 
ATOM     75  O   UNL A   1      45.410  37.664  33.088  1.00  0.00    -0.237 OA
ATOM     76  O   UNL A   1      43.760  38.310  31.368  1.00  0.00    -0.237 OA
ATOM     77  O   UNL A   1      43.004  37.696  33.633  1.00  0.00    -0.744 OA
ENDBRANCH  73  74
ENDBRANCH  54  68
BRANCH  55  78
ATOM     78  C   UNL A   1      42.657  23.832  27.822  1.00  0.00    -0.014 A 
ATOM     79  C   UNL A   1      42.449  22.742  28.686  1.00  0.00     0.010 A 
ATOM     80  C   UNL A   1      42.709  23.603  26.435  1.00  0.00     0.010 A 
ATOM     81  C   UNL A   1      42.317  21.447  28.176  1.00  0.00     0.020 A 
ATOM     82  C   UNL A   1      42.550  22.313  25.919  1.00  0.00     0.020 A 
ATOM     83  C   UNL A   1      42.368  21.242  26.795  1.00  0.00     0.054 A 
BRANCH  83  84
ATOM     84  S   UNL A   1      42.144  19.560  26.150  1.00  0.00     0.124 S 
ATOM     85  O   UNL A   1      42.512  18.742  27.300  1.00  0.00    -0.237 OA
ATOM     86  O   UNL A   1      40.729  19.545  25.786  1.00  0.00    -0.237 OA
ATOM     87  O   UNL A   1      43.069  19.503  25.018  1.00  0.00    -0.744 OA
ENDBRANCH  83  84
ENDBRANCH  55  78
BRANCH  67  88
ATOM     88  C   UNL A   1      48.018  27.418  30.474  1.00  0.00    -0.014 A 
ATOM     89  C   UNL A   1      48.391  26.781  31.671  1.00  0.00     0.010 A 
ATOM     90  C   UNL A   1      48.994  27.662  29.491  1.00  0.00     0.010 A 
ATOM     91  C   UNL A   1      49.723  26.423  31.893  1.00  0.00     0.020 A 
ATOM     92  C   UNL A   1      50.321  27.281  29.698  1.00  0.00     0.020 A 
ATOM     93  C   UNL A   1      50.680  26.676  30.904  1.00  0.00     0.054 A 
BRANCH  93  94
ATOM     94  S   UNL A   1      52.394  26.163  31.198  1.00  0.00     0.124 S 
ATOM     95  O   UNL A   1      52.215  24.860  31.833  1.00  0.00    -0.237 OA
ATOM     96  O   UNL A   1      52.957  26.134  29.850  1.00  0.00    -0.237 OA
ATOM     97  O   UNL A   1      52.925  27.212  32.066  1.00  0.00    -0.744 OA
ENDBRANCH  93  94
ENDBRANCH  67  88
ENDBRANCH  41  42
ENDBRANCH  33  36
ENDBRANCH  31  32
ENDBRANCH   1  31
TORSDOF 16
ENDMDL
