MODEL 1
REMARK VINA RESULT:     -10.6      0.000      0.000
REMARK SMILES CN1C(=O)Cc2cc([C@@H](O)CCCCC(=O)NCCCCNC(=O)c3ccc(-c4c5nc(c(-c6ccc(S(=O)(=O)[O-])cc6)c6ccc([nH]6)c(-c6ccc(S(=O)(=O)[O-])cc6)c6nc(c(-c7ccc(S(=O)(=O)[O-])cc7)c7ccc4[nH]7)C=C6)C=C5)cc3)ccc21
REMARK SMILES IDX 18 1 17 2 15 3 16 4 14 6 13 7 12 8 11 9 9 10 8 11 1 12 2 13
REMARK SMILES IDX 3 14 87 15 4 16 5 17 6 18 86 19 7 20 85 21 10 22 19 24 20 25
REMARK SMILES IDX 21 26 22 27 23 28 24 30 25 31 26 32 84 33 27 34 83 35 28 36
REMARK SMILES IDX 29 37 30 38 77 39 31 40 82 41 76 42 78 43 32 44 81 45 75 46
REMARK SMILES IDX 74 47 33 49 63 50 44 51 62 52 45 53 48 54 61 55 79 56 46 57
REMARK SMILES IDX 47 58 60 60 80 61 49 62 34 63 35 64 43 65 36 66 42 67 37 68
REMARK SMILES IDX 38 69 39 70 40 71 41 72 64 73 65 74 73 75 66 76 72 77 67 78
REMARK SMILES IDX 68 79 69 80 70 81 71 82 50 83 51 84 59 85 52 86 58 87 53 88
REMARK SMILES IDX 54 89 55 90 56 91 57 92
REMARK H PARENT 17 5 10 23 22 29 78 48 48 59
REMARK Flexibility Score: inf
ROOT
ATOM      1  C   UNL A   1      32.402  29.082  24.300  1.00  0.00     0.116 C 
ENDROOT
BRANCH   1   2
ATOM      2  N   UNL A   1      31.388  29.347  23.299  1.00  0.00    -0.356 N 
ATOM      3  C   UNL A   1      30.579  28.486  22.623  1.00  0.00     0.219 C 
ATOM      4  O   UNL A   1      29.843  28.942  21.746  1.00  0.00    -0.275 OA
ATOM      5  H   UNL A   1      31.264  30.297  23.074  1.00  0.00     0.163 HD
BRANCH   3   6
ATOM      6  C   UNL A   1      30.554  27.006  22.958  1.00  0.00     0.100 C 
BRANCH   6   7
ATOM      7  C   UNL A   1      29.477  26.590  23.962  1.00  0.00     0.010 C 
BRANCH   7   8
ATOM      8  C   UNL A   1      29.938  25.763  25.160  1.00  0.00     0.004 C 
BRANCH   8   9
ATOM      9  C   UNL A   1      31.047  24.736  24.886  1.00  0.00     0.037 C 
BRANCH   9  10
ATOM     10  C   UNL A   1      31.128  23.604  25.912  1.00  0.00     0.144 C 
BRANCH  10  11
ATOM     11  C   UNL A   1      32.491  22.942  25.887  1.00  0.00    -0.019 A 
ATOM     12  C   UNL A   1      36.745  20.109  24.921  1.00  0.00     0.153 C 
ATOM     13  N   UNL A   1      36.303  21.405  25.357  1.00  0.00    -0.315 N 
ATOM     14  C   UNL A   1      37.151  22.469  25.681  1.00  0.00     0.231 C 
ATOM     15  C   UNL A   1      34.963  21.763  25.502  1.00  0.00     0.047 A 
ATOM     16  O   UNL A   1      38.369  22.467  25.669  1.00  0.00    -0.274 OA
ATOM     17  C   UNL A   1      36.260  23.659  26.061  1.00  0.00     0.138 C 
ATOM     18  C   UNL A   1      34.881  23.085  25.932  1.00  0.00    -0.014 A 
ATOM     19  C   UNL A   1      33.837  20.998  25.269  1.00  0.00     0.027 A 
ATOM     20  C   UNL A   1      33.656  23.690  26.140  1.00  0.00     0.012 A 
ATOM     21  C   UNL A   1      32.593  21.596  25.469  1.00  0.00     0.008 A 
ENDBRANCH  10  11
BRANCH  10  22
ATOM     22  O   UNL A   1      30.871  24.146  27.205  1.00  0.00    -0.388 OA
ATOM     23  H   UNL A   1      30.216  24.858  27.133  1.00  0.00     0.211 HD
ENDBRANCH  10  22
ENDBRANCH   9  10
ENDBRANCH   8   9
ENDBRANCH   7   8
ENDBRANCH   6   7
ENDBRANCH   3   6
ENDBRANCH   1   2
BRANCH   1  24
ATOM     24  C   UNL A   1      31.778  28.976  25.694  1.00  0.00     0.023 C 
BRANCH  24  25
ATOM     25  C   UNL A   1      32.453  27.980  26.623  1.00  0.00     0.023 C 
BRANCH  25  26
ATOM     26  C   UNL A   1      33.697  28.511  27.307  1.00  0.00     0.116 C 
BRANCH  26  27
ATOM     27  N   UNL A   1      33.617  29.919  27.668  1.00  0.00    -0.352 N 
ATOM     28  C   UNL A   1      34.606  30.705  28.217  1.00  0.00     0.251 C 
ATOM     29  H   UNL A   1      32.754  30.363  27.498  1.00  0.00     0.163 HD
ATOM     30  O   UNL A   1      34.366  31.857  28.566  1.00  0.00    -0.269 OA
BRANCH  28  31
ATOM     31  C   UNL A   1      35.946  30.115  28.419  1.00  0.00     0.039 A 
ATOM     32  C   UNL A   1      36.874  30.163  27.378  1.00  0.00     0.014 A 
ATOM     33  C   UNL A   1      36.308  29.602  29.668  1.00  0.00     0.014 A 
ATOM     34  C   UNL A   1      38.185  29.748  27.615  1.00  0.00     0.010 A 
ATOM     35  C   UNL A   1      37.638  29.307  29.931  1.00  0.00     0.010 A 
ATOM     36  C   UNL A   1      38.588  29.350  28.902  1.00  0.00    -0.014 A 
BRANCH  36  37
ATOM     37  C   UNL A   1      39.988  28.936  29.173  1.00  0.00     0.031 A 
ATOM     38  C   UNL A   1      40.941  29.904  29.826  1.00  0.00     0.074 A 
ATOM     39  C   UNL A   1      40.410  27.709  28.804  1.00  0.00     0.049 A 
ATOM     40  N   UNL A   1      42.193  29.726  30.159  1.00  0.00    -0.248 NA
ATOM     41  C   UNL A   1      40.437  31.259  30.114  1.00  0.00     0.031 C 
ATOM     42  C   UNL A   1      39.603  26.709  28.097  1.00  0.00     0.029 A 
ATOM     43  N   UNL A   1      41.623  27.090  28.975  1.00  0.00    -0.354 N 
ATOM     44  C   UNL A   1      42.625  30.944  30.672  1.00  0.00     0.074 A 
ATOM     45  C   UNL A   1      41.527  31.872  30.550  1.00  0.00     0.031 C 
ATOM     46  C   UNL A   1      40.329  25.590  27.936  1.00  0.00     0.029 A 
ATOM     47  C   UNL A   1      41.661  25.802  28.492  1.00  0.00     0.049 A 
ATOM     48  H   UNL A   1      42.393  27.526  29.405  1.00  0.00     0.167 HD
ATOM     49  C   UNL A   1      43.819  31.255  31.225  1.00  0.00     0.031 A 
ATOM     50  C   UNL A   1      42.656  24.893  28.499  1.00  0.00     0.031 A 
ATOM     51  C   UNL A   1      44.898  30.317  31.379  1.00  0.00     0.049 A 
ATOM     52  C   UNL A   1      43.966  25.256  29.149  1.00  0.00     0.074 A 
ATOM     53  C   UNL A   1      46.116  30.506  32.006  1.00  0.00     0.029 A 
ATOM     54  N   UNL A   1      44.888  29.016  30.900  1.00  0.00    -0.354 N 
ATOM     55  N   UNL A   1      44.315  26.382  29.728  1.00  0.00    -0.248 NA
ATOM     56  C   UNL A   1      45.009  24.223  29.163  1.00  0.00     0.031 C 
ATOM     57  C   UNL A   1      46.870  29.340  31.850  1.00  0.00     0.029 A 
ATOM     58  C   UNL A   1      46.094  28.402  31.187  1.00  0.00     0.049 A 
ATOM     59  H   UNL A   1      44.135  28.594  30.427  1.00  0.00     0.167 HD
ATOM     60  C   UNL A   1      45.610  26.181  30.193  1.00  0.00     0.074 A 
ATOM     61  C   UNL A   1      45.969  24.819  29.856  1.00  0.00     0.031 C 
ATOM     62  C   UNL A   1      46.432  27.046  30.838  1.00  0.00     0.031 A 
BRANCH  49  63
ATOM     63  C   UNL A   1      44.027  32.665  31.712  1.00  0.00    -0.014 A 
ATOM     64  C   UNL A   1      44.517  33.669  30.855  1.00  0.00     0.010 A 
ATOM     65  C   UNL A   1      43.661  33.007  33.026  1.00  0.00     0.010 A 
ATOM     66  C   UNL A   1      44.658  34.981  31.311  1.00  0.00     0.020 A 
ATOM     67  C   UNL A   1      43.772  34.325  33.477  1.00  0.00     0.020 A 
ATOM     68  C   UNL A   1      44.278  35.303  32.618  1.00  0.00     0.054 A 
BRANCH  68  69
ATOM     69  S   UNL A   1      44.410  37.029  33.160  1.00  0.00     0.124 S 
ATOM     70  O   UNL A   1      43.775  37.740  32.053  1.00  0.00    -0.237 OA
ATOM     71  O   UNL A   1      43.663  37.026  34.415  1.00  0.00    -0.237 OA
ATOM     72  O   UNL A   1      45.849  37.243  33.293  1.00  0.00    -0.744 OA
ENDBRANCH  68  69
ENDBRANCH  49  63
BRANCH  50  73
ATOM     73  C   UNL A   1      42.458  23.553  27.878  1.00  0.00    -0.014 A 
ATOM     74  C   UNL A   1      41.884  22.495  28.604  1.00  0.00     0.010 A 
ATOM     75  C   UNL A   1      42.866  23.324  26.551  1.00  0.00     0.010 A 
ATOM     76  C   UNL A   1      41.758  21.225  28.031  1.00  0.00     0.020 A 
ATOM     77  C   UNL A   1      42.710  22.067  25.962  1.00  0.00     0.020 A 
ATOM     78  C   UNL A   1      42.174  21.019  26.712  1.00  0.00     0.054 A 
BRANCH  78  79
ATOM     79  S   UNL A   1      41.984  19.369  25.980  1.00  0.00     0.124 S 
ATOM     80  O   UNL A   1      42.475  18.505  27.048  1.00  0.00    -0.237 OA
ATOM     81  O   UNL A   1      40.548  19.305  25.720  1.00  0.00    -0.237 OA
ATOM     82  O   UNL A   1      42.823  19.428  24.784  1.00  0.00    -0.744 OA
ENDBRANCH  78  79
ENDBRANCH  50  73
BRANCH  62  83
ATOM     83  C   UNL A   1      47.791  26.538  31.243  1.00  0.00    -0.014 A 
ATOM     84  C   UNL A   1      48.892  26.628  30.373  1.00  0.00     0.010 A 
ATOM     85  C   UNL A   1      47.976  26.002  32.530  1.00  0.00     0.010 A 
ATOM     86  C   UNL A   1      50.144  26.148  30.767  1.00  0.00     0.020 A 
ATOM     87  C   UNL A   1      49.233  25.555  32.941  1.00  0.00     0.020 A 
ATOM     88  C   UNL A   1      50.305  25.614  32.050  1.00  0.00     0.054 A 
BRANCH  88  89
ATOM     89  S   UNL A   1      51.945  25.023  32.546  1.00  0.00     0.124 S 
ATOM     90  O   UNL A   1      52.821  25.771  31.647  1.00  0.00    -0.237 OA
ATOM     91  O   UNL A   1      52.012  25.406  33.953  1.00  0.00    -0.237 OA
ATOM     92  O   UNL A   1      51.885  23.584  32.299  1.00  0.00    -0.744 OA
ENDBRANCH  88  89
ENDBRANCH  62  83
ENDBRANCH  36  37
ENDBRANCH  28  31
ENDBRANCH  26  27
ENDBRANCH  25  26
ENDBRANCH  24  25
ENDBRANCH   1  24
TORSDOF 20
ENDMDL
MODEL 2
REMARK VINA RESULT:     -10.5      1.185      1.897
REMARK SMILES CN1C(=O)Cc2cc([C@@H](O)CCCCC(=O)NCCCCNC(=O)c3ccc(-c4c5nc(c(-c6ccc(S(=O)(=O)[O-])cc6)c6ccc([nH]6)c(-c6ccc(S(=O)(=O)[O-])cc6)c6nc(c(-c7ccc(S(=O)(=O)[O-])cc7)c7ccc4[nH]7)C=C6)C=C5)cc3)ccc21
REMARK SMILES IDX 18 1 17 2 15 3 16 4 14 6 13 7 12 8 11 9 9 10 8 11 1 12 2 13
REMARK SMILES IDX 3 14 87 15 4 16 5 17 6 18 86 19 7 20 85 21 10 22 19 24 20 25
REMARK SMILES IDX 21 26 22 27 23 28 24 30 25 31 26 32 84 33 27 34 83 35 28 36
REMARK SMILES IDX 29 37 30 38 77 39 31 40 82 41 76 42 78 43 32 44 81 45 75 46
REMARK SMILES IDX 74 47 33 49 63 50 44 51 62 52 45 53 48 54 61 55 79 56 46 57
REMARK SMILES IDX 47 58 60 60 80 61 49 62 34 63 35 64 43 65 36 66 42 67 37 68
REMARK SMILES IDX 38 69 39 70 40 71 41 72 64 73 65 74 73 75 66 76 72 77 67 78
REMARK SMILES IDX 68 79 69 80 70 81 71 82 50 83 51 84 59 85 52 86 58 87 53 88
REMARK SMILES IDX 54 89 55 90 56 91 57 92
REMARK H PARENT 17 5 10 23 22 29 78 48 48 59
REMARK Flexibility Score: inf
ROOT
ATOM      1  C   UNL A   1      31.746  29.586  24.729  1.00  0.00     0.116 C 
ENDROOT
BRANCH   1   2
ATOM      2  N   UNL A   1      30.577  30.350  24.344  1.00  0.00    -0.356 N 
ATOM      3  C   UNL A   1      29.641  30.099  23.389  1.00  0.00     0.219 C 
ATOM      4  O   UNL A   1      28.772  30.948  23.184  1.00  0.00    -0.275 OA
ATOM      5  H   UNL A   1      30.438  31.181  24.853  1.00  0.00     0.163 HD
BRANCH   3   6
ATOM      6  C   UNL A   1      29.641  28.793  22.616  1.00  0.00     0.100 C 
BRANCH   6   7
ATOM      7  C   UNL A   1      29.309  27.552  23.446  1.00  0.00     0.010 C 
BRANCH   7   8
ATOM      8  C   UNL A   1      30.321  26.410  23.410  1.00  0.00     0.004 C 
BRANCH   8   9
ATOM      9  C   UNL A   1      31.298  26.409  22.225  1.00  0.00     0.037 C 
BRANCH   9  10
ATOM     10  C   UNL A   1      32.768  26.581  22.616  1.00  0.00     0.144 C 
BRANCH  10  11
ATOM     11  C   UNL A   1      33.314  25.319  23.251  1.00  0.00    -0.019 A 
ATOM     12  C   UNL A   1      35.146  21.593  26.385  1.00  0.00     0.153 C 
ATOM     13  N   UNL A   1      34.322  21.819  25.229  1.00  0.00    -0.315 N 
ATOM     14  C   UNL A   1      33.641  20.819  24.527  1.00  0.00     0.231 C 
ATOM     15  C   UNL A   1      34.095  23.076  24.669  1.00  0.00     0.047 A 
ATOM     16  O   UNL A   1      33.650  19.623  24.759  1.00  0.00    -0.274 OA
ATOM     17  C   UNL A   1      32.867  21.507  23.395  1.00  0.00     0.138 C 
ATOM     18  C   UNL A   1      33.251  22.946  23.569  1.00  0.00    -0.014 A 
ATOM     19  C   UNL A   1      34.578  24.303  25.079  1.00  0.00     0.027 A 
ATOM     20  C   UNL A   1      32.856  24.053  22.841  1.00  0.00     0.012 A 
ATOM     21  C   UNL A   1      34.185  25.430  24.358  1.00  0.00     0.008 A 
ENDBRANCH  10  11
BRANCH  10  22
ATOM     22  O   UNL A   1      33.512  26.900  21.443  1.00  0.00    -0.388 OA
ATOM     23  H   UNL A   1      34.304  27.403  21.689  1.00  0.00     0.211 HD
ENDBRANCH  10  22
ENDBRANCH   9  10
ENDBRANCH   8   9
ENDBRANCH   7   8
ENDBRANCH   6   7
ENDBRANCH   3   6
ENDBRANCH   1   2
BRANCH   1  24
ATOM     24  C   UNL A   1      31.533  28.907  26.084  1.00  0.00     0.023 C 
BRANCH  24  25
ATOM     25  C   UNL A   1      32.584  27.874  26.456  1.00  0.00     0.023 C 
BRANCH  25  26
ATOM     26  C   UNL A   1      33.869  28.463  27.006  1.00  0.00     0.116 C 
BRANCH  26  27
ATOM     27  N   UNL A   1      33.722  29.814  27.529  1.00  0.00    -0.352 N 
ATOM     28  C   UNL A   1      34.660  30.561  28.208  1.00  0.00     0.251 C 
ATOM     29  H   UNL A   1      32.849  30.245  27.380  1.00  0.00     0.163 HD
ATOM     30  O   UNL A   1      34.364  31.652  28.682  1.00  0.00    -0.269 OA
BRANCH  28  31
ATOM     31  C   UNL A   1      36.014  29.997  28.390  1.00  0.00     0.039 A 
ATOM     32  C   UNL A   1      36.938  30.096  27.350  1.00  0.00     0.014 A 
ATOM     33  C   UNL A   1      36.390  29.455  29.623  1.00  0.00     0.014 A 
ATOM     34  C   UNL A   1      38.259  29.705  27.572  1.00  0.00     0.010 A 
ATOM     35  C   UNL A   1      37.727  29.184  29.875  1.00  0.00     0.010 A 
ATOM     36  C   UNL A   1      38.674  29.279  28.846  1.00  0.00    -0.014 A 
BRANCH  36  37
ATOM     37  C   UNL A   1      40.083  28.890  29.103  1.00  0.00     0.031 A 
ATOM     38  C   UNL A   1      41.028  29.878  29.739  1.00  0.00     0.074 A 
ATOM     39  C   UNL A   1      40.522  27.669  28.735  1.00  0.00     0.049 A 
ATOM     40  N   UNL A   1      42.287  29.723  30.058  1.00  0.00    -0.248 NA
ATOM     41  C   UNL A   1      40.505  31.226  30.026  1.00  0.00     0.031 C 
ATOM     42  C   UNL A   1      39.724  26.651  28.043  1.00  0.00     0.029 A 
ATOM     43  N   UNL A   1      41.747  27.071  28.895  1.00  0.00    -0.354 N 
ATOM     44  C   UNL A   1      42.704  30.950  30.559  1.00  0.00     0.074 A 
ATOM     45  C   UNL A   1      41.589  31.859  30.445  1.00  0.00     0.031 C 
ATOM     46  C   UNL A   1      40.466  25.544  27.879  1.00  0.00     0.029 A 
ATOM     47  C   UNL A   1      41.801  25.781  28.418  1.00  0.00     0.049 A 
ATOM     48  H   UNL A   1      42.515  27.522  29.313  1.00  0.00     0.167 HD
ATOM     49  C   UNL A   1      43.900  31.284  31.097  1.00  0.00     0.031 A 
ATOM     50  C   UNL A   1      42.812  24.890  28.419  1.00  0.00     0.031 A 
ATOM     51  C   UNL A   1      44.995  30.366  31.242  1.00  0.00     0.049 A 
ATOM     52  C   UNL A   1      44.123  25.278  29.051  1.00  0.00     0.074 A 
ATOM     53  C   UNL A   1      46.217  30.579  31.855  1.00  0.00     0.029 A 
ATOM     54  N   UNL A   1      45.002  29.062  30.771  1.00  0.00    -0.354 N 
ATOM     55  N   UNL A   1      44.460  26.412  29.620  1.00  0.00    -0.248 NA
ATOM     56  C   UNL A   1      45.183  24.262  29.058  1.00  0.00     0.031 C 
ATOM     57  C   UNL A   1      46.989  29.424  31.695  1.00  0.00     0.029 A 
ATOM     58  C   UNL A   1      46.222  28.470  31.046  1.00  0.00     0.049 A 
ATOM     59  H   UNL A   1      44.251  28.624  30.309  1.00  0.00     0.167 HD
ATOM     60  C   UNL A   1      45.763  26.236  30.071  1.00  0.00     0.074 A 
ATOM     61  C   UNL A   1      46.141  24.879  29.736  1.00  0.00     0.031 C 
ATOM     62  C   UNL A   1      46.578  27.118  30.701  1.00  0.00     0.031 A 
BRANCH  49  63
ATOM     63  C   UNL A   1      44.090  32.701  31.574  1.00  0.00    -0.014 A 
ATOM     64  C   UNL A   1      43.618  33.117  32.833  1.00  0.00     0.010 A 
ATOM     65  C   UNL A   1      44.812  33.609  30.780  1.00  0.00     0.010 A 
ATOM     66  C   UNL A   1      43.845  34.421  33.277  1.00  0.00     0.020 A 
ATOM     67  C   UNL A   1      45.068  34.906  31.234  1.00  0.00     0.020 A 
ATOM     68  C   UNL A   1      44.576  35.306  32.478  1.00  0.00     0.054 A 
BRANCH  68  69
ATOM     69  S   UNL A   1      44.912  36.972  33.111  1.00  0.00     0.124 S 
ATOM     70  O   UNL A   1      46.317  37.151  32.752  1.00  0.00    -0.237 OA
ATOM     71  O   UNL A   1      43.964  37.794  32.365  1.00  0.00    -0.237 OA
ATOM     72  O   UNL A   1      44.646  36.860  34.543  1.00  0.00    -0.744 OA
ENDBRANCH  68  69
ENDBRANCH  49  63
BRANCH  50  73
ATOM     73  C   UNL A   1      42.629  23.543  27.807  1.00  0.00    -0.014 A 
ATOM     74  C   UNL A   1      42.082  22.478  28.546  1.00  0.00     0.010 A 
ATOM     75  C   UNL A   1      43.024  23.313  26.476  1.00  0.00     0.010 A 
ATOM     76  C   UNL A   1      41.971  21.204  27.980  1.00  0.00     0.020 A 
ATOM     77  C   UNL A   1      42.883  22.050  25.895  1.00  0.00     0.020 A 
ATOM     78  C   UNL A   1      42.374  20.997  26.657  1.00  0.00     0.054 A 
BRANCH  78  79
ATOM     79  S   UNL A   1      42.203  19.341  25.936  1.00  0.00     0.124 S 
ATOM     80  O   UNL A   1      43.044  19.440  24.748  1.00  0.00    -0.237 OA
ATOM     81  O   UNL A   1      42.708  18.480  27.002  1.00  0.00    -0.237 OA
ATOM     82  O   UNL A   1      40.768  19.228  25.681  1.00  0.00    -0.744 OA
ENDBRANCH  78  79
ENDBRANCH  50  73
BRANCH  62  83
ATOM     83  C   UNL A   1      47.950  26.635  31.092  1.00  0.00    -0.014 A 
ATOM     84  C   UNL A   1      49.069  26.878  30.276  1.00  0.00     0.010 A 
ATOM     85  C   UNL A   1      48.127  25.965  32.317  1.00  0.00     0.010 A 
ATOM     86  C   UNL A   1      50.333  26.419  30.656  1.00  0.00     0.020 A 
ATOM     87  C   UNL A   1      49.394  25.537  32.717  1.00  0.00     0.020 A 
ATOM     88  C   UNL A   1      50.486  25.751  31.875  1.00  0.00     0.054 A 
BRANCH  88  89
ATOM     89  S   UNL A   1      52.140  25.189  32.357  1.00  0.00     0.124 S 
ATOM     90  O   UNL A   1      52.951  25.626  31.223  1.00  0.00    -0.237 OA
ATOM     91  O   UNL A   1      52.370  25.906  33.609  1.00  0.00    -0.237 OA
ATOM     92  O   UNL A   1      51.989  23.742  32.493  1.00  0.00    -0.744 OA
ENDBRANCH  88  89
ENDBRANCH  62  83
ENDBRANCH  36  37
ENDBRANCH  28  31
ENDBRANCH  26  27
ENDBRANCH  25  26
ENDBRANCH  24  25
ENDBRANCH   1  24
TORSDOF 20
ENDMDL
MODEL 3
REMARK VINA RESULT:     -10.2      1.183      8.271
REMARK SMILES CN1C(=O)Cc2cc([C@@H](O)CCCCC(=O)NCCCCNC(=O)c3ccc(-c4c5nc(c(-c6ccc(S(=O)(=O)[O-])cc6)c6ccc([nH]6)c(-c6ccc(S(=O)(=O)[O-])cc6)c6nc(c(-c7ccc(S(=O)(=O)[O-])cc7)c7ccc4[nH]7)C=C6)C=C5)cc3)ccc21
REMARK SMILES IDX 18 1 17 2 15 3 16 4 14 6 13 7 12 8 11 9 9 10 8 11 1 12 2 13
REMARK SMILES IDX 3 14 87 15 4 16 5 17 6 18 86 19 7 20 85 21 10 22 19 24 20 25
REMARK SMILES IDX 21 26 22 27 23 28 24 30 25 31 26 32 84 33 27 34 83 35 28 36
REMARK SMILES IDX 29 37 30 38 77 39 31 40 82 41 76 42 78 43 32 44 81 45 75 46
REMARK SMILES IDX 74 47 33 49 63 50 44 51 62 52 45 53 48 54 61 55 79 56 46 57
REMARK SMILES IDX 47 58 60 60 80 61 49 62 34 63 35 64 43 65 36 66 42 67 37 68
REMARK SMILES IDX 38 69 39 70 40 71 41 72 64 73 65 74 73 75 66 76 72 77 67 78
REMARK SMILES IDX 68 79 69 80 70 81 71 82 50 83 51 84 59 85 52 86 58 87 53 88
REMARK SMILES IDX 54 89 55 90 56 91 57 92
REMARK H PARENT 17 5 10 23 22 29 78 48 48 59
REMARK Flexibility Score: inf
ROOT
ATOM      1  C   UNL A   1      32.875  28.747  22.999  1.00  0.00     0.116 C 
ENDROOT
BRANCH   1   2
ATOM      2  N   UNL A   1      33.354  27.650  22.183  1.00  0.00    -0.356 N 
ATOM      3  C   UNL A   1      32.758  26.469  21.866  1.00  0.00     0.219 C 
ATOM      4  O   UNL A   1      33.403  25.644  21.216  1.00  0.00    -0.275 OA
ATOM      5  H   UNL A   1      34.251  27.779  21.799  1.00  0.00     0.163 HD
BRANCH   3   6
ATOM      6  C   UNL A   1      31.323  26.182  22.269  1.00  0.00     0.100 C 
BRANCH   6   7
ATOM      7  C   UNL A   1      31.147  25.651  23.693  1.00  0.00     0.010 C 
BRANCH   7   8
ATOM      8  C   UNL A   1      31.503  24.186  23.929  1.00  0.00     0.004 C 
BRANCH   8   9
ATOM      9  C   UNL A   1      30.712  23.466  25.032  1.00  0.00     0.037 C 
BRANCH   9  10
ATOM     10  C   UNL A   1      31.512  23.189  26.306  1.00  0.00     0.144 C 
BRANCH  10  11
ATOM     11  C   UNL A   1      32.960  22.879  25.984  1.00  0.00    -0.019 A 
ATOM     12  C   UNL A   1      38.137  22.397  25.824  1.00  0.00     0.153 C 
ATOM     13  N   UNL A   1      36.910  21.706  25.537  1.00  0.00    -0.315 N 
ATOM     14  C   UNL A   1      36.826  20.401  25.040  1.00  0.00     0.231 C 
ATOM     15  C   UNL A   1      35.642  22.257  25.730  1.00  0.00     0.047 A 
ATOM     16  O   UNL A   1      37.753  19.664  24.755  1.00  0.00    -0.274 OA
ATOM     17  C   UNL A   1      35.336  20.059  24.914  1.00  0.00     0.138 C 
ATOM     18  C   UNL A   1      34.673  21.327  25.362  1.00  0.00    -0.014 A 
ATOM     19  C   UNL A   1      35.311  23.507  26.213  1.00  0.00     0.027 A 
ATOM     20  C   UNL A   1      33.328  21.621  25.472  1.00  0.00     0.012 A 
ATOM     21  C   UNL A   1      33.957  23.818  26.335  1.00  0.00     0.008 A 
ENDBRANCH  10  11
BRANCH  10  22
ATOM     22  O   UNL A   1      31.433  24.337  27.148  1.00  0.00    -0.388 OA
ATOM     23  H   UNL A   1      32.008  24.213  27.919  1.00  0.00     0.211 HD
ENDBRANCH  10  22
ENDBRANCH   9  10
ENDBRANCH   8   9
ENDBRANCH   7   8
ENDBRANCH   6   7
ENDBRANCH   3   6
ENDBRANCH   1   2
BRANCH   1  24
ATOM     24  C   UNL A   1      33.670  28.845  24.304  1.00  0.00     0.023 C 
BRANCH  24  25
ATOM     25  C   UNL A   1      33.392  27.737  25.307  1.00  0.00     0.023 C 
BRANCH  25  26
ATOM     26  C   UNL A   1      33.793  28.071  26.731  1.00  0.00     0.116 C 
BRANCH  26  27
ATOM     27  N   UNL A   1      33.540  29.455  27.105  1.00  0.00    -0.352 N 
ATOM     28  C   UNL A   1      34.397  30.326  27.742  1.00  0.00     0.251 C 
ATOM     29  H   UNL A   1      32.651  29.812  26.876  1.00  0.00     0.163 HD
ATOM     30  O   UNL A   1      34.013  31.438  28.088  1.00  0.00    -0.269 OA
BRANCH  28  31
ATOM     31  C   UNL A   1      35.772  29.872  28.037  1.00  0.00     0.039 A 
ATOM     32  C   UNL A   1      36.756  29.998  27.057  1.00  0.00     0.014 A 
ATOM     33  C   UNL A   1      36.101  29.410  29.315  1.00  0.00     0.014 A 
ATOM     34  C   UNL A   1      38.083  29.715  27.382  1.00  0.00     0.010 A 
ATOM     35  C   UNL A   1      37.434  29.249  29.667  1.00  0.00     0.010 A 
ATOM     36  C   UNL A   1      38.439  29.373  28.699  1.00  0.00    -0.014 A 
BRANCH  36  37
ATOM     37  C   UNL A   1      39.852  29.101  29.065  1.00  0.00     0.031 A 
ATOM     38  C   UNL A   1      40.477  27.777  28.706  1.00  0.00     0.074 A 
ATOM     39  C   UNL A   1      40.560  30.025  29.747  1.00  0.00     0.049 A 
ATOM     40  N   UNL A   1      41.697  27.358  28.922  1.00  0.00    -0.248 NA
ATOM     41  C   UNL A   1      39.615  26.779  28.047  1.00  0.00     0.031 C 
ATOM     42  C   UNL A   1      40.044  31.315  30.218  1.00  0.00     0.029 A 
ATOM     43  N   UNL A   1      41.869  30.026  30.159  1.00  0.00    -0.354 N 
ATOM     44  C   UNL A   1      41.738  26.052  28.448  1.00  0.00     0.074 A 
ATOM     45  C   UNL A   1      40.410  25.722  27.991  1.00  0.00     0.031 C 
ATOM     46  C   UNL A   1      41.036  31.996  30.814  1.00  0.00     0.029 A 
ATOM     47  C   UNL A   1      42.247  31.182  30.802  1.00  0.00     0.049 A 
ATOM     48  H   UNL A   1      42.480  29.270  30.008  1.00  0.00     0.167 HD
ATOM     49  C   UNL A   1      42.795  25.212  28.370  1.00  0.00     0.031 A 
ATOM     50  C   UNL A   1      43.436  31.547  31.320  1.00  0.00     0.031 A 
ATOM     51  C   UNL A   1      44.124  25.558  28.793  1.00  0.00     0.049 A 
ATOM     52  C   UNL A   1      44.604  30.604  31.193  1.00  0.00     0.074 A 
ATOM     53  C   UNL A   1      45.283  24.812  28.675  1.00  0.00     0.029 A 
ATOM     54  N   UNL A   1      44.472  26.747  29.414  1.00  0.00    -0.354 N 
ATOM     55  N   UNL A   1      44.646  29.413  30.640  1.00  0.00    -0.248 NA
ATOM     56  C   UNL A   1      45.888  31.058  31.742  1.00  0.00     0.031 C 
ATOM     57  C   UNL A   1      46.320  25.522  29.285  1.00  0.00     0.029 A 
ATOM     58  C   UNL A   1      45.821  26.741  29.720  1.00  0.00     0.049 A 
ATOM     59  H   UNL A   1      43.850  27.485  29.610  1.00  0.00     0.167 HD
ATOM     60  C   UNL A   1      45.964  28.989  30.756  1.00  0.00     0.074 A 
ATOM     61  C   UNL A   1      46.693  30.061  31.404  1.00  0.00     0.031 C 
ATOM     62  C   UNL A   1      46.525  27.817  30.368  1.00  0.00     0.031 A 
BRANCH  49  63
ATOM     63  C   UNL A   1      42.564  23.835  27.803  1.00  0.00    -0.014 A 
ATOM     64  C   UNL A   1      42.610  23.599  26.416  1.00  0.00     0.010 A 
ATOM     65  C   UNL A   1      42.366  22.750  28.675  1.00  0.00     0.010 A 
ATOM     66  C   UNL A   1      42.441  22.308  25.913  1.00  0.00     0.020 A 
ATOM     67  C   UNL A   1      42.227  21.452  28.176  1.00  0.00     0.020 A 
ATOM     68  C   UNL A   1      42.257  21.240  26.797  1.00  0.00     0.054 A 
BRANCH  68  69
ATOM     69  S   UNL A   1      42.106  19.566  26.116  1.00  0.00     0.124 S 
ATOM     70  O   UNL A   1      43.031  19.617  24.986  1.00  0.00    -0.237 OA
ATOM     71  O   UNL A   1      42.528  18.728  27.235  1.00  0.00    -0.237 OA
ATOM     72  O   UNL A   1      40.694  19.461  25.759  1.00  0.00    -0.744 OA
ENDBRANCH  68  69
ENDBRANCH  49  63
BRANCH  50  73
ATOM     73  C   UNL A   1      43.590  32.863  32.003  1.00  0.00    -0.014 A 
ATOM     74  C   UNL A   1      43.950  34.016  31.283  1.00  0.00     0.010 A 
ATOM     75  C   UNL A   1      43.394  32.963  33.393  1.00  0.00     0.010 A 
ATOM     76  C   UNL A   1      44.150  35.233  31.943  1.00  0.00     0.020 A 
ATOM     77  C   UNL A   1      43.558  34.184  34.052  1.00  0.00     0.020 A 
ATOM     78  C   UNL A   1      43.954  35.309  33.326  1.00  0.00     0.054 A 
BRANCH  78  79
ATOM     79  S   UNL A   1      44.198  36.901  34.161  1.00  0.00     0.124 S 
ATOM     80  O   UNL A   1      42.845  37.447  34.173  1.00  0.00    -0.237 OA
ATOM     81  O   UNL A   1      44.731  36.497  35.459  1.00  0.00    -0.237 OA
ATOM     82  O   UNL A   1      45.148  37.598  33.294  1.00  0.00    -0.744 OA
ENDBRANCH  78  79
ENDBRANCH  50  73
BRANCH  62  83
ATOM     83  C   UNL A   1      48.001  27.641  30.610  1.00  0.00    -0.014 A 
ATOM     84  C   UNL A   1      48.951  28.068  29.666  1.00  0.00     0.010 A 
ATOM     85  C   UNL A   1      48.443  27.080  31.823  1.00  0.00     0.010 A 
ATOM     86  C   UNL A   1      50.316  27.894  29.909  1.00  0.00     0.020 A 
ATOM     87  C   UNL A   1      49.807  26.938  32.085  1.00  0.00     0.020 A 
ATOM     88  C   UNL A   1      50.734  27.329  31.118  1.00  0.00     0.054 A 
BRANCH  88  89
ATOM     89  S   UNL A   1      52.511  27.138  31.420  1.00  0.00     0.124 S 
ATOM     90  O   UNL A   1      52.693  25.698  31.259  1.00  0.00    -0.237 OA
ATOM     91  O   UNL A   1      53.105  27.969  30.376  1.00  0.00    -0.237 OA
ATOM     92  O   UNL A   1      52.687  27.639  32.782  1.00  0.00    -0.744 OA
ENDBRANCH  88  89
ENDBRANCH  62  83
ENDBRANCH  36  37
ENDBRANCH  28  31
ENDBRANCH  26  27
ENDBRANCH  25  26
ENDBRANCH  24  25
ENDBRANCH   1  24
TORSDOF 20
ENDMDL
