MODEL 1
REMARK VINA RESULT:     -11.4      0.000      0.000
REMARK SMILES C[C@@H](c1ccccc1)[C@@H](CC(=O)Nc1ccccc1I)C(=O)NCCCCNC(=O)c1ccc(-c2c3nc(c(-c4ccc(S(=O)(=O)[O-])cc4)c4ccc([nH]4)c(-c4ccc(S(=O)(=O)[O-])cc4)c4nc(c(-c5ccc(S(=O)(=O)[O-])cc5)c5ccc2[nH]5)C=C4)C=C3)cc1
REMARK SMILES IDX 25 1 24 2 23 3 21 4 22 5 9 7 2 8 1 9 3 10 4 11 8 12 5 13
REMARK SMILES IDX 7 14 6 15 10 16 11 17 12 18 13 19 14 21 15 22 19 23 16 24
REMARK SMILES IDX 18 25 20 26 17 27 26 28 27 29 28 30 29 31 30 33 31 34 32 35
REMARK SMILES IDX 90 36 33 37 89 38 34 39 35 40 36 41 83 42 37 43 88 44 82 45
REMARK SMILES IDX 84 46 38 47 87 48 81 49 80 50 39 52 69 53 50 54 68 55 51 56
REMARK SMILES IDX 54 57 67 58 85 59 52 60 53 61 66 63 86 64 55 65 40 66 41 67
REMARK SMILES IDX 49 68 42 69 48 70 43 71 44 72 45 73 46 74 47 75 70 76 71 77
REMARK SMILES IDX 79 78 72 79 78 80 73 81 74 82 75 83 76 84 77 85 56 86 57 87
REMARK SMILES IDX 65 88 58 89 64 90 59 91 60 92 61 93 62 94 63 95
REMARK H PARENT 23 6 13 20 28 32 84 51 54 62
REMARK Flexibility Score: inf
ROOT
ATOM      1  C   UNL A   1      33.773  27.618  24.925  1.00  0.00     0.023 C 
ENDROOT
BRANCH   1   2
ATOM      2  C   UNL A   1      33.537  28.023  23.490  1.00  0.00     0.116 C 
BRANCH   2   3
ATOM      3  N   UNL A   1      33.077  27.110  22.499  1.00  0.00    -0.356 N 
ATOM      4  C   UNL A   1      31.757  26.781  22.319  1.00  0.00     0.224 C 
ATOM      5  O   UNL A   1      31.440  26.375  21.194  1.00  0.00    -0.275 OA
ATOM      6  H   UNL A   1      33.744  26.691  21.908  1.00  0.00     0.163 HD
BRANCH   4   7
ATOM      7  C   UNL A   1      30.671  26.847  23.444  1.00  0.00     0.095 C 
BRANCH   7   8
ATOM      8  C   UNL A   1      29.274  27.457  23.135  1.00  0.00     0.029 C 
ATOM      9  C   UNL A   1      28.182  26.666  23.910  1.00  0.00     0.013 C 
BRANCH   8  10
ATOM     10  C   UNL A   1      28.953  28.963  23.100  1.00  0.00    -0.044 A 
ATOM     11  C   UNL A   1      29.887  29.879  23.642  1.00  0.00     0.004 A 
ATOM     12  C   UNL A   1      27.687  29.485  22.806  1.00  0.00     0.004 A 
ATOM     13  C   UNL A   1      29.553  31.201  23.950  1.00  0.00     0.000 A 
ATOM     14  C   UNL A   1      27.345  30.809  23.121  1.00  0.00     0.000 A 
ATOM     15  C   UNL A   1      28.268  31.660  23.715  1.00  0.00     0.000 A 
ENDBRANCH   8  10
ENDBRANCH   7   8
BRANCH   7  16
ATOM     16  C   UNL A   1      30.585  25.557  24.321  1.00  0.00     0.114 C 
BRANCH  16  17
ATOM     17  C   UNL A   1      31.047  24.105  23.969  1.00  0.00     0.225 C 
ATOM     18  O   UNL A   1      30.407  23.519  23.079  1.00  0.00    -0.275 OA
ATOM     19  N   UNL A   1      31.957  23.317  24.646  1.00  0.00    -0.325 N 
ATOM     20  H   UNL A   1      31.578  22.548  25.130  1.00  0.00     0.169 HD
BRANCH  19  21
ATOM     21  C   UNL A   1      33.367  23.468  24.738  1.00  0.00     0.054 A 
ATOM     22  C   UNL A   1      34.035  23.680  23.527  1.00  0.00     0.027 A 
ATOM     23  C   UNL A   1      34.166  23.167  25.867  1.00  0.00     0.037 A 
ATOM     24  C   UNL A   1      35.431  23.741  23.475  1.00  0.00     0.002 A 
ATOM     25  C   UNL A   1      35.550  23.377  25.836  1.00  0.00     0.017 A 
ATOM     26  I   UNL A   1      33.626  22.194  27.648  1.00  0.00    -0.042 I 
ATOM     27  C   UNL A   1      36.182  23.656  24.639  1.00  0.00     0.001 A 
ENDBRANCH  19  21
ENDBRANCH  16  17
ENDBRANCH   7  16
ENDBRANCH   4   7
ENDBRANCH   2   3
ENDBRANCH   1   2
BRANCH   1  28
ATOM     28  C   UNL A   1      32.837  28.117  25.981  1.00  0.00     0.023 C 
BRANCH  28  29
ATOM     29  C   UNL A   1      33.536  28.444  27.276  1.00  0.00     0.116 C 
BRANCH  29  30
ATOM     30  N   UNL A   1      33.547  29.879  27.569  1.00  0.00    -0.352 N 
ATOM     31  C   UNL A   1      34.526  30.641  28.158  1.00  0.00     0.251 C 
ATOM     32  H   UNL A   1      32.735  30.368  27.306  1.00  0.00     0.163 HD
ATOM     33  O   UNL A   1      34.283  31.787  28.537  1.00  0.00    -0.269 OA
BRANCH  31  34
ATOM     34  C   UNL A   1      35.867  30.057  28.341  1.00  0.00     0.039 A 
ATOM     35  C   UNL A   1      36.804  30.118  27.311  1.00  0.00     0.014 A 
ATOM     36  C   UNL A   1      36.206  29.509  29.579  1.00  0.00     0.014 A 
ATOM     37  C   UNL A   1      38.109  29.699  27.562  1.00  0.00     0.010 A 
ATOM     38  C   UNL A   1      37.532  29.257  29.873  1.00  0.00     0.010 A 
ATOM     39  C   UNL A   1      38.491  29.313  28.859  1.00  0.00    -0.014 A 
BRANCH  39  40
ATOM     40  C   UNL A   1      39.889  28.940  29.170  1.00  0.00     0.031 A 
ATOM     41  C   UNL A   1      40.783  29.920  29.881  1.00  0.00     0.074 A 
ATOM     42  C   UNL A   1      40.352  27.742  28.765  1.00  0.00     0.049 A 
ATOM     43  N   UNL A   1      42.019  29.761  30.278  1.00  0.00    -0.248 NA
ATOM     44  C   UNL A   1      40.238  31.262  30.151  1.00  0.00     0.031 C 
ATOM     45  C   UNL A   1      39.595  26.758  27.986  1.00  0.00     0.029 A 
ATOM     46  N   UNL A   1      41.566  27.142  28.966  1.00  0.00    -0.354 N 
ATOM     47  C   UNL A   1      42.396  30.983  30.825  1.00  0.00     0.074 A 
ATOM     48  C   UNL A   1      41.293  31.894  30.640  1.00  0.00     0.031 C 
ATOM     49  C   UNL A   1      40.339  25.652  27.834  1.00  0.00     0.029 A 
ATOM     50  C   UNL A   1      41.635  25.863  28.465  1.00  0.00     0.049 A 
ATOM     51  H   UNL A   1      42.318  27.582  29.424  1.00  0.00     0.167 HD
ATOM     52  C   UNL A   1      43.547  31.305  31.458  1.00  0.00     0.031 A 
ATOM     53  C   UNL A   1      42.630  24.959  28.524  1.00  0.00     0.031 A 
ATOM     54  C   UNL A   1      44.631  30.380  31.644  1.00  0.00     0.049 A 
ATOM     55  C   UNL A   1      43.886  25.325  29.264  1.00  0.00     0.074 A 
ATOM     56  C   UNL A   1      45.818  30.571  32.327  1.00  0.00     0.029 A 
ATOM     57  N   UNL A   1      44.658  29.088  31.139  1.00  0.00    -0.354 N 
ATOM     58  N   UNL A   1      44.190  26.454  29.861  1.00  0.00    -0.248 NA
ATOM     59  C   UNL A   1      44.920  24.290  29.359  1.00  0.00     0.031 C 
ATOM     60  C   UNL A   1      46.591  29.413  32.180  1.00  0.00     0.029 A 
ATOM     61  C   UNL A   1      45.854  28.476  31.471  1.00  0.00     0.049 A 
ATOM     62  H   UNL A   1      43.933  28.669  30.622  1.00  0.00     0.167 HD
ATOM     63  C   UNL A   1      45.445  26.256  30.425  1.00  0.00     0.074 A 
ATOM     64  C   UNL A   1      45.825  24.892  30.117  1.00  0.00     0.031 C 
ATOM     65  C   UNL A   1      46.215  27.122  31.133  1.00  0.00     0.031 A 
BRANCH  52  66
ATOM     66  C   UNL A   1      43.684  32.714  31.981  1.00  0.00    -0.014 A 
ATOM     67  C   UNL A   1      43.291  33.052  33.290  1.00  0.00     0.010 A 
ATOM     68  C   UNL A   1      44.231  33.711  31.155  1.00  0.00     0.010 A 
ATOM     69  C   UNL A   1      43.398  34.368  33.745  1.00  0.00     0.020 A 
ATOM     70  C   UNL A   1      44.372  35.023  31.619  1.00  0.00     0.020 A 
ATOM     71  C   UNL A   1      43.938  35.346  32.906  1.00  0.00     0.054 A 
BRANCH  71  72
ATOM     72  S   UNL A   1      44.091  37.040  33.533  1.00  0.00     0.124 S 
ATOM     73  O   UNL A   1      42.753  37.286  34.067  1.00  0.00    -0.237 OA
ATOM     74  O   UNL A   1      45.151  36.917  34.530  1.00  0.00    -0.237 OA
ATOM     75  O   UNL A   1      44.441  37.820  32.348  1.00  0.00    -0.744 OA
ENDBRANCH  71  72
ENDBRANCH  52  66
BRANCH  53  76
ATOM     76  C   UNL A   1      42.452  23.620  27.899  1.00  0.00    -0.014 A 
ATOM     77  C   UNL A   1      42.975  23.344  26.623  1.00  0.00     0.010 A 
ATOM     78  C   UNL A   1      41.789  22.594  28.599  1.00  0.00     0.010 A 
ATOM     79  C   UNL A   1      42.824  22.076  26.053  1.00  0.00     0.020 A 
ATOM     80  C   UNL A   1      41.663  21.317  28.046  1.00  0.00     0.020 A 
ATOM     81  C   UNL A   1      42.174  21.069  26.772  1.00  0.00     0.054 A 
BRANCH  81  82
ATOM     82  S   UNL A   1      42.043  19.414  26.038  1.00  0.00     0.124 S 
ATOM     83  O   UNL A   1      42.561  18.566  27.105  1.00  0.00    -0.237 OA
ATOM     84  O   UNL A   1      40.610  19.301  25.775  1.00  0.00    -0.237 OA
ATOM     85  O   UNL A   1      42.881  19.503  24.844  1.00  0.00    -0.744 OA
ENDBRANCH  81  82
ENDBRANCH  53  76
BRANCH  65  86
ATOM     86  C   UNL A   1      47.531  26.600  31.643  1.00  0.00    -0.014 A 
ATOM     87  C   UNL A   1      48.700  26.673  30.866  1.00  0.00     0.010 A 
ATOM     88  C   UNL A   1      47.597  26.040  32.933  1.00  0.00     0.010 A 
ATOM     89  C   UNL A   1      49.898  26.138  31.343  1.00  0.00     0.020 A 
ATOM     90  C   UNL A   1      48.802  25.538  33.428  1.00  0.00     0.020 A 
ATOM     91  C   UNL A   1      49.939  25.566  32.619  1.00  0.00     0.054 A 
BRANCH  91  92
ATOM     92  S   UNL A   1      51.503  24.874  33.215  1.00  0.00     0.124 S 
ATOM     93  O   UNL A   1      51.160  24.483  34.579  1.00  0.00    -0.237 OA
ATOM     94  O   UNL A   1      51.741  23.773  32.286  1.00  0.00    -0.237 OA
ATOM     95  O   UNL A   1      52.441  25.989  33.105  1.00  0.00    -0.744 OA
ENDBRANCH  91  92
ENDBRANCH  65  86
ENDBRANCH  39  40
ENDBRANCH  31  34
ENDBRANCH  29  30
ENDBRANCH  28  29
ENDBRANCH   1  28
TORSDOF 19
ENDMDL
MODEL 2
REMARK VINA RESULT:     -11.1      3.900      5.099
REMARK SMILES C[C@@H](c1ccccc1)[C@@H](CC(=O)Nc1ccccc1I)C(=O)NCCCCNC(=O)c1ccc(-c2c3nc(c(-c4ccc(S(=O)(=O)[O-])cc4)c4ccc([nH]4)c(-c4ccc(S(=O)(=O)[O-])cc4)c4nc(c(-c5ccc(S(=O)(=O)[O-])cc5)c5ccc2[nH]5)C=C4)C=C3)cc1
REMARK SMILES IDX 25 1 24 2 23 3 21 4 22 5 9 7 2 8 1 9 3 10 4 11 8 12 5 13
REMARK SMILES IDX 7 14 6 15 10 16 11 17 12 18 13 19 14 21 15 22 19 23 16 24
REMARK SMILES IDX 18 25 20 26 17 27 26 28 27 29 28 30 29 31 30 33 31 34 32 35
REMARK SMILES IDX 90 36 33 37 89 38 34 39 35 40 36 41 83 42 37 43 88 44 82 45
REMARK SMILES IDX 84 46 38 47 87 48 81 49 80 50 39 52 69 53 50 54 68 55 51 56
REMARK SMILES IDX 54 57 67 58 85 59 52 60 53 61 66 63 86 64 55 65 40 66 41 67
REMARK SMILES IDX 49 68 42 69 48 70 43 71 44 72 45 73 46 74 47 75 70 76 71 77
REMARK SMILES IDX 79 78 72 79 78 80 73 81 74 82 75 83 76 84 77 85 56 86 57 87
REMARK SMILES IDX 65 88 58 89 64 90 59 91 60 92 61 93 62 94 63 95
REMARK H PARENT 23 6 13 20 28 32 84 51 54 62
REMARK Flexibility Score: inf
ROOT
ATOM      1  C   UNL A   1      32.391  30.482  25.893  1.00  0.00     0.023 C 
ENDROOT
BRANCH   1   2
ATOM      2  C   UNL A   1      33.409  29.387  25.687  1.00  0.00     0.116 C 
BRANCH   2   3
ATOM      3  N   UNL A   1      33.978  29.097  24.413  1.00  0.00    -0.356 N 
ATOM      4  C   UNL A   1      33.384  28.283  23.481  1.00  0.00     0.224 C 
ATOM      5  O   UNL A   1      33.709  28.471  22.301  1.00  0.00    -0.275 OA
ATOM      6  H   UNL A   1      34.846  29.504  24.188  1.00  0.00     0.163 HD
BRANCH   4   7
ATOM      7  C   UNL A   1      32.380  27.133  23.826  1.00  0.00     0.095 C 
BRANCH   7   8
ATOM      8  C   UNL A   1      31.003  27.068  23.107  1.00  0.00     0.029 C 
ATOM      9  C   UNL A   1      30.248  25.783  23.551  1.00  0.00     0.013 C 
BRANCH   8  10
ATOM     10  C   UNL A   1      30.034  28.253  22.937  1.00  0.00    -0.044 A 
ATOM     11  C   UNL A   1      28.681  28.098  23.325  1.00  0.00     0.004 A 
ATOM     12  C   UNL A   1      30.325  29.398  22.185  1.00  0.00     0.004 A 
ATOM     13  C   UNL A   1      27.675  28.978  22.915  1.00  0.00     0.000 A 
ATOM     14  C   UNL A   1      29.317  30.279  21.765  1.00  0.00     0.000 A 
ATOM     15  C   UNL A   1      27.990  30.058  22.109  1.00  0.00     0.000 A 
ENDBRANCH   8  10
ENDBRANCH   7   8
BRANCH   7  16
ATOM     16  C   UNL A   1      33.049  25.730  23.978  1.00  0.00     0.114 C 
BRANCH  16  17
ATOM     17  C   UNL A   1      33.627  24.799  22.862  1.00  0.00     0.225 C 
ATOM     18  O   UNL A   1      33.813  25.316  21.747  1.00  0.00    -0.275 OA
ATOM     19  N   UNL A   1      33.785  23.427  22.900  1.00  0.00    -0.325 N 
ATOM     20  H   UNL A   1      33.176  22.911  22.324  1.00  0.00     0.169 HD
BRANCH  19  21
ATOM     21  C   UNL A   1      34.709  22.661  23.661  1.00  0.00     0.054 A 
ATOM     22  C   UNL A   1      36.061  22.882  23.375  1.00  0.00     0.027 A 
ATOM     23  C   UNL A   1      34.398  21.538  24.464  1.00  0.00     0.037 A 
ATOM     24  C   UNL A   1      37.061  22.116  23.983  1.00  0.00     0.002 A 
ATOM     25  C   UNL A   1      35.403  20.876  25.181  1.00  0.00     0.017 A 
ATOM     26  I   UNL A   1      32.589  20.484  24.621  1.00  0.00    -0.042 I 
ATOM     27  C   UNL A   1      36.733  21.160  24.935  1.00  0.00     0.001 A 
ENDBRANCH  19  21
ENDBRANCH  16  17
ENDBRANCH   7  16
ENDBRANCH   4   7
ENDBRANCH   2   3
ENDBRANCH   1   2
BRANCH   1  28
ATOM     28  C   UNL A   1      32.275  31.116  27.245  1.00  0.00     0.023 C 
BRANCH  28  29
ATOM     29  C   UNL A   1      33.464  31.977  27.591  1.00  0.00     0.116 C 
BRANCH  29  30
ATOM     30  N   UNL A   1      33.109  33.384  27.787  1.00  0.00    -0.352 N 
ATOM     31  C   UNL A   1      33.528  34.262  28.758  1.00  0.00     0.251 C 
ATOM     32  H   UNL A   1      32.479  33.755  27.129  1.00  0.00     0.163 HD
ATOM     33  O   UNL A   1      32.958  35.342  28.911  1.00  0.00    -0.269 OA
BRANCH  31  34
ATOM     34  C   UNL A   1      34.662  33.881  29.618  1.00  0.00     0.039 A 
ATOM     35  C   UNL A   1      34.458  33.047  30.716  1.00  0.00     0.014 A 
ATOM     36  C   UNL A   1      35.947  34.307  29.277  1.00  0.00     0.014 A 
ATOM     37  C   UNL A   1      35.565  32.577  31.420  1.00  0.00     0.010 A 
ATOM     38  C   UNL A   1      37.042  33.706  29.865  1.00  0.00     0.010 A 
ATOM     39  C   UNL A   1      36.866  32.865  30.967  1.00  0.00    -0.014 A 
BRANCH  39  40
ATOM     40  C   UNL A   1      38.057  32.312  31.649  1.00  0.00     0.031 A 
ATOM     41  C   UNL A   1      38.477  32.865  32.984  1.00  0.00     0.074 A 
ATOM     42  C   UNL A   1      38.776  31.353  31.035  1.00  0.00     0.049 A 
ATOM     43  N   UNL A   1      39.463  32.484  33.755  1.00  0.00    -0.248 NA
ATOM     44  C   UNL A   1      37.721  34.016  33.510  1.00  0.00     0.031 C 
ATOM     45  C   UNL A   1      38.508  30.815  29.698  1.00  0.00     0.029 A 
ATOM     46  N   UNL A   1      39.870  30.648  31.462  1.00  0.00    -0.354 N 
ATOM     47  C   UNL A   1      39.449  33.355  34.838  1.00  0.00     0.074 A 
ATOM     48  C   UNL A   1      38.416  34.330  34.592  1.00  0.00     0.031 C 
ATOM     49  C   UNL A   1      39.372  29.820  29.443  1.00  0.00     0.029 A 
ATOM     50  C   UNL A   1      40.277  29.679  30.576  1.00  0.00     0.049 A 
ATOM     51  H   UNL A   1      40.322  30.819  32.320  1.00  0.00     0.167 HD
ATOM     52  C   UNL A   1      40.210  33.323  35.957  1.00  0.00     0.031 A 
ATOM     53  C   UNL A   1      41.262  28.767  30.678  1.00  0.00     0.031 A 
ATOM     54  C   UNL A   1      41.227  32.336  36.191  1.00  0.00     0.049 A 
ATOM     55  C   UNL A   1      42.070  28.726  31.944  1.00  0.00     0.074 A 
ATOM     56  C   UNL A   1      42.015  32.161  37.313  1.00  0.00     0.029 A 
ATOM     57  N   UNL A   1      41.600  31.358  35.280  1.00  0.00    -0.354 N 
ATOM     58  N   UNL A   1      41.981  29.497  33.004  1.00  0.00    -0.248 NA
ATOM     59  C   UNL A   1      43.091  27.678  32.040  1.00  0.00     0.031 C 
ATOM     60  C   UNL A   1      42.908  31.115  37.055  1.00  0.00     0.029 A 
ATOM     61  C   UNL A   1      42.626  30.592  35.802  1.00  0.00     0.049 A 
ATOM     62  H   UNL A   1      41.193  31.229  34.393  1.00  0.00     0.167 HD
ATOM     63  C   UNL A   1      42.922  29.011  33.904  1.00  0.00     0.074 A 
ATOM     64  C   UNL A   1      43.546  27.866  33.271  1.00  0.00     0.031 C 
ATOM     65  C   UNL A   1      43.243  29.469  35.141  1.00  0.00     0.031 A 
BRANCH  52  66
ATOM     66  C   UNL A   1      39.967  34.390  36.995  1.00  0.00    -0.014 A 
ATOM     67  C   UNL A   1      39.080  34.180  38.068  1.00  0.00     0.010 A 
ATOM     68  C   UNL A   1      40.649  35.616  36.905  1.00  0.00     0.010 A 
ATOM     69  C   UNL A   1      38.845  35.192  39.003  1.00  0.00     0.020 A 
ATOM     70  C   UNL A   1      40.443  36.618  37.858  1.00  0.00     0.020 A 
ATOM     71  C   UNL A   1      39.530  36.405  38.891  1.00  0.00     0.054 A 
BRANCH  71  72
ATOM     72  S   UNL A   1      39.227  37.690  40.135  1.00  0.00     0.124 S 
ATOM     73  O   UNL A   1      40.524  38.359  40.200  1.00  0.00    -0.237 OA
ATOM     74  O   UNL A   1      38.148  38.468  39.533  1.00  0.00    -0.237 OA
ATOM     75  O   UNL A   1      38.855  36.936  41.330  1.00  0.00    -0.744 OA
ENDBRANCH  71  72
ENDBRANCH  52  66
BRANCH  53  76
ATOM     76  C   UNL A   1      41.500  27.808  29.565  1.00  0.00    -0.014 A 
ATOM     77  C   UNL A   1      40.740  26.630  29.454  1.00  0.00     0.010 A 
ATOM     78  C   UNL A   1      42.467  28.090  28.582  1.00  0.00     0.010 A 
ATOM     79  C   UNL A   1      40.954  25.745  28.392  1.00  0.00     0.020 A 
ATOM     80  C   UNL A   1      42.662  27.224  27.503  1.00  0.00     0.020 A 
ATOM     81  C   UNL A   1      41.910  26.052  27.419  1.00  0.00     0.054 A 
BRANCH  81  82
ATOM     82  S   UNL A   1      42.129  24.920  26.018  1.00  0.00     0.124 S 
ATOM     83  O   UNL A   1      43.366  24.234  26.371  1.00  0.00    -0.237 OA
ATOM     84  O   UNL A   1      40.914  24.109  26.078  1.00  0.00    -0.237 OA
ATOM     85  O   UNL A   1      42.213  25.815  24.866  1.00  0.00    -0.744 OA
ENDBRANCH  81  82
ENDBRANCH  53  76
BRANCH  65  86
ATOM     86  C   UNL A   1      44.298  28.705  35.895  1.00  0.00    -0.014 A 
ATOM     87  C   UNL A   1      43.983  27.549  36.631  1.00  0.00     0.010 A 
ATOM     88  C   UNL A   1      45.633  29.147  35.849  1.00  0.00     0.010 A 
ATOM     89  C   UNL A   1      44.971  26.886  37.360  1.00  0.00     0.020 A 
ATOM     90  C   UNL A   1      46.632  28.465  36.546  1.00  0.00     0.020 A 
ATOM     91  C   UNL A   1      46.289  27.354  37.319  1.00  0.00     0.054 A 
BRANCH  91  92
ATOM     92  S   UNL A   1      47.555  26.480  38.277  1.00  0.00     0.124 S 
ATOM     93  O   UNL A   1      48.785  26.925  37.628  1.00  0.00    -0.237 OA
ATOM     94  O   UNL A   1      47.339  26.986  39.629  1.00  0.00    -0.237 OA
ATOM     95  O   UNL A   1      47.224  25.070  38.084  1.00  0.00    -0.744 OA
ENDBRANCH  91  92
ENDBRANCH  65  86
ENDBRANCH  39  40
ENDBRANCH  31  34
ENDBRANCH  29  30
ENDBRANCH  28  29
ENDBRANCH   1  28
TORSDOF 19
ENDMDL
MODEL 3
REMARK VINA RESULT:     -10.9      1.544      2.615
REMARK SMILES C[C@@H](c1ccccc1)[C@@H](CC(=O)Nc1ccccc1I)C(=O)NCCCCNC(=O)c1ccc(-c2c3nc(c(-c4ccc(S(=O)(=O)[O-])cc4)c4ccc([nH]4)c(-c4ccc(S(=O)(=O)[O-])cc4)c4nc(c(-c5ccc(S(=O)(=O)[O-])cc5)c5ccc2[nH]5)C=C4)C=C3)cc1
REMARK SMILES IDX 25 1 24 2 23 3 21 4 22 5 9 7 2 8 1 9 3 10 4 11 8 12 5 13
REMARK SMILES IDX 7 14 6 15 10 16 11 17 12 18 13 19 14 21 15 22 19 23 16 24
REMARK SMILES IDX 18 25 20 26 17 27 26 28 27 29 28 30 29 31 30 33 31 34 32 35
REMARK SMILES IDX 90 36 33 37 89 38 34 39 35 40 36 41 83 42 37 43 88 44 82 45
REMARK SMILES IDX 84 46 38 47 87 48 81 49 80 50 39 52 69 53 50 54 68 55 51 56
REMARK SMILES IDX 54 57 67 58 85 59 52 60 53 61 66 63 86 64 55 65 40 66 41 67
REMARK SMILES IDX 49 68 42 69 48 70 43 71 44 72 45 73 46 74 47 75 70 76 71 77
REMARK SMILES IDX 79 78 72 79 78 80 73 81 74 82 75 83 76 84 77 85 56 86 57 87
REMARK SMILES IDX 65 88 58 89 64 90 59 91 60 92 61 93 62 94 63 95
REMARK H PARENT 23 6 13 20 28 32 84 51 54 62
REMARK Flexibility Score: inf
ROOT
ATOM      1  C   UNL A   1      33.565  28.360  24.743  1.00  0.00     0.023 C 
ENDROOT
BRANCH   1   2
ATOM      2  C   UNL A   1      33.100  29.155  23.546  1.00  0.00     0.116 C 
BRANCH   2   3
ATOM      3  N   UNL A   1      32.412  28.562  22.449  1.00  0.00    -0.356 N 
ATOM      4  C   UNL A   1      31.917  27.281  22.463  1.00  0.00     0.224 C 
ATOM      5  O   UNL A   1      30.979  27.047  21.690  1.00  0.00    -0.275 OA
ATOM      6  H   UNL A   1      32.283  29.101  21.636  1.00  0.00     0.163 HD
BRANCH   4   7
ATOM      7  C   UNL A   1      32.490  26.124  23.346  1.00  0.00     0.095 C 
BRANCH   7   8
ATOM      8  C   UNL A   1      31.530  25.277  24.229  1.00  0.00     0.029 C 
ATOM      9  C   UNL A   1      30.592  24.439  23.315  1.00  0.00     0.013 C 
BRANCH   8  10
ATOM     10  C   UNL A   1      31.946  24.482  25.480  1.00  0.00    -0.044 A 
ATOM     11  C   UNL A   1      33.259  24.636  25.989  1.00  0.00     0.004 A 
ATOM     12  C   UNL A   1      31.208  23.416  26.009  1.00  0.00     0.004 A 
ATOM     13  C   UNL A   1      33.825  23.735  26.896  1.00  0.00     0.000 A 
ATOM     14  C   UNL A   1      31.775  22.505  26.914  1.00  0.00     0.000 A 
ATOM     15  C   UNL A   1      33.089  22.649  27.339  1.00  0.00     0.000 A 
ENDBRANCH   8  10
ENDBRANCH   7   8
BRANCH   7  16
ATOM     16  C   UNL A   1      33.574  25.256  22.631  1.00  0.00     0.114 C 
BRANCH  16  17
ATOM     17  C   UNL A   1      33.501  23.750  22.216  1.00  0.00     0.225 C 
ATOM     18  O   UNL A   1      33.230  23.513  21.026  1.00  0.00    -0.275 OA
ATOM     19  N   UNL A   1      33.515  22.642  23.041  1.00  0.00    -0.325 N 
ATOM     20  H   UNL A   1      32.664  22.152  23.111  1.00  0.00     0.169 HD
BRANCH  19  21
ATOM     21  C   UNL A   1      34.594  22.115  23.801  1.00  0.00     0.054 A 
ATOM     22  C   UNL A   1      35.848  22.682  23.549  1.00  0.00     0.027 A 
ATOM     23  C   UNL A   1      34.570  20.926  24.569  1.00  0.00     0.037 A 
ATOM     24  C   UNL A   1      37.002  22.179  24.158  1.00  0.00     0.002 A 
ATOM     25  C   UNL A   1      35.701  20.522  25.290  1.00  0.00     0.017 A 
ATOM     26  I   UNL A   1      33.089  19.441  24.662  1.00  0.00    -0.042 I 
ATOM     27  C   UNL A   1      36.917  21.143  25.079  1.00  0.00     0.001 A 
ENDBRANCH  19  21
ENDBRANCH  16  17
ENDBRANCH   7  16
ENDBRANCH   4   7
ENDBRANCH   2   3
ENDBRANCH   1   2
BRANCH   1  28
ATOM     28  C   UNL A   1      32.761  28.418  26.005  1.00  0.00     0.023 C 
BRANCH  28  29
ATOM     29  C   UNL A   1      33.611  28.647  27.229  1.00  0.00     0.116 C 
BRANCH  29  30
ATOM     30  N   UNL A   1      33.629  30.048  27.654  1.00  0.00    -0.352 N 
ATOM     31  C   UNL A   1      34.614  30.749  28.307  1.00  0.00     0.251 C 
ATOM     32  H   UNL A   1      32.818  30.563  27.441  1.00  0.00     0.163 HD
ATOM     33  O   UNL A   1      34.378  31.856  28.791  1.00  0.00    -0.269 OA
BRANCH  31  34
ATOM     34  C   UNL A   1      35.953  30.146  28.428  1.00  0.00     0.039 A 
ATOM     35  C   UNL A   1      36.862  30.239  27.375  1.00  0.00     0.014 A 
ATOM     36  C   UNL A   1      36.321  29.544  29.633  1.00  0.00     0.014 A 
ATOM     37  C   UNL A   1      38.169  29.798  27.572  1.00  0.00     0.010 A 
ATOM     38  C   UNL A   1      37.651  29.269  29.879  1.00  0.00     0.010 A 
ATOM     39  C   UNL A   1      38.583  29.356  28.842  1.00  0.00    -0.014 A 
BRANCH  39  40
ATOM     40  C   UNL A   1      39.984  28.958  29.098  1.00  0.00     0.031 A 
ATOM     41  C   UNL A   1      40.928  29.926  29.761  1.00  0.00     0.074 A 
ATOM     42  C   UNL A   1      40.407  27.747  28.687  1.00  0.00     0.049 A 
ATOM     43  N   UNL A   1      42.175  29.746  30.107  1.00  0.00    -0.248 NA
ATOM     44  C   UNL A   1      40.421  31.282  30.039  1.00  0.00     0.031 C 
ATOM     45  C   UNL A   1      39.598  26.771  27.950  1.00  0.00     0.029 A 
ATOM     46  N   UNL A   1      41.616  27.124  28.843  1.00  0.00    -0.354 N 
ATOM     47  C   UNL A   1      42.599  30.965  30.626  1.00  0.00     0.074 A 
ATOM     48  C   UNL A   1      41.508  31.897  30.477  1.00  0.00     0.031 C 
ATOM     49  C   UNL A   1      40.312  25.648  27.779  1.00  0.00     0.029 A 
ATOM     50  C   UNL A   1      41.638  25.840  28.353  1.00  0.00     0.049 A 
ATOM     51  H   UNL A   1      42.394  27.553  29.265  1.00  0.00     0.167 HD
ATOM     52  C   UNL A   1      43.782  31.270  31.207  1.00  0.00     0.031 A 
ATOM     53  C   UNL A   1      42.616  24.916  28.380  1.00  0.00     0.031 A 
ATOM     54  C   UNL A   1      44.854  30.325  31.357  1.00  0.00     0.049 A 
ATOM     55  C   UNL A   1      43.909  25.263  29.063  1.00  0.00     0.074 A 
ATOM     56  C   UNL A   1      46.072  30.498  31.987  1.00  0.00     0.029 A 
ATOM     57  N   UNL A   1      44.834  29.028  30.865  1.00  0.00    -0.354 N 
ATOM     58  N   UNL A   1      44.261  26.392  29.636  1.00  0.00    -0.248 NA
ATOM     59  C   UNL A   1      44.925  24.208  29.126  1.00  0.00     0.031 C 
ATOM     60  C   UNL A   1      46.815  29.324  31.821  1.00  0.00     0.029 A 
ATOM     61  C   UNL A   1      46.030  28.395  31.153  1.00  0.00     0.049 A 
ATOM     62  H   UNL A   1      44.080  28.619  30.382  1.00  0.00     0.167 HD
ATOM     63  C   UNL A   1      45.534  26.174  30.148  1.00  0.00     0.074 A 
ATOM     64  C   UNL A   1      45.873  24.799  29.839  1.00  0.00     0.031 C 
ATOM     65  C   UNL A   1      46.350  27.031  30.815  1.00  0.00     0.031 A 
BRANCH  52  66
ATOM     66  C   UNL A   1      43.969  32.680  31.708  1.00  0.00    -0.014 A 
ATOM     67  C   UNL A   1      43.546  33.063  32.995  1.00  0.00     0.010 A 
ATOM     68  C   UNL A   1      44.594  33.634  30.885  1.00  0.00     0.010 A 
ATOM     69  C   UNL A   1      43.700  34.382  33.430  1.00  0.00     0.020 A 
ATOM     70  C   UNL A   1      44.782  34.946  31.330  1.00  0.00     0.020 A 
ATOM     71  C   UNL A   1      44.318  35.315  32.593  1.00  0.00     0.054 A 
BRANCH  71  72
ATOM     72  S   UNL A   1      44.531  37.013  33.195  1.00  0.00     0.124 S 
ATOM     73  O   UNL A   1      45.941  37.022  33.581  1.00  0.00    -0.237 OA
ATOM     74  O   UNL A   1      44.197  37.812  32.020  1.00  0.00    -0.237 OA
ATOM     75  O   UNL A   1      43.583  37.111  34.302  1.00  0.00    -0.744 OA
ENDBRANCH  71  72
ENDBRANCH  52  66
BRANCH  53  76
ATOM     76  C   UNL A   1      42.385  23.575  27.777  1.00  0.00    -0.014 A 
ATOM     77  C   UNL A   1      42.797  23.295  26.462  1.00  0.00     0.010 A 
ATOM     78  C   UNL A   1      41.786  22.551  28.536  1.00  0.00     0.010 A 
ATOM     79  C   UNL A   1      42.598  22.025  25.911  1.00  0.00     0.020 A 
ATOM     80  C   UNL A   1      41.614  21.273  28.000  1.00  0.00     0.020 A 
ATOM     81  C   UNL A   1      42.012  21.020  26.687  1.00  0.00     0.054 A 
BRANCH  81  82
ATOM     82  S   UNL A   1      41.819  19.363  25.972  1.00  0.00     0.124 S 
ATOM     83  O   UNL A   1      42.680  19.436  24.798  1.00  0.00    -0.237 OA
ATOM     84  O   UNL A   1      42.290  18.499  27.052  1.00  0.00    -0.237 OA
ATOM     85  O   UNL A   1      40.386  19.276  25.696  1.00  0.00    -0.744 OA
ENDBRANCH  81  82
ENDBRANCH  53  76
BRANCH  65  86
ATOM     86  C   UNL A   1      47.676  26.486  31.275  1.00  0.00    -0.014 A 
ATOM     87  C   UNL A   1      48.840  26.640  30.502  1.00  0.00     0.010 A 
ATOM     88  C   UNL A   1      47.755  25.823  32.514  1.00  0.00     0.010 A 
ATOM     89  C   UNL A   1      50.047  26.084  30.928  1.00  0.00     0.020 A 
ATOM     90  C   UNL A   1      48.969  25.299  32.961  1.00  0.00     0.020 A 
ATOM     91  C   UNL A   1      50.102  25.410  32.153  1.00  0.00     0.054 A 
BRANCH  91  92
ATOM     92  S   UNL A   1      51.679  24.693  32.684  1.00  0.00     0.124 S 
ATOM     93  O   UNL A   1      51.664  24.962  34.119  1.00  0.00    -0.237 OA
ATOM     94  O   UNL A   1      51.536  23.290  32.305  1.00  0.00    -0.237 OA
ATOM     95  O   UNL A   1      52.675  25.440  31.920  1.00  0.00    -0.744 OA
ENDBRANCH  91  92
ENDBRANCH  65  86
ENDBRANCH  39  40
ENDBRANCH  31  34
ENDBRANCH  29  30
ENDBRANCH  28  29
ENDBRANCH   1  28
TORSDOF 19
ENDMDL
