MODEL 1
REMARK VINA RESULT:     -12.6      0.000      0.000
REMARK SMILES O=C(NCCCCNC(=O)[C@@H]1CC=CC[C@H]1C(=O)N1CC[NH+](Cc2ccc3c(c2)OCO3)CC1)c1ccc(-c2c3nc(c(-c4ccc(S(=O)(=O)[O-])cc4)c4ccc([nH]4)c(-c4ccc(S(=O)(=O)[O-])cc4)c4nc(c(-c5ccc(S(=O)(=O)[O-])cc5)c5ccc2[nH]5)C=C4)C=C3)cc1
REMARK SMILES IDX 5 1 4 2 3 3 1 4 2 5 35 7 36 8 94 9 37 10 93 11 38 12 39 13
REMARK SMILES IDX 40 14 87 15 41 16 92 17 86 18 88 19 42 20 91 21 85 22 84 23
REMARK SMILES IDX 43 25 73 26 54 27 72 28 55 29 58 30 71 31 89 32 56 33 57 34
REMARK SMILES IDX 70 36 90 37 59 38 44 39 45 40 53 41 46 42 52 43 47 44 48 45
REMARK SMILES IDX 49 46 50 47 51 48 74 49 75 50 83 51 76 52 82 53 77 54 78 55
REMARK SMILES IDX 79 56 80 57 81 58 60 59 61 60 69 61 62 62 68 63 63 64 64 65
REMARK SMILES IDX 65 66 66 67 67 68 6 69 7 70 8 71 9 72 10 74 11 75 12 76
REMARK SMILES IDX 16 77 13 78 15 79 14 80 17 81 18 82 19 83 20 84 34 85 21 86
REMARK SMILES IDX 33 87 22 88 23 90 24 91 25 92 29 93 26 94 28 95 27 96 30 97
REMARK SMILES IDX 32 98 31 99
REMARK H PARENT 3 6 88 24 58 35 8 73 22 89
REMARK Flexibility Score: inf
ROOT
ATOM      1  C   UNL A   1      38.252  19.912  25.017  1.00  0.00     0.023 C 
ENDROOT
BRANCH   1   2
ATOM      2  C   UNL A   1      39.276  20.229  26.103  1.00  0.00     0.116 C 
BRANCH   2   3
ATOM      3  N   UNL A   1      40.379  19.282  26.130  1.00  0.00    -0.352 N 
ATOM      4  O   UNL A   1      42.510  18.567  26.033  1.00  0.00    -0.269 OA
ATOM      5  C   UNL A   1      41.733  19.508  26.187  1.00  0.00     0.251 C 
ATOM      6  H   UNL A   1      40.115  18.334  26.103  1.00  0.00     0.163 HD
BRANCH   5   7
ATOM      7  C   UNL A   1      42.261  20.874  26.403  1.00  0.00     0.039 A 
ATOM      8  C   UNL A   1      42.489  21.362  27.692  1.00  0.00     0.014 A 
ATOM      9  C   UNL A   1      42.559  21.670  25.294  1.00  0.00     0.014 A 
ATOM     10  C   UNL A   1      42.883  22.686  27.878  1.00  0.00     0.010 A 
ATOM     11  C   UNL A   1      43.027  22.974  25.479  1.00  0.00     0.010 A 
ATOM     12  C   UNL A   1      43.166  23.504  26.773  1.00  0.00    -0.014 A 
BRANCH  12  13
ATOM     13  C   UNL A   1      43.660  24.891  26.971  1.00  0.00     0.031 A 
ATOM     14  C   UNL A   1      45.107  25.236  26.752  1.00  0.00     0.074 A 
ATOM     15  C   UNL A   1      42.799  25.840  27.389  1.00  0.00     0.049 A 
ATOM     16  N   UNL A   1      45.723  26.374  26.953  1.00  0.00    -0.248 NA
ATOM     17  C   UNL A   1      45.978  24.161  26.253  1.00  0.00     0.031 C 
ATOM     18  C   UNL A   1      41.372  25.629  27.641  1.00  0.00     0.029 A 
ATOM     19  N   UNL A   1      43.000  27.164  27.694  1.00  0.00    -0.354 N 
ATOM     20  C   UNL A   1      47.057  26.147  26.632  1.00  0.00     0.074 A 
ATOM     21  C   UNL A   1      47.162  24.756  26.245  1.00  0.00     0.031 C 
ATOM     22  C   UNL A   1      40.826  26.782  28.056  1.00  0.00     0.029 A 
ATOM     23  C   UNL A   1      41.872  27.793  28.164  1.00  0.00     0.049 A 
ATOM     24  H   UNL A   1      43.867  27.617  27.586  1.00  0.00     0.167 HD
ATOM     25  C   UNL A   1      48.096  27.018  26.661  1.00  0.00     0.031 A 
ATOM     26  C   UNL A   1      41.698  29.029  28.670  1.00  0.00     0.031 A 
ATOM     27  C   UNL A   1      47.982  28.396  27.067  1.00  0.00     0.049 A 
ATOM     28  C   UNL A   1      42.868  29.966  28.737  1.00  0.00     0.074 A 
ATOM     29  C   UNL A   1      48.966  29.368  27.092  1.00  0.00     0.029 A 
ATOM     30  N   UNL A   1      46.820  28.992  27.538  1.00  0.00    -0.354 N 
ATOM     31  N   UNL A   1      44.112  29.750  28.382  1.00  0.00    -0.248 NA
ATOM     32  C   UNL A   1      42.615  31.313  29.266  1.00  0.00     0.031 C 
ATOM     33  C   UNL A   1      48.417  30.531  27.643  1.00  0.00     0.029 A 
ATOM     34  C   UNL A   1      47.072  30.308  27.888  1.00  0.00     0.049 A 
ATOM     35  H   UNL A   1      45.946  28.545  27.610  1.00  0.00     0.167 HD
ATOM     36  C   UNL A   1      44.787  30.942  28.620  1.00  0.00     0.074 A 
ATOM     37  C   UNL A   1      43.811  31.876  29.146  1.00  0.00     0.031 C 
ATOM     38  C   UNL A   1      46.094  31.233  28.411  1.00  0.00     0.031 A 
BRANCH  25  39
ATOM     39  C   UNL A   1      49.459  26.486  26.295  1.00  0.00    -0.014 A 
ATOM     40  C   UNL A   1      50.225  25.733  27.204  1.00  0.00     0.010 A 
ATOM     41  C   UNL A   1      49.982  26.742  25.013  1.00  0.00     0.010 A 
ATOM     42  C   UNL A   1      51.513  25.308  26.863  1.00  0.00     0.020 A 
ATOM     43  C   UNL A   1      51.256  26.290  24.657  1.00  0.00     0.020 A 
ATOM     44  C   UNL A   1      52.025  25.601  25.595  1.00  0.00     0.054 A 
BRANCH  44  45
ATOM     45  S   UNL A   1      53.713  25.072  25.194  1.00  0.00     0.124 S 
ATOM     46  O   UNL A   1      54.396  25.255  26.473  1.00  0.00    -0.237 OA
ATOM     47  O   UNL A   1      53.525  23.685  24.777  1.00  0.00    -0.237 OA
ATOM     48  O   UNL A   1      54.123  25.989  24.134  1.00  0.00    -0.744 OA
ENDBRANCH  44  45
ENDBRANCH  25  39
BRANCH  26  49
ATOM     49  C   UNL A   1      40.352  29.417  29.169  1.00  0.00    -0.014 A 
ATOM     50  C   UNL A   1      40.050  29.370  30.540  1.00  0.00     0.010 A 
ATOM     51  C   UNL A   1      39.394  29.931  28.273  1.00  0.00     0.010 A 
ATOM     52  C   UNL A   1      38.819  29.839  31.007  1.00  0.00     0.020 A 
ATOM     53  C   UNL A   1      38.175  30.427  28.740  1.00  0.00     0.020 A 
ATOM     54  C   UNL A   1      37.895  30.376  30.106  1.00  0.00     0.054 A 
BRANCH  54  55
ATOM     55  S   UNL A   1      36.350  31.076  30.751  1.00  0.00     0.124 S 
ATOM     56  O   UNL A   1      35.522  31.142  29.552  1.00  0.00    -0.237 OA
ATOM     57  O   UNL A   1      35.947  30.084  31.746  1.00  0.00    -0.237 OA
ATOM     58  O   UNL A   1      36.761  32.366  31.301  1.00  0.00    -0.744 OA
ENDBRANCH  54  55
ENDBRANCH  26  49
BRANCH  38  59
ATOM     59  C   UNL A   1      46.559  32.635  28.707  1.00  0.00    -0.014 A 
ATOM     60  C   UNL A   1      46.414  33.668  27.766  1.00  0.00     0.010 A 
ATOM     61  C   UNL A   1      47.049  32.938  29.991  1.00  0.00     0.010 A 
ATOM     62  C   UNL A   1      46.753  34.983  28.105  1.00  0.00     0.020 A 
ATOM     63  C   UNL A   1      47.362  34.253  30.342  1.00  0.00     0.020 A 
ATOM     64  C   UNL A   1      47.214  35.268  29.395  1.00  0.00     0.054 A 
BRANCH  64  65
ATOM     65  S   UNL A   1      47.550  36.994  29.840  1.00  0.00     0.124 S 
ATOM     66  O   UNL A   1      46.206  37.564  29.889  1.00  0.00    -0.237 OA
ATOM     67  O   UNL A   1      48.227  36.866  31.128  1.00  0.00    -0.237 OA
ATOM     68  O   UNL A   1      48.392  37.477  28.746  1.00  0.00    -0.744 OA
ENDBRANCH  64  65
ENDBRANCH  38  59
ENDBRANCH  12  13
ENDBRANCH   5   7
ENDBRANCH   2   3
ENDBRANCH   1   2
BRANCH   1  69
ATOM     69  C   UNL A   1      37.135  20.942  24.842  1.00  0.00     0.023 C 
BRANCH  69  70
ATOM     70  C   UNL A   1      35.714  20.420  25.037  1.00  0.00     0.116 C 
BRANCH  70  71
ATOM     71  N   UNL A   1      34.996  21.077  26.114  1.00  0.00    -0.356 N 
ATOM     72  C   UNL A   1      33.733  21.585  26.170  1.00  0.00     0.224 C 
ATOM     73  H   UNL A   1      35.510  21.172  26.949  1.00  0.00     0.163 HD
ATOM     74  O   UNL A   1      33.345  22.013  27.258  1.00  0.00    -0.275 OA
BRANCH  72  75
ATOM     75  C   UNL A   1      32.862  21.688  24.924  1.00  0.00     0.095 C 
ATOM     76  C   UNL A   1      32.701  20.266  24.351  1.00  0.00     0.041 C 
ATOM     77  C   UNL A   1      33.510  22.625  23.889  1.00  0.00     0.095 C 
ATOM     78  C   UNL A   1      32.133  20.249  22.962  1.00  0.00    -0.030 C 
ATOM     79  C   UNL A   1      32.751  22.631  22.544  1.00  0.00     0.041 C 
ATOM     80  C   UNL A   1      32.152  21.317  22.154  1.00  0.00    -0.030 C 
BRANCH  77  81
ATOM     81  C   UNL A   1      33.711  24.096  24.279  1.00  0.00     0.227 C 
ATOM     82  O   UNL A   1      34.794  24.474  24.731  1.00  0.00    -0.275 OA
ATOM     83  N   UNL A   1      32.753  25.007  23.845  1.00  0.00    -0.331 N 
ATOM     84  C   UNL A   1      33.240  26.294  23.361  1.00  0.00     0.181 C 
ATOM     85  C   UNL A   1      31.457  25.086  24.492  1.00  0.00     0.181 C 
ATOM     86  C   UNL A   1      32.165  27.102  22.595  1.00  0.00     0.284 C 
ATOM     87  C   UNL A   1      30.403  25.817  23.651  1.00  0.00     0.284 C 
ATOM     88  N   UNL A   1      30.809  27.140  23.169  1.00  0.00    -0.328 N 
ATOM     89  H   UNL A   1      30.195  27.379  22.390  1.00  0.00     0.348 HD
BRANCH  88  90
ATOM     90  C   UNL A   1      30.511  28.254  24.083  1.00  0.00     0.299 C 
BRANCH  90  91
ATOM     91  C   UNL A   1      29.993  29.530  23.459  1.00  0.00     0.010 A 
ATOM     92  C   UNL A   1      29.897  30.705  24.236  1.00  0.00     0.013 A 
ATOM     93  C   UNL A   1      29.523  29.542  22.131  1.00  0.00     0.060 A 
ATOM     94  C   UNL A   1      29.230  31.834  23.758  1.00  0.00     0.051 A 
ATOM     95  C   UNL A   1      28.872  30.673  21.684  1.00  0.00     0.166 A 
ATOM     96  C   UNL A   1      28.713  31.780  22.484  1.00  0.00     0.165 A 
ATOM     97  O   UNL A   1      28.271  30.821  20.473  1.00  0.00    -0.454 OA
ATOM     98  O   UNL A   1      27.988  32.758  21.882  1.00  0.00    -0.454 OA
ATOM     99  C   UNL A   1      27.716  32.149  20.607  1.00  0.00     0.468 C 
ENDBRANCH  90  91
ENDBRANCH  88  90
ENDBRANCH  77  81
ENDBRANCH  72  75
ENDBRANCH  70  71
ENDBRANCH  69  70
ENDBRANCH   1  69
TORSDOF 17
ENDMDL
MODEL 2
REMARK VINA RESULT:     -12.5      0.525      7.836
REMARK SMILES O=C(NCCCCNC(=O)[C@@H]1CC=CC[C@H]1C(=O)N1CC[NH+](Cc2ccc3c(c2)OCO3)CC1)c1ccc(-c2c3nc(c(-c4ccc(S(=O)(=O)[O-])cc4)c4ccc([nH]4)c(-c4ccc(S(=O)(=O)[O-])cc4)c4nc(c(-c5ccc(S(=O)(=O)[O-])cc5)c5ccc2[nH]5)C=C4)C=C3)cc1
REMARK SMILES IDX 5 1 4 2 3 3 1 4 2 5 35 7 36 8 94 9 37 10 93 11 38 12 39 13
REMARK SMILES IDX 40 14 87 15 41 16 92 17 86 18 88 19 42 20 91 21 85 22 84 23
REMARK SMILES IDX 43 25 73 26 54 27 72 28 55 29 58 30 71 31 89 32 56 33 57 34
REMARK SMILES IDX 70 36 90 37 59 38 44 39 45 40 53 41 46 42 52 43 47 44 48 45
REMARK SMILES IDX 49 46 50 47 51 48 74 49 75 50 83 51 76 52 82 53 77 54 78 55
REMARK SMILES IDX 79 56 80 57 81 58 60 59 61 60 69 61 62 62 68 63 63 64 64 65
REMARK SMILES IDX 65 66 66 67 67 68 6 69 7 70 8 71 9 72 10 74 11 75 12 76
REMARK SMILES IDX 16 77 13 78 15 79 14 80 17 81 18 82 19 83 20 84 34 85 21 86
REMARK SMILES IDX 33 87 22 88 23 90 24 91 25 92 29 93 26 94 28 95 27 96 30 97
REMARK SMILES IDX 32 98 31 99
REMARK H PARENT 3 6 88 24 58 35 8 73 22 89
REMARK Flexibility Score: inf
ROOT
ATOM      1  C   UNL A   1      38.289  20.090  25.000  1.00  0.00     0.023 C 
ENDROOT
BRANCH   1   2
ATOM      2  C   UNL A   1      39.358  20.333  26.061  1.00  0.00     0.116 C 
BRANCH   2   3
ATOM      3  N   UNL A   1      40.410  19.329  26.040  1.00  0.00    -0.352 N 
ATOM      4  O   UNL A   1      42.502  18.510  25.928  1.00  0.00    -0.269 OA
ATOM      5  C   UNL A   1      41.772  19.478  26.135  1.00  0.00     0.251 C 
ATOM      6  H   UNL A   1      40.097  18.400  25.943  1.00  0.00     0.163 HD
BRANCH   5   7
ATOM      7  C   UNL A   1      42.365  20.796  26.453  1.00  0.00     0.039 A 
ATOM      8  C   UNL A   1      42.585  21.184  27.778  1.00  0.00     0.014 A 
ATOM      9  C   UNL A   1      42.734  21.646  25.407  1.00  0.00     0.014 A 
ATOM     10  C   UNL A   1      43.044  22.470  28.060  1.00  0.00     0.010 A 
ATOM     11  C   UNL A   1      43.266  22.907  25.691  1.00  0.00     0.010 A 
ATOM     12  C   UNL A   1      43.399  23.342  27.020  1.00  0.00    -0.014 A 
BRANCH  12  13
ATOM     13  C   UNL A   1      43.959  24.685  27.321  1.00  0.00     0.031 A 
ATOM     14  C   UNL A   1      43.067  25.818  27.748  1.00  0.00     0.074 A 
ATOM     15  C   UNL A   1      45.282  24.892  27.171  1.00  0.00     0.049 A 
ATOM     16  N   UNL A   1      43.376  27.070  27.975  1.00  0.00    -0.248 NA
ATOM     17  C   UNL A   1      41.642  25.507  27.935  1.00  0.00     0.031 C 
ATOM     18  C   UNL A   1      46.251  23.875  26.759  1.00  0.00     0.029 A 
ATOM     19  N   UNL A   1      46.037  26.028  27.329  1.00  0.00    -0.354 N 
ATOM     20  C   UNL A   1      42.182  27.703  28.304  1.00  0.00     0.074 A 
ATOM     21  C   UNL A   1      41.142  26.700  28.224  1.00  0.00     0.031 C 
ATOM     22  C   UNL A   1      47.472  24.430  26.701  1.00  0.00     0.029 A 
ATOM     23  C   UNL A   1      47.361  25.852  27.006  1.00  0.00     0.049 A 
ATOM     24  H   UNL A   1      45.666  26.883  27.643  1.00  0.00     0.167 HD
ATOM     25  C   UNL A   1      41.975  29.001  28.637  1.00  0.00     0.031 A 
ATOM     26  C   UNL A   1      48.373  26.738  26.919  1.00  0.00     0.031 A 
ATOM     27  C   UNL A   1      43.016  29.995  28.694  1.00  0.00     0.049 A 
ATOM     28  C   UNL A   1      48.117  28.179  27.247  1.00  0.00     0.074 A 
ATOM     29  C   UNL A   1      42.914  31.326  29.060  1.00  0.00     0.029 A 
ATOM     30  N   UNL A   1      44.344  29.774  28.357  1.00  0.00    -0.354 N 
ATOM     31  N   UNL A   1      46.991  28.751  27.605  1.00  0.00    -0.248 NA
ATOM     32  C   UNL A   1      49.262  29.096  27.168  1.00  0.00     0.031 C 
ATOM     33  C   UNL A   1      44.165  31.925  28.878  1.00  0.00     0.029 A 
ATOM     34  C   UNL A   1      45.064  30.952  28.474  1.00  0.00     0.049 A 
ATOM     35  H   UNL A   1      44.719  28.908  28.078  1.00  0.00     0.167 HD
ATOM     36  C   UNL A   1      47.297  30.090  27.819  1.00  0.00     0.074 A 
ATOM     37  C   UNL A   1      48.714  30.242  27.553  1.00  0.00     0.031 C 
ATOM     38  C   UNL A   1      46.476  31.095  28.208  1.00  0.00     0.031 A 
BRANCH  25  39
ATOM     39  C   UNL A   1      40.555  29.430  28.911  1.00  0.00    -0.014 A 
ATOM     40  C   UNL A   1      40.128  29.789  30.203  1.00  0.00     0.010 A 
ATOM     41  C   UNL A   1      39.629  29.480  27.851  1.00  0.00     0.010 A 
ATOM     42  C   UNL A   1      38.790  30.119  30.441  1.00  0.00     0.020 A 
ATOM     43  C   UNL A   1      38.299  29.843  28.079  1.00  0.00     0.020 A 
ATOM     44  C   UNL A   1      37.881  30.131  29.379  1.00  0.00     0.054 A 
BRANCH  44  45
ATOM     45  S   UNL A   1      36.144  30.525  29.723  1.00  0.00     0.124 S 
ATOM     46  O   UNL A   1      36.149  31.985  29.651  1.00  0.00    -0.237 OA
ATOM     47  O   UNL A   1      35.440  29.847  28.638  1.00  0.00    -0.237 OA
ATOM     48  O   UNL A   1      35.917  29.969  31.054  1.00  0.00    -0.744 OA
ENDBRANCH  44  45
ENDBRANCH  25  39
BRANCH  26  49
ATOM     49  C   UNL A   1      49.709  26.260  26.474  1.00  0.00    -0.014 A 
ATOM     50  C   UNL A   1      50.097  26.355  25.127  1.00  0.00     0.010 A 
ATOM     51  C   UNL A   1      50.638  25.793  27.423  1.00  0.00     0.010 A 
ATOM     52  C   UNL A   1      51.393  26.002  24.740  1.00  0.00     0.020 A 
ATOM     53  C   UNL A   1      51.942  25.468  27.045  1.00  0.00     0.020 A 
ATOM     54  C   UNL A   1      52.311  25.574  25.704  1.00  0.00     0.054 A 
BRANCH  54  55
ATOM     55  S   UNL A   1      54.017  25.226  25.192  1.00  0.00     0.124 S 
ATOM     56  O   UNL A   1      54.770  25.564  26.395  1.00  0.00    -0.237 OA
ATOM     57  O   UNL A   1      53.961  23.804  24.859  1.00  0.00    -0.237 OA
ATOM     58  O   UNL A   1      54.222  26.117  24.052  1.00  0.00    -0.744 OA
ENDBRANCH  54  55
ENDBRANCH  26  49
BRANCH  38  59
ATOM     59  C   UNL A   1      47.083  32.458  28.420  1.00  0.00    -0.014 A 
ATOM     60  C   UNL A   1      47.047  33.440  27.416  1.00  0.00     0.010 A 
ATOM     61  C   UNL A   1      47.598  32.789  29.687  1.00  0.00     0.010 A 
ATOM     62  C   UNL A   1      47.518  34.732  27.677  1.00  0.00     0.020 A 
ATOM     63  C   UNL A   1      48.045  34.084  29.959  1.00  0.00     0.020 A 
ATOM     64  C   UNL A   1      48.004  35.048  28.950  1.00  0.00     0.054 A 
BRANCH  64  65
ATOM     65  S   UNL A   1      48.515  36.755  29.291  1.00  0.00     0.124 S 
ATOM     66  O   UNL A   1      49.967  36.670  29.162  1.00  0.00    -0.237 OA
ATOM     67  O   UNL A   1      47.833  37.508  28.241  1.00  0.00    -0.237 OA
ATOM     68  O   UNL A   1      48.023  37.000  30.646  1.00  0.00    -0.744 OA
ENDBRANCH  64  65
ENDBRANCH  38  59
ENDBRANCH  12  13
ENDBRANCH   5   7
ENDBRANCH   2   3
ENDBRANCH   1   2
BRANCH   1  69
ATOM     69  C   UNL A   1      37.146  21.106  24.969  1.00  0.00     0.023 C 
BRANCH  69  70
ATOM     70  C   UNL A   1      35.742  20.533  25.139  1.00  0.00     0.116 C 
BRANCH  70  71
ATOM     71  N   UNL A   1      34.999  21.130  26.234  1.00  0.00    -0.356 N 
ATOM     72  C   UNL A   1      33.718  21.589  26.302  1.00  0.00     0.224 C 
ATOM     73  H   UNL A   1      35.508  21.216  27.072  1.00  0.00     0.163 HD
ATOM     74  O   UNL A   1      33.314  21.969  27.403  1.00  0.00    -0.275 OA
BRANCH  72  75
ATOM     75  C   UNL A   1      32.845  21.699  25.058  1.00  0.00     0.095 C 
ATOM     76  C   UNL A   1      32.678  20.280  24.481  1.00  0.00     0.041 C 
ATOM     77  C   UNL A   1      33.496  22.637  24.025  1.00  0.00     0.095 C 
ATOM     78  C   UNL A   1      32.108  20.270  23.094  1.00  0.00    -0.030 C 
ATOM     79  C   UNL A   1      32.735  22.651  22.682  1.00  0.00     0.041 C 
ATOM     80  C   UNL A   1      32.130  21.339  22.289  1.00  0.00    -0.030 C 
BRANCH  77  81
ATOM     81  C   UNL A   1      33.703  24.106  24.420  1.00  0.00     0.227 C 
ATOM     82  O   UNL A   1      34.775  24.471  24.907  1.00  0.00    -0.275 OA
ATOM     83  N   UNL A   1      32.773  25.029  23.953  1.00  0.00    -0.331 N 
ATOM     84  C   UNL A   1      33.293  26.309  23.483  1.00  0.00     0.181 C 
ATOM     85  C   UNL A   1      31.457  25.126  24.557  1.00  0.00     0.181 C 
ATOM     86  C   UNL A   1      32.254  27.129  22.681  1.00  0.00     0.284 C 
ATOM     87  C   UNL A   1      30.442  25.870  23.680  1.00  0.00     0.284 C 
ATOM     88  N   UNL A   1      30.881  27.186  23.209  1.00  0.00    -0.328 N 
ATOM     89  H   UNL A   1      30.296  27.431  22.410  1.00  0.00     0.348 HD
BRANCH  88  90
ATOM     90  C   UNL A   1      30.568  28.305  24.111  1.00  0.00     0.299 C 
BRANCH  90  91
ATOM     91  C   UNL A   1      30.030  29.566  23.474  1.00  0.00     0.010 A 
ATOM     92  C   UNL A   1      29.857  30.731  24.254  1.00  0.00     0.013 A 
ATOM     93  C   UNL A   1      29.616  29.571  22.128  1.00  0.00     0.060 A 
ATOM     94  C   UNL A   1      29.169  31.839  23.755  1.00  0.00     0.051 A 
ATOM     95  C   UNL A   1      28.943  30.682  21.661  1.00  0.00     0.166 A 
ATOM     96  C   UNL A   1      28.709  31.775  22.459  1.00  0.00     0.165 A 
ATOM     97  O   UNL A   1      28.389  30.817  20.426  1.00  0.00    -0.454 OA
ATOM     98  O   UNL A   1      27.974  32.731  21.834  1.00  0.00    -0.454 OA
ATOM     99  C   UNL A   1      27.780  32.122  20.544  1.00  0.00     0.468 C 
ENDBRANCH  90  91
ENDBRANCH  88  90
ENDBRANCH  77  81
ENDBRANCH  72  75
ENDBRANCH  70  71
ENDBRANCH  69  70
ENDBRANCH   1  69
TORSDOF 17
ENDMDL
MODEL 3
REMARK VINA RESULT:     -12.5      3.608      4.713
REMARK SMILES O=C(NCCCCNC(=O)[C@@H]1CC=CC[C@H]1C(=O)N1CC[NH+](Cc2ccc3c(c2)OCO3)CC1)c1ccc(-c2c3nc(c(-c4ccc(S(=O)(=O)[O-])cc4)c4ccc([nH]4)c(-c4ccc(S(=O)(=O)[O-])cc4)c4nc(c(-c5ccc(S(=O)(=O)[O-])cc5)c5ccc2[nH]5)C=C4)C=C3)cc1
REMARK SMILES IDX 5 1 4 2 3 3 1 4 2 5 35 7 36 8 94 9 37 10 93 11 38 12 39 13
REMARK SMILES IDX 40 14 87 15 41 16 92 17 86 18 88 19 42 20 91 21 85 22 84 23
REMARK SMILES IDX 43 25 73 26 54 27 72 28 55 29 58 30 71 31 89 32 56 33 57 34
REMARK SMILES IDX 70 36 90 37 59 38 44 39 45 40 53 41 46 42 52 43 47 44 48 45
REMARK SMILES IDX 49 46 50 47 51 48 74 49 75 50 83 51 76 52 82 53 77 54 78 55
REMARK SMILES IDX 79 56 80 57 81 58 60 59 61 60 69 61 62 62 68 63 63 64 64 65
REMARK SMILES IDX 65 66 66 67 67 68 6 69 7 70 8 71 9 72 10 74 11 75 12 76
REMARK SMILES IDX 16 77 13 78 15 79 14 80 17 81 18 82 19 83 20 84 34 85 21 86
REMARK SMILES IDX 33 87 22 88 23 90 24 91 25 92 29 93 26 94 28 95 27 96 30 97
REMARK SMILES IDX 32 98 31 99
REMARK H PARENT 3 6 88 24 58 35 8 73 22 89
REMARK Flexibility Score: inf
ROOT
ATOM      1  C   UNL A   1      35.448  23.431  25.175  1.00  0.00     0.023 C 
ENDROOT
BRANCH   1   2
ATOM      2  C   UNL A   1      36.921  23.822  25.112  1.00  0.00     0.116 C 
BRANCH   2   3
ATOM      3  N   UNL A   1      37.810  22.724  25.459  1.00  0.00    -0.352 N 
ATOM      4  O   UNL A   1      39.687  21.716  26.181  1.00  0.00    -0.269 OA
ATOM      5  C   UNL A   1      39.006  22.739  26.135  1.00  0.00     0.251 C 
ATOM      6  H   UNL A   1      37.508  21.835  25.164  1.00  0.00     0.163 HD
BRANCH   5   7
ATOM      7  C   UNL A   1      39.491  23.980  26.780  1.00  0.00     0.039 A 
ATOM      8  C   UNL A   1      39.063  24.339  28.061  1.00  0.00     0.014 A 
ATOM      9  C   UNL A   1      40.413  24.782  26.103  1.00  0.00     0.014 A 
ATOM     10  C   UNL A   1      39.447  25.563  28.607  1.00  0.00     0.010 A 
ATOM     11  C   UNL A   1      40.857  25.973  26.684  1.00  0.00     0.010 A 
ATOM     12  C   UNL A   1      40.356  26.389  27.928  1.00  0.00    -0.014 A 
BRANCH  12  13
ATOM     13  C   UNL A   1      40.824  27.658  28.544  1.00  0.00     0.031 A 
ATOM     14  C   UNL A   1      42.208  27.773  29.123  1.00  0.00     0.074 A 
ATOM     15  C   UNL A   1      39.978  28.704  28.616  1.00  0.00     0.049 A 
ATOM     16  N   UNL A   1      42.752  28.775  29.765  1.00  0.00    -0.248 NA
ATOM     17  C   UNL A   1      43.090  26.607  28.969  1.00  0.00     0.031 C 
ATOM     18  C   UNL A   1      38.609  28.716  28.094  1.00  0.00     0.029 A 
ATOM     19  N   UNL A   1      40.135  29.951  29.169  1.00  0.00    -0.354 N 
ATOM     20  C   UNL A   1      44.030  28.354  30.118  1.00  0.00     0.074 A 
ATOM     21  C   UNL A   1      44.168  26.996  29.635  1.00  0.00     0.031 C 
ATOM     22  C   UNL A   1      38.054  29.911  28.348  1.00  0.00     0.029 A 
ATOM     23  C   UNL A   1      39.000  30.723  29.105  1.00  0.00     0.049 A 
ATOM     24  H   UNL A   1      40.978  30.260  29.571  1.00  0.00     0.167 HD
ATOM     25  C   UNL A   1      44.994  29.036  30.783  1.00  0.00     0.031 A 
ATOM     26  C   UNL A   1      38.725  31.932  29.633  1.00  0.00     0.031 A 
ATOM     27  C   UNL A   1      44.837  30.380  31.275  1.00  0.00     0.049 A 
ATOM     28  C   UNL A   1      39.788  32.654  30.406  1.00  0.00     0.074 A 
ATOM     29  C   UNL A   1      45.768  31.172  31.926  1.00  0.00     0.029 A 
ATOM     30  N   UNL A   1      43.669  31.126  31.191  1.00  0.00    -0.354 N 
ATOM     31  N   UNL A   1      41.009  32.261  30.686  1.00  0.00    -0.248 NA
ATOM     32  C   UNL A   1      39.447  33.984  30.930  1.00  0.00     0.031 C 
ATOM     33  C   UNL A   1      45.142  32.367  32.295  1.00  0.00     0.029 A 
ATOM     34  C   UNL A   1      43.845  32.354  31.808  1.00  0.00     0.049 A 
ATOM     35  H   UNL A   1      42.838  30.826  30.756  1.00  0.00     0.167 HD
ATOM     36  C   UNL A   1      41.590  33.304  31.397  1.00  0.00     0.074 A 
ATOM     37  C   UNL A   1      40.589  34.347  31.501  1.00  0.00     0.031 C 
ATOM     38  C   UNL A   1      42.843  33.388  31.907  1.00  0.00     0.031 A 
BRANCH  25  39
ATOM     39  C   UNL A   1      46.287  28.312  31.067  1.00  0.00    -0.014 A 
ATOM     40  C   UNL A   1      46.480  27.585  32.256  1.00  0.00     0.010 A 
ATOM     41  C   UNL A   1      47.329  28.358  30.121  1.00  0.00     0.010 A 
ATOM     42  C   UNL A   1      47.711  26.979  32.524  1.00  0.00     0.020 A 
ATOM     43  C   UNL A   1      48.550  27.724  30.370  1.00  0.00     0.020 A 
ATOM     44  C   UNL A   1      48.743  27.064  31.583  1.00  0.00     0.054 A 
BRANCH  44  45
ATOM     45  S   UNL A   1      50.342  26.302  31.973  1.00  0.00     0.124 S 
ATOM     46  O   UNL A   1      50.117  25.812  33.332  1.00  0.00    -0.237 OA
ATOM     47  O   UNL A   1      50.465  25.269  30.949  1.00  0.00    -0.237 OA
ATOM     48  O   UNL A   1      51.292  27.406  31.860  1.00  0.00    -0.744 OA
ENDBRANCH  44  45
ENDBRANCH  25  39
BRANCH  26  49
ATOM     49  C   UNL A   1      37.364  32.501  29.451  1.00  0.00    -0.014 A 
ATOM     50  C   UNL A   1      36.408  32.426  30.478  1.00  0.00     0.010 A 
ATOM     51  C   UNL A   1      37.051  33.210  28.275  1.00  0.00     0.010 A 
ATOM     52  C   UNL A   1      35.170  33.059  30.336  1.00  0.00     0.020 A 
ATOM     53  C   UNL A   1      35.827  33.867  28.142  1.00  0.00     0.020 A 
ATOM     54  C   UNL A   1      34.892  33.786  29.174  1.00  0.00     0.054 A 
BRANCH  54  55
ATOM     55  S   UNL A   1      33.321  34.687  29.061  1.00  0.00     0.124 S 
ATOM     56  O   UNL A   1      33.752  35.991  28.570  1.00  0.00    -0.237 OA
ATOM     57  O   UNL A   1      32.561  33.874  28.114  1.00  0.00    -0.237 OA
ATOM     58  O   UNL A   1      32.815  34.668  30.432  1.00  0.00    -0.744 OA
ENDBRANCH  54  55
ENDBRANCH  26  49
BRANCH  38  59
ATOM     59  C   UNL A   1      43.239  34.669  32.595  1.00  0.00    -0.014 A 
ATOM     60  C   UNL A   1      43.718  35.772  31.869  1.00  0.00     0.010 A 
ATOM     61  C   UNL A   1      43.021  34.799  33.979  1.00  0.00     0.010 A 
ATOM     62  C   UNL A   1      43.973  36.986  32.518  1.00  0.00     0.020 A 
ATOM     63  C   UNL A   1      43.250  36.016  34.625  1.00  0.00     0.020 A 
ATOM     64  C   UNL A   1      43.727  37.102  33.890  1.00  0.00     0.054 A 
BRANCH  64  65
ATOM     65  S   UNL A   1      43.972  38.713  34.687  1.00  0.00     0.124 S 
ATOM     66  O   UNL A   1      43.752  38.394  36.095  1.00  0.00    -0.237 OA
ATOM     67  O   UNL A   1      45.347  39.043  34.324  1.00  0.00    -0.237 OA
ATOM     68  O   UNL A   1      42.951  39.562  34.074  1.00  0.00    -0.744 OA
ENDBRANCH  64  65
ENDBRANCH  38  59
ENDBRANCH  12  13
ENDBRANCH   5   7
ENDBRANCH   2   3
ENDBRANCH   1   2
BRANCH   1  69
ATOM     69  C   UNL A   1      34.721  23.803  26.468  1.00  0.00     0.023 C 
BRANCH  69  70
ATOM     70  C   UNL A   1      33.872  22.700  27.094  1.00  0.00     0.116 C 
BRANCH  70  71
ATOM     71  N   UNL A   1      32.514  23.112  27.397  1.00  0.00    -0.356 N 
ATOM     72  C   UNL A   1      31.339  22.870  26.750  1.00  0.00     0.224 C 
ATOM     73  H   UNL A   1      32.426  23.660  28.210  1.00  0.00     0.163 HD
ATOM     74  O   UNL A   1      30.306  23.273  27.288  1.00  0.00    -0.275 OA
BRANCH  72  75
ATOM     75  C   UNL A   1      31.307  22.196  25.384  1.00  0.00     0.095 C 
ATOM     76  C   UNL A   1      32.111  20.885  25.495  1.00  0.00     0.041 C 
ATOM     77  C   UNL A   1      31.913  23.121  24.312  1.00  0.00     0.095 C 
ATOM     78  C   UNL A   1      32.428  20.273  24.162  1.00  0.00    -0.030 C 
ATOM     79  C   UNL A   1      32.058  22.420  22.944  1.00  0.00     0.041 C 
ATOM     80  C   UNL A   1      32.398  20.965  23.016  1.00  0.00    -0.030 C 
BRANCH  77  81
ATOM     81  C   UNL A   1      31.213  24.460  24.041  1.00  0.00     0.227 C 
ATOM     82  O   UNL A   1      30.112  24.482  23.489  1.00  0.00    -0.275 OA
ATOM     83  N   UNL A   1      31.721  25.585  24.683  1.00  0.00    -0.331 N 
ATOM     84  C   UNL A   1      30.749  26.532  25.220  1.00  0.00     0.181 C 
ATOM     85  C   UNL A   1      32.945  26.212  24.224  1.00  0.00     0.181 C 
ATOM     86  C   UNL A   1      31.375  27.558  26.195  1.00  0.00     0.284 C 
ATOM     87  C   UNL A   1      33.573  27.150  25.263  1.00  0.00     0.284 C 
ATOM     88  N   UNL A   1      32.663  28.159  25.812  1.00  0.00    -0.328 N 
ATOM     89  H   UNL A   1      33.073  28.493  26.684  1.00  0.00     0.348 HD
BRANCH  88  90
ATOM     90  C   UNL A   1      32.604  29.420  25.056  1.00  0.00     0.299 C 
BRANCH  90  91
ATOM     91  C   UNL A   1      31.403  29.622  24.159  1.00  0.00     0.010 A 
ATOM     92  C   UNL A   1      31.389  29.055  22.864  1.00  0.00     0.013 A 
ATOM     93  C   UNL A   1      30.333  30.442  24.564  1.00  0.00     0.060 A 
ATOM     94  C   UNL A   1      30.400  29.396  21.939  1.00  0.00     0.051 A 
ATOM     95  C   UNL A   1      29.368  30.757  23.629  1.00  0.00     0.166 A 
ATOM     96  C   UNL A   1      29.414  30.264  22.347  1.00  0.00     0.165 A 
ATOM     97  O   UNL A   1      28.325  31.610  23.817  1.00  0.00    -0.454 OA
ATOM     98  O   UNL A   1      28.414  30.747  21.566  1.00  0.00    -0.454 OA
ATOM     99  C   UNL A   1      27.722  31.593  22.503  1.00  0.00     0.468 C 
ENDBRANCH  90  91
ENDBRANCH  88  90
ENDBRANCH  77  81
ENDBRANCH  72  75
ENDBRANCH  70  71
ENDBRANCH  69  70
ENDBRANCH   1  69
TORSDOF 17
ENDMDL
