MODEL 1
REMARK VINA RESULT:     -11.9      0.000      0.000
REMARK SMILES CCc1ccc2[nH]c(C(=O)c3cc(C)ccn3)c(CC(=O)NCCCCNC(=O)c3ccc(-c4c5nc(c(-c6ccc(S(=O)(=O)[O-])cc6)c6ccc([nH]6)c(-c6ccc(S(=O)(=O)[O-])cc6)c6nc(c(-c7ccc(S(=O)(=O)[O-])cc7)c7ccc4[nH]7)C=C6)C=C5)cc3)c2c1
REMARK SMILES IDX 24 1 23 2 22 3 20 4 21 5 19 7 18 8 3 9 4 10 91 11 5 12 90 13
REMARK SMILES IDX 6 14 7 15 8 16 2 18 1 19 9 20 10 21 11 22 12 23 17 24 13 25
REMARK SMILES IDX 16 26 14 27 15 28 25 29 26 30 27 31 28 32 29 34 30 35 31 36
REMARK SMILES IDX 89 37 32 38 88 39 33 40 34 41 35 42 82 43 36 44 87 45 81 46
REMARK SMILES IDX 83 47 37 48 86 49 80 50 79 51 38 53 68 54 49 55 67 56 50 57
REMARK SMILES IDX 53 58 66 59 84 60 51 61 52 62 65 64 85 65 54 66 39 67 40 68
REMARK SMILES IDX 48 69 41 70 47 71 42 72 43 73 44 74 45 75 46 76 69 77 70 78
REMARK SMILES IDX 78 79 71 80 77 81 72 82 73 83 74 84 75 85 76 86 55 87 56 88
REMARK SMILES IDX 64 89 57 90 63 91 58 92 59 93 60 94 61 95 62 96
REMARK H PARENT 22 6 7 17 27 33 83 52 53 63
REMARK Flexibility Score: inf
ROOT
ATOM      1  C   UNL A   1      38.626  22.686  26.112  1.00  0.00     0.023 C 
ENDROOT
BRANCH   1   2
ATOM      2  C   UNL A   1      37.696  21.662  25.464  1.00  0.00     0.116 C 
BRANCH   2   3
ATOM      3  N   UNL A   1      36.892  22.228  24.403  1.00  0.00    -0.356 N 
ATOM      4  C   UNL A   1      35.982  23.247  24.446  1.00  0.00     0.224 C 
ATOM      5  O   UNL A   1      35.587  23.687  23.362  1.00  0.00    -0.275 OA
ATOM      6  H   UNL A   1      37.019  21.819  23.517  1.00  0.00     0.163 HD
BRANCH   4   7
ATOM      7  C   UNL A   1      35.584  23.910  25.761  1.00  0.00     0.138 C 
BRANCH   7   8
ATOM      8  C   UNL A   1      34.105  24.126  25.954  1.00  0.00    -0.002 A 
ATOM      9  C   UNL A   1      32.959  27.790  25.749  1.00  0.00    -0.048 A 
ATOM     10  C   UNL A   1      31.627  27.530  26.083  1.00  0.00     0.006 A 
ATOM     11  C   UNL A   1      33.863  26.720  25.642  1.00  0.00     0.014 A 
ATOM     12  C   UNL A   1      31.176  26.227  26.326  1.00  0.00     0.027 A 
ATOM     13  C   UNL A   1      33.439  25.398  25.899  1.00  0.00     0.004 A 
ATOM     14  C   UNL A   1      32.105  25.187  26.227  1.00  0.00     0.046 A 
ATOM     15  N   UNL A   1      31.953  23.838  26.436  1.00  0.00    -0.352 N 
ATOM     16  C   UNL A   1      33.127  23.156  26.183  1.00  0.00     0.093 A 
ATOM     17  H   UNL A   1      31.116  23.412  26.729  1.00  0.00     0.167 HD
BRANCH   9  18
ATOM     18  C   UNL A   1      33.437  29.202  25.517  1.00  0.00     0.032 C 
ATOM     19  C   UNL A   1      33.574  29.988  26.812  1.00  0.00     0.009 C 
ENDBRANCH   9  18
BRANCH  16  20
ATOM     20  C   UNL A   1      33.276  21.704  26.199  1.00  0.00     0.227 C 
ATOM     21  O   UNL A   1      33.721  21.083  27.164  1.00  0.00    -0.285 OA
BRANCH  20  22
ATOM     22  C   UNL A   1      32.962  20.928  24.971  1.00  0.00     0.113 A 
ATOM     23  C   UNL A   1      33.259  19.568  24.918  1.00  0.00     0.036 A 
ATOM     24  N   UNL A   1      32.364  21.609  23.963  1.00  0.00    -0.253 NA
ATOM     25  C   UNL A   1      32.931  18.861  23.759  1.00  0.00    -0.047 A 
ATOM     26  C   UNL A   1      32.029  20.898  22.868  1.00  0.00     0.112 A 
ATOM     27  C   UNL A   1      33.220  17.397  23.635  1.00  0.00     0.044 C 
ATOM     28  C   UNL A   1      32.290  19.544  22.721  1.00  0.00     0.023 A 
ENDBRANCH  20  22
ENDBRANCH  16  20
ENDBRANCH   7   8
ENDBRANCH   4   7
ENDBRANCH   2   3
ENDBRANCH   1   2
BRANCH   1  29
ATOM     29  C   UNL A   1      39.910  22.111  26.716  1.00  0.00     0.023 C 
BRANCH  29  30
ATOM     30  C   UNL A   1      40.956  23.133  27.150  1.00  0.00     0.116 C 
BRANCH  30  31
ATOM     31  N   UNL A   1      41.415  23.986  26.066  1.00  0.00    -0.352 N 
ATOM     32  C   UNL A   1      41.650  25.340  26.067  1.00  0.00     0.251 C 
ATOM     33  H   UNL A   1      41.580  23.529  25.210  1.00  0.00     0.163 HD
ATOM     34  O   UNL A   1      41.948  25.904  25.016  1.00  0.00    -0.269 OA
BRANCH  32  35
ATOM     35  C   UNL A   1      41.504  26.127  27.313  1.00  0.00     0.039 A 
ATOM     36  C   UNL A   1      42.504  27.047  27.640  1.00  0.00     0.014 A 
ATOM     37  C   UNL A   1      40.400  25.967  28.155  1.00  0.00     0.014 A 
ATOM     38  C   UNL A   1      42.365  27.853  28.773  1.00  0.00     0.010 A 
ATOM     39  C   UNL A   1      40.233  26.812  29.252  1.00  0.00     0.010 A 
ATOM     40  C   UNL A   1      41.211  27.768  29.569  1.00  0.00    -0.014 A 
BRANCH  40  41
ATOM     41  C   UNL A   1      41.004  28.693  30.712  1.00  0.00     0.031 A 
ATOM     42  C   UNL A   1      41.830  28.566  31.962  1.00  0.00     0.074 A 
ATOM     43  C   UNL A   1      40.025  29.617  30.644  1.00  0.00     0.049 A 
ATOM     44  N   UNL A   1      41.773  29.277  33.061  1.00  0.00    -0.248 NA
ATOM     45  C   UNL A   1      42.834  27.491  31.993  1.00  0.00     0.031 C 
ATOM     46  C   UNL A   1      39.113  29.803  29.511  1.00  0.00     0.029 A 
ATOM     47  N   UNL A   1      39.627  30.570  31.549  1.00  0.00    -0.354 N 
ATOM     48  C   UNL A   1      42.718  28.726  33.918  1.00  0.00     0.074 A 
ATOM     49  C   UNL A   1      43.309  27.600  33.227  1.00  0.00     0.031 C 
ATOM     50  C   UNL A   1      38.279  30.821  29.782  1.00  0.00     0.029 A 
ATOM     51  C   UNL A   1      38.577  31.341  31.112  1.00  0.00     0.049 A 
ATOM     52  H   UNL A   1      40.055  30.689  32.427  1.00  0.00     0.167 HD
ATOM     53  C   UNL A   1      43.074  29.129  35.162  1.00  0.00     0.031 A 
ATOM     54  C   UNL A   1      37.924  32.355  31.713  1.00  0.00     0.031 A 
ATOM     55  C   UNL A   1      42.500  30.260  35.843  1.00  0.00     0.049 A 
ATOM     56  C   UNL A   1      38.359  32.805  33.078  1.00  0.00     0.074 A 
ATOM     57  C   UNL A   1      42.846  30.788  37.076  1.00  0.00     0.029 A 
ATOM     58  N   UNL A   1      41.460  31.036  35.355  1.00  0.00    -0.354 N 
ATOM     59  N   UNL A   1      39.311  32.321  33.839  1.00  0.00    -0.248 NA
ATOM     60  C   UNL A   1      37.643  33.949  33.659  1.00  0.00     0.031 C 
ATOM     61  C   UNL A   1      41.989  31.860  37.349  1.00  0.00     0.029 A 
ATOM     62  C   UNL A   1      41.139  32.027  36.268  1.00  0.00     0.049 A 
ATOM     63  H   UNL A   1      41.016  30.901  34.487  1.00  0.00     0.167 HD
ATOM     64  C   UNL A   1      39.320  33.112  34.982  1.00  0.00     0.074 A 
ATOM     65  C   UNL A   1      38.292  34.118  34.803  1.00  0.00     0.031 C 
ATOM     66  C   UNL A   1      40.108  33.014  36.080  1.00  0.00     0.031 A 
BRANCH  53  67
ATOM     67  C   UNL A   1      44.141  28.338  35.870  1.00  0.00    -0.014 A 
ATOM     68  C   UNL A   1      45.499  28.677  35.739  1.00  0.00     0.010 A 
ATOM     69  C   UNL A   1      43.779  27.269  36.709  1.00  0.00     0.010 A 
ATOM     70  C   UNL A   1      46.480  27.938  36.405  1.00  0.00     0.020 A 
ATOM     71  C   UNL A   1      44.756  26.540  37.394  1.00  0.00     0.020 A 
ATOM     72  C   UNL A   1      46.102  26.870  37.224  1.00  0.00     0.054 A 
BRANCH  72  73
ATOM     73  S   UNL A   1      47.393  25.940  38.096  1.00  0.00     0.124 S 
ATOM     74  O   UNL A   1      47.074  24.564  37.726  1.00  0.00    -0.237 OA
ATOM     75  O   UNL A   1      48.624  26.475  37.518  1.00  0.00    -0.237 OA
ATOM     76  O   UNL A   1      47.172  26.276  39.501  1.00  0.00    -0.744 OA
ENDBRANCH  72  73
ENDBRANCH  53  67
BRANCH  54  77
ATOM     77  C   UNL A   1      36.800  33.030  31.012  1.00  0.00    -0.014 A 
ATOM     78  C   UNL A   1      37.057  34.003  30.030  1.00  0.00     0.010 A 
ATOM     79  C   UNL A   1      35.469  32.691  31.311  1.00  0.00     0.010 A 
ATOM     80  C   UNL A   1      35.999  34.639  29.373  1.00  0.00     0.020 A 
ATOM     81  C   UNL A   1      34.410  33.308  30.638  1.00  0.00     0.020 A 
ATOM     82  C   UNL A   1      34.682  34.287  29.681  1.00  0.00     0.054 A 
BRANCH  82  83
ATOM     83  S   UNL A   1      33.325  35.080  28.775  1.00  0.00     0.124 S 
ATOM     84  O   UNL A   1      32.506  35.611  29.860  1.00  0.00    -0.237 OA
ATOM     85  O   UNL A   1      34.021  36.074  27.962  1.00  0.00    -0.237 OA
ATOM     86  O   UNL A   1      32.730  33.979  28.020  1.00  0.00    -0.744 OA
ENDBRANCH  82  83
ENDBRANCH  54  77
BRANCH  66  87
ATOM     87  C   UNL A   1      39.901  34.036  37.165  1.00  0.00    -0.014 A 
ATOM     88  C   UNL A   1      40.571  35.272  37.135  1.00  0.00     0.010 A 
ATOM     89  C   UNL A   1      39.001  33.766  38.213  1.00  0.00     0.010 A 
ATOM     90  C   UNL A   1      40.377  36.204  38.158  1.00  0.00     0.020 A 
ATOM     91  C   UNL A   1      38.788  34.706  39.225  1.00  0.00     0.020 A 
ATOM     92  C   UNL A   1      39.491  35.912  39.200  1.00  0.00     0.054 A 
BRANCH  92  93
ATOM     93  S   UNL A   1      39.237  37.145  40.506  1.00  0.00     0.124 S 
ATOM     94  O   UNL A   1      40.578  37.701  40.664  1.00  0.00    -0.237 OA
ATOM     95  O   UNL A   1      38.248  38.044  39.917  1.00  0.00    -0.237 OA
ATOM     96  O   UNL A   1      38.753  36.354  41.636  1.00  0.00    -0.744 OA
ENDBRANCH  92  93
ENDBRANCH  66  87
ENDBRANCH  40  41
ENDBRANCH  32  35
ENDBRANCH  30  31
ENDBRANCH  29  30
ENDBRANCH   1  29
TORSDOF 18
ENDMDL
MODEL 2
REMARK VINA RESULT:     -11.7      6.186     11.611
REMARK SMILES CCc1ccc2[nH]c(C(=O)c3cc(C)ccn3)c(CC(=O)NCCCCNC(=O)c3ccc(-c4c5nc(c(-c6ccc(S(=O)(=O)[O-])cc6)c6ccc([nH]6)c(-c6ccc(S(=O)(=O)[O-])cc6)c6nc(c(-c7ccc(S(=O)(=O)[O-])cc7)c7ccc4[nH]7)C=C6)C=C5)cc3)c2c1
REMARK SMILES IDX 24 1 23 2 22 3 20 4 21 5 19 7 18 8 3 9 4 10 91 11 5 12 90 13
REMARK SMILES IDX 6 14 7 15 8 16 2 18 1 19 9 20 10 21 11 22 12 23 17 24 13 25
REMARK SMILES IDX 16 26 14 27 15 28 25 29 26 30 27 31 28 32 29 34 30 35 31 36
REMARK SMILES IDX 89 37 32 38 88 39 33 40 34 41 35 42 82 43 36 44 87 45 81 46
REMARK SMILES IDX 83 47 37 48 86 49 80 50 79 51 38 53 68 54 49 55 67 56 50 57
REMARK SMILES IDX 53 58 66 59 84 60 51 61 52 62 65 64 85 65 54 66 39 67 40 68
REMARK SMILES IDX 48 69 41 70 47 71 42 72 43 73 44 74 45 75 46 76 69 77 70 78
REMARK SMILES IDX 78 79 71 80 77 81 72 82 73 83 74 84 75 85 76 86 55 87 56 88
REMARK SMILES IDX 64 89 57 90 63 91 58 92 59 93 60 94 61 95 62 96
REMARK H PARENT 22 6 7 17 27 33 83 52 53 63
REMARK Flexibility Score: inf
ROOT
ATOM      1  C   UNL A   1      33.853  31.159  27.625  1.00  0.00     0.023 C 
ENDROOT
BRANCH   1   2
ATOM      2  C   UNL A   1      32.926  30.329  26.739  1.00  0.00     0.116 C 
BRANCH   2   3
ATOM      3  N   UNL A   1      33.639  29.594  25.717  1.00  0.00    -0.356 N 
ATOM      4  C   UNL A   1      33.629  28.257  25.435  1.00  0.00     0.224 C 
ATOM      5  O   UNL A   1      34.157  27.907  24.375  1.00  0.00    -0.275 OA
ATOM      6  H   UNL A   1      34.219  30.139  25.137  1.00  0.00     0.163 HD
BRANCH   4   7
ATOM      7  C   UNL A   1      32.874  27.260  26.310  1.00  0.00     0.138 C 
BRANCH   7   8
ATOM      8  C   UNL A   1      31.681  26.607  25.663  1.00  0.00    -0.002 A 
ATOM      9  C   UNL A   1      29.511  28.946  23.519  1.00  0.00    -0.048 A 
ATOM     10  C   UNL A   1      28.527  27.993  23.239  1.00  0.00     0.006 A 
ATOM     11  C   UNL A   1      30.627  28.577  24.289  1.00  0.00     0.014 A 
ATOM     12  C   UNL A   1      28.622  26.682  23.720  1.00  0.00     0.027 A 
ATOM     13  C   UNL A   1      30.739  27.266  24.801  1.00  0.00     0.004 A 
ATOM     14  C   UNL A   1      29.738  26.353  24.498  1.00  0.00     0.046 A 
ATOM     15  N   UNL A   1      30.072  25.172  25.115  1.00  0.00    -0.352 N 
ATOM     16  C   UNL A   1      31.295  25.267  25.749  1.00  0.00     0.093 A 
ATOM     17  H   UNL A   1      29.512  24.363  25.106  1.00  0.00     0.167 HD
BRANCH   9  18
ATOM     18  C   UNL A   1      29.381  30.363  23.017  1.00  0.00     0.032 C 
ATOM     19  C   UNL A   1      29.419  30.446  21.499  1.00  0.00     0.009 C 
ENDBRANCH   9  18
BRANCH  16  20
ATOM     20  C   UNL A   1      31.992  24.162  26.400  1.00  0.00     0.227 C 
ATOM     21  O   UNL A   1      31.724  23.773  27.537  1.00  0.00    -0.285 OA
BRANCH  20  22
ATOM     22  C   UNL A   1      33.139  23.518  25.708  1.00  0.00     0.113 A 
ATOM     23  C   UNL A   1      34.436  23.952  25.971  1.00  0.00     0.036 A 
ATOM     24  N   UNL A   1      32.841  22.503  24.861  1.00  0.00    -0.253 NA
ATOM     25  C   UNL A   1      35.495  23.313  25.323  1.00  0.00    -0.047 A 
ATOM     26  C   UNL A   1      33.881  21.881  24.272  1.00  0.00     0.112 A 
ATOM     27  C   UNL A   1      36.915  23.726  25.560  1.00  0.00     0.044 C 
ATOM     28  C   UNL A   1      35.205  22.247  24.466  1.00  0.00     0.023 A 
ENDBRANCH  20  22
ENDBRANCH  16  20
ENDBRANCH   7   8
ENDBRANCH   4   7
ENDBRANCH   2   3
ENDBRANCH   1   2
BRANCH   1  29
ATOM     29  C   UNL A   1      35.323  30.727  27.616  1.00  0.00     0.023 C 
BRANCH  29  30
ATOM     30  C   UNL A   1      35.699  29.631  28.609  1.00  0.00     0.116 C 
BRANCH  30  31
ATOM     31  N   UNL A   1      35.695  30.077  29.992  1.00  0.00    -0.352 N 
ATOM     32  C   UNL A   1      36.752  30.244  30.853  1.00  0.00     0.251 C 
ATOM     33  H   UNL A   1      34.809  30.290  30.364  1.00  0.00     0.163 HD
ATOM     34  O   UNL A   1      36.538  30.543  32.026  1.00  0.00    -0.269 OA
BRANCH  32  35
ATOM     35  C   UNL A   1      38.141  30.022  30.389  1.00  0.00     0.039 A 
ATOM     36  C   UNL A   1      39.043  29.404  31.260  1.00  0.00     0.014 A 
ATOM     37  C   UNL A   1      38.559  30.414  29.115  1.00  0.00     0.014 A 
ATOM     38  C   UNL A   1      40.342  29.120  30.830  1.00  0.00     0.010 A 
ATOM     39  C   UNL A   1      39.836  30.077  28.666  1.00  0.00     0.010 A 
ATOM     40  C   UNL A   1      40.739  29.421  29.517  1.00  0.00    -0.014 A 
BRANCH  40  41
ATOM     41  C   UNL A   1      42.081  29.026  29.017  1.00  0.00     0.031 A 
ATOM     42  C   UNL A   1      43.194  30.033  28.928  1.00  0.00     0.074 A 
ATOM     43  C   UNL A   1      42.278  27.764  28.587  1.00  0.00     0.049 A 
ATOM     44  N   UNL A   1      44.420  29.866  28.501  1.00  0.00    -0.248 NA
ATOM     45  C   UNL A   1      42.886  31.408  29.350  1.00  0.00     0.031 C 
ATOM     46  C   UNL A   1      41.263  26.707  28.564  1.00  0.00     0.029 A 
ATOM     47  N   UNL A   1      43.399  27.156  28.079  1.00  0.00    -0.354 N 
ATOM     48  C   UNL A   1      45.025  31.114  28.588  1.00  0.00     0.074 A 
ATOM     49  C   UNL A   1      44.021  32.037  29.072  1.00  0.00     0.031 C 
ATOM     50  C   UNL A   1      41.814  25.578  28.088  1.00  0.00     0.029 A 
ATOM     51  C   UNL A   1      43.210  25.836  27.748  1.00  0.00     0.049 A 
ATOM     52  H   UNL A   1      44.258  27.623  27.963  1.00  0.00     0.167 HD
ATOM     53  C   UNL A   1      46.304  31.460  28.303  1.00  0.00     0.031 A 
ATOM     54  C   UNL A   1      44.062  24.930  27.230  1.00  0.00     0.031 A 
ATOM     55  C   UNL A   1      47.309  30.540  27.839  1.00  0.00     0.049 A 
ATOM     56  C   UNL A   1      45.484  25.329  26.955  1.00  0.00     0.074 A 
ATOM     57  C   UNL A   1      48.650  30.784  27.592  1.00  0.00     0.029 A 
ATOM     58  N   UNL A   1      47.086  29.204  27.546  1.00  0.00    -0.354 N 
ATOM     59  N   UNL A   1      46.057  26.497  27.121  1.00  0.00    -0.248 NA
ATOM     60  C   UNL A   1      46.378  24.283  26.440  1.00  0.00     0.031 C 
ATOM     61  C   UNL A   1      49.229  29.602  27.114  1.00  0.00     0.029 A 
ATOM     62  C   UNL A   1      48.259  28.613  27.105  1.00  0.00     0.049 A 
ATOM     63  H   UNL A   1      46.221  28.743  27.638  1.00  0.00     0.167 HD
ATOM     64  C   UNL A   1      47.384  26.322  26.746  1.00  0.00     0.074 A 
ATOM     65  C   UNL A   1      47.532  24.932  26.365  1.00  0.00     0.031 C 
ATOM     66  C   UNL A   1      48.389  27.232  26.720  1.00  0.00     0.031 A 
BRANCH  53  67
ATOM     67  C   UNL A   1      46.691  32.902  28.491  1.00  0.00    -0.014 A 
ATOM     68  C   UNL A   1      46.553  33.831  27.445  1.00  0.00     0.010 A 
ATOM     69  C   UNL A   1      47.160  33.344  29.742  1.00  0.00     0.010 A 
ATOM     70  C   UNL A   1      46.911  35.169  27.634  1.00  0.00     0.020 A 
ATOM     71  C   UNL A   1      47.499  34.685  29.942  1.00  0.00     0.020 A 
ATOM     72  C   UNL A   1      47.387  35.586  28.881  1.00  0.00     0.054 A 
BRANCH  72  73
ATOM     73  S   UNL A   1      47.824  37.332  29.107  1.00  0.00     0.124 S 
ATOM     74  O   UNL A   1      48.965  37.475  28.207  1.00  0.00    -0.237 OA
ATOM     75  O   UNL A   1      46.607  38.026  28.691  1.00  0.00    -0.237 OA
ATOM     76  O   UNL A   1      48.136  37.429  30.531  1.00  0.00    -0.744 OA
ENDBRANCH  72  73
ENDBRANCH  53  67
BRANCH  54  77
ATOM     77  C   UNL A   1      43.594  23.545  26.959  1.00  0.00    -0.014 A 
ATOM     78  C   UNL A   1      43.083  22.750  27.999  1.00  0.00     0.010 A 
ATOM     79  C   UNL A   1      43.644  23.021  25.655  1.00  0.00     0.010 A 
ATOM     80  C   UNL A   1      42.645  21.447  27.743  1.00  0.00     0.020 A 
ATOM     81  C   UNL A   1      43.185  21.727  25.391  1.00  0.00     0.020 A 
ATOM     82  C   UNL A   1      42.699  20.944  26.440  1.00  0.00     0.054 A 
BRANCH  82  83
ATOM     83  S   UNL A   1      42.072  19.272  26.117  1.00  0.00     0.124 S 
ATOM     84  O   UNL A   1      42.815  18.896  24.919  1.00  0.00    -0.237 OA
ATOM     85  O   UNL A   1      42.432  18.555  27.338  1.00  0.00    -0.237 OA
ATOM     86  O   UNL A   1      40.638  19.478  25.928  1.00  0.00    -0.744 OA
ENDBRANCH  82  83
ENDBRANCH  54  77
BRANCH  66  87
ATOM     87  C   UNL A   1      49.743  26.743  26.282  1.00  0.00    -0.014 A 
ATOM     88  C   UNL A   1      50.207  26.970  24.975  1.00  0.00     0.010 A 
ATOM     89  C   UNL A   1      50.571  26.072  27.200  1.00  0.00     0.010 A 
ATOM     90  C   UNL A   1      51.461  26.498  24.581  1.00  0.00     0.020 A 
ATOM     91  C   UNL A   1      51.836  25.618  26.815  1.00  0.00     0.020 A 
ATOM     92  C   UNL A   1      52.265  25.818  25.502  1.00  0.00     0.054 A 
BRANCH  92  93
ATOM     93  S   UNL A   1      53.899  25.232  24.976  1.00  0.00     0.124 S 
ATOM     94  O   UNL A   1      54.759  25.729  26.047  1.00  0.00    -0.237 OA
ATOM     95  O   UNL A   1      53.726  23.782  24.930  1.00  0.00    -0.237 OA
ATOM     96  O   UNL A   1      54.092  25.870  23.676  1.00  0.00    -0.744 OA
ENDBRANCH  92  93
ENDBRANCH  66  87
ENDBRANCH  40  41
ENDBRANCH  32  35
ENDBRANCH  30  31
ENDBRANCH  29  30
ENDBRANCH   1  29
TORSDOF 18
ENDMDL
MODEL 3
REMARK VINA RESULT:     -11.6      2.935      9.288
REMARK SMILES CCc1ccc2[nH]c(C(=O)c3cc(C)ccn3)c(CC(=O)NCCCCNC(=O)c3ccc(-c4c5nc(c(-c6ccc(S(=O)(=O)[O-])cc6)c6ccc([nH]6)c(-c6ccc(S(=O)(=O)[O-])cc6)c6nc(c(-c7ccc(S(=O)(=O)[O-])cc7)c7ccc4[nH]7)C=C6)C=C5)cc3)c2c1
REMARK SMILES IDX 24 1 23 2 22 3 20 4 21 5 19 7 18 8 3 9 4 10 91 11 5 12 90 13
REMARK SMILES IDX 6 14 7 15 8 16 2 18 1 19 9 20 10 21 11 22 12 23 17 24 13 25
REMARK SMILES IDX 16 26 14 27 15 28 25 29 26 30 27 31 28 32 29 34 30 35 31 36
REMARK SMILES IDX 89 37 32 38 88 39 33 40 34 41 35 42 82 43 36 44 87 45 81 46
REMARK SMILES IDX 83 47 37 48 86 49 80 50 79 51 38 53 68 54 49 55 67 56 50 57
REMARK SMILES IDX 53 58 66 59 84 60 51 61 52 62 65 64 85 65 54 66 39 67 40 68
REMARK SMILES IDX 48 69 41 70 47 71 42 72 43 73 44 74 45 75 46 76 69 77 70 78
REMARK SMILES IDX 78 79 71 80 77 81 72 82 73 83 74 84 75 85 76 86 55 87 56 88
REMARK SMILES IDX 64 89 57 90 63 91 58 92 59 93 60 94 61 95 62 96
REMARK H PARENT 22 6 7 17 27 33 83 52 53 63
REMARK Flexibility Score: inf
ROOT
ATOM      1  C   UNL A   1      31.998  28.462  27.567  1.00  0.00     0.023 C 
ENDROOT
BRANCH   1   2
ATOM      2  C   UNL A   1      31.121  27.828  26.489  1.00  0.00     0.116 C 
BRANCH   2   3
ATOM      3  N   UNL A   1      30.929  26.408  26.688  1.00  0.00    -0.356 N 
ATOM      4  C   UNL A   1      31.825  25.382  26.580  1.00  0.00     0.224 C 
ATOM      5  O   UNL A   1      31.467  24.282  27.011  1.00  0.00    -0.275 OA
ATOM      6  H   UNL A   1      30.016  26.140  26.940  1.00  0.00     0.163 HD
BRANCH   4   7
ATOM      7  C   UNL A   1      33.250  25.612  26.087  1.00  0.00     0.138 C 
BRANCH   7   8
ATOM      8  C   UNL A   1      33.672  24.768  24.912  1.00  0.00    -0.002 A 
ATOM      9  C   UNL A   1      37.129  23.120  25.255  1.00  0.00    -0.048 A 
ATOM     10  C   UNL A   1      37.142  22.574  23.968  1.00  0.00     0.006 A 
ATOM     11  C   UNL A   1      36.001  23.840  25.685  1.00  0.00     0.014 A 
ATOM     12  C   UNL A   1      36.062  22.739  23.094  1.00  0.00     0.027 A 
ATOM     13  C   UNL A   1      34.905  24.037  24.817  1.00  0.00     0.004 A 
ATOM     14  C   UNL A   1      34.962  23.475  23.547  1.00  0.00     0.046 A 
ATOM     15  N   UNL A   1      33.796  23.815  22.906  1.00  0.00    -0.352 N 
ATOM     16  C   UNL A   1      32.951  24.518  23.743  1.00  0.00     0.093 A 
ATOM     17  H   UNL A   1      33.589  23.588  21.971  1.00  0.00     0.167 HD
BRANCH   9  18
ATOM     18  C   UNL A   1      38.312  22.958  26.177  1.00  0.00     0.032 C 
ATOM     19  C   UNL A   1      38.813  24.288  26.716  1.00  0.00     0.009 C 
ENDBRANCH   9  18
BRANCH  16  20
ATOM     20  C   UNL A   1      31.590  24.928  23.411  1.00  0.00     0.227 C 
ATOM     21  O   UNL A   1      30.660  24.132  23.278  1.00  0.00    -0.285 OA
BRANCH  20  22
ATOM     22  C   UNL A   1      31.310  26.361  23.133  1.00  0.00     0.113 A 
ATOM     23  C   UNL A   1      29.998  26.827  23.163  1.00  0.00     0.036 A 
ATOM     24  N   UNL A   1      32.385  27.149  22.887  1.00  0.00    -0.253 NA
ATOM     25  C   UNL A   1      29.769  28.183  22.919  1.00  0.00    -0.047 A 
ATOM     26  C   UNL A   1      32.141  28.459  22.686  1.00  0.00     0.112 A 
ATOM     27  C   UNL A   1      28.385  28.753  22.938  1.00  0.00     0.044 C 
ATOM     28  C   UNL A   1      30.870  29.014  22.689  1.00  0.00     0.023 A 
ENDBRANCH  20  22
ENDBRANCH  16  20
ENDBRANCH   7   8
ENDBRANCH   4   7
ENDBRANCH   2   3
ENDBRANCH   1   2
BRANCH   1  29
ATOM     29  C   UNL A   1      33.498  28.482  27.259  1.00  0.00     0.023 C 
BRANCH  29  30
ATOM     30  C   UNL A   1      33.998  29.686  26.466  1.00  0.00     0.116 C 
BRANCH  30  31
ATOM     31  N   UNL A   1      33.705  30.960  27.103  1.00  0.00    -0.352 N 
ATOM     32  C   UNL A   1      34.383  31.603  28.110  1.00  0.00     0.251 C 
ATOM     33  H   UNL A   1      32.907  31.427  26.765  1.00  0.00     0.163 HD
ATOM     34  O   UNL A   1      33.923  32.639  28.586  1.00  0.00    -0.269 OA
BRANCH  32  35
ATOM     35  C   UNL A   1      35.637  31.033  28.654  1.00  0.00     0.039 A 
ATOM     36  C   UNL A   1      36.852  31.597  28.255  1.00  0.00     0.014 A 
ATOM     37  C   UNL A   1      35.627  29.957  29.546  1.00  0.00     0.014 A 
ATOM     38  C   UNL A   1      38.050  31.127  28.801  1.00  0.00     0.010 A 
ATOM     39  C   UNL A   1      36.816  29.528  30.134  1.00  0.00     0.010 A 
ATOM     40  C   UNL A   1      38.040  30.113  29.772  1.00  0.00    -0.014 A 
BRANCH  40  41
ATOM     41  C   UNL A   1      39.297  29.681  30.436  1.00  0.00     0.031 A 
ATOM     42  C   UNL A   1      39.798  30.386  31.665  1.00  0.00     0.074 A 
ATOM     43  C   UNL A   1      40.020  28.683  29.890  1.00  0.00     0.049 A 
ATOM     44  N   UNL A   1      40.881  30.153  32.363  1.00  0.00    -0.248 NA
ATOM     45  C   UNL A   1      38.992  31.511  32.164  1.00  0.00     0.031 C 
ATOM     46  C   UNL A   1      39.675  27.957  28.665  1.00  0.00     0.029 A 
ATOM     47  N   UNL A   1      41.201  28.109  30.292  1.00  0.00    -0.354 N 
ATOM     48  C   UNL A   1      40.897  31.110  33.370  1.00  0.00     0.074 A 
ATOM     49  C   UNL A   1      39.735  31.950  33.173  1.00  0.00     0.031 C 
ATOM     50  C   UNL A   1      40.611  27.023  28.428  1.00  0.00     0.029 A 
ATOM     51  C   UNL A   1      41.633  27.099  29.467  1.00  0.00     0.049 A 
ATOM     52  H   UNL A   1      41.691  28.395  31.097  1.00  0.00     0.167 HD
ATOM     53  C   UNL A   1      41.789  31.267  34.378  1.00  0.00     0.031 A 
ATOM     54  C   UNL A   1      42.730  26.319  29.535  1.00  0.00     0.031 A 
ATOM     55  C   UNL A   1      42.935  30.422  34.587  1.00  0.00     0.049 A 
ATOM     56  C   UNL A   1      43.686  26.491  30.681  1.00  0.00     0.074 A 
ATOM     57  C   UNL A   1      43.855  30.460  35.620  1.00  0.00     0.029 A 
ATOM     58  N   UNL A   1      43.322  29.390  33.746  1.00  0.00    -0.354 N 
ATOM     59  N   UNL A   1      43.638  27.351  31.670  1.00  0.00    -0.248 NA
ATOM     60  C   UNL A   1      44.834  25.576  30.728  1.00  0.00     0.031 C 
ATOM     61  C   UNL A   1      44.820  29.473  35.384  1.00  0.00     0.029 A 
ATOM     62  C   UNL A   1      44.476  28.794  34.228  1.00  0.00     0.049 A 
ATOM     63  H   UNL A   1      42.846  29.120  32.928  1.00  0.00     0.167 HD
ATOM     64  C   UNL A   1      44.741  27.069  32.467  1.00  0.00     0.074 A 
ATOM     65  C   UNL A   1      45.425  25.948  31.857  1.00  0.00     0.031 C 
ATOM     66  C   UNL A   1      45.150  27.685  33.604  1.00  0.00     0.031 A 
BRANCH  53  67
ATOM     67  C   UNL A   1      41.557  32.402  35.340  1.00  0.00    -0.014 A 
ATOM     68  C   UNL A   1      40.812  32.212  36.517  1.00  0.00     0.010 A 
ATOM     69  C   UNL A   1      42.125  33.663  35.084  1.00  0.00     0.010 A 
ATOM     70  C   UNL A   1      40.608  33.272  37.404  1.00  0.00     0.020 A 
ATOM     71  C   UNL A   1      41.941  34.721  35.980  1.00  0.00     0.020 A 
ATOM     72  C   UNL A   1      41.170  34.522  37.126  1.00  0.00     0.054 A 
BRANCH  72  73
ATOM     73  S   UNL A   1      40.909  35.876  38.305  1.00  0.00     0.124 S 
ATOM     74  O   UNL A   1      42.277  36.320  38.559  1.00  0.00    -0.237 OA
ATOM     75  O   UNL A   1      40.078  36.809  37.548  1.00  0.00    -0.237 OA
ATOM     76  O   UNL A   1      40.244  35.229  39.433  1.00  0.00    -0.744 OA
ENDBRANCH  72  73
ENDBRANCH  53  67
BRANCH  54  77
ATOM     77  C   UNL A   1      42.969  25.286  28.494  1.00  0.00    -0.014 A 
ATOM     78  C   UNL A   1      42.324  24.039  28.568  1.00  0.00     0.010 A 
ATOM     79  C   UNL A   1      43.829  25.550  27.414  1.00  0.00     0.010 A 
ATOM     80  C   UNL A   1      42.551  23.067  27.589  1.00  0.00     0.020 A 
ATOM     81  C   UNL A   1      44.039  24.589  26.420  1.00  0.00     0.020 A 
ATOM     82  C   UNL A   1      43.407  23.348  26.521  1.00  0.00     0.054 A 
BRANCH  82  83
ATOM     83  S   UNL A   1      43.642  22.096  25.229  1.00  0.00     0.124 S 
ATOM     84  O   UNL A   1      45.016  21.668  25.469  1.00  0.00    -0.237 OA
ATOM     85  O   UNL A   1      42.608  21.114  25.544  1.00  0.00    -0.237 OA
ATOM     86  O   UNL A   1      43.424  22.840  23.991  1.00  0.00    -0.744 OA
ENDBRANCH  82  83
ENDBRANCH  54  77
BRANCH  66  87
ATOM     87  C   UNL A   1      46.386  27.142  34.269  1.00  0.00    -0.014 A 
ATOM     88  C   UNL A   1      46.304  26.105  35.215  1.00  0.00     0.010 A 
ATOM     89  C   UNL A   1      47.648  27.659  33.922  1.00  0.00     0.010 A 
ATOM     90  C   UNL A   1      47.460  25.623  35.834  1.00  0.00     0.020 A 
ATOM     91  C   UNL A   1      48.808  27.162  34.523  1.00  0.00     0.020 A 
ATOM     92  C   UNL A   1      48.704  26.159  35.488  1.00  0.00     0.054 A 
BRANCH  92  93
ATOM     93  S   UNL A   1      50.195  25.503  36.287  1.00  0.00     0.124 S 
ATOM     94  O   UNL A   1      50.910  24.915  35.157  1.00  0.00    -0.237 OA
ATOM     95  O   UNL A   1      50.807  26.697  36.865  1.00  0.00    -0.237 OA
ATOM     96  O   UNL A   1      49.672  24.547  37.260  1.00  0.00    -0.744 OA
ENDBRANCH  92  93
ENDBRANCH  66  87
ENDBRANCH  40  41
ENDBRANCH  32  35
ENDBRANCH  30  31
ENDBRANCH  29  30
ENDBRANCH   1  29
TORSDOF 18
ENDMDL
