MODEL 1
REMARK VINA RESULT:     -11.7      0.000      0.000
REMARK SMILES Cc1ccc(Cl)c(Nc2ccccc2C(=O)NCC(=O)NCCCCNC(=O)c2ccc(-c3c4nc(c(-c5ccc(S(=O)(=O)[O-])cc5)c5ccc([nH]5)c(-c5ccc(S(=O)(=O)[O-])cc5)c5nc(c(-c6ccc(S(=O)(=O)[O-])cc6)c6ccc3[nH]6)C=C5)C=C4)cc2)c1Cl
REMARK SMILES IDX 23 1 22 2 21 3 19 4 20 5 18 7 17 8 15 9 16 10 14 12 9 13
REMARK SMILES IDX 10 14 11 15 13 16 12 17 8 18 7 20 1 21 2 22 3 23 89 24 4 25
REMARK SMILES IDX 90 26 5 27 6 28 24 29 25 30 26 31 27 32 28 34 29 35 30 36
REMARK SMILES IDX 88 37 31 38 87 39 32 40 33 41 34 42 81 43 35 44 86 45 80 46
REMARK SMILES IDX 82 47 36 48 85 49 79 50 78 51 37 53 67 54 48 55 66 56 49 57
REMARK SMILES IDX 52 58 65 59 83 60 50 61 51 62 64 64 84 65 53 66 38 67 39 68
REMARK SMILES IDX 47 69 40 70 46 71 41 72 42 73 43 74 44 75 45 76 68 77 69 78
REMARK SMILES IDX 77 79 70 80 76 81 71 82 72 83 73 84 74 85 75 86 54 87 55 88
REMARK SMILES IDX 63 89 56 90 62 91 57 92 58 93 59 94 60 95 61 96
REMARK H PARENT 21 6 17 11 8 19 26 33 82 52 52 63
REMARK Flexibility Score: inf
ROOT
ATOM      1  C   UNL A   1      34.082  32.713  28.444  1.00  0.00     0.023 C 
ENDROOT
BRANCH   1   2
ATOM      2  C   UNL A   1      33.553  31.722  27.413  1.00  0.00     0.116 C 
BRANCH   2   3
ATOM      3  N   UNL A   1      34.488  30.637  27.254  1.00  0.00    -0.355 N 
ATOM      4  C   UNL A   1      34.196  29.368  26.853  1.00  0.00     0.239 C 
ATOM      5  O   UNL A   1      35.083  28.514  26.903  1.00  0.00    -0.273 OA
ATOM      6  H   UNL A   1      35.432  30.832  27.455  1.00  0.00     0.163 HD
BRANCH   4   7
ATOM      7  C   UNL A   1      32.897  29.115  26.093  1.00  0.00     0.216 C 
BRANCH   7   8
ATOM      8  N   UNL A   1      31.945  28.066  26.394  1.00  0.00    -0.343 N 
ATOM      9  C   UNL A   1      32.037  26.695  26.312  1.00  0.00     0.253 C 
ATOM     10  O   UNL A   1      31.305  26.074  27.093  1.00  0.00    -0.269 OA
ATOM     11  H   UNL A   1      31.074  28.393  26.715  1.00  0.00     0.164 HD
BRANCH   9  12
ATOM     12  C   UNL A   1      32.753  25.909  25.244  1.00  0.00     0.063 A 
ATOM     13  C   UNL A   1      32.397  25.598  23.911  1.00  0.00     0.051 A 
ATOM     14  C   UNL A   1      33.252  24.729  23.179  1.00  0.00     0.027 A 
ATOM     15  C   UNL A   1      34.453  24.242  23.692  1.00  0.00     0.002 A 
ATOM     16  C   UNL A   1      33.990  25.407  25.733  1.00  0.00     0.016 A 
ATOM     17  C   UNL A   1      34.836  24.601  24.969  1.00  0.00     0.001 A 
BRANCH  13  18
ATOM     18  N   UNL A   1      31.355  26.138  23.125  1.00  0.00    -0.352 N 
ATOM     19  H   UNL A   1      31.010  25.508  22.453  1.00  0.00     0.167 HD
BRANCH  18  20
ATOM     20  C   UNL A   1      30.701  27.394  23.098  1.00  0.00     0.077 A 
ATOM     21  C   UNL A   1      27.177  28.878  22.964  1.00  0.00     0.046 C 
ATOM     22  C   UNL A   1      28.673  28.746  22.892  1.00  0.00    -0.030 A 
ATOM     23  C   UNL A   1      29.431  29.798  22.355  1.00  0.00     0.006 A 
ATOM     24  C   UNL A   1      29.320  27.564  23.305  1.00  0.00     0.069 A 
ATOM     25  C   UNL A   1      30.816  29.699  22.267  1.00  0.00     0.023 A 
ATOM     26  Cl  UNL A   1      28.405  26.369  24.176  1.00  0.00    -0.082 Cl
ATOM     27  C   UNL A   1      31.444  28.515  22.646  1.00  0.00     0.066 A 
ATOM     28  Cl  UNL A   1      33.161  28.404  22.421  1.00  0.00    -0.082 Cl
ENDBRANCH  18  20
ENDBRANCH  13  18
ENDBRANCH   9  12
ENDBRANCH   7   8
ENDBRANCH   4   7
ENDBRANCH   2   3
ENDBRANCH   1   2
BRANCH   1  29
ATOM     29  C   UNL A   1      35.532  33.117  28.177  1.00  0.00     0.023 C 
BRANCH  29  30
ATOM     30  C   UNL A   1      36.468  32.859  29.349  1.00  0.00     0.116 C 
BRANCH  30  31
ATOM     31  N   UNL A   1      35.951  31.840  30.247  1.00  0.00    -0.352 N 
ATOM     32  C   UNL A   1      36.526  30.636  30.575  1.00  0.00     0.251 C 
ATOM     33  H   UNL A   1      35.084  32.036  30.672  1.00  0.00     0.163 HD
ATOM     34  O   UNL A   1      35.909  29.796  31.207  1.00  0.00    -0.269 OA
BRANCH  32  35
ATOM     35  C   UNL A   1      37.905  30.382  30.114  1.00  0.00     0.039 A 
ATOM     36  C   UNL A   1      38.932  30.317  31.055  1.00  0.00     0.014 A 
ATOM     37  C   UNL A   1      38.152  30.136  28.761  1.00  0.00     0.014 A 
ATOM     38  C   UNL A   1      40.212  29.951  30.640  1.00  0.00     0.010 A 
ATOM     39  C   UNL A   1      39.410  29.701  28.364  1.00  0.00     0.010 A 
ATOM     40  C   UNL A   1      40.454  29.611  29.298  1.00  0.00    -0.014 A 
BRANCH  40  41
ATOM     41  C   UNL A   1      41.796  29.168  28.849  1.00  0.00     0.031 A 
ATOM     42  C   UNL A   1      42.922  30.162  28.768  1.00  0.00     0.074 A 
ATOM     43  C   UNL A   1      41.981  27.890  28.458  1.00  0.00     0.049 A 
ATOM     44  N   UNL A   1      44.149  29.981  28.351  1.00  0.00    -0.248 NA
ATOM     45  C   UNL A   1      42.628  31.545  29.181  1.00  0.00     0.031 C 
ATOM     46  C   UNL A   1      40.951  26.846  28.444  1.00  0.00     0.029 A 
ATOM     47  N   UNL A   1      43.101  27.253  27.987  1.00  0.00    -0.354 N 
ATOM     48  C   UNL A   1      44.761  31.227  28.427  1.00  0.00     0.074 A 
ATOM     49  C   UNL A   1      43.764  32.164  28.891  1.00  0.00     0.031 C 
ATOM     50  C   UNL A   1      41.495  25.696  28.014  1.00  0.00     0.029 A 
ATOM     51  C   UNL A   1      42.897  25.927  27.682  1.00  0.00     0.049 A 
ATOM     52  H   UNL A   1      43.970  27.703  27.877  1.00  0.00     0.167 HD
ATOM     53  C   UNL A   1      46.044  31.555  28.151  1.00  0.00     0.031 A 
ATOM     54  C   UNL A   1      43.743  25.004  27.186  1.00  0.00     0.031 A 
ATOM     55  C   UNL A   1      47.041  30.611  27.727  1.00  0.00     0.049 A 
ATOM     56  C   UNL A   1      45.169  25.399  26.900  1.00  0.00     0.074 A 
ATOM     57  C   UNL A   1      48.390  30.830  27.508  1.00  0.00     0.029 A 
ATOM     58  N   UNL A   1      46.803  29.273  27.456  1.00  0.00    -0.354 N 
ATOM     59  N   UNL A   1      45.751  26.561  27.069  1.00  0.00    -0.248 NA
ATOM     60  C   UNL A   1      46.054  24.352  26.369  1.00  0.00     0.031 C 
ATOM     61  C   UNL A   1      48.957  29.637  27.050  1.00  0.00     0.029 A 
ATOM     62  C   UNL A   1      47.973  28.661  27.044  1.00  0.00     0.049 A 
ATOM     63  H   UNL A   1      45.930  28.825  27.544  1.00  0.00     0.167 HD
ATOM     64  C   UNL A   1      47.078  26.376  26.698  1.00  0.00     0.074 A 
ATOM     65  C   UNL A   1      47.216  24.987  26.311  1.00  0.00     0.031 C 
ATOM     66  C   UNL A   1      48.094  27.274  26.679  1.00  0.00     0.031 A 
BRANCH  53  67
ATOM     67  C   UNL A   1      46.455  32.995  28.299  1.00  0.00    -0.014 A 
ATOM     68  C   UNL A   1      46.370  33.891  27.217  1.00  0.00     0.010 A 
ATOM     69  C   UNL A   1      46.846  33.479  29.561  1.00  0.00     0.010 A 
ATOM     70  C   UNL A   1      46.681  35.241  27.393  1.00  0.00     0.020 A 
ATOM     71  C   UNL A   1      47.133  34.834  29.746  1.00  0.00     0.020 A 
ATOM     72  C   UNL A   1      47.054  35.705  28.659  1.00  0.00     0.054 A 
BRANCH  72  73
ATOM     73  S   UNL A   1      47.381  37.476  28.872  1.00  0.00     0.124 S 
ATOM     74  O   UNL A   1      46.030  38.025  28.951  1.00  0.00    -0.237 OA
ATOM     75  O   UNL A   1      48.147  37.513  30.116  1.00  0.00    -0.237 OA
ATOM     76  O   UNL A   1      48.130  37.838  27.672  1.00  0.00    -0.744 OA
ENDBRANCH  72  73
ENDBRANCH  53  67
BRANCH  54  77
ATOM     77  C   UNL A   1      43.278  23.613  26.919  1.00  0.00    -0.014 A 
ATOM     78  C   UNL A   1      42.967  22.747  27.982  1.00  0.00     0.010 A 
ATOM     79  C   UNL A   1      43.185  23.134  25.600  1.00  0.00     0.010 A 
ATOM     80  C   UNL A   1      42.618  21.416  27.734  1.00  0.00     0.020 A 
ATOM     81  C   UNL A   1      42.806  21.814  25.346  1.00  0.00     0.020 A 
ATOM     82  C   UNL A   1      42.548  20.956  26.417  1.00  0.00     0.054 A 
BRANCH  82  83
ATOM     83  S   UNL A   1      42.096  19.225  26.115  1.00  0.00     0.124 S 
ATOM     84  O   UNL A   1      40.663  19.327  25.859  1.00  0.00    -0.237 OA
ATOM     85  O   UNL A   1      42.922  18.877  24.962  1.00  0.00    -0.237 OA
ATOM     86  O   UNL A   1      42.464  18.555  27.361  1.00  0.00    -0.744 OA
ENDBRANCH  82  83
ENDBRANCH  54  77
BRANCH  66  87
ATOM     87  C   UNL A   1      49.454  26.775  26.272  1.00  0.00    -0.014 A 
ATOM     88  C   UNL A   1      50.203  25.928  27.108  1.00  0.00     0.010 A 
ATOM     89  C   UNL A   1      49.962  27.113  25.004  1.00  0.00     0.010 A 
ATOM     90  C   UNL A   1      51.452  25.456  26.696  1.00  0.00     0.020 A 
ATOM     91  C   UNL A   1      51.196  26.618  24.577  1.00  0.00     0.020 A 
ATOM     92  C   UNL A   1      51.941  25.804  25.433  1.00  0.00     0.054 A 
BRANCH  92  93
ATOM     93  S   UNL A   1      53.543  25.142  24.904  1.00  0.00     0.124 S 
ATOM     94  O   UNL A   1      53.516  25.395  23.466  1.00  0.00    -0.237 OA
ATOM     95  O   UNL A   1      54.492  25.950  25.667  1.00  0.00    -0.237 OA
ATOM     96  O   UNL A   1      53.481  23.734  25.290  1.00  0.00    -0.744 OA
ENDBRANCH  92  93
ENDBRANCH  66  87
ENDBRANCH  40  41
ENDBRANCH  32  35
ENDBRANCH  30  31
ENDBRANCH  29  30
ENDBRANCH   1  29
TORSDOF 18
ENDMDL
MODEL 2
REMARK VINA RESULT:     -11.5      3.900      9.958
REMARK SMILES Cc1ccc(Cl)c(Nc2ccccc2C(=O)NCC(=O)NCCCCNC(=O)c2ccc(-c3c4nc(c(-c5ccc(S(=O)(=O)[O-])cc5)c5ccc([nH]5)c(-c5ccc(S(=O)(=O)[O-])cc5)c5nc(c(-c6ccc(S(=O)(=O)[O-])cc6)c6ccc3[nH]6)C=C5)C=C4)cc2)c1Cl
REMARK SMILES IDX 23 1 22 2 21 3 19 4 20 5 18 7 17 8 15 9 16 10 14 12 9 13
REMARK SMILES IDX 10 14 11 15 13 16 12 17 8 18 7 20 1 21 2 22 3 23 89 24 4 25
REMARK SMILES IDX 90 26 5 27 6 28 24 29 25 30 26 31 27 32 28 34 29 35 30 36
REMARK SMILES IDX 88 37 31 38 87 39 32 40 33 41 34 42 81 43 35 44 86 45 80 46
REMARK SMILES IDX 82 47 36 48 85 49 79 50 78 51 37 53 67 54 48 55 66 56 49 57
REMARK SMILES IDX 52 58 65 59 83 60 50 61 51 62 64 64 84 65 53 66 38 67 39 68
REMARK SMILES IDX 47 69 40 70 46 71 41 72 42 73 43 74 44 75 45 76 68 77 69 78
REMARK SMILES IDX 77 79 70 80 76 81 71 82 72 83 73 84 74 85 75 86 54 87 55 88
REMARK SMILES IDX 63 89 56 90 62 91 57 92 58 93 59 94 60 95 61 96
REMARK H PARENT 21 6 17 11 8 19 26 33 82 52 52 63
REMARK Flexibility Score: inf
ROOT
ATOM      1  C   UNL A   1      34.113  24.479  25.064  1.00  0.00     0.023 C 
ENDROOT
BRANCH   1   2
ATOM      2  C   UNL A   1      32.621  24.287  25.313  1.00  0.00     0.116 C 
BRANCH   2   3
ATOM      3  N   UNL A   1      32.162  25.241  26.291  1.00  0.00    -0.355 N 
ATOM      4  C   UNL A   1      31.104  26.089  26.161  1.00  0.00     0.239 C 
ATOM      5  O   UNL A   1      30.924  26.946  27.027  1.00  0.00    -0.273 OA
ATOM      6  H   UNL A   1      32.664  25.286  27.137  1.00  0.00     0.163 HD
BRANCH   4   7
ATOM      7  C   UNL A   1      30.026  25.771  25.128  1.00  0.00     0.216 C 
BRANCH   7   8
ATOM      8  N   UNL A   1      30.165  25.938  23.697  1.00  0.00    -0.343 N 
ATOM      9  C   UNL A   1      30.273  27.065  22.913  1.00  0.00     0.253 C 
ATOM     10  O   UNL A   1      30.881  26.905  21.849  1.00  0.00    -0.269 OA
ATOM     11  H   UNL A   1      30.188  25.093  23.193  1.00  0.00     0.164 HD
BRANCH   9  12
ATOM     12  C   UNL A   1      29.547  28.370  23.120  1.00  0.00     0.063 A 
ATOM     13  C   UNL A   1      29.989  29.621  23.608  1.00  0.00     0.051 A 
ATOM     14  C   UNL A   1      29.020  30.645  23.788  1.00  0.00     0.027 A 
ATOM     15  C   UNL A   1      27.681  30.490  23.434  1.00  0.00     0.002 A 
ATOM     16  C   UNL A   1      28.178  28.248  22.755  1.00  0.00     0.016 A 
ATOM     17  C   UNL A   1      27.261  29.291  22.892  1.00  0.00     0.001 A 
BRANCH  13  18
ATOM     18  N   UNL A   1      31.311  30.067  23.829  1.00  0.00    -0.352 N 
ATOM     19  H   UNL A   1      31.688  30.558  23.063  1.00  0.00     0.167 HD
BRANCH  18  20
ATOM     20  C   UNL A   1      32.211  29.959  24.918  1.00  0.00     0.077 A 
ATOM     21  C   UNL A   1      34.732  27.506  26.423  1.00  0.00     0.046 C 
ATOM     22  C   UNL A   1      33.791  28.669  26.267  1.00  0.00    -0.030 A 
ATOM     23  C   UNL A   1      33.456  29.437  27.392  1.00  0.00     0.006 A 
ATOM     24  C   UNL A   1      33.199  28.964  25.023  1.00  0.00     0.069 A 
ATOM     25  C   UNL A   1      32.580  30.513  27.278  1.00  0.00     0.023 A 
ATOM     26  Cl  UNL A   1      33.794  28.158  23.601  1.00  0.00    -0.082 Cl
ATOM     27  C   UNL A   1      31.974  30.777  26.052  1.00  0.00     0.066 A 
ATOM     28  Cl  UNL A   1      30.811  32.064  25.987  1.00  0.00    -0.082 Cl
ENDBRANCH  18  20
ENDBRANCH  13  18
ENDBRANCH   9  12
ENDBRANCH   7   8
ENDBRANCH   4   7
ENDBRANCH   2   3
ENDBRANCH   1   2
BRANCH   1  29
ATOM     29  C   UNL A   1      34.977  23.715  26.070  1.00  0.00     0.023 C 
BRANCH  29  30
ATOM     30  C   UNL A   1      36.436  24.146  26.078  1.00  0.00     0.116 C 
BRANCH  30  31
ATOM     31  N   UNL A   1      37.342  23.014  25.973  1.00  0.00    -0.352 N 
ATOM     32  C   UNL A   1      38.688  22.985  26.243  1.00  0.00     0.251 C 
ATOM     33  H   UNL A   1      36.942  22.166  25.673  1.00  0.00     0.163 HD
ATOM     34  O   UNL A   1      39.367  22.015  25.950  1.00  0.00    -0.269 OA
BRANCH  32  35
ATOM     35  C   UNL A   1      39.292  24.176  26.872  1.00  0.00     0.039 A 
ATOM     36  C   UNL A   1      39.998  25.077  26.075  1.00  0.00     0.014 A 
ATOM     37  C   UNL A   1      39.086  24.426  28.232  1.00  0.00     0.014 A 
ATOM     38  C   UNL A   1      40.459  26.266  26.639  1.00  0.00     0.010 A 
ATOM     39  C   UNL A   1      39.482  25.643  28.771  1.00  0.00     0.010 A 
ATOM     40  C   UNL A   1      40.179  26.572  27.982  1.00  0.00    -0.014 A 
BRANCH  40  41
ATOM     41  C   UNL A   1      40.614  27.855  28.583  1.00  0.00     0.031 A 
ATOM     42  C   UNL A   1      42.017  27.995  29.110  1.00  0.00     0.074 A 
ATOM     43  C   UNL A   1      39.732  28.867  28.709  1.00  0.00     0.049 A 
ATOM     44  N   UNL A   1      42.569  29.014  29.716  1.00  0.00    -0.248 NA
ATOM     45  C   UNL A   1      42.909  26.830  28.964  1.00  0.00     0.031 C 
ATOM     46  C   UNL A   1      38.330  28.832  28.281  1.00  0.00     0.029 A 
ATOM     47  N   UNL A   1      39.881  30.122  29.244  1.00  0.00    -0.354 N 
ATOM     48  C   UNL A   1      43.856  28.606  30.044  1.00  0.00     0.074 A 
ATOM     49  C   UNL A   1      43.993  27.235  29.608  1.00  0.00     0.031 C 
ATOM     50  C   UNL A   1      37.758  30.018  28.546  1.00  0.00     0.029 A 
ATOM     51  C   UNL A   1      38.736  30.883  29.198  1.00  0.00     0.049 A 
ATOM     52  H   UNL A   1      40.729  30.448  29.625  1.00  0.00     0.167 HD
ATOM     53  C   UNL A   1      44.841  29.317  30.641  1.00  0.00     0.031 A 
ATOM     54  C   UNL A   1      38.501  32.135  29.638  1.00  0.00     0.031 A 
ATOM     55  C   UNL A   1      44.711  30.693  31.038  1.00  0.00     0.049 A 
ATOM     56  C   UNL A   1      39.622  32.904  30.287  1.00  0.00     0.074 A 
ATOM     57  C   UNL A   1      45.680  31.526  31.568  1.00  0.00     0.029 A 
ATOM     58  N   UNL A   1      43.546  31.437  30.949  1.00  0.00    -0.354 N 
ATOM     59  N   UNL A   1      40.860  32.531  30.502  1.00  0.00    -0.248 NA
ATOM     60  C   UNL A   1      39.315  34.268  30.740  1.00  0.00     0.031 C 
ATOM     61  C   UNL A   1      45.086  32.758  31.854  1.00  0.00     0.029 A 
ATOM     62  C   UNL A   1      43.763  32.711  31.444  1.00  0.00     0.049 A 
ATOM     63  H   UNL A   1      42.690  31.108  30.589  1.00  0.00     0.167 HD
ATOM     64  C   UNL A   1      41.489  33.626  31.084  1.00  0.00     0.074 A 
ATOM     65  C   UNL A   1      40.499  34.681  31.171  1.00  0.00     0.031 C 
ATOM     66  C   UNL A   1      42.770  33.751  31.508  1.00  0.00     0.031 A 
BRANCH  53  67
ATOM     67  C   UNL A   1      46.153  28.630  30.904  1.00  0.00    -0.014 A 
ATOM     68  C   UNL A   1      46.359  27.877  32.074  1.00  0.00     0.010 A 
ATOM     69  C   UNL A   1      47.162  28.662  29.923  1.00  0.00     0.010 A 
ATOM     70  C   UNL A   1      47.555  27.181  32.265  1.00  0.00     0.020 A 
ATOM     71  C   UNL A   1      48.349  27.946  30.099  1.00  0.00     0.020 A 
ATOM     72  C   UNL A   1      48.540  27.215  31.272  1.00  0.00     0.054 A 
BRANCH  72  73
ATOM     73  S   UNL A   1      50.051  26.242  31.516  1.00  0.00     0.124 S 
ATOM     74  O   UNL A   1      49.710  24.984  30.856  1.00  0.00    -0.237 OA
ATOM     75  O   UNL A   1      51.064  27.050  30.842  1.00  0.00    -0.237 OA
ATOM     76  O   UNL A   1      50.184  26.165  32.968  1.00  0.00    -0.744 OA
ENDBRANCH  72  73
ENDBRANCH  53  67
BRANCH  54  77
ATOM     77  C   UNL A   1      37.151  32.750  29.488  1.00  0.00    -0.014 A 
ATOM     78  C   UNL A   1      36.607  32.979  28.212  1.00  0.00     0.010 A 
ATOM     79  C   UNL A   1      36.422  33.149  30.622  1.00  0.00     0.010 A 
ATOM     80  C   UNL A   1      35.382  33.639  28.071  1.00  0.00     0.020 A 
ATOM     81  C   UNL A   1      35.183  33.780  30.486  1.00  0.00     0.020 A 
ATOM     82  C   UNL A   1      34.681  34.042  29.210  1.00  0.00     0.054 A 
BRANCH  82  83
ATOM     83  S   UNL A   1      33.095  34.898  29.006  1.00  0.00     0.124 S 
ATOM     84  O   UNL A   1      32.525  34.802  30.347  1.00  0.00    -0.237 OA
ATOM     85  O   UNL A   1      33.507  36.236  28.589  1.00  0.00    -0.237 OA
ATOM     86  O   UNL A   1      32.414  34.115  27.978  1.00  0.00    -0.744 OA
ENDBRANCH  82  83
ENDBRANCH  54  77
BRANCH  66  87
ATOM     87  C   UNL A   1      43.192  35.086  32.060  1.00  0.00    -0.014 A 
ATOM     88  C   UNL A   1      43.682  36.103  31.222  1.00  0.00     0.010 A 
ATOM     89  C   UNL A   1      43.037  35.344  33.435  1.00  0.00     0.010 A 
ATOM     90  C   UNL A   1      44.041  37.343  31.756  1.00  0.00     0.020 A 
ATOM     91  C   UNL A   1      43.366  36.593  33.966  1.00  0.00     0.020 A 
ATOM     92  C   UNL A   1      43.881  37.580  33.125  1.00  0.00     0.054 A 
BRANCH  92  93
ATOM     93  S   UNL A   1      44.313  39.212  33.784  1.00  0.00     0.124 S 
ATOM     94  O   UNL A   1      43.372  40.081  33.083  1.00  0.00    -0.237 OA
ATOM     95  O   UNL A   1      44.074  39.053  35.217  1.00  0.00    -0.237 OA
ATOM     96  O   UNL A   1      45.715  39.380  33.407  1.00  0.00    -0.744 OA
ENDBRANCH  92  93
ENDBRANCH  66  87
ENDBRANCH  40  41
ENDBRANCH  32  35
ENDBRANCH  30  31
ENDBRANCH  29  30
ENDBRANCH   1  29
TORSDOF 18
ENDMDL
MODEL 3
REMARK VINA RESULT:     -11.3      1.465      8.240
REMARK SMILES Cc1ccc(Cl)c(Nc2ccccc2C(=O)NCC(=O)NCCCCNC(=O)c2ccc(-c3c4nc(c(-c5ccc(S(=O)(=O)[O-])cc5)c5ccc([nH]5)c(-c5ccc(S(=O)(=O)[O-])cc5)c5nc(c(-c6ccc(S(=O)(=O)[O-])cc6)c6ccc3[nH]6)C=C5)C=C4)cc2)c1Cl
REMARK SMILES IDX 23 1 22 2 21 3 19 4 20 5 18 7 17 8 15 9 16 10 14 12 9 13
REMARK SMILES IDX 10 14 11 15 13 16 12 17 8 18 7 20 1 21 2 22 3 23 89 24 4 25
REMARK SMILES IDX 90 26 5 27 6 28 24 29 25 30 26 31 27 32 28 34 29 35 30 36
REMARK SMILES IDX 88 37 31 38 87 39 32 40 33 41 34 42 81 43 35 44 86 45 80 46
REMARK SMILES IDX 82 47 36 48 85 49 79 50 78 51 37 53 67 54 48 55 66 56 49 57
REMARK SMILES IDX 52 58 65 59 83 60 50 61 51 62 64 64 84 65 53 66 38 67 39 68
REMARK SMILES IDX 47 69 40 70 46 71 41 72 42 73 43 74 44 75 45 76 68 77 69 78
REMARK SMILES IDX 77 79 70 80 76 81 71 82 72 83 73 84 74 85 75 86 54 87 55 88
REMARK SMILES IDX 63 89 56 90 62 91 57 92 58 93 59 94 60 95 61 96
REMARK H PARENT 21 6 17 11 8 19 26 33 82 52 52 63
REMARK Flexibility Score: inf
ROOT
ATOM      1  C   UNL A   1      35.404  29.351  26.927  1.00  0.00     0.023 C 
ENDROOT
BRANCH   1   2
ATOM      2  C   UNL A   1      34.274  28.411  26.519  1.00  0.00     0.116 C 
BRANCH   2   3
ATOM      3  N   UNL A   1      33.153  28.578  27.410  1.00  0.00    -0.355 N 
ATOM      4  C   UNL A   1      31.975  27.895  27.366  1.00  0.00     0.239 C 
ATOM      5  O   UNL A   1      31.058  28.252  28.108  1.00  0.00    -0.273 OA
ATOM      6  H   UNL A   1      33.248  29.252  28.120  1.00  0.00     0.163 HD
BRANCH   4   7
ATOM      7  C   UNL A   1      31.924  26.558  26.633  1.00  0.00     0.216 C 
BRANCH   7   8
ATOM      8  N   UNL A   1      30.852  25.590  26.736  1.00  0.00    -0.343 N 
ATOM      9  C   UNL A   1      30.798  24.248  26.434  1.00  0.00     0.253 C 
ATOM     10  O   UNL A   1      29.971  23.598  27.086  1.00  0.00    -0.269 OA
ATOM     11  H   UNL A   1      30.009  25.959  27.087  1.00  0.00     0.164 HD
BRANCH   9  12
ATOM     12  C   UNL A   1      31.467  23.567  25.268  1.00  0.00     0.063 A 
ATOM     13  C   UNL A   1      31.361  23.775  23.873  1.00  0.00     0.051 A 
ATOM     14  C   UNL A   1      32.052  22.880  23.012  1.00  0.00     0.027 A 
ATOM     15  C   UNL A   1      32.882  21.865  23.485  1.00  0.00     0.002 A 
ATOM     16  C   UNL A   1      32.332  22.532  25.719  1.00  0.00     0.016 A 
ATOM     17  C   UNL A   1      33.042  21.704  24.847  1.00  0.00     0.001 A 
BRANCH  13  18
ATOM     18  N   UNL A   1      30.758  24.850  23.183  1.00  0.00    -0.352 N 
ATOM     19  H   UNL A   1      29.976  24.578  22.650  1.00  0.00     0.167 HD
BRANCH  18  20
ATOM     20  C   UNL A   1      31.039  26.236  23.094  1.00  0.00     0.077 A 
ATOM     21  C   UNL A   1      34.015  28.635  22.952  1.00  0.00     0.046 C 
ATOM     22  C   UNL A   1      32.617  28.104  23.107  1.00  0.00    -0.030 A 
ATOM     23  C   UNL A   1      31.614  28.946  23.611  1.00  0.00     0.006 A 
ATOM     24  C   UNL A   1      32.311  26.762  22.807  1.00  0.00     0.069 A 
ATOM     25  C   UNL A   1      30.314  28.477  23.774  1.00  0.00     0.023 A 
ATOM     26  Cl  UNL A   1      33.496  25.799  21.972  1.00  0.00    -0.082 Cl
ATOM     27  C   UNL A   1      30.028  27.141  23.507  1.00  0.00     0.066 A 
ATOM     28  Cl  UNL A   1      28.416  26.581  23.825  1.00  0.00    -0.082 Cl
ENDBRANCH  18  20
ENDBRANCH  13  18
ENDBRANCH   9  12
ENDBRANCH   7   8
ENDBRANCH   4   7
ENDBRANCH   2   3
ENDBRANCH   1   2
BRANCH   1  29
ATOM     29  C   UNL A   1      35.162  29.997  28.293  1.00  0.00     0.023 C 
BRANCH  29  30
ATOM     30  C   UNL A   1      36.044  29.440  29.400  1.00  0.00     0.116 C 
BRANCH  30  31
ATOM     31  N   UNL A   1      35.986  30.250  30.606  1.00  0.00    -0.352 N 
ATOM     32  C   UNL A   1      37.036  30.697  31.371  1.00  0.00     0.251 C 
ATOM     33  H   UNL A   1      35.087  30.511  30.910  1.00  0.00     0.163 HD
ATOM     34  O   UNL A   1      36.844  31.224  32.454  1.00  0.00    -0.269 OA
BRANCH  32  35
ATOM     35  C   UNL A   1      38.403  30.492  30.854  1.00  0.00     0.039 A 
ATOM     36  C   UNL A   1      39.320  29.784  31.630  1.00  0.00     0.014 A 
ATOM     37  C   UNL A   1      38.738  30.939  29.573  1.00  0.00     0.014 A 
ATOM     38  C   UNL A   1      40.571  29.477  31.094  1.00  0.00     0.010 A 
ATOM     39  C   UNL A   1      39.955  30.568  29.016  1.00  0.00     0.010 A 
ATOM     40  C   UNL A   1      40.886  29.840  29.773  1.00  0.00    -0.014 A 
BRANCH  40  41
ATOM     41  C   UNL A   1      42.189  29.475  29.168  1.00  0.00     0.031 A 
ATOM     42  C   UNL A   1      42.395  28.090  28.617  1.00  0.00     0.074 A 
ATOM     43  C   UNL A   1      43.201  30.367  29.173  1.00  0.00     0.049 A 
ATOM     44  N   UNL A   1      43.475  27.565  28.098  1.00  0.00    -0.248 NA
ATOM     45  C   UNL A   1      41.250  27.165  28.681  1.00  0.00     0.031 C 
ATOM     46  C   UNL A   1      43.136  31.724  29.725  1.00  0.00     0.029 A 
ATOM     47  N   UNL A   1      44.487  30.263  28.706  1.00  0.00    -0.354 N 
ATOM     48  C   UNL A   1      43.148  26.247  27.800  1.00  0.00     0.074 A 
ATOM     49  C   UNL A   1      41.785  26.039  28.230  1.00  0.00     0.031 C 
ATOM     50  C   UNL A   1      44.320  32.332  29.540  1.00  0.00     0.029 A 
ATOM     51  C   UNL A   1      45.238  31.400  28.896  1.00  0.00     0.049 A 
ATOM     52  H   UNL A   1      44.839  29.451  28.275  1.00  0.00     0.167 HD
ATOM     53  C   UNL A   1      43.911  25.302  27.205  1.00  0.00     0.031 A 
ATOM     54  C   UNL A   1      46.525  31.658  28.590  1.00  0.00     0.031 A 
ATOM     55  C   UNL A   1      45.254  25.527  26.744  1.00  0.00     0.049 A 
ATOM     56  C   UNL A   1      47.344  30.588  27.917  1.00  0.00     0.074 A 
ATOM     57  C   UNL A   1      46.078  24.659  26.048  1.00  0.00     0.029 A 
ATOM     58  N   UNL A   1      45.971  26.699  26.929  1.00  0.00    -0.354 N 
ATOM     59  N   UNL A   1      46.986  29.379  27.558  1.00  0.00    -0.248 NA
ATOM     60  C   UNL A   1      48.739  30.923  27.596  1.00  0.00     0.031 C 
ATOM     61  C   UNL A   1      47.314  25.286  25.863  1.00  0.00     0.029 A 
ATOM     62  C   UNL A   1      47.237  26.566  26.389  1.00  0.00     0.049 A 
ATOM     63  H   UNL A   1      45.629  27.505  27.380  1.00  0.00     0.167 HD
ATOM     64  C   UNL A   1      48.100  28.823  26.939  1.00  0.00     0.074 A 
ATOM     65  C   UNL A   1      49.138  29.832  26.957  1.00  0.00     0.031 C 
ATOM     66  C   UNL A   1      48.251  27.587  26.402  1.00  0.00     0.031 A 
BRANCH  53  67
ATOM     67  C   UNL A   1      43.321  23.932  27.010  1.00  0.00    -0.014 A 
ATOM     68  C   UNL A   1      42.853  23.513  25.751  1.00  0.00     0.010 A 
ATOM     69  C   UNL A   1      43.319  23.019  28.081  1.00  0.00     0.010 A 
ATOM     70  C   UNL A   1      42.382  22.211  25.571  1.00  0.00     0.020 A 
ATOM     71  C   UNL A   1      42.872  21.708  27.898  1.00  0.00     0.020 A 
ATOM     72  C   UNL A   1      42.400  21.314  26.645  1.00  0.00     0.054 A 
BRANCH  72  73
ATOM     73  S   UNL A   1      41.850  19.609  26.361  1.00  0.00     0.124 S 
ATOM     74  O   UNL A   1      40.407  19.780  26.207  1.00  0.00    -0.237 OA
ATOM     75  O   UNL A   1      42.571  19.238  25.147  1.00  0.00    -0.237 OA
ATOM     76  O   UNL A   1      42.266  18.905  27.571  1.00  0.00    -0.744 OA
ENDBRANCH  72  73
ENDBRANCH  53  67
BRANCH  54  77
ATOM     77  C   UNL A   1      47.131  32.980  28.915  1.00  0.00    -0.014 A 
ATOM     78  C   UNL A   1      47.740  33.201  30.163  1.00  0.00     0.010 A 
ATOM     79  C   UNL A   1      47.065  34.039  27.992  1.00  0.00     0.010 A 
ATOM     80  C   UNL A   1      48.227  34.468  30.500  1.00  0.00     0.020 A 
ATOM     81  C   UNL A   1      47.578  35.298  28.313  1.00  0.00     0.020 A 
ATOM     82  C   UNL A   1      48.136  35.511  29.575  1.00  0.00     0.054 A 
BRANCH  82  83
ATOM     83  S   UNL A   1      48.770  37.147  30.032  1.00  0.00     0.124 S 
ATOM     84  O   UNL A   1      48.026  38.023  29.132  1.00  0.00    -0.237 OA
ATOM     85  O   UNL A   1      48.415  37.242  31.446  1.00  0.00    -0.237 OA
ATOM     86  O   UNL A   1      50.203  37.045  29.762  1.00  0.00    -0.744 OA
ENDBRANCH  82  83
ENDBRANCH  54  77
BRANCH  66  87
ATOM     87  C   UNL A   1      49.569  27.271  25.747  1.00  0.00    -0.014 A 
ATOM     88  C   UNL A   1      49.805  27.574  24.394  1.00  0.00     0.010 A 
ATOM     89  C   UNL A   1      50.608  26.718  26.518  1.00  0.00     0.010 A 
ATOM     90  C   UNL A   1      51.046  27.297  23.816  1.00  0.00     0.020 A 
ATOM     91  C   UNL A   1      51.859  26.468  25.951  1.00  0.00     0.020 A 
ATOM     92  C   UNL A   1      52.066  26.745  24.598  1.00  0.00     0.054 A 
BRANCH  92  93
ATOM     93  S   UNL A   1      53.681  26.436  23.836  1.00  0.00     0.124 S 
ATOM     94  O   UNL A   1      54.244  25.419  24.719  1.00  0.00    -0.237 OA
ATOM     95  O   UNL A   1      53.321  25.977  22.496  1.00  0.00    -0.237 OA
ATOM     96  O   UNL A   1      54.342  27.739  23.885  1.00  0.00    -0.744 OA
ENDBRANCH  92  93
ENDBRANCH  66  87
ENDBRANCH  40  41
ENDBRANCH  32  35
ENDBRANCH  30  31
ENDBRANCH  29  30
ENDBRANCH   1  29
TORSDOF 18
ENDMDL
