MODEL 1
REMARK VINA RESULT:     -11.6      0.000      0.000
REMARK SMILES COc1ccc(C(=O)C2=C(NCCCCNC(=O)c3ccc(-c4c5nc(c(-c6ccc(S(=O)(=O)[O-])cc6)c6ccc([nH]6)c(-c6ccc(S(=O)(=O)[O-])cc6)c6nc(c(-c7ccc(S(=O)(=O)[O-])cc7)c7ccc4[nH]7)C=C6)C=C5)cc3)C(=O)N(CC(=O)[O-])[C@H]2c2ccccc2)cc1
REMARK SMILES IDX 13 1 12 2 11 3 10 5 9 6 86 7 79 8 81 9 80 10 7 11 8 12 6 13
REMARK SMILES IDX 3 14 4 15 94 16 5 17 93 18 2 19 1 20 87 21 88 22 92 23 89 24
REMARK SMILES IDX 91 25 90 26 82 27 83 28 84 29 85 30 14 31 15 32 16 33 17 34
REMARK SMILES IDX 18 36 19 37 20 38 78 39 21 40 77 41 22 42 23 43 24 44 71 45
REMARK SMILES IDX 25 46 76 47 70 48 72 49 26 50 75 51 69 52 68 53 27 55 57 56
REMARK SMILES IDX 38 57 56 58 39 59 42 60 55 61 73 62 40 63 41 64 54 66 74 67
REMARK SMILES IDX 43 68 28 69 29 70 37 71 30 72 36 73 31 74 32 75 33 76 34 77
REMARK SMILES IDX 35 78 58 79 59 80 67 81 60 82 66 83 61 84 62 85 63 86 64 87
REMARK SMILES IDX 65 88 44 89 45 90 53 91 46 92 52 93 47 94 48 95 49 96 50 97
REMARK SMILES IDX 51 98
REMARK H PARENT 11 4 16 35 72 54 42 65
REMARK Flexibility Score: inf
ROOT
ATOM      1  C   UNL A   1      33.676  24.024  26.366  1.00  0.00     0.023 C 
ENDROOT
BRANCH   1   2
ATOM      2  C   UNL A   1      32.330  23.439  26.793  1.00  0.00     0.113 C 
BRANCH   2   3
ATOM      3  N   UNL A   1      31.246  24.237  26.275  1.00  0.00    -0.380 N 
ATOM      4  H   UNL A   1      30.354  24.004  26.620  1.00  0.00     0.160 HD
BRANCH   3   5
ATOM      5  C   UNL A   1      31.266  25.270  25.374  1.00  0.00     0.110 C 
ATOM      6  C   UNL A   1      31.272  26.608  25.427  1.00  0.00     0.056 C 
ATOM      7  C   UNL A   1      31.361  27.284  24.090  1.00  0.00     0.153 C 
ATOM      8  C   UNL A   1      31.373  24.956  23.906  1.00  0.00     0.271 C 
ATOM      9  N   UNL A   1      31.491  26.140  23.222  1.00  0.00    -0.320 N 
ATOM     10  O   UNL A   1      31.363  23.829  23.436  1.00  0.00    -0.267 OA
BRANCH   6  11
ATOM     11  C   UNL A   1      31.429  27.382  26.667  1.00  0.00     0.193 C 
ATOM     12  O   UNL A   1      30.730  27.103  27.639  1.00  0.00    -0.289 OA
BRANCH  11  13
ATOM     13  C   UNL A   1      32.458  28.458  26.769  1.00  0.00     0.023 A 
ATOM     14  C   UNL A   1      34.306  30.540  27.232  1.00  0.00     0.118 A 
ATOM     15  C   UNL A   1      32.941  30.813  27.143  1.00  0.00     0.047 A 
ATOM     16  C   UNL A   1      34.748  29.234  27.036  1.00  0.00     0.047 A 
ATOM     17  C   UNL A   1      32.021  29.781  26.921  1.00  0.00     0.016 A 
ATOM     18  C   UNL A   1      33.831  28.209  26.773  1.00  0.00     0.016 A 
BRANCH  14  19
ATOM     19  O   UNL A   1      35.095  31.620  27.518  1.00  0.00    -0.497 OA
ATOM     20  C   UNL A   1      34.431  32.795  27.966  1.00  0.00     0.278 C 
ENDBRANCH  14  19
ENDBRANCH  11  13
ENDBRANCH   6  11
BRANCH   7  21
ATOM     21  C   UNL A   1      30.122  28.101  23.748  1.00  0.00    -0.021 A 
ATOM     22  C   UNL A   1      30.189  29.500  23.578  1.00  0.00     0.006 A 
ATOM     23  C   UNL A   1      28.890  27.463  23.543  1.00  0.00     0.006 A 
ATOM     24  C   UNL A   1      29.066  30.232  23.191  1.00  0.00     0.000 A 
ATOM     25  C   UNL A   1      27.766  28.200  23.165  1.00  0.00     0.000 A 
ATOM     26  C   UNL A   1      27.855  29.580  22.982  1.00  0.00     0.000 A 
ENDBRANCH   7  21
BRANCH   9  27
ATOM     27  C   UNL A   1      31.624  26.224  21.775  1.00  0.00     0.173 C 
BRANCH  27  28
ATOM     28  C   UNL A   1      32.994  25.859  21.226  1.00  0.00     0.061 C 
ATOM     29  O   UNL A   1      34.010  25.747  21.899  1.00  0.00    -0.548 OA
ATOM     30  O   UNL A   1      33.025  25.574  19.911  1.00  0.00    -0.548 OA
ENDBRANCH  27  28
ENDBRANCH   9  27
ENDBRANCH   3   5
ENDBRANCH   2   3
ENDBRANCH   1   2
BRANCH   1  31
ATOM     31  C   UNL A   1      34.781  22.993  26.125  1.00  0.00     0.023 C 
BRANCH  31  32
ATOM     32  C   UNL A   1      36.176  23.567  25.891  1.00  0.00     0.116 C 
BRANCH  32  33
ATOM     33  N   UNL A   1      37.228  22.564  25.982  1.00  0.00    -0.352 N 
ATOM     34  C   UNL A   1      38.555  22.721  26.306  1.00  0.00     0.251 C 
ATOM     35  H   UNL A   1      36.949  21.642  25.783  1.00  0.00     0.163 HD
ATOM     36  O   UNL A   1      39.326  21.772  26.208  1.00  0.00    -0.269 OA
BRANCH  34  37
ATOM     37  C   UNL A   1      39.056  24.044  26.738  1.00  0.00     0.039 A 
ATOM     38  C   UNL A   1      38.874  24.434  28.067  1.00  0.00     0.014 A 
ATOM     39  C   UNL A   1      39.724  24.883  25.843  1.00  0.00     0.014 A 
ATOM     40  C   UNL A   1      39.434  25.631  28.519  1.00  0.00     0.010 A 
ATOM     41  C   UNL A   1      40.341  26.041  26.313  1.00  0.00     0.010 A 
ATOM     42  C   UNL A   1      40.210  26.422  27.657  1.00  0.00    -0.014 A 
BRANCH  42  43
ATOM     43  C   UNL A   1      40.913  27.638  28.143  1.00  0.00     0.031 A 
ATOM     44  C   UNL A   1      42.414  27.723  28.081  1.00  0.00     0.074 A 
ATOM     45  C   UNL A   1      40.203  28.635  28.709  1.00  0.00     0.049 A 
ATOM     46  N   UNL A   1      43.205  28.666  28.528  1.00  0.00    -0.248 NA
ATOM     47  C   UNL A   1      43.119  26.592  27.458  1.00  0.00     0.031 C 
ATOM     48  C   UNL A   1      38.746  28.659  28.864  1.00  0.00     0.029 A 
ATOM     49  N   UNL A   1      40.613  29.820  29.270  1.00  0.00    -0.354 N 
ATOM     50  C   UNL A   1      44.498  28.235  28.255  1.00  0.00     0.074 A 
ATOM     51  C   UNL A   1      44.387  26.926  27.647  1.00  0.00     0.031 C 
ATOM     52  C   UNL A   1      38.384  29.808  29.454  1.00  0.00     0.029 A 
ATOM     53  C   UNL A   1      39.580  30.585  29.761  1.00  0.00     0.049 A 
ATOM     54  H   UNL A   1      41.557  30.096  29.317  1.00  0.00     0.167 HD
ATOM     55  C   UNL A   1      45.670  28.877  28.473  1.00  0.00     0.031 A 
ATOM     56  C   UNL A   1      39.594  31.774  30.395  1.00  0.00     0.031 A 
ATOM     57  C   UNL A   1      45.777  30.182  29.071  1.00  0.00     0.049 A 
ATOM     58  C   UNL A   1      40.910  32.459  30.644  1.00  0.00     0.074 A 
ATOM     59  C   UNL A   1      46.916  30.937  29.288  1.00  0.00     0.029 A 
ATOM     60  N   UNL A   1      44.708  30.925  29.548  1.00  0.00    -0.354 N 
ATOM     61  N   UNL A   1      42.118  32.061  30.325  1.00  0.00    -0.248 NA
ATOM     62  C   UNL A   1      40.863  33.758  31.331  1.00  0.00     0.031 C 
ATOM     63  C   UNL A   1      46.542  32.116  29.941  1.00  0.00     0.029 A 
ATOM     64  C   UNL A   1      45.162  32.120  30.079  1.00  0.00     0.049 A 
ATOM     65  H   UNL A   1      43.765  30.644  29.515  1.00  0.00     0.167 HD
ATOM     66  C   UNL A   1      42.973  33.073  30.749  1.00  0.00     0.074 A 
ATOM     67  C   UNL A   1      42.143  34.105  31.334  1.00  0.00     0.031 C 
ATOM     68  C   UNL A   1      44.324  33.140  30.658  1.00  0.00     0.031 A 
BRANCH  55  69
ATOM     69  C   UNL A   1      46.936  28.170  28.064  1.00  0.00    -0.014 A 
ATOM     70  C   UNL A   1      47.573  27.265  28.933  1.00  0.00     0.010 A 
ATOM     71  C   UNL A   1      47.476  28.383  26.783  1.00  0.00     0.010 A 
ATOM     72  C   UNL A   1      48.750  26.620  28.544  1.00  0.00     0.020 A 
ATOM     73  C   UNL A   1      48.638  27.718  26.380  1.00  0.00     0.020 A 
ATOM     74  C   UNL A   1      49.277  26.854  27.271  1.00  0.00     0.054 A 
BRANCH  74  75
ATOM     75  S   UNL A   1      50.796  25.989  26.788  1.00  0.00     0.124 S 
ATOM     76  O   UNL A   1      50.652  24.715  27.489  1.00  0.00    -0.237 OA
ATOM     77  O   UNL A   1      50.678  25.921  25.334  1.00  0.00    -0.237 OA
ATOM     78  O   UNL A   1      51.862  26.855  27.283  1.00  0.00    -0.744 OA
ENDBRANCH  74  75
ENDBRANCH  55  69
BRANCH  56  79
ATOM     79  C   UNL A   1      38.314  32.401  30.828  1.00  0.00    -0.014 A 
ATOM     80  C   UNL A   1      37.739  32.061  32.066  1.00  0.00     0.010 A 
ATOM     81  C   UNL A   1      37.672  33.350  30.014  1.00  0.00     0.010 A 
ATOM     82  C   UNL A   1      36.537  32.647  32.473  1.00  0.00     0.020 A 
ATOM     83  C   UNL A   1      36.484  33.959  30.430  1.00  0.00     0.020 A 
ATOM     84  C   UNL A   1      35.918  33.593  31.653  1.00  0.00     0.054 A 
BRANCH  84  85
ATOM     85  S   UNL A   1      34.386  34.380  32.226  1.00  0.00     0.124 S 
ATOM     86  O   UNL A   1      33.682  34.625  30.971  1.00  0.00    -0.237 OA
ATOM     87  O   UNL A   1      33.806  33.353  33.088  1.00  0.00    -0.237 OA
ATOM     88  O   UNL A   1      34.856  35.574  32.923  1.00  0.00    -0.744 OA
ENDBRANCH  84  85
ENDBRANCH  56  79
BRANCH  68  89
ATOM     89  C   UNL A   1      44.994  34.387  31.173  1.00  0.00    -0.014 A 
ATOM     90  C   UNL A   1      45.466  34.468  32.494  1.00  0.00     0.010 A 
ATOM     91  C   UNL A   1      45.208  35.469  30.299  1.00  0.00     0.010 A 
ATOM     92  C   UNL A   1      46.118  35.621  32.941  1.00  0.00     0.020 A 
ATOM     93  C   UNL A   1      45.883  36.612  30.734  1.00  0.00     0.020 A 
ATOM     94  C   UNL A   1      46.323  36.685  32.057  1.00  0.00     0.054 A 
BRANCH  94  95
ATOM     95  S   UNL A   1      47.220  38.148  32.645  1.00  0.00     0.124 S 
ATOM     96  O   UNL A   1      46.187  38.857  33.394  1.00  0.00    -0.237 OA
ATOM     97  O   UNL A   1      48.293  37.567  33.448  1.00  0.00    -0.237 OA
ATOM     98  O   UNL A   1      47.659  38.805  31.414  1.00  0.00    -0.744 OA
ENDBRANCH  94  95
ENDBRANCH  68  89
ENDBRANCH  42  43
ENDBRANCH  34  37
ENDBRANCH  32  33
ENDBRANCH  31  32
ENDBRANCH   1  31
TORSDOF 20
ENDMDL
MODEL 2
REMARK VINA RESULT:     -11.6      0.444      7.867
REMARK SMILES COc1ccc(C(=O)C2=C(NCCCCNC(=O)c3ccc(-c4c5nc(c(-c6ccc(S(=O)(=O)[O-])cc6)c6ccc([nH]6)c(-c6ccc(S(=O)(=O)[O-])cc6)c6nc(c(-c7ccc(S(=O)(=O)[O-])cc7)c7ccc4[nH]7)C=C6)C=C5)cc3)C(=O)N(CC(=O)[O-])[C@H]2c2ccccc2)cc1
REMARK SMILES IDX 13 1 12 2 11 3 10 5 9 6 86 7 79 8 81 9 80 10 7 11 8 12 6 13
REMARK SMILES IDX 3 14 4 15 94 16 5 17 93 18 2 19 1 20 87 21 88 22 92 23 89 24
REMARK SMILES IDX 91 25 90 26 82 27 83 28 84 29 85 30 14 31 15 32 16 33 17 34
REMARK SMILES IDX 18 36 19 37 20 38 78 39 21 40 77 41 22 42 23 43 24 44 71 45
REMARK SMILES IDX 25 46 76 47 70 48 72 49 26 50 75 51 69 52 68 53 27 55 57 56
REMARK SMILES IDX 38 57 56 58 39 59 42 60 55 61 73 62 40 63 41 64 54 66 74 67
REMARK SMILES IDX 43 68 28 69 29 70 37 71 30 72 36 73 31 74 32 75 33 76 34 77
REMARK SMILES IDX 35 78 58 79 59 80 67 81 60 82 66 83 61 84 62 85 63 86 64 87
REMARK SMILES IDX 65 88 44 89 45 90 53 91 46 92 52 93 47 94 48 95 49 96 50 97
REMARK SMILES IDX 51 98
REMARK H PARENT 11 4 16 35 72 54 42 65
REMARK Flexibility Score: inf
ROOT
ATOM      1  C   UNL A   1      33.553  24.083  26.301  1.00  0.00     0.023 C 
ENDROOT
BRANCH   1   2
ATOM      2  C   UNL A   1      32.200  23.523  26.740  1.00  0.00     0.113 C 
BRANCH   2   3
ATOM      3  N   UNL A   1      31.134  24.125  25.976  1.00  0.00    -0.380 N 
ATOM      4  H   UNL A   1      30.250  23.709  26.094  1.00  0.00     0.160 HD
BRANCH   3   5
ATOM      5  C   UNL A   1      31.164  25.187  25.109  1.00  0.00     0.110 C 
ATOM      6  C   UNL A   1      31.172  26.523  25.207  1.00  0.00     0.056 C 
ATOM      7  C   UNL A   1      31.274  27.242  23.893  1.00  0.00     0.153 C 
ATOM      8  C   UNL A   1      31.282  24.921  23.633  1.00  0.00     0.271 C 
ATOM      9  N   UNL A   1      31.408  26.127  22.989  1.00  0.00    -0.320 N 
ATOM     10  O   UNL A   1      31.273  23.811  23.126  1.00  0.00    -0.267 OA
BRANCH   6  11
ATOM     11  C   UNL A   1      31.321  27.255  26.473  1.00  0.00     0.193 C 
ATOM     12  O   UNL A   1      30.598  26.962  27.423  1.00  0.00    -0.289 OA
BRANCH  11  13
ATOM     13  C   UNL A   1      32.369  28.306  26.627  1.00  0.00     0.023 A 
ATOM     14  C   UNL A   1      34.264  30.318  27.196  1.00  0.00     0.118 A 
ATOM     15  C   UNL A   1      32.901  30.615  27.179  1.00  0.00     0.047 A 
ATOM     16  C   UNL A   1      34.679  29.028  26.875  1.00  0.00     0.047 A 
ATOM     17  C   UNL A   1      31.959  29.616  26.905  1.00  0.00     0.016 A 
ATOM     18  C   UNL A   1      33.737  28.040  26.560  1.00  0.00     0.016 A 
BRANCH  14  19
ATOM     19  O   UNL A   1      35.079  31.360  27.542  1.00  0.00    -0.497 OA
ATOM     20  C   UNL A   1      34.447  32.610  27.794  1.00  0.00     0.278 C 
ENDBRANCH  14  19
ENDBRANCH  11  13
ENDBRANCH   6  11
BRANCH   7  21
ATOM     21  C   UNL A   1      30.039  28.073  23.569  1.00  0.00    -0.021 A 
ATOM     22  C   UNL A   1      28.762  27.481  23.466  1.00  0.00     0.006 A 
ATOM     23  C   UNL A   1      30.144  29.462  23.415  1.00  0.00     0.006 A 
ATOM     24  C   UNL A   1      27.625  28.258  23.243  1.00  0.00     0.000 A 
ATOM     25  C   UNL A   1      29.004  30.236  23.182  1.00  0.00     0.000 A 
ATOM     26  C   UNL A   1      27.748  29.637  23.105  1.00  0.00     0.000 A 
ENDBRANCH   7  21
BRANCH   9  27
ATOM     27  C   UNL A   1      31.552  26.259  21.547  1.00  0.00     0.173 C 
BRANCH  27  28
ATOM     28  C   UNL A   1      32.898  25.825  20.986  1.00  0.00     0.061 C 
ATOM     29  O   UNL A   1      33.058  25.251  19.918  1.00  0.00    -0.548 OA
ATOM     30  O   UNL A   1      33.966  26.189  21.720  1.00  0.00    -0.548 OA
ENDBRANCH  27  28
ENDBRANCH   9  27
ENDBRANCH   3   5
ENDBRANCH   2   3
ENDBRANCH   1   2
BRANCH   1  31
ATOM     31  C   UNL A   1      34.753  23.182  26.604  1.00  0.00     0.023 C 
BRANCH  31  32
ATOM     32  C   UNL A   1      36.099  23.682  26.085  1.00  0.00     0.116 C 
BRANCH  32  33
ATOM     33  N   UNL A   1      37.113  22.639  26.031  1.00  0.00    -0.352 N 
ATOM     34  C   UNL A   1      38.467  22.729  26.257  1.00  0.00     0.251 C 
ATOM     35  H   UNL A   1      36.783  21.741  25.802  1.00  0.00     0.163 HD
ATOM     36  O   UNL A   1      39.189  21.760  26.041  1.00  0.00    -0.269 OA
BRANCH  34  37
ATOM     37  C   UNL A   1      39.053  24.003  26.723  1.00  0.00     0.039 A 
ATOM     38  C   UNL A   1      38.994  24.317  28.083  1.00  0.00     0.014 A 
ATOM     39  C   UNL A   1      39.681  24.873  25.828  1.00  0.00     0.014 A 
ATOM     40  C   UNL A   1      39.635  25.463  28.558  1.00  0.00     0.010 A 
ATOM     41  C   UNL A   1      40.379  25.977  26.313  1.00  0.00     0.010 A 
ATOM     42  C   UNL A   1      40.371  26.278  27.683  1.00  0.00    -0.014 A 
BRANCH  42  43
ATOM     43  C   UNL A   1      41.159  27.436  28.181  1.00  0.00     0.031 A 
ATOM     44  C   UNL A   1      40.463  28.618  28.799  1.00  0.00     0.074 A 
ATOM     45  C   UNL A   1      42.496  27.454  28.008  1.00  0.00     0.049 A 
ATOM     46  N   UNL A   1      40.973  29.749  29.217  1.00  0.00    -0.248 NA
ATOM     47  C   UNL A   1      39.002  28.528  28.945  1.00  0.00     0.031 C 
ATOM     48  C   UNL A   1      43.288  26.387  27.390  1.00  0.00     0.029 A 
ATOM     49  N   UNL A   1      43.427  28.411  28.329  1.00  0.00    -0.354 N 
ATOM     50  C   UNL A   1      39.896  30.509  29.659  1.00  0.00     0.074 A 
ATOM     51  C   UNL A   1      38.702  29.730  29.415  1.00  0.00     0.031 C 
ATOM     52  C   UNL A   1      44.583  26.738  27.400  1.00  0.00     0.029 A 
ATOM     53  C   UNL A   1      44.714  28.069  27.982  1.00  0.00     0.049 A 
ATOM     54  H   UNL A   1      43.197  29.262  28.766  1.00  0.00     0.167 HD
ATOM     55  C   UNL A   1      39.903  31.736  30.232  1.00  0.00     0.031 A 
ATOM     56  C   UNL A   1      45.869  28.751  28.109  1.00  0.00     0.031 A 
ATOM     57  C   UNL A   1      41.093  32.505  30.480  1.00  0.00     0.049 A 
ATOM     58  C   UNL A   1      45.847  30.121  28.731  1.00  0.00     0.074 A 
ATOM     59  C   UNL A   1      41.206  33.737  31.101  1.00  0.00     0.029 A 
ATOM     60  N   UNL A   1      42.375  32.120  30.119  1.00  0.00    -0.354 N 
ATOM     61  N   UNL A   1      44.825  30.798  29.196  1.00  0.00    -0.248 NA
ATOM     62  C   UNL A   1      47.138  30.815  28.853  1.00  0.00     0.031 C 
ATOM     63  C   UNL A   1      42.552  34.119  31.073  1.00  0.00     0.029 A 
ATOM     64  C   UNL A   1      43.284  33.099  30.485  1.00  0.00     0.049 A 
ATOM     65  H   UNL A   1      42.606  31.276  29.670  1.00  0.00     0.167 HD
ATOM     66  C   UNL A   1      45.352  31.987  29.690  1.00  0.00     0.074 A 
ATOM     67  C   UNL A   1      46.784  31.930  29.479  1.00  0.00     0.031 C 
ATOM     68  C   UNL A   1      44.707  33.029  30.269  1.00  0.00     0.031 A 
BRANCH  55  69
ATOM     69  C   UNL A   1      38.573  32.324  30.627  1.00  0.00    -0.014 A 
ATOM     70  C   UNL A   1      38.009  32.058  31.887  1.00  0.00     0.010 A 
ATOM     71  C   UNL A   1      37.897  33.185  29.743  1.00  0.00     0.010 A 
ATOM     72  C   UNL A   1      36.772  32.605  32.239  1.00  0.00     0.020 A 
ATOM     73  C   UNL A   1      36.673  33.757  30.103  1.00  0.00     0.020 A 
ATOM     74  C   UNL A   1      36.110  33.448  31.342  1.00  0.00     0.054 A 
BRANCH  74  75
ATOM     75  S   UNL A   1      34.515  34.158  31.834  1.00  0.00     0.124 S 
ATOM     76  O   UNL A   1      34.930  35.353  32.564  1.00  0.00    -0.237 OA
ATOM     77  O   UNL A   1      33.863  34.402  30.550  1.00  0.00    -0.237 OA
ATOM     78  O   UNL A   1      33.905  33.110  32.649  1.00  0.00    -0.744 OA
ENDBRANCH  74  75
ENDBRANCH  55  69
BRANCH  56  79
ATOM     79  C   UNL A   1      47.147  28.143  27.649  1.00  0.00    -0.014 A 
ATOM     80  C   UNL A   1      47.646  28.423  26.364  1.00  0.00     0.010 A 
ATOM     81  C   UNL A   1      47.880  27.292  28.496  1.00  0.00     0.010 A 
ATOM     82  C   UNL A   1      48.845  27.851  25.930  1.00  0.00     0.020 A 
ATOM     83  C   UNL A   1      49.093  26.741  28.075  1.00  0.00     0.020 A 
ATOM     84  C   UNL A   1      49.562  27.015  26.789  1.00  0.00     0.054 A 
BRANCH  84  85
ATOM     85  S   UNL A   1      51.143  26.326  26.223  1.00  0.00     0.124 S 
ATOM     86  O   UNL A   1      52.103  27.287  26.758  1.00  0.00    -0.237 OA
ATOM     87  O   UNL A   1      51.155  25.005  26.847  1.00  0.00    -0.237 OA
ATOM     88  O   UNL A   1      51.011  26.317  24.768  1.00  0.00    -0.744 OA
ENDBRANCH  84  85
ENDBRANCH  56  79
BRANCH  68  89
ATOM     89  C   UNL A   1      45.545  34.185  30.748  1.00  0.00    -0.014 A 
ATOM     90  C   UNL A   1      45.805  35.290  29.920  1.00  0.00     0.010 A 
ATOM     91  C   UNL A   1      46.026  34.189  32.071  1.00  0.00     0.010 A 
ATOM     92  C   UNL A   1      46.554  36.369  30.398  1.00  0.00     0.020 A 
ATOM     93  C   UNL A   1      46.751  35.277  32.561  1.00  0.00     0.020 A 
ATOM     94  C   UNL A   1      47.021  36.356  31.716  1.00  0.00     0.054 A 
BRANCH  94  95
ATOM     95  S   UNL A   1      47.944  37.792  32.330  1.00  0.00     0.124 S 
ATOM     96  O   UNL A   1      46.900  38.559  33.004  1.00  0.00    -0.237 OA
ATOM     97  O   UNL A   1      48.942  37.183  33.207  1.00  0.00    -0.237 OA
ATOM     98  O   UNL A   1      48.482  38.404  31.116  1.00  0.00    -0.744 OA
ENDBRANCH  94  95
ENDBRANCH  68  89
ENDBRANCH  42  43
ENDBRANCH  34  37
ENDBRANCH  32  33
ENDBRANCH  31  32
ENDBRANCH   1  31
TORSDOF 20
ENDMDL
MODEL 3
REMARK VINA RESULT:     -11.4      1.801      2.286
REMARK SMILES COc1ccc(C(=O)C2=C(NCCCCNC(=O)c3ccc(-c4c5nc(c(-c6ccc(S(=O)(=O)[O-])cc6)c6ccc([nH]6)c(-c6ccc(S(=O)(=O)[O-])cc6)c6nc(c(-c7ccc(S(=O)(=O)[O-])cc7)c7ccc4[nH]7)C=C6)C=C5)cc3)C(=O)N(CC(=O)[O-])[C@H]2c2ccccc2)cc1
REMARK SMILES IDX 13 1 12 2 11 3 10 5 9 6 86 7 79 8 81 9 80 10 7 11 8 12 6 13
REMARK SMILES IDX 3 14 4 15 94 16 5 17 93 18 2 19 1 20 87 21 88 22 92 23 89 24
REMARK SMILES IDX 91 25 90 26 82 27 83 28 84 29 85 30 14 31 15 32 16 33 17 34
REMARK SMILES IDX 18 36 19 37 20 38 78 39 21 40 77 41 22 42 23 43 24 44 71 45
REMARK SMILES IDX 25 46 76 47 70 48 72 49 26 50 75 51 69 52 68 53 27 55 57 56
REMARK SMILES IDX 38 57 56 58 39 59 42 60 55 61 73 62 40 63 41 64 54 66 74 67
REMARK SMILES IDX 43 68 28 69 29 70 37 71 30 72 36 73 31 74 32 75 33 76 34 77
REMARK SMILES IDX 35 78 58 79 59 80 67 81 60 82 66 83 61 84 62 85 63 86 64 87
REMARK SMILES IDX 65 88 44 89 45 90 53 91 46 92 52 93 47 94 48 95 49 96 50 97
REMARK SMILES IDX 51 98
REMARK H PARENT 11 4 16 35 72 54 42 65
REMARK Flexibility Score: inf
ROOT
ATOM      1  C   UNL A   1      34.248  22.279  25.440  1.00  0.00     0.023 C 
ENDROOT
BRANCH   1   2
ATOM      2  C   UNL A   1      32.970  21.719  26.066  1.00  0.00     0.113 C 
BRANCH   2   3
ATOM      3  N   UNL A   1      31.808  22.339  25.478  1.00  0.00    -0.380 N 
ATOM      4  H   UNL A   1      30.968  21.836  25.585  1.00  0.00     0.160 HD
BRANCH   3   5
ATOM      5  C   UNL A   1      31.692  23.518  24.790  1.00  0.00     0.110 C 
ATOM      6  C   UNL A   1      31.624  24.821  25.096  1.00  0.00     0.056 C 
ATOM      7  C   UNL A   1      31.563  25.737  23.908  1.00  0.00     0.153 C 
ATOM      8  C   UNL A   1      31.696  23.490  23.285  1.00  0.00     0.271 C 
ATOM      9  N   UNL A   1      31.687  24.786  22.832  1.00  0.00    -0.320 N 
ATOM     10  O   UNL A   1      31.713  22.472  22.612  1.00  0.00    -0.267 OA
BRANCH   6  11
ATOM     11  C   UNL A   1      31.837  25.361  26.447  1.00  0.00     0.193 C 
ATOM     12  O   UNL A   1      31.692  24.621  27.417  1.00  0.00    -0.289 OA
BRANCH  11  13
ATOM     13  C   UNL A   1      32.275  26.774  26.641  1.00  0.00     0.023 A 
ATOM     14  C   UNL A   1      33.121  29.466  26.718  1.00  0.00     0.118 A 
ATOM     15  C   UNL A   1      33.992  28.462  26.293  1.00  0.00     0.047 A 
ATOM     16  C   UNL A   1      31.847  29.113  27.156  1.00  0.00     0.047 A 
ATOM     17  C   UNL A   1      33.572  27.128  26.245  1.00  0.00     0.016 A 
ATOM     18  C   UNL A   1      31.442  27.772  27.148  1.00  0.00     0.016 A 
BRANCH  14  19
ATOM     19  O   UNL A   1      33.625  30.735  26.656  1.00  0.00    -0.497 OA
ATOM     20  C   UNL A   1      34.347  31.193  27.793  1.00  0.00     0.278 C 
ENDBRANCH  14  19
ENDBRANCH  11  13
ENDBRANCH   6  11
BRANCH   7  21
ATOM     21  C   UNL A   1      30.254  26.510  23.816  1.00  0.00    -0.021 A 
ATOM     22  C   UNL A   1      30.216  27.836  23.334  1.00  0.00     0.006 A 
ATOM     23  C   UNL A   1      29.043  25.893  24.164  1.00  0.00     0.006 A 
ATOM     24  C   UNL A   1      29.005  28.511  23.181  1.00  0.00     0.000 A 
ATOM     25  C   UNL A   1      27.834  26.576  24.019  1.00  0.00     0.000 A 
ATOM     26  C   UNL A   1      27.814  27.879  23.521  1.00  0.00     0.000 A 
ENDBRANCH   7  21
BRANCH   9  27
ATOM     27  C   UNL A   1      31.694  25.146  21.422  1.00  0.00     0.173 C 
BRANCH  27  28
ATOM     28  C   UNL A   1      32.985  25.773  20.918  1.00  0.00     0.061 C 
ATOM     29  O   UNL A   1      33.818  26.323  21.627  1.00  0.00    -0.548 OA
ATOM     30  O   UNL A   1      33.219  25.619  19.602  1.00  0.00    -0.548 OA
ENDBRANCH  27  28
ENDBRANCH   9  27
ENDBRANCH   3   5
ENDBRANCH   2   3
ENDBRANCH   1   2
BRANCH   1  31
ATOM     31  C   UNL A   1      35.179  23.005  26.414  1.00  0.00     0.023 C 
BRANCH  31  32
ATOM     32  C   UNL A   1      36.463  23.561  25.806  1.00  0.00     0.116 C 
BRANCH  32  33
ATOM     33  N   UNL A   1      37.598  22.659  25.946  1.00  0.00    -0.352 N 
ATOM     34  C   UNL A   1      38.865  22.920  26.413  1.00  0.00     0.251 C 
ATOM     35  H   UNL A   1      37.435  21.730  25.667  1.00  0.00     0.163 HD
ATOM     36  O   UNL A   1      39.734  22.057  26.340  1.00  0.00    -0.269 OA
BRANCH  34  37
ATOM     37  C   UNL A   1      39.185  24.252  26.968  1.00  0.00     0.039 A 
ATOM     38  C   UNL A   1      38.789  24.553  28.273  1.00  0.00     0.014 A 
ATOM     39  C   UNL A   1      39.896  25.190  26.214  1.00  0.00     0.014 A 
ATOM     40  C   UNL A   1      39.176  25.764  28.852  1.00  0.00     0.010 A 
ATOM     41  C   UNL A   1      40.339  26.366  26.816  1.00  0.00     0.010 A 
ATOM     42  C   UNL A   1      39.993  26.661  28.144  1.00  0.00    -0.014 A 
BRANCH  42  43
ATOM     43  C   UNL A   1      40.514  27.900  28.777  1.00  0.00     0.031 A 
ATOM     44  C   UNL A   1      41.932  27.959  29.276  1.00  0.00     0.074 A 
ATOM     45  C   UNL A   1      39.686  28.947  28.969  1.00  0.00     0.049 A 
ATOM     46  N   UNL A   1      42.538  28.921  29.924  1.00  0.00    -0.248 NA
ATOM     47  C   UNL A   1      42.770  26.773  29.038  1.00  0.00     0.031 C 
ATOM     48  C   UNL A   1      38.279  29.004  28.565  1.00  0.00     0.029 A 
ATOM     49  N   UNL A   1      39.907  30.165  29.563  1.00  0.00    -0.354 N 
ATOM     50  C   UNL A   1      43.821  28.452  30.184  1.00  0.00     0.074 A 
ATOM     51  C   UNL A   1      43.889  27.103  29.666  1.00  0.00     0.031 C 
ATOM     52  C   UNL A   1      37.772  30.200  28.900  1.00  0.00     0.029 A 
ATOM     53  C   UNL A   1      38.799  30.981  29.581  1.00  0.00     0.049 A 
ATOM     54  H   UNL A   1      40.776  30.431  29.942  1.00  0.00     0.167 HD
ATOM     55  C   UNL A   1      44.853  29.093  30.783  1.00  0.00     0.031 A 
ATOM     56  C   UNL A   1      38.625  32.214  30.094  1.00  0.00     0.031 A 
ATOM     57  C   UNL A   1      44.784  30.437  31.290  1.00  0.00     0.049 A 
ATOM     58  C   UNL A   1      39.781  32.897  30.773  1.00  0.00     0.074 A 
ATOM     59  C   UNL A   1      45.791  31.190  31.869  1.00  0.00     0.029 A 
ATOM     60  N   UNL A   1      43.646  31.230  31.283  1.00  0.00    -0.354 N 
ATOM     61  N   UNL A   1      41.004  32.459  30.957  1.00  0.00    -0.248 NA
ATOM     62  C   UNL A   1      39.536  34.246  31.305  1.00  0.00     0.031 C 
ATOM     63  C   UNL A   1      45.250  32.421  32.255  1.00  0.00     0.029 A 
ATOM     64  C   UNL A   1      43.920  32.456  31.865  1.00  0.00     0.049 A 
ATOM     65  H   UNL A   1      42.773  30.961  30.917  1.00  0.00     0.167 HD
ATOM     66  C   UNL A   1      41.681  33.488  31.602  1.00  0.00     0.074 A 
ATOM     67  C   UNL A   1      40.737  34.574  31.765  1.00  0.00     0.031 C 
ATOM     68  C   UNL A   1      42.970  33.529  32.020  1.00  0.00     0.031 A 
BRANCH  55  69
ATOM     69  C   UNL A   1      46.149  28.338  30.926  1.00  0.00    -0.014 A 
ATOM     70  C   UNL A   1      46.419  27.573  32.075  1.00  0.00     0.010 A 
ATOM     71  C   UNL A   1      47.093  28.362  29.883  1.00  0.00     0.010 A 
ATOM     72  C   UNL A   1      47.628  26.883  32.198  1.00  0.00     0.020 A 
ATOM     73  C   UNL A   1      48.291  27.650  29.991  1.00  0.00     0.020 A 
ATOM     74  C   UNL A   1      48.558  26.929  31.156  1.00  0.00     0.054 A 
BRANCH  74  75
ATOM     75  S   UNL A   1      50.110  26.008  31.336  1.00  0.00     0.124 S 
ATOM     76  O   UNL A   1      50.866  26.868  32.243  1.00  0.00    -0.237 OA
ATOM     77  O   UNL A   1      49.666  24.737  31.902  1.00  0.00    -0.237 OA
ATOM     78  O   UNL A   1      50.629  25.931  29.973  1.00  0.00    -0.744 OA
ENDBRANCH  74  75
ENDBRANCH  55  69
BRANCH  56  79
ATOM     79  C   UNL A   1      37.304  32.891  29.974  1.00  0.00    -0.014 A 
ATOM     80  C   UNL A   1      36.343  32.760  30.992  1.00  0.00     0.010 A 
ATOM     81  C   UNL A   1      37.005  33.681  28.849  1.00  0.00     0.010 A 
ATOM     82  C   UNL A   1      35.101  33.392  30.880  1.00  0.00     0.020 A 
ATOM     83  C   UNL A   1      35.775  34.337  28.747  1.00  0.00     0.020 A 
ATOM     84  C   UNL A   1      34.826  34.178  29.758  1.00  0.00     0.054 A 
BRANCH  84  85
ATOM     85  S   UNL A   1      33.228  35.033  29.660  1.00  0.00     0.124 S 
ATOM     86  O   UNL A   1      33.621  36.360  29.195  1.00  0.00    -0.237 OA
ATOM     87  O   UNL A   1      32.492  34.218  28.697  1.00  0.00    -0.237 OA
ATOM     88  O   UNL A   1      32.723  34.973  31.029  1.00  0.00    -0.744 OA
ENDBRANCH  84  85
ENDBRANCH  56  79
BRANCH  68  89
ATOM     89  C   UNL A   1      43.451  34.801  32.666  1.00  0.00    -0.014 A 
ATOM     90  C   UNL A   1      43.429  34.965  34.061  1.00  0.00     0.010 A 
ATOM     91  C   UNL A   1      43.992  35.823  31.863  1.00  0.00     0.010 A 
ATOM     92  C   UNL A   1      43.915  36.140  34.641  1.00  0.00     0.020 A 
ATOM     93  C   UNL A   1      44.503  36.987  32.441  1.00  0.00     0.020 A 
ATOM     94  C   UNL A   1      44.450  37.143  33.827  1.00  0.00     0.054 A 
BRANCH  94  95
ATOM     95  S   UNL A   1      45.125  38.635  34.609  1.00  0.00     0.124 S 
ATOM     96  O   UNL A   1      44.124  38.919  35.634  1.00  0.00    -0.237 OA
ATOM     97  O   UNL A   1      46.421  38.180  35.104  1.00  0.00    -0.237 OA
ATOM     98  O   UNL A   1      45.187  39.602  33.515  1.00  0.00    -0.744 OA
ENDBRANCH  94  95
ENDBRANCH  68  89
ENDBRANCH  42  43
ENDBRANCH  34  37
ENDBRANCH  32  33
ENDBRANCH  31  32
ENDBRANCH   1  31
TORSDOF 20
ENDMDL
