MODEL 1
REMARK VINA RESULT:     -12.0      0.000      0.000
REMARK SMILES C[C@@H]1[C@H](C)CCC[C@@H]1NC(=O)COc1csc(C(=O)NCCCCNC(=O)c2ccc(-c3c4nc(c(-c5ccc(S(=O)(=O)[O-])cc5)c5ccc([nH]5)c(-c5ccc(S(=O)(=O)[O-])cc5)c5nc(c(-c6ccc(S(=O)(=O)[O-])cc6)c6ccc3[nH]6)C=C5)C=C4)cc2)c1
REMARK SMILES IDX 22 1 21 2 20 3 18 4 19 5 17 7 14 8 15 9 88 10 16 11 13 12
REMARK SMILES IDX 12 13 10 14 9 15 11 17 8 18 1 19 2 20 3 21 4 22 5 23 7 24
REMARK SMILES IDX 6 25 23 26 24 27 25 28 26 29 27 31 28 32 29 33 87 34 30 35
REMARK SMILES IDX 86 36 31 37 32 38 33 39 80 40 34 41 85 42 79 43 81 44 35 45
REMARK SMILES IDX 84 46 78 47 77 48 36 50 66 51 47 52 65 53 48 54 51 55 64 56
REMARK SMILES IDX 82 57 49 58 50 59 63 61 83 62 52 63 37 64 38 65 46 66 39 67
REMARK SMILES IDX 45 68 40 69 41 70 42 71 43 72 44 73 67 74 68 75 76 76 69 77
REMARK SMILES IDX 75 78 70 79 71 80 72 81 73 82 74 83 53 84 54 85 62 86 55 87
REMARK SMILES IDX 61 88 56 89 57 90 58 91 59 92 60 93
REMARK H PARENT 20 6 9 16 25 30 81 49 51 60
REMARK Flexibility Score: inf
ROOT
ATOM      1  C   UNL A   1      39.548  21.798  25.915  1.00  0.00     0.023 C 
ENDROOT
BRANCH   1   2
ATOM      2  C   UNL A   1      38.033  21.748  25.709  1.00  0.00     0.116 C 
BRANCH   2   3
ATOM      3  N   UNL A   1      37.681  22.112  24.351  1.00  0.00    -0.351 N 
ATOM      4  C   UNL A   1      36.529  22.640  23.815  1.00  0.00     0.261 C 
ATOM      5  O   UNL A   1      36.578  22.889  22.609  1.00  0.00    -0.268 OA
ATOM      6  H   UNL A   1      38.396  21.953  23.695  1.00  0.00     0.163 HD
BRANCH   4   7
ATOM      7  C   UNL A   1      35.356  22.902  24.641  1.00  0.00     0.096 A 
ATOM      8  C   UNL A   1      33.376  22.764  25.866  1.00  0.00     0.131 A 
ATOM      9  C   UNL A   1      33.813  24.006  26.252  1.00  0.00     0.112 A 
ATOM     10  C   UNL A   1      34.225  22.157  24.911  1.00  0.00     0.072 A 
ATOM     11  S   UNL A   1      35.270  24.422  25.460  1.00  0.00    -0.135 S 
BRANCH   8  12
ATOM     12  O   UNL A   1      32.313  22.116  26.386  1.00  0.00    -0.483 OA
BRANCH  12  13
ATOM     13  C   UNL A   1      31.078  22.481  25.799  1.00  0.00     0.329 C 
BRANCH  13  14
ATOM     14  C   UNL A   1      30.190  23.376  26.654  1.00  0.00     0.258 C 
ATOM     15  N   UNL A   1      30.053  24.704  26.384  1.00  0.00    -0.350 N 
ATOM     16  H   UNL A   1      29.591  25.210  27.092  1.00  0.00     0.163 HD
ATOM     17  O   UNL A   1      29.618  22.932  27.653  1.00  0.00    -0.271 OA
BRANCH  15  18
ATOM     18  C   UNL A   1      30.466  25.527  25.238  1.00  0.00     0.085 C 
ATOM     19  C   UNL A   1      31.339  27.386  26.781  1.00  0.00     0.010 C 
ATOM     20  C   UNL A   1      31.603  26.545  25.525  1.00  0.00     0.011 C 
ATOM     21  C   UNL A   1      31.884  27.396  24.257  1.00  0.00    -0.009 C 
ATOM     22  C   UNL A   1      33.043  28.376  24.445  1.00  0.00     0.008 C 
ATOM     23  C   UNL A   1      30.628  28.124  23.766  1.00  0.00     0.004 C 
ATOM     24  C   UNL A   1      29.212  26.241  24.692  1.00  0.00     0.025 C 
ATOM     25  C   UNL A   1      29.497  27.140  23.495  1.00  0.00     0.002 C 
ENDBRANCH  15  18
ENDBRANCH  13  14
ENDBRANCH  12  13
ENDBRANCH   8  12
ENDBRANCH   4   7
ENDBRANCH   2   3
ENDBRANCH   1   2
BRANCH   1  26
ATOM     26  C   UNL A   1      39.983  22.607  27.141  1.00  0.00     0.023 C 
BRANCH  26  27
ATOM     27  C   UNL A   1      41.419  23.123  27.097  1.00  0.00     0.116 C 
BRANCH  27  28
ATOM     28  N   UNL A   1      41.665  24.029  25.988  1.00  0.00    -0.352 N 
ATOM     29  C   UNL A   1      41.644  25.403  25.978  1.00  0.00     0.251 C 
ATOM     30  H   UNL A   1      41.877  23.602  25.127  1.00  0.00     0.163 HD
ATOM     31  O   UNL A   1      41.750  26.005  24.915  1.00  0.00    -0.269 OA
BRANCH  29  32
ATOM     32  C   UNL A   1      41.452  26.144  27.243  1.00  0.00     0.039 A 
ATOM     33  C   UNL A   1      42.407  27.092  27.611  1.00  0.00     0.014 A 
ATOM     34  C   UNL A   1      40.338  25.916  28.057  1.00  0.00     0.014 A 
ATOM     35  C   UNL A   1      42.217  27.848  28.767  1.00  0.00     0.010 A 
ATOM     36  C   UNL A   1      40.110  26.728  29.166  1.00  0.00     0.010 A 
ATOM     37  C   UNL A   1      41.050  27.699  29.538  1.00  0.00    -0.014 A 
BRANCH  37  38
ATOM     38  C   UNL A   1      40.813  28.574  30.715  1.00  0.00     0.031 A 
ATOM     39  C   UNL A   1      41.661  28.447  31.954  1.00  0.00     0.074 A 
ATOM     40  C   UNL A   1      39.814  29.479  30.667  1.00  0.00     0.049 A 
ATOM     41  N   UNL A   1      41.642  29.181  33.038  1.00  0.00    -0.248 NA
ATOM     42  C   UNL A   1      42.640  27.348  31.996  1.00  0.00     0.031 C 
ATOM     43  C   UNL A   1      38.876  29.648  29.552  1.00  0.00     0.029 A 
ATOM     44  N   UNL A   1      39.424  30.435  31.570  1.00  0.00    -0.354 N 
ATOM     45  C   UNL A   1      42.590  28.626  33.891  1.00  0.00     0.074 A 
ATOM     46  C   UNL A   1      43.136  27.469  33.220  1.00  0.00     0.031 C 
ATOM     47  C   UNL A   1      38.059  30.679  29.816  1.00  0.00     0.029 A 
ATOM     48  C   UNL A   1      38.383  31.220  31.130  1.00  0.00     0.049 A 
ATOM     49  H   UNL A   1      39.850  30.550  32.451  1.00  0.00     0.167 HD
ATOM     50  C   UNL A   1      42.982  29.054  35.114  1.00  0.00     0.031 A 
ATOM     51  C   UNL A   1      37.764  32.265  31.715  1.00  0.00     0.031 A 
ATOM     52  C   UNL A   1      42.451  30.222  35.768  1.00  0.00     0.049 A 
ATOM     53  C   UNL A   1      38.243  32.731  33.063  1.00  0.00     0.074 A 
ATOM     54  C   UNL A   1      42.848  30.789  36.967  1.00  0.00     0.029 A 
ATOM     55  N   UNL A   1      41.405  30.994  35.288  1.00  0.00    -0.354 N 
ATOM     56  N   UNL A   1      39.223  32.263  33.799  1.00  0.00    -0.248 NA
ATOM     57  C   UNL A   1      37.543  33.881  33.651  1.00  0.00     0.031 C 
ATOM     58  C   UNL A   1      41.997  31.863  37.245  1.00  0.00     0.029 A 
ATOM     59  C   UNL A   1      41.117  32.009  36.185  1.00  0.00     0.049 A 
ATOM     60  H   UNL A   1      40.936  30.843  34.435  1.00  0.00     0.167 HD
ATOM     61  C   UNL A   1      39.273  33.080  34.924  1.00  0.00     0.074 A 
ATOM     62  C   UNL A   1      38.249  34.090  34.752  1.00  0.00     0.031 C 
ATOM     63  C   UNL A   1      40.089  33.001  36.005  1.00  0.00     0.031 A 
BRANCH  50  64
ATOM     64  C   UNL A   1      44.037  28.263  35.842  1.00  0.00    -0.014 A 
ATOM     65  C   UNL A   1      43.700  27.356  36.862  1.00  0.00     0.010 A 
ATOM     66  C   UNL A   1      45.380  28.358  35.430  1.00  0.00     0.010 A 
ATOM     67  C   UNL A   1      44.684  26.568  37.464  1.00  0.00     0.020 A 
ATOM     68  C   UNL A   1      46.364  27.552  36.009  1.00  0.00     0.020 A 
ATOM     69  C   UNL A   1      46.010  26.665  37.028  1.00  0.00     0.054 A 
BRANCH  69  70
ATOM     70  S   UNL A   1      47.253  25.575  37.776  1.00  0.00     0.124 S 
ATOM     71  O   UNL A   1      47.234  26.008  39.171  1.00  0.00    -0.237 OA
ATOM     72  O   UNL A   1      46.703  24.246  37.523  1.00  0.00    -0.237 OA
ATOM     73  O   UNL A   1      48.477  25.890  37.044  1.00  0.00    -0.744 OA
ENDBRANCH  69  70
ENDBRANCH  50  64
BRANCH  51  74
ATOM     74  C   UNL A   1      36.628  32.949  31.036  1.00  0.00    -0.014 A 
ATOM     75  C   UNL A   1      36.836  33.715  29.874  1.00  0.00     0.010 A 
ATOM     76  C   UNL A   1      35.331  32.870  31.574  1.00  0.00     0.010 A 
ATOM     77  C   UNL A   1      35.782  34.430  29.297  1.00  0.00     0.020 A 
ATOM     78  C   UNL A   1      34.266  33.553  30.979  1.00  0.00     0.020 A 
ATOM     79  C   UNL A   1      34.505  34.350  29.857  1.00  0.00     0.054 A 
BRANCH  79  80
ATOM     80  S   UNL A   1      33.151  35.286  29.096  1.00  0.00     0.124 S 
ATOM     81  O   UNL A   1      33.851  36.449  28.560  1.00  0.00    -0.237 OA
ATOM     82  O   UNL A   1      32.635  34.344  28.105  1.00  0.00    -0.237 OA
ATOM     83  O   UNL A   1      32.251  35.556  30.214  1.00  0.00    -0.744 OA
ENDBRANCH  79  80
ENDBRANCH  51  74
BRANCH  63  84
ATOM     84  C   UNL A   1      39.921  34.056  37.068  1.00  0.00    -0.014 A 
ATOM     85  C   UNL A   1      39.145  33.820  38.218  1.00  0.00     0.010 A 
ATOM     86  C   UNL A   1      40.554  35.303  36.915  1.00  0.00     0.010 A 
ATOM     87  C   UNL A   1      38.949  34.833  39.159  1.00  0.00     0.020 A 
ATOM     88  C   UNL A   1      40.393  36.306  37.873  1.00  0.00     0.020 A 
ATOM     89  C   UNL A   1      39.569  36.074  38.975  1.00  0.00     0.054 A 
BRANCH  89  90
ATOM     90  S   UNL A   1      39.294  37.377  40.205  1.00  0.00     0.124 S 
ATOM     91  O   UNL A   1      38.462  38.321  39.465  1.00  0.00    -0.237 OA
ATOM     92  O   UNL A   1      38.622  36.661  41.287  1.00  0.00    -0.237 OA
ATOM     93  O   UNL A   1      40.641  37.845  40.520  1.00  0.00    -0.744 OA
ENDBRANCH  89  90
ENDBRANCH  63  84
ENDBRANCH  37  38
ENDBRANCH  29  32
ENDBRANCH  27  28
ENDBRANCH  26  27
ENDBRANCH   1  26
TORSDOF 18
ENDMDL
MODEL 2
REMARK VINA RESULT:     -11.9      4.362     10.295
REMARK SMILES C[C@@H]1[C@H](C)CCC[C@@H]1NC(=O)COc1csc(C(=O)NCCCCNC(=O)c2ccc(-c3c4nc(c(-c5ccc(S(=O)(=O)[O-])cc5)c5ccc([nH]5)c(-c5ccc(S(=O)(=O)[O-])cc5)c5nc(c(-c6ccc(S(=O)(=O)[O-])cc6)c6ccc3[nH]6)C=C5)C=C4)cc2)c1
REMARK SMILES IDX 22 1 21 2 20 3 18 4 19 5 17 7 14 8 15 9 88 10 16 11 13 12
REMARK SMILES IDX 12 13 10 14 9 15 11 17 8 18 1 19 2 20 3 21 4 22 5 23 7 24
REMARK SMILES IDX 6 25 23 26 24 27 25 28 26 29 27 31 28 32 29 33 87 34 30 35
REMARK SMILES IDX 86 36 31 37 32 38 33 39 80 40 34 41 85 42 79 43 81 44 35 45
REMARK SMILES IDX 84 46 78 47 77 48 36 50 66 51 47 52 65 53 48 54 51 55 64 56
REMARK SMILES IDX 82 57 49 58 50 59 63 61 83 62 52 63 37 64 38 65 46 66 39 67
REMARK SMILES IDX 45 68 40 69 41 70 42 71 43 72 44 73 67 74 68 75 76 76 69 77
REMARK SMILES IDX 75 78 70 79 71 80 72 81 73 82 74 83 53 84 54 85 62 86 55 87
REMARK SMILES IDX 61 88 56 89 57 90 58 91 59 92 60 93
REMARK H PARENT 20 6 9 16 25 30 81 49 51 60
REMARK Flexibility Score: inf
ROOT
ATOM      1  C   UNL A   1      33.175  29.002  24.495  1.00  0.00     0.023 C 
ENDROOT
BRANCH   1   2
ATOM      2  C   UNL A   1      33.303  28.866  22.977  1.00  0.00     0.116 C 
BRANCH   2   3
ATOM      3  N   UNL A   1      32.116  29.361  22.310  1.00  0.00    -0.351 N 
ATOM      4  C   UNL A   1      30.850  28.837  22.187  1.00  0.00     0.261 C 
ATOM      5  O   UNL A   1      30.040  29.551  21.591  1.00  0.00    -0.268 OA
ATOM      6  H   UNL A   1      32.237  30.230  21.864  1.00  0.00     0.163 HD
BRANCH   4   7
ATOM      7  C   UNL A   1      30.506  27.539  22.755  1.00  0.00     0.096 A 
ATOM      8  C   UNL A   1      30.491  25.328  23.500  1.00  0.00     0.131 A 
ATOM      9  C   UNL A   1      29.335  25.785  24.079  1.00  0.00     0.112 A 
ATOM     10  C   UNL A   1      31.131  26.308  22.705  1.00  0.00     0.072 A 
ATOM     11  S   UNL A   1      29.041  27.418  23.665  1.00  0.00    -0.135 S 
BRANCH   8  12
ATOM     12  O   UNL A   1      31.044  24.116  23.715  1.00  0.00    -0.483 OA
BRANCH  12  13
ATOM     13  C   UNL A   1      31.033  23.715  25.073  1.00  0.00     0.329 C 
BRANCH  13  14
ATOM     14  C   UNL A   1      32.045  24.420  25.967  1.00  0.00     0.258 C 
ATOM     15  N   UNL A   1      33.369  24.105  25.923  1.00  0.00    -0.350 N 
ATOM     16  H   UNL A   1      33.899  24.503  26.652  1.00  0.00     0.163 HD
ATOM     17  O   UNL A   1      31.681  25.253  26.801  1.00  0.00    -0.271 OA
BRANCH  15  18
ATOM     18  C   UNL A   1      34.159  23.284  24.994  1.00  0.00     0.085 C 
ATOM     19  C   UNL A   1      36.332  23.780  26.273  1.00  0.00     0.010 C 
ATOM     20  C   UNL A   1      35.482  22.711  25.573  1.00  0.00     0.011 C 
ATOM     21  C   UNL A   1      36.249  21.933  24.469  1.00  0.00    -0.009 C 
ATOM     22  C   UNL A   1      37.532  21.280  24.986  1.00  0.00     0.008 C 
ATOM     23  C   UNL A   1      36.538  22.811  23.247  1.00  0.00     0.004 C 
ATOM     24  C   UNL A   1      34.430  24.126  23.730  1.00  0.00     0.025 C 
ATOM     25  C   UNL A   1      35.252  23.394  22.676  1.00  0.00     0.002 C 
ENDBRANCH  15  18
ENDBRANCH  13  14
ENDBRANCH  12  13
ENDBRANCH   8  12
ENDBRANCH   4   7
ENDBRANCH   2   3
ENDBRANCH   1   2
BRANCH   1  26
ATOM     26  C   UNL A   1      33.684  27.783  25.273  1.00  0.00     0.023 C 
BRANCH  26  27
ATOM     27  C   UNL A   1      34.047  28.055  26.731  1.00  0.00     0.116 C 
BRANCH  27  28
ATOM     28  N   UNL A   1      33.629  29.371  27.187  1.00  0.00    -0.352 N 
ATOM     29  C   UNL A   1      34.345  30.303  27.897  1.00  0.00     0.251 C 
ATOM     30  H   UNL A   1      32.709  29.629  26.954  1.00  0.00     0.163 HD
ATOM     31  O   UNL A   1      33.786  31.314  28.310  1.00  0.00    -0.269 OA
BRANCH  29  32
ATOM     32  C   UNL A   1      35.774  30.062  28.194  1.00  0.00     0.039 A 
ATOM     33  C   UNL A   1      36.122  29.610  29.467  1.00  0.00     0.014 A 
ATOM     34  C   UNL A   1      36.762  30.270  27.227  1.00  0.00     0.014 A 
ATOM     35  C   UNL A   1      37.456  29.316  29.752  1.00  0.00     0.010 A 
ATOM     36  C   UNL A   1      38.079  29.899  27.489  1.00  0.00     0.010 A 
ATOM     37  C   UNL A   1      38.443  29.424  28.756  1.00  0.00    -0.014 A 
BRANCH  37  38
ATOM     38  C   UNL A   1      39.843  29.019  29.043  1.00  0.00     0.031 A 
ATOM     39  C   UNL A   1      40.797  29.969  29.719  1.00  0.00     0.074 A 
ATOM     40  C   UNL A   1      40.257  27.789  28.675  1.00  0.00     0.049 A 
ATOM     41  N   UNL A   1      42.026  29.752  30.113  1.00  0.00    -0.248 NA
ATOM     42  C   UNL A   1      40.327  31.341  29.965  1.00  0.00     0.031 C 
ATOM     43  C   UNL A   1      39.449  26.804  27.949  1.00  0.00     0.029 A 
ATOM     44  N   UNL A   1      41.455  27.149  28.870  1.00  0.00    -0.354 N 
ATOM     45  C   UNL A   1      42.478  30.958  30.639  1.00  0.00     0.074 A 
ATOM     46  C   UNL A   1      41.408  31.916  30.474  1.00  0.00     0.031 C 
ATOM     47  C   UNL A   1      40.154  25.672  27.808  1.00  0.00     0.029 A 
ATOM     48  C   UNL A   1      41.475  25.857  28.396  1.00  0.00     0.049 A 
ATOM     49  H   UNL A   1      42.227  27.573  29.309  1.00  0.00     0.167 HD
ATOM     50  C   UNL A   1      43.667  31.235  31.222  1.00  0.00     0.031 A 
ATOM     51  C   UNL A   1      42.446  24.923  28.437  1.00  0.00     0.031 A 
ATOM     52  C   UNL A   1      44.720  30.270  31.405  1.00  0.00     0.049 A 
ATOM     53  C   UNL A   1      43.746  25.256  29.117  1.00  0.00     0.074 A 
ATOM     54  C   UNL A   1      45.926  30.430  32.066  1.00  0.00     0.029 A 
ATOM     55  N   UNL A   1      44.701  28.972  30.919  1.00  0.00    -0.354 N 
ATOM     56  N   UNL A   1      44.105  26.368  29.714  1.00  0.00    -0.248 NA
ATOM     57  C   UNL A   1      44.767  24.199  29.146  1.00  0.00     0.031 C 
ATOM     58  C   UNL A   1      46.664  29.252  31.920  1.00  0.00     0.029 A 
ATOM     59  C   UNL A   1      45.889  28.333  31.232  1.00  0.00     0.049 A 
ATOM     60  H   UNL A   1      43.953  28.565  30.425  1.00  0.00     0.167 HD
ATOM     61  C   UNL A   1      45.383  26.133  30.212  1.00  0.00     0.074 A 
ATOM     62  C   UNL A   1      45.716  24.763  29.876  1.00  0.00     0.031 C 
ATOM     63  C   UNL A   1      46.210  26.973  30.882  1.00  0.00     0.031 A 
BRANCH  50  64
ATOM     64  C   UNL A   1      43.911  32.639  31.711  1.00  0.00    -0.014 A 
ATOM     65  C   UNL A   1      44.422  33.633  30.858  1.00  0.00     0.010 A 
ATOM     66  C   UNL A   1      43.531  32.992  33.020  1.00  0.00     0.010 A 
ATOM     67  C   UNL A   1      44.558  34.950  31.306  1.00  0.00     0.020 A 
ATOM     68  C   UNL A   1      43.640  34.312  33.464  1.00  0.00     0.020 A 
ATOM     69  C   UNL A   1      44.159  35.283  32.605  1.00  0.00     0.054 A 
BRANCH  69  70
ATOM     70  S   UNL A   1      44.277  37.015  33.134  1.00  0.00     0.124 S 
ATOM     71  O   UNL A   1      43.077  37.162  33.952  1.00  0.00    -0.237 OA
ATOM     72  O   UNL A   1      45.542  37.038  33.864  1.00  0.00    -0.237 OA
ATOM     73  O   UNL A   1      44.272  37.762  31.879  1.00  0.00    -0.744 OA
ENDBRANCH  69  70
ENDBRANCH  50  64
BRANCH  51  74
ATOM     74  C   UNL A   1      42.233  23.582  27.824  1.00  0.00    -0.014 A 
ATOM     75  C   UNL A   1      41.803  22.491  28.603  1.00  0.00     0.010 A 
ATOM     76  C   UNL A   1      42.501  23.378  26.458  1.00  0.00     0.010 A 
ATOM     77  C   UNL A   1      41.697  21.216  28.040  1.00  0.00     0.020 A 
ATOM     78  C   UNL A   1      42.359  22.112  25.882  1.00  0.00     0.020 A 
ATOM     79  C   UNL A   1      41.982  21.033  26.685  1.00  0.00     0.054 A 
BRANCH  79  80
ATOM     80  S   UNL A   1      41.839  19.371  25.973  1.00  0.00     0.124 S 
ATOM     81  O   UNL A   1      42.311  18.531  27.070  1.00  0.00    -0.237 OA
ATOM     82  O   UNL A   1      40.413  19.278  25.672  1.00  0.00    -0.237 OA
ATOM     83  O   UNL A   1      42.713  19.424  24.803  1.00  0.00    -0.744 OA
ENDBRANCH  79  80
ENDBRANCH  51  74
BRANCH  63  84
ATOM     84  C   UNL A   1      47.541  26.420  31.321  1.00  0.00    -0.014 A 
ATOM     85  C   UNL A   1      48.623  26.321  30.427  1.00  0.00     0.010 A 
ATOM     86  C   UNL A   1      47.712  25.994  32.651  1.00  0.00     0.010 A 
ATOM     87  C   UNL A   1      49.828  25.745  30.837  1.00  0.00     0.020 A 
ATOM     88  C   UNL A   1      48.928  25.454  33.075  1.00  0.00     0.020 A 
ATOM     89  C   UNL A   1      49.969  25.307  32.158  1.00  0.00     0.054 A 
BRANCH  89  90
ATOM     90  S   UNL A   1      51.538  24.554  32.665  1.00  0.00     0.124 S 
ATOM     91  O   UNL A   1      51.591  24.889  34.084  1.00  0.00    -0.237 OA
ATOM     92  O   UNL A   1      51.331  23.141  32.359  1.00  0.00    -0.237 OA
ATOM     93  O   UNL A   1      52.530  25.227  31.828  1.00  0.00    -0.744 OA
ENDBRANCH  89  90
ENDBRANCH  63  84
ENDBRANCH  37  38
ENDBRANCH  29  32
ENDBRANCH  27  28
ENDBRANCH  26  27
ENDBRANCH   1  26
TORSDOF 18
ENDMDL
MODEL 3
REMARK VINA RESULT:     -11.6      4.757     11.084
REMARK SMILES C[C@@H]1[C@H](C)CCC[C@@H]1NC(=O)COc1csc(C(=O)NCCCCNC(=O)c2ccc(-c3c4nc(c(-c5ccc(S(=O)(=O)[O-])cc5)c5ccc([nH]5)c(-c5ccc(S(=O)(=O)[O-])cc5)c5nc(c(-c6ccc(S(=O)(=O)[O-])cc6)c6ccc3[nH]6)C=C5)C=C4)cc2)c1
REMARK SMILES IDX 22 1 21 2 20 3 18 4 19 5 17 7 14 8 15 9 88 10 16 11 13 12
REMARK SMILES IDX 12 13 10 14 9 15 11 17 8 18 1 19 2 20 3 21 4 22 5 23 7 24
REMARK SMILES IDX 6 25 23 26 24 27 25 28 26 29 27 31 28 32 29 33 87 34 30 35
REMARK SMILES IDX 86 36 31 37 32 38 33 39 80 40 34 41 85 42 79 43 81 44 35 45
REMARK SMILES IDX 84 46 78 47 77 48 36 50 66 51 47 52 65 53 48 54 51 55 64 56
REMARK SMILES IDX 82 57 49 58 50 59 63 61 83 62 52 63 37 64 38 65 46 66 39 67
REMARK SMILES IDX 45 68 40 69 41 70 42 71 43 72 44 73 67 74 68 75 76 76 69 77
REMARK SMILES IDX 75 78 70 79 71 80 72 81 73 82 74 83 53 84 54 85 62 86 55 87
REMARK SMILES IDX 61 88 56 89 57 90 58 91 59 92 60 93
REMARK H PARENT 20 6 9 16 25 30 81 49 51 60
REMARK Flexibility Score: inf
ROOT
ATOM      1  C   UNL A   1      42.894  23.189  27.414  1.00  0.00     0.023 C 
ENDROOT
BRANCH   1   2
ATOM      2  C   UNL A   1      44.412  23.034  27.311  1.00  0.00     0.116 C 
BRANCH   2   3
ATOM      3  N   UNL A   1      44.836  22.983  25.926  1.00  0.00    -0.351 N 
ATOM      4  C   UNL A   1      45.314  23.957  25.079  1.00  0.00     0.261 C 
ATOM      5  O   UNL A   1      45.642  23.563  23.958  1.00  0.00    -0.268 OA
ATOM      6  H   UNL A   1      44.771  22.091  25.518  1.00  0.00     0.163 HD
BRANCH   4   7
ATOM      7  C   UNL A   1      45.439  25.344  25.510  1.00  0.00     0.096 A 
ATOM      8  C   UNL A   1      45.094  27.595  26.017  1.00  0.00     0.131 A 
ATOM      9  C   UNL A   1      46.295  27.387  26.647  1.00  0.00     0.112 A 
ATOM     10  C   UNL A   1      44.631  26.450  25.327  1.00  0.00     0.072 A 
ATOM     11  S   UNL A   1      46.848  25.786  26.409  1.00  0.00    -0.135 S 
BRANCH   8  12
ATOM     12  O   UNL A   1      44.356  28.721  26.101  1.00  0.00    -0.483 OA
BRANCH  12  13
ATOM     13  C   UNL A   1      44.897  29.696  26.973  1.00  0.00     0.329 C 
BRANCH  13  14
ATOM     14  C   UNL A   1      45.656  30.828  26.292  1.00  0.00     0.258 C 
ATOM     15  N   UNL A   1      45.551  32.114  26.728  1.00  0.00    -0.350 N 
ATOM     16  H   UNL A   1      45.951  32.776  26.119  1.00  0.00     0.163 HD
ATOM     17  O   UNL A   1      46.340  30.618  25.287  1.00  0.00    -0.271 OA
BRANCH  15  18
ATOM     18  C   UNL A   1      44.951  32.702  27.936  1.00  0.00     0.085 C 
ATOM     19  C   UNL A   1      43.883  34.605  26.579  1.00  0.00     0.010 C 
ATOM     20  C   UNL A   1      43.686  33.570  27.695  1.00  0.00     0.011 C 
ATOM     21  C   UNL A   1      43.205  34.188  29.036  1.00  0.00    -0.009 C 
ATOM     22  C   UNL A   1      41.919  35.002  28.886  1.00  0.00     0.008 C 
ATOM     23  C   UNL A   1      44.303  35.021  29.707  1.00  0.00     0.004 C 
ATOM     24  C   UNL A   1      46.046  33.513  28.660  1.00  0.00     0.025 C 
ATOM     25  C   UNL A   1      45.557  34.188  29.937  1.00  0.00     0.002 C 
ENDBRANCH  15  18
ENDBRANCH  13  14
ENDBRANCH  12  13
ENDBRANCH   8  12
ENDBRANCH   4   7
ENDBRANCH   2   3
ENDBRANCH   1   2
BRANCH   1  26
ATOM     26  C   UNL A   1      42.108  22.175  26.575  1.00  0.00     0.023 C 
BRANCH  26  27
ATOM     27  C   UNL A   1      40.808  21.685  27.208  1.00  0.00     0.116 C 
BRANCH  27  28
ATOM     28  N   UNL A   1      39.656  21.835  26.335  1.00  0.00    -0.352 N 
ATOM     29  C   UNL A   1      38.875  22.946  26.124  1.00  0.00     0.251 C 
ATOM     30  H   UNL A   1      39.402  21.034  25.824  1.00  0.00     0.163 HD
ATOM     31  O   UNL A   1      37.858  22.853  25.444  1.00  0.00    -0.269 OA
BRANCH  29  32
ATOM     32  C   UNL A   1      39.243  24.233  26.752  1.00  0.00     0.039 A 
ATOM     33  C   UNL A   1      38.857  24.464  28.072  1.00  0.00     0.014 A 
ATOM     34  C   UNL A   1      39.970  25.201  26.052  1.00  0.00     0.014 A 
ATOM     35  C   UNL A   1      39.246  25.644  28.706  1.00  0.00     0.010 A 
ATOM     36  C   UNL A   1      40.425  26.340  26.712  1.00  0.00     0.010 A 
ATOM     37  C   UNL A   1      40.063  26.578  28.045  1.00  0.00    -0.014 A 
BRANCH  37  38
ATOM     38  C   UNL A   1      40.549  27.787  28.760  1.00  0.00     0.031 A 
ATOM     39  C   UNL A   1      39.632  28.955  29.012  1.00  0.00     0.074 A 
ATOM     40  C   UNL A   1      41.833  27.832  29.170  1.00  0.00     0.049 A 
ATOM     41  N   UNL A   1      39.869  30.051  29.686  1.00  0.00    -0.248 NA
ATOM     42  C   UNL A   1      38.287  28.902  28.415  1.00  0.00     0.031 C 
ATOM     43  C   UNL A   1      42.839  26.794  28.922  1.00  0.00     0.029 A 
ATOM     44  N   UNL A   1      42.512  28.781  29.892  1.00  0.00    -0.354 N 
ATOM     45  C   UNL A   1      38.714  30.820  29.584  1.00  0.00     0.074 A 
ATOM     46  C   UNL A   1      37.792  30.087  28.746  1.00  0.00     0.031 C 
ATOM     47  C   UNL A   1      43.987  27.139  29.526  1.00  0.00     0.029 A 
ATOM     48  C   UNL A   1      43.815  28.435  30.171  1.00  0.00     0.049 A 
ATOM     49  H   UNL A   1      42.106  29.628  30.184  1.00  0.00     0.167 HD
ATOM     50  C   UNL A   1      38.441  32.018  30.152  1.00  0.00     0.031 A 
ATOM     51  C   UNL A   1      44.763  29.086  30.875  1.00  0.00     0.031 A 
ATOM     52  C   UNL A   1      39.355  32.733  31.005  1.00  0.00     0.049 A 
ATOM     53  C   UNL A   1      44.417  30.403  31.515  1.00  0.00     0.074 A 
ATOM     54  C   UNL A   1      39.137  33.909  31.701  1.00  0.00     0.029 A 
ATOM     55  N   UNL A   1      40.659  32.348  31.270  1.00  0.00    -0.354 N 
ATOM     56  N   UNL A   1      43.278  31.053  31.504  1.00  0.00    -0.248 NA
ATOM     57  C   UNL A   1      45.482  31.065  32.281  1.00  0.00     0.031 C 
ATOM     58  C   UNL A   1      40.331  34.272  32.332  1.00  0.00     0.029 A 
ATOM     59  C   UNL A   1      41.271  33.284  32.087  1.00  0.00     0.049 A 
ATOM     60  H   UNL A   1      41.089  31.531  30.927  1.00  0.00     0.167 HD
ATOM     61  C   UNL A   1      43.483  32.187  32.284  1.00  0.00     0.074 A 
ATOM     62  C   UNL A   1      44.843  32.112  32.777  1.00  0.00     0.031 C 
ATOM     63  C   UNL A   1      42.628  33.201  32.563  1.00  0.00     0.031 A 
BRANCH  50  64
ATOM     64  C   UNL A   1      37.100  32.648  29.877  1.00  0.00    -0.014 A 
ATOM     65  C   UNL A   1      36.086  32.666  30.851  1.00  0.00     0.010 A 
ATOM     66  C   UNL A   1      36.887  33.318  28.658  1.00  0.00     0.010 A 
ATOM     67  C   UNL A   1      34.882  33.332  30.608  1.00  0.00     0.020 A 
ATOM     68  C   UNL A   1      35.696  34.009  28.420  1.00  0.00     0.020 A 
ATOM     69  C   UNL A   1      34.697  34.005  29.396  1.00  0.00     0.054 A 
BRANCH  69  70
ATOM     70  S   UNL A   1      33.153  34.924  29.139  1.00  0.00     0.124 S 
ATOM     71  O   UNL A   1      32.488  34.116  28.120  1.00  0.00    -0.237 OA
ATOM     72  O   UNL A   1      32.541  34.893  30.464  1.00  0.00    -0.237 OA
ATOM     73  O   UNL A   1      33.602  36.241  28.693  1.00  0.00    -0.744 OA
ENDBRANCH  69  70
ENDBRANCH  50  64
BRANCH  51  74
ATOM     74  C   UNL A   1      46.129  28.508  31.019  1.00  0.00    -0.014 A 
ATOM     75  C   UNL A   1      47.143  28.810  30.091  1.00  0.00     0.010 A 
ATOM     76  C   UNL A   1      46.413  27.616  32.069  1.00  0.00     0.010 A 
ATOM     77  C   UNL A   1      48.393  28.191  30.179  1.00  0.00     0.020 A 
ATOM     78  C   UNL A   1      47.673  27.023  32.183  1.00  0.00     0.020 A 
ATOM     79  C   UNL A   1      48.648  27.296  31.221  1.00  0.00     0.054 A 
BRANCH  79  80
ATOM     80  S   UNL A   1      50.276  26.502  31.318  1.00  0.00     0.124 S 
ATOM     81  O   UNL A   1      51.139  27.506  30.705  1.00  0.00    -0.237 OA
ATOM     82  O   UNL A   1      50.448  26.310  32.756  1.00  0.00    -0.237 OA
ATOM     83  O   UNL A   1      50.102  25.271  30.550  1.00  0.00    -0.744 OA
ENDBRANCH  79  80
ENDBRANCH  51  74
BRANCH  63  84
ATOM     84  C   UNL A   1      43.134  34.295  33.468  1.00  0.00    -0.014 A 
ATOM     85  C   UNL A   1      43.066  34.177  34.868  1.00  0.00     0.010 A 
ATOM     86  C   UNL A   1      43.690  35.459  32.907  1.00  0.00     0.010 A 
ATOM     87  C   UNL A   1      43.481  35.229  35.688  1.00  0.00     0.020 A 
ATOM     88  C   UNL A   1      44.142  36.497  33.723  1.00  0.00     0.020 A 
ATOM     89  C   UNL A   1      44.009  36.387  35.108  1.00  0.00     0.054 A 
BRANCH  89  90
ATOM     90  S   UNL A   1      44.533  37.743  36.190  1.00  0.00     0.124 S 
ATOM     91  O   UNL A   1      43.526  37.694  37.246  1.00  0.00    -0.237 OA
ATOM     92  O   UNL A   1      45.879  37.338  36.586  1.00  0.00    -0.237 OA
ATOM     93  O   UNL A   1      44.473  38.920  35.326  1.00  0.00    -0.744 OA
ENDBRANCH  89  90
ENDBRANCH  63  84
ENDBRANCH  37  38
ENDBRANCH  29  32
ENDBRANCH  27  28
ENDBRANCH  26  27
ENDBRANCH   1  26
TORSDOF 18
ENDMDL
