MODEL 1
REMARK VINA RESULT:     -10.3      0.000      0.000
REMARK SMILES CCCCCn1c(SCC(=O)NCCCCNC(=O)c2ccc(-c3c4nc(c(-c5ccc(S(=O)(=O)[O-])cc5)c5ccc([nH]5)c(-c5ccc(S(=O)(=O)[O-])cc5)c5nc(c(-c6ccc(S(=O)(=O)[O-])cc6)c6ccc3[nH]6)C=C5)C=C4)cc2)nc2ccccc2c1=O
REMARK SMILES IDX 13 1 12 2 10 3 11 4 9 6 8 7 7 8 6 9 87 10 80 11 86 12 88 13
REMARK SMILES IDX 81 14 85 15 82 16 84 17 83 18 5 19 4 20 3 21 2 22 1 23 14 24
REMARK SMILES IDX 15 25 16 26 17 27 18 28 19 30 20 31 21 32 79 33 22 34 78 35
REMARK SMILES IDX 23 36 24 37 25 38 72 39 26 40 77 41 71 42 73 43 27 44 76 45
REMARK SMILES IDX 70 46 69 47 28 49 58 50 39 51 57 52 40 53 43 54 56 55 74 56
REMARK SMILES IDX 41 57 42 58 55 60 75 61 44 62 29 63 30 64 38 65 31 66 37 67
REMARK SMILES IDX 32 68 33 69 34 70 35 71 36 72 59 73 60 74 68 75 61 76 67 77
REMARK SMILES IDX 62 78 63 79 64 80 65 81 66 82 45 83 46 84 54 85 47 86 53 87
REMARK SMILES IDX 48 88 49 89 50 90 51 91 52 92
REMARK H PARENT 12 5 17 29 73 48 43 59
REMARK Flexibility Score: inf
ROOT
ATOM      1  C   UNL A   1      34.653  31.403  27.426  1.00  0.00     0.116 C 
ENDROOT
BRANCH   1   2
ATOM      2  N   UNL A   1      33.484  30.624  27.791  1.00  0.00    -0.355 N 
ATOM      3  C   UNL A   1      32.731  29.785  27.027  1.00  0.00     0.230 C 
ATOM      4  O   UNL A   1      31.960  29.021  27.615  1.00  0.00    -0.274 OA
ATOM      5  H   UNL A   1      33.194  30.715  28.727  1.00  0.00     0.163 HD
BRANCH   3   6
ATOM      6  C   UNL A   1      32.883  29.698  25.521  1.00  0.00     0.178 C 
BRANCH   6   7
ATOM      7  S   UNL A   1      33.633  28.222  24.894  1.00  0.00    -0.078 SA
BRANCH   7   8
ATOM      8  C   UNL A   1      33.007  26.681  25.411  1.00  0.00     0.171 A 
ATOM      9  N   UNL A   1      31.688  26.277  25.572  1.00  0.00    -0.287 N 
ATOM     10  C   UNL A   1      31.417  25.044  26.184  1.00  0.00     0.262 A 
ATOM     11  N   UNL A   1      34.010  25.897  25.668  1.00  0.00    -0.224 NA
ATOM     12  C   UNL A   1      32.530  24.105  26.346  1.00  0.00     0.066 A 
ATOM     13  O   UNL A   1      30.314  24.700  26.605  1.00  0.00    -0.269 OA
ATOM     14  C   UNL A   1      33.798  24.586  26.077  1.00  0.00     0.079 A 
ATOM     15  C   UNL A   1      32.323  22.775  26.732  1.00  0.00     0.016 A 
ATOM     16  C   UNL A   1      34.888  23.725  26.216  1.00  0.00     0.029 A 
ATOM     17  C   UNL A   1      33.414  21.918  26.856  1.00  0.00     0.001 A 
ATOM     18  C   UNL A   1      34.700  22.395  26.603  1.00  0.00     0.002 A 
BRANCH   9  19
ATOM     19  C   UNL A   1      30.483  27.002  25.173  1.00  0.00     0.128 C 
BRANCH  19  20
ATOM     20  C   UNL A   1      30.033  26.647  23.745  1.00  0.00     0.022 C 
BRANCH  20  21
ATOM     21  C   UNL A   1      29.606  27.823  22.858  1.00  0.00     0.002 C 
BRANCH  21  22
ATOM     22  C   UNL A   1      30.359  29.139  23.089  1.00  0.00    -0.003 C 
ATOM     23  C   UNL A   1      29.484  30.273  23.597  1.00  0.00     0.004 C 
ENDBRANCH  21  22
ENDBRANCH  20  21
ENDBRANCH  19  20
ENDBRANCH   9  19
ENDBRANCH   7   8
ENDBRANCH   6   7
ENDBRANCH   3   6
ENDBRANCH   1   2
BRANCH   1  24
ATOM     24  C   UNL A   1      34.946  32.548  28.394  1.00  0.00     0.023 C 
BRANCH  24  25
ATOM     25  C   UNL A   1      36.395  33.027  28.435  1.00  0.00     0.023 C 
BRANCH  25  26
ATOM     26  C   UNL A   1      37.026  33.117  29.817  1.00  0.00     0.116 C 
BRANCH  26  27
ATOM     27  N   UNL A   1      36.358  32.309  30.827  1.00  0.00    -0.352 N 
ATOM     28  C   UNL A   1      36.677  31.047  31.283  1.00  0.00     0.251 C 
ATOM     29  H   UNL A   1      35.566  32.721  31.243  1.00  0.00     0.163 HD
ATOM     30  O   UNL A   1      35.964  30.490  32.103  1.00  0.00    -0.269 OA
BRANCH  28  31
ATOM     31  C   UNL A   1      37.859  30.356  30.721  1.00  0.00     0.039 A 
ATOM     32  C   UNL A   1      38.928  29.990  31.540  1.00  0.00     0.014 A 
ATOM     33  C   UNL A   1      37.924  30.145  29.341  1.00  0.00     0.014 A 
ATOM     34  C   UNL A   1      40.130  29.604  30.962  1.00  0.00     0.010 A 
ATOM     35  C   UNL A   1      39.106  29.666  28.770  1.00  0.00     0.010 A 
ATOM     36  C   UNL A   1      40.240  29.454  29.569  1.00  0.00    -0.014 A 
BRANCH  36  37
ATOM     37  C   UNL A   1      41.551  29.084  28.974  1.00  0.00     0.031 A 
ATOM     38  C   UNL A   1      42.691  30.067  28.946  1.00  0.00     0.074 A 
ATOM     39  C   UNL A   1      41.730  27.833  28.508  1.00  0.00     0.049 A 
ATOM     40  N   UNL A   1      43.914  29.890  28.510  1.00  0.00    -0.248 NA
ATOM     41  C   UNL A   1      42.435  31.420  29.465  1.00  0.00     0.031 C 
ATOM     42  C   UNL A   1      40.704  26.789  28.500  1.00  0.00     0.029 A 
ATOM     43  N   UNL A   1      42.839  27.217  27.984  1.00  0.00    -0.354 N 
ATOM     44  C   UNL A   1      44.560  31.110  28.675  1.00  0.00     0.074 A 
ATOM     45  C   UNL A   1      43.590  32.028  29.230  1.00  0.00     0.031 C 
ATOM     46  C   UNL A   1      41.248  25.645  28.064  1.00  0.00     0.029 A 
ATOM     47  C   UNL A   1      42.639  25.888  27.691  1.00  0.00     0.049 A 
ATOM     48  H   UNL A   1      43.694  27.681  27.835  1.00  0.00     0.167 HD
ATOM     49  C   UNL A   1      45.845  31.431  28.395  1.00  0.00     0.031 A 
ATOM     50  C   UNL A   1      43.471  24.963  27.174  1.00  0.00     0.031 A 
ATOM     51  C   UNL A   1      46.811  30.502  27.869  1.00  0.00     0.049 A 
ATOM     52  C   UNL A   1      44.883  25.346  26.845  1.00  0.00     0.074 A 
ATOM     53  C   UNL A   1      48.153  30.723  27.609  1.00  0.00     0.029 A 
ATOM     54  N   UNL A   1      46.547  29.187  27.517  1.00  0.00    -0.354 N 
ATOM     55  N   UNL A   1      45.481  26.498  27.034  1.00  0.00    -0.248 NA
ATOM     56  C   UNL A   1      45.732  24.316  26.235  1.00  0.00     0.031 C 
ATOM     57  C   UNL A   1      48.682  29.566  27.033  1.00  0.00     0.029 A 
ATOM     58  C   UNL A   1      47.691  28.597  27.003  1.00  0.00     0.049 A 
ATOM     59  H   UNL A   1      45.677  28.739  27.618  1.00  0.00     0.167 HD
ATOM     60  C   UNL A   1      46.779  26.332  26.566  1.00  0.00     0.074 A 
ATOM     61  C   UNL A   1      46.885  24.963  26.105  1.00  0.00     0.031 C 
ATOM     62  C   UNL A   1      47.786  27.239  26.526  1.00  0.00     0.031 A 
BRANCH  49  63
ATOM     63  C   UNL A   1      46.296  32.850  28.631  1.00  0.00    -0.014 A 
ATOM     64  C   UNL A   1      46.779  33.219  29.902  1.00  0.00     0.010 A 
ATOM     65  C   UNL A   1      46.152  33.841  27.644  1.00  0.00     0.010 A 
ATOM     66  C   UNL A   1      47.092  34.551  30.186  1.00  0.00     0.020 A 
ATOM     67  C   UNL A   1      46.491  35.171  27.916  1.00  0.00     0.020 A 
ATOM     68  C   UNL A   1      46.941  35.520  29.192  1.00  0.00     0.054 A 
BRANCH  68  69
ATOM     69  S   UNL A   1      47.356  37.244  29.577  1.00  0.00     0.124 S 
ATOM     70  O   UNL A   1      46.384  37.982  28.778  1.00  0.00    -0.237 OA
ATOM     71  O   UNL A   1      47.163  37.307  31.024  1.00  0.00    -0.237 OA
ATOM     72  O   UNL A   1      48.746  37.363  29.141  1.00  0.00    -0.744 OA
ENDBRANCH  68  69
ENDBRANCH  49  63
BRANCH  50  73
ATOM     73  C   UNL A   1      42.956  23.580  26.981  1.00  0.00    -0.014 A 
ATOM     74  C   UNL A   1      42.957  22.669  28.055  1.00  0.00     0.010 A 
ATOM     75  C   UNL A   1      42.627  23.124  25.694  1.00  0.00     0.010 A 
ATOM     76  C   UNL A   1      42.730  21.310  27.829  1.00  0.00     0.020 A 
ATOM     77  C   UNL A   1      42.371  21.768  25.469  1.00  0.00     0.020 A 
ATOM     78  C   UNL A   1      42.467  20.865  26.531  1.00  0.00     0.054 A 
BRANCH  78  79
ATOM     79  S   UNL A   1      42.308  19.081  26.239  1.00  0.00     0.124 S 
ATOM     80  O   UNL A   1      43.383  18.841  25.280  1.00  0.00    -0.237 OA
ATOM     81  O   UNL A   1      42.512  18.519  27.571  1.00  0.00    -0.237 OA
ATOM     82  O   UNL A   1      40.955  18.941  25.707  1.00  0.00    -0.744 OA
ENDBRANCH  78  79
ENDBRANCH  50  73
BRANCH  62  83
ATOM     83  C   UNL A   1      49.106  26.809  25.942  1.00  0.00    -0.014 A 
ATOM     84  C   UNL A   1      50.116  26.314  26.789  1.00  0.00     0.010 A 
ATOM     85  C   UNL A   1      49.398  27.032  24.586  1.00  0.00     0.010 A 
ATOM     86  C   UNL A   1      51.406  26.091  26.301  1.00  0.00     0.020 A 
ATOM     87  C   UNL A   1      50.681  26.782  24.087  1.00  0.00     0.020 A 
ATOM     88  C   UNL A   1      51.683  26.341  24.955  1.00  0.00     0.054 A 
BRANCH  88  89
ATOM     89  S   UNL A   1      53.375  26.092  24.349  1.00  0.00     0.124 S 
ATOM     90  O   UNL A   1      54.150  26.950  25.241  1.00  0.00    -0.237 OA
ATOM     91  O   UNL A   1      53.572  24.655  24.529  1.00  0.00    -0.237 OA
ATOM     92  O   UNL A   1      53.309  26.534  22.958  1.00  0.00    -0.744 OA
ENDBRANCH  88  89
ENDBRANCH  62  83
ENDBRANCH  36  37
ENDBRANCH  28  31
ENDBRANCH  26  27
ENDBRANCH  25  26
ENDBRANCH  24  25
ENDBRANCH   1  24
TORSDOF 20
ENDMDL
MODEL 2
REMARK VINA RESULT:      -9.7      6.049     10.205
REMARK SMILES CCCCCn1c(SCC(=O)NCCCCNC(=O)c2ccc(-c3c4nc(c(-c5ccc(S(=O)(=O)[O-])cc5)c5ccc([nH]5)c(-c5ccc(S(=O)(=O)[O-])cc5)c5nc(c(-c6ccc(S(=O)(=O)[O-])cc6)c6ccc3[nH]6)C=C5)C=C4)cc2)nc2ccccc2c1=O
REMARK SMILES IDX 13 1 12 2 10 3 11 4 9 6 8 7 7 8 6 9 87 10 80 11 86 12 88 13
REMARK SMILES IDX 81 14 85 15 82 16 84 17 83 18 5 19 4 20 3 21 2 22 1 23 14 24
REMARK SMILES IDX 15 25 16 26 17 27 18 28 19 30 20 31 21 32 79 33 22 34 78 35
REMARK SMILES IDX 23 36 24 37 25 38 72 39 26 40 77 41 71 42 73 43 27 44 76 45
REMARK SMILES IDX 70 46 69 47 28 49 58 50 39 51 57 52 40 53 43 54 56 55 74 56
REMARK SMILES IDX 41 57 42 58 55 60 75 61 44 62 29 63 30 64 38 65 31 66 37 67
REMARK SMILES IDX 32 68 33 69 34 70 35 71 36 72 59 73 60 74 68 75 61 76 67 77
REMARK SMILES IDX 62 78 63 79 64 80 65 81 66 82 45 83 46 84 54 85 47 86 53 87
REMARK SMILES IDX 48 88 49 89 50 90 51 91 52 92
REMARK H PARENT 12 5 17 29 73 48 43 59
REMARK Flexibility Score: inf
ROOT
ATOM      1  C   UNL A   1      34.261  31.217  27.482  1.00  0.00     0.116 C 
ENDROOT
BRANCH   1   2
ATOM      2  N   UNL A   1      32.936  30.691  27.212  1.00  0.00    -0.355 N 
ATOM      3  C   UNL A   1      32.516  29.398  27.142  1.00  0.00     0.230 C 
ATOM      4  O   UNL A   1      31.298  29.195  27.177  1.00  0.00    -0.274 OA
ATOM      5  H   UNL A   1      32.239  31.369  27.057  1.00  0.00     0.163 HD
BRANCH   3   6
ATOM      6  C   UNL A   1      33.480  28.229  27.122  1.00  0.00     0.178 C 
BRANCH   6   7
ATOM      7  S   UNL A   1      33.709  27.430  25.559  1.00  0.00    -0.078 SA
BRANCH   7   8
ATOM      8  C   UNL A   1      33.246  25.757  25.399  1.00  0.00     0.171 A 
ATOM      9  N   UNL A   1      31.978  25.193  25.389  1.00  0.00    -0.287 N 
ATOM     10  C   UNL A   1      31.846  23.797  25.440  1.00  0.00     0.262 A 
ATOM     11  N   UNL A   1      34.326  25.042  25.303  1.00  0.00    -0.224 NA
ATOM     12  C   UNL A   1      33.044  22.991  25.193  1.00  0.00     0.066 A 
ATOM     13  O   UNL A   1      30.799  23.203  25.690  1.00  0.00    -0.269 OA
ATOM     14  C   UNL A   1      34.251  23.664  25.138  1.00  0.00     0.079 A 
ATOM     15  C   UNL A   1      32.974  21.606  24.999  1.00  0.00     0.016 A 
ATOM     16  C   UNL A   1      35.418  22.935  24.902  1.00  0.00     0.029 A 
ATOM     17  C   UNL A   1      34.142  20.887  24.751  1.00  0.00     0.001 A 
ATOM     18  C   UNL A   1      35.366  21.552  24.708  1.00  0.00     0.002 A 
BRANCH   9  19
ATOM     19  C   UNL A   1      30.696  25.893  25.332  1.00  0.00     0.128 C 
BRANCH  19  20
ATOM     20  C   UNL A   1      30.306  26.284  23.895  1.00  0.00     0.022 C 
BRANCH  20  21
ATOM     21  C   UNL A   1      28.944  26.970  23.727  1.00  0.00     0.002 C 
BRANCH  21  22
ATOM     22  C   UNL A   1      28.967  28.333  23.025  1.00  0.00    -0.003 C 
ATOM     23  C   UNL A   1      27.609  29.013  22.947  1.00  0.00     0.004 C 
ENDBRANCH  21  22
ENDBRANCH  20  21
ENDBRANCH  19  20
ENDBRANCH   9  19
ENDBRANCH   7   8
ENDBRANCH   6   7
ENDBRANCH   3   6
ENDBRANCH   1   2
BRANCH   1  24
ATOM     24  C   UNL A   1      34.265  32.372  28.482  1.00  0.00     0.023 C 
BRANCH  24  25
ATOM     25  C   UNL A   1      34.306  33.773  27.876  1.00  0.00     0.023 C 
BRANCH  25  26
ATOM     26  C   UNL A   1      34.566  34.912  28.851  1.00  0.00     0.116 C 
BRANCH  26  27
ATOM     27  N   UNL A   1      33.437  35.221  29.716  1.00  0.00    -0.352 N 
ATOM     28  C   UNL A   1      33.305  35.034  31.075  1.00  0.00     0.251 C 
ATOM     29  H   UNL A   1      32.656  35.619  29.267  1.00  0.00     0.163 HD
ATOM     30  O   UNL A   1      32.253  35.301  31.635  1.00  0.00    -0.269 OA
BRANCH  28  31
ATOM     31  C   UNL A   1      34.434  34.451  31.834  1.00  0.00     0.039 A 
ATOM     32  C   UNL A   1      35.511  35.243  32.232  1.00  0.00     0.014 A 
ATOM     33  C   UNL A   1      34.443  33.075  32.080  1.00  0.00     0.014 A 
ATOM     34  C   UNL A   1      36.675  34.636  32.688  1.00  0.00     0.010 A 
ATOM     35  C   UNL A   1      35.582  32.478  32.627  1.00  0.00     0.010 A 
ATOM     36  C   UNL A   1      36.730  33.245  32.875  1.00  0.00    -0.014 A 
BRANCH  36  37
ATOM     37  C   UNL A   1      38.002  32.617  33.320  1.00  0.00     0.031 A 
ATOM     38  C   UNL A   1      38.843  31.814  32.364  1.00  0.00     0.074 A 
ATOM     39  C   UNL A   1      38.428  32.822  34.581  1.00  0.00     0.049 A 
ATOM     40  N   UNL A   1      40.002  31.242  32.575  1.00  0.00    -0.248 NA
ATOM     41  C   UNL A   1      38.324  31.620  31.000  1.00  0.00     0.031 C 
ATOM     42  C   UNL A   1      37.708  33.598  35.592  1.00  0.00     0.029 A 
ATOM     43  N   UNL A   1      39.578  32.428  35.219  1.00  0.00    -0.354 N 
ATOM     44  C   UNL A   1      40.335  30.600  31.388  1.00  0.00     0.074 A 
ATOM     45  C   UNL A   1      39.247  30.833  30.464  1.00  0.00     0.031 C 
ATOM     46  C   UNL A   1      38.460  33.684  36.696  1.00  0.00     0.029 A 
ATOM     47  C   UNL A   1      39.683  32.908  36.503  1.00  0.00     0.049 A 
ATOM     48  H   UNL A   1      40.261  31.858  34.797  1.00  0.00     0.167 HD
ATOM     49  C   UNL A   1      41.449  29.889  31.094  1.00  0.00     0.031 A 
ATOM     50  C   UNL A   1      40.646  32.745  37.431  1.00  0.00     0.031 A 
ATOM     51  C   UNL A   1      42.541  29.686  32.012  1.00  0.00     0.049 A 
ATOM     52  C   UNL A   1      41.860  31.931  37.096  1.00  0.00     0.074 A 
ATOM     53  C   UNL A   1      43.737  29.028  31.781  1.00  0.00     0.029 A 
ATOM     54  N   UNL A   1      42.573  30.127  33.326  1.00  0.00    -0.354 N 
ATOM     55  N   UNL A   1      42.167  31.355  35.958  1.00  0.00    -0.248 NA
ATOM     56  C   UNL A   1      42.853  31.739  38.159  1.00  0.00     0.031 C 
ATOM     57  C   UNL A   1      44.460  29.008  32.976  1.00  0.00     0.029 A 
ATOM     58  C   UNL A   1      43.751  29.719  33.931  1.00  0.00     0.049 A 
ATOM     59  H   UNL A   1      41.866  30.653  33.763  1.00  0.00     0.167 HD
ATOM     60  C   UNL A   1      43.392  30.732  36.167  1.00  0.00     0.074 A 
ATOM     61  C   UNL A   1      43.778  31.019  37.533  1.00  0.00     0.031 C 
ATOM     62  C   UNL A   1      44.122  29.990  35.300  1.00  0.00     0.031 A 
BRANCH  49  63
ATOM     63  C   UNL A   1      41.554  29.252  29.731  1.00  0.00    -0.014 A 
ATOM     64  C   UNL A   1      41.211  27.896  29.574  1.00  0.00     0.010 A 
ATOM     65  C   UNL A   1      42.083  29.952  28.632  1.00  0.00     0.010 A 
ATOM     66  C   UNL A   1      41.410  27.247  28.353  1.00  0.00     0.020 A 
ATOM     67  C   UNL A   1      42.257  29.313  27.399  1.00  0.00     0.020 A 
ATOM     68  C   UNL A   1      41.938  27.959  27.274  1.00  0.00     0.054 A 
BRANCH  68  69
ATOM     69  S   UNL A   1      42.185  27.102  25.694  1.00  0.00     0.124 S 
ATOM     70  O   UNL A   1      42.355  28.213  24.763  1.00  0.00    -0.237 OA
ATOM     71  O   UNL A   1      43.381  26.300  25.946  1.00  0.00    -0.237 OA
ATOM     72  O   UNL A   1      40.955  26.330  25.531  1.00  0.00    -0.744 OA
ENDBRANCH  68  69
ENDBRANCH  49  63
BRANCH  50  73
ATOM     73  C   UNL A   1      40.476  33.415  38.750  1.00  0.00    -0.014 A 
ATOM     74  C   UNL A   1      39.640  32.845  39.729  1.00  0.00     0.010 A 
ATOM     75  C   UNL A   1      41.007  34.698  38.962  1.00  0.00     0.010 A 
ATOM     76  C   UNL A   1      39.263  33.583  40.853  1.00  0.00     0.020 A 
ATOM     77  C   UNL A   1      40.655  35.428  40.101  1.00  0.00     0.020 A 
ATOM     78  C   UNL A   1      39.752  34.882  41.016  1.00  0.00     0.054 A 
BRANCH  78  79
ATOM     79  S   UNL A   1      39.145  35.870  42.412  1.00  0.00     0.124 S 
ATOM     80  O   UNL A   1      39.296  37.230  41.900  1.00  0.00    -0.237 OA
ATOM     81  O   UNL A   1      37.771  35.400  42.563  1.00  0.00    -0.237 OA
ATOM     82  O   UNL A   1      40.047  35.510  43.503  1.00  0.00    -0.744 OA
ENDBRANCH  78  79
ENDBRANCH  50  73
BRANCH  62  83
ATOM     83  C   UNL A   1      45.420  29.400  35.786  1.00  0.00    -0.014 A 
ATOM     84  C   UNL A   1      46.625  30.095  35.576  1.00  0.00     0.010 A 
ATOM     85  C   UNL A   1      45.462  28.099  36.316  1.00  0.00     0.010 A 
ATOM     86  C   UNL A   1      47.853  29.484  35.845  1.00  0.00     0.020 A 
ATOM     87  C   UNL A   1      46.688  27.495  36.614  1.00  0.00     0.020 A 
ATOM     88  C   UNL A   1      47.876  28.182  36.349  1.00  0.00     0.054 A 
BRANCH  88  89
ATOM     89  S   UNL A   1      49.479  27.387  36.647  1.00  0.00     0.124 S 
ATOM     90  O   UNL A   1      50.314  27.981  35.607  1.00  0.00    -0.237 OA
ATOM     91  O   UNL A   1      49.791  27.795  38.015  1.00  0.00    -0.237 OA
ATOM     92  O   UNL A   1      49.192  25.964  36.481  1.00  0.00    -0.744 OA
ENDBRANCH  88  89
ENDBRANCH  62  83
ENDBRANCH  36  37
ENDBRANCH  28  31
ENDBRANCH  26  27
ENDBRANCH  25  26
ENDBRANCH  24  25
ENDBRANCH   1  24
TORSDOF 20
ENDMDL
MODEL 3
REMARK VINA RESULT:      -9.6      5.954      8.108
REMARK SMILES CCCCCn1c(SCC(=O)NCCCCNC(=O)c2ccc(-c3c4nc(c(-c5ccc(S(=O)(=O)[O-])cc5)c5ccc([nH]5)c(-c5ccc(S(=O)(=O)[O-])cc5)c5nc(c(-c6ccc(S(=O)(=O)[O-])cc6)c6ccc3[nH]6)C=C5)C=C4)cc2)nc2ccccc2c1=O
REMARK SMILES IDX 13 1 12 2 10 3 11 4 9 6 8 7 7 8 6 9 87 10 80 11 86 12 88 13
REMARK SMILES IDX 81 14 85 15 82 16 84 17 83 18 5 19 4 20 3 21 2 22 1 23 14 24
REMARK SMILES IDX 15 25 16 26 17 27 18 28 19 30 20 31 21 32 79 33 22 34 78 35
REMARK SMILES IDX 23 36 24 37 25 38 72 39 26 40 77 41 71 42 73 43 27 44 76 45
REMARK SMILES IDX 70 46 69 47 28 49 58 50 39 51 57 52 40 53 43 54 56 55 74 56
REMARK SMILES IDX 41 57 42 58 55 60 75 61 44 62 29 63 30 64 38 65 31 66 37 67
REMARK SMILES IDX 32 68 33 69 34 70 35 71 36 72 59 73 60 74 68 75 61 76 67 77
REMARK SMILES IDX 62 78 63 79 64 80 65 81 66 82 45 83 46 84 54 85 47 86 53 87
REMARK SMILES IDX 48 88 49 89 50 90 51 91 52 92
REMARK H PARENT 12 5 17 29 73 48 43 59
REMARK Flexibility Score: inf
ROOT
ATOM      1  C   UNL A   1      34.089  31.379  27.563  1.00  0.00     0.116 C 
ENDROOT
BRANCH   1   2
ATOM      2  N   UNL A   1      33.194  30.293  27.917  1.00  0.00    -0.355 N 
ATOM      3  C   UNL A   1      32.380  29.549  27.119  1.00  0.00     0.230 C 
ATOM      4  O   UNL A   1      31.924  28.503  27.593  1.00  0.00    -0.274 OA
ATOM      5  H   UNL A   1      33.173  30.061  28.873  1.00  0.00     0.163 HD
BRANCH   3   6
ATOM      6  C   UNL A   1      32.106  29.909  25.673  1.00  0.00     0.178 C 
BRANCH   6   7
ATOM      7  S   UNL A   1      33.150  29.143  24.464  1.00  0.00    -0.078 SA
BRANCH   7   8
ATOM      8  C   UNL A   1      32.906  27.457  24.098  1.00  0.00     0.171 A 
ATOM      9  N   UNL A   1      31.947  26.863  23.289  1.00  0.00    -0.287 N 
ATOM     10  C   UNL A   1      31.819  25.465  23.289  1.00  0.00     0.262 A 
ATOM     11  N   UNL A   1      33.796  26.766  24.744  1.00  0.00    -0.224 NA
ATOM     12  C   UNL A   1      32.897  24.683  23.899  1.00  0.00     0.066 A 
ATOM     13  O   UNL A   1      30.860  24.852  22.823  1.00  0.00    -0.269 OA
ATOM     14  C   UNL A   1      33.851  25.383  24.613  1.00  0.00     0.079 A 
ATOM     15  C   UNL A   1      32.975  23.293  23.749  1.00  0.00     0.016 A 
ATOM     16  C   UNL A   1      34.898  24.678  25.210  1.00  0.00     0.029 A 
ATOM     17  C   UNL A   1      34.029  22.597  24.337  1.00  0.00     0.001 A 
ATOM     18  C   UNL A   1      34.989  23.290  25.072  1.00  0.00     0.002 A 
BRANCH   9  19
ATOM     19  C   UNL A   1      31.001  27.530  22.397  1.00  0.00     0.128 C 
BRANCH  19  20
ATOM     20  C   UNL A   1      29.838  28.186  23.161  1.00  0.00     0.022 C 
BRANCH  20  21
ATOM     21  C   UNL A   1      29.140  29.356  22.456  1.00  0.00     0.002 C 
BRANCH  21  22
ATOM     22  C   UNL A   1      27.715  29.665  22.930  1.00  0.00    -0.003 C 
ATOM     23  C   UNL A   1      26.926  28.440  23.362  1.00  0.00     0.004 C 
ENDBRANCH  21  22
ENDBRANCH  20  21
ENDBRANCH  19  20
ENDBRANCH   9  19
ENDBRANCH   7   8
ENDBRANCH   6   7
ENDBRANCH   3   6
ENDBRANCH   1   2
BRANCH   1  24
ATOM     24  C   UNL A   1      33.630  32.740  28.087  1.00  0.00     0.023 C 
BRANCH  24  25
ATOM     25  C   UNL A   1      34.725  33.626  28.677  1.00  0.00     0.023 C 
BRANCH  25  26
ATOM     26  C   UNL A   1      34.350  35.083  28.904  1.00  0.00     0.116 C 
BRANCH  26  27
ATOM     27  N   UNL A   1      33.248  35.273  29.835  1.00  0.00    -0.352 N 
ATOM     28  C   UNL A   1      33.200  35.021  31.190  1.00  0.00     0.251 C 
ATOM     29  H   UNL A   1      32.418  35.631  29.442  1.00  0.00     0.163 HD
ATOM     30  O   UNL A   1      32.161  35.187  31.811  1.00  0.00    -0.269 OA
BRANCH  28  31
ATOM     31  C   UNL A   1      34.405  34.492  31.866  1.00  0.00     0.039 A 
ATOM     32  C   UNL A   1      35.493  35.322  32.139  1.00  0.00     0.014 A 
ATOM     33  C   UNL A   1      34.470  33.127  32.159  1.00  0.00     0.014 A 
ATOM     34  C   UNL A   1      36.706  34.758  32.511  1.00  0.00     0.010 A 
ATOM     35  C   UNL A   1      35.666  32.576  32.624  1.00  0.00     0.010 A 
ATOM     36  C   UNL A   1      36.813  33.376  32.742  1.00  0.00    -0.014 A 
BRANCH  36  37
ATOM     37  C   UNL A   1      38.134  32.793  33.095  1.00  0.00     0.031 A 
ATOM     38  C   UNL A   1      38.711  32.964  34.475  1.00  0.00     0.074 A 
ATOM     39  C   UNL A   1      38.790  32.055  32.179  1.00  0.00     0.049 A 
ATOM     40  N   UNL A   1      39.825  32.479  34.963  1.00  0.00    -0.248 NA
ATOM     41  C   UNL A   1      37.949  33.785  35.432  1.00  0.00     0.031 C 
ATOM     42  C   UNL A   1      38.322  31.803  30.816  1.00  0.00     0.029 A 
ATOM     43  N   UNL A   1      39.968  31.356  32.262  1.00  0.00    -0.354 N 
ATOM     44  C   UNL A   1      39.913  32.957  36.266  1.00  0.00     0.074 A 
ATOM     45  C   UNL A   1      38.751  33.788  36.489  1.00  0.00     0.031 C 
ATOM     46  C   UNL A   1      39.163  30.952  30.214  1.00  0.00     0.029 A 
ATOM     47  C   UNL A   1      40.271  30.654  31.119  1.00  0.00     0.049 A 
ATOM     48  H   UNL A   1      40.541  31.355  33.063  1.00  0.00     0.167 HD
ATOM     49  C   UNL A   1      40.871  32.716  37.192  1.00  0.00     0.031 A 
ATOM     50  C   UNL A   1      41.319  29.863  30.818  1.00  0.00     0.031 A 
ATOM     51  C   UNL A   1      42.010  31.864  36.970  1.00  0.00     0.049 A 
ATOM     52  C   UNL A   1      42.384  29.632  31.848  1.00  0.00     0.074 A 
ATOM     53  C   UNL A   1      43.003  31.515  37.870  1.00  0.00     0.029 A 
ATOM     54  N   UNL A   1      42.316  31.233  35.773  1.00  0.00    -0.354 N 
ATOM     55  N   UNL A   1      42.434  30.072  33.083  1.00  0.00    -0.248 NA
ATOM     56  C   UNL A   1      43.531  28.807  31.452  1.00  0.00     0.031 C 
ATOM     57  C   UNL A   1      43.946  30.734  37.198  1.00  0.00     0.029 A 
ATOM     58  C   UNL A   1      43.504  30.531  35.900  1.00  0.00     0.049 A 
ATOM     59  H   UNL A   1      41.770  31.276  34.956  1.00  0.00     0.167 HD
ATOM     60  C   UNL A   1      43.619  29.574  33.614  1.00  0.00     0.074 A 
ATOM     61  C   UNL A   1      44.244  28.785  32.573  1.00  0.00     0.031 C 
ATOM     62  C   UNL A   1      44.133  29.762  34.853  1.00  0.00     0.031 A 
BRANCH  49  63
ATOM     63  C   UNL A   1      40.755  33.392  38.535  1.00  0.00    -0.014 A 
ATOM     64  C   UNL A   1      39.973  32.796  39.542  1.00  0.00     0.010 A 
ATOM     65  C   UNL A   1      41.325  34.655  38.773  1.00  0.00     0.010 A 
ATOM     66  C   UNL A   1      39.749  33.454  40.755  1.00  0.00     0.020 A 
ATOM     67  C   UNL A   1      41.127  35.305  39.997  1.00  0.00     0.020 A 
ATOM     68  C   UNL A   1      40.323  34.708  40.971  1.00  0.00     0.054 A 
BRANCH  68  69
ATOM     69  S   UNL A   1      40.026  35.548  42.553  1.00  0.00     0.124 S 
ATOM     70  O   UNL A   1      40.369  34.512  43.522  1.00  0.00    -0.237 OA
ATOM     71  O   UNL A   1      40.942  36.685  42.491  1.00  0.00    -0.237 OA
ATOM     72  O   UNL A   1      38.609  35.900  42.488  1.00  0.00    -0.744 OA
ENDBRANCH  68  69
ENDBRANCH  49  63
BRANCH  50  73
ATOM     73  C   UNL A   1      41.357  29.222  29.476  1.00  0.00    -0.014 A 
ATOM     74  C   UNL A   1      40.907  27.898  29.311  1.00  0.00     0.010 A 
ATOM     75  C   UNL A   1      41.997  29.867  28.404  1.00  0.00     0.010 A 
ATOM     76  C   UNL A   1      41.178  27.200  28.133  1.00  0.00     0.020 A 
ATOM     77  C   UNL A   1      42.246  29.179  27.213  1.00  0.00     0.020 A 
ATOM     78  C   UNL A   1      41.872  27.838  27.102  1.00  0.00     0.054 A 
BRANCH  78  79
ATOM     79  S   UNL A   1      42.331  26.873  25.636  1.00  0.00     0.124 S 
ATOM     80  O   UNL A   1      43.503  26.144  26.116  1.00  0.00    -0.237 OA
ATOM     81  O   UNL A   1      41.139  26.065  25.399  1.00  0.00    -0.237 OA
ATOM     82  O   UNL A   1      42.601  27.892  24.626  1.00  0.00    -0.744 OA
ENDBRANCH  78  79
ENDBRANCH  50  73
BRANCH  62  83
ATOM     83  C   UNL A   1      45.460  29.126  35.176  1.00  0.00    -0.014 A 
ATOM     84  C   UNL A   1      46.654  29.804  34.865  1.00  0.00     0.010 A 
ATOM     85  C   UNL A   1      45.527  27.804  35.647  1.00  0.00     0.010 A 
ATOM     86  C   UNL A   1      47.888  29.158  34.978  1.00  0.00     0.020 A 
ATOM     87  C   UNL A   1      46.762  27.163  35.789  1.00  0.00     0.020 A 
ATOM     88  C   UNL A   1      47.931  27.836  35.426  1.00  0.00     0.054 A 
BRANCH  88  89
ATOM     89  S   UNL A   1      49.537  26.997  35.521  1.00  0.00     0.124 S 
ATOM     90  O   UNL A   1      49.489  26.393  36.849  1.00  0.00    -0.237 OA
ATOM     91  O   UNL A   1      49.476  26.059  34.401  1.00  0.00    -0.237 OA
ATOM     92  O   UNL A   1      50.502  28.083  35.361  1.00  0.00    -0.744 OA
ENDBRANCH  88  89
ENDBRANCH  62  83
ENDBRANCH  36  37
ENDBRANCH  28  31
ENDBRANCH  26  27
ENDBRANCH  25  26
ENDBRANCH  24  25
ENDBRANCH   1  24
TORSDOF 20
ENDMDL
