MODEL 1
REMARK VINA RESULT:     -11.6      0.000      0.000
REMARK SMILES O=C(NCCCCNC(=O)c1ccc(-c2c3nc(c(-c4ccc(S(=O)(=O)[O-])cc4)c4ccc([nH]4)c(-c4ccc(S(=O)(=O)[O-])cc4)c4nc(c(-c5ccc(S(=O)(=O)[O-])cc5)c5ccc2[nH]5)C=C4)C=C3)cc1)C1=Cc2c(ccc(Cl)c2Cl)O[C@H]1C(F)(F)F
REMARK SMILES IDX 6 1 5 2 4 3 3 4 1 5 2 6 71 8 72 9 82 10 73 11 81 12 74 13
REMARK SMILES IDX 79 14 75 15 77 16 80 17 76 18 78 19 83 20 84 21 85 22 86 23
REMARK SMILES IDX 7 24 8 25 9 26 10 28 11 29 12 30 70 31 13 32 69 33 14 34
REMARK SMILES IDX 15 35 16 36 63 37 17 38 68 39 62 40 64 41 18 42 67 43 61 44
REMARK SMILES IDX 60 45 19 47 49 48 30 49 48 50 31 51 34 52 47 53 65 54 32 55
REMARK SMILES IDX 33 56 46 58 66 59 35 60 20 61 21 62 29 63 22 64 28 65 23 66
REMARK SMILES IDX 24 67 25 68 26 69 27 70 50 71 51 72 59 73 52 74 58 75 53 76
REMARK SMILES IDX 54 77 55 78 56 79 57 80 36 81 37 82 45 83 38 84 44 85 39 86
REMARK SMILES IDX 40 87 41 88 42 89 43 90
REMARK H PARENT 3 7 8 27 64 46 34 57
REMARK Flexibility Score: inf
ROOT
ATOM      1  C   UNL A   1      32.062  28.728  26.514  1.00  0.00     0.023 C 
ENDROOT
BRANCH   1   2
ATOM      2  C   UNL A   1      32.239  28.449  25.025  1.00  0.00     0.023 C 
BRANCH   2   3
ATOM      3  C   UNL A   1      33.640  28.054  24.578  1.00  0.00     0.116 C 
BRANCH   3   4
ATOM      4  N   UNL A   1      33.708  27.127  23.465  1.00  0.00    -0.352 N 
ATOM      5  O   UNL A   1      33.759  25.104  22.459  1.00  0.00    -0.270 OA
ATOM      6  C   UNL A   1      33.628  25.758  23.488  1.00  0.00     0.251 C 
ATOM      7  H   UNL A   1      33.825  27.533  22.576  1.00  0.00     0.163 HD
BRANCH   6   8
ATOM      8  C   UNL A   1      33.412  25.044  24.775  1.00  0.00     0.067 C 
ATOM      9  C   UNL A   1      34.521  24.668  25.435  1.00  0.00     0.027 C 
ATOM     10  C   UNL A   1      32.122  24.280  24.903  1.00  0.00     0.314 C 
ATOM     11  C   UNL A   1      34.717  23.199  25.409  1.00  0.00     0.037 A 
ATOM     12  O   UNL A   1      32.309  22.860  25.187  1.00  0.00    -0.475 OA
ATOM     13  C   UNL A   1      33.592  22.380  25.219  1.00  0.00     0.129 A 
ATOM     14  C   UNL A   1      36.007  22.637  25.380  1.00  0.00     0.070 A 
ATOM     15  C   UNL A   1      33.748  21.022  24.952  1.00  0.00     0.049 A 
ATOM     16  C   UNL A   1      36.157  21.275  25.081  1.00  0.00     0.060 A 
ATOM     17  Cl  UNL A   1      37.393  23.652  25.633  1.00  0.00    -0.082 Cl
ATOM     18  C   UNL A   1      35.029  20.478  24.853  1.00  0.00     0.026 A 
ATOM     19  Cl  UNL A   1      37.706  20.530  24.919  1.00  0.00    -0.083 Cl
BRANCH  10  20
ATOM     20  C   UNL A   1      31.176  24.917  25.944  1.00  0.00     0.429 C 
ATOM     21  F   UNL A   1      30.436  24.007  26.619  1.00  0.00    -0.167 F 
ATOM     22  F   UNL A   1      31.874  25.629  26.863  1.00  0.00    -0.167 F 
ATOM     23  F   UNL A   1      30.298  25.778  25.371  1.00  0.00    -0.167 F 
ENDBRANCH  10  20
ENDBRANCH   6   8
ENDBRANCH   3   4
ENDBRANCH   2   3
ENDBRANCH   1   2
BRANCH   1  24
ATOM     24  C   UNL A   1      33.329  28.980  27.332  1.00  0.00     0.116 C 
BRANCH  24  25
ATOM     25  N   UNL A   1      33.513  30.358  27.769  1.00  0.00    -0.352 N 
ATOM     26  C   UNL A   1      34.642  30.985  28.254  1.00  0.00     0.251 C 
ATOM     27  H   UNL A   1      32.712  30.927  27.708  1.00  0.00     0.163 HD
ATOM     28  O   UNL A   1      34.575  32.166  28.589  1.00  0.00    -0.269 OA
BRANCH  26  29
ATOM     29  C   UNL A   1      35.905  30.228  28.444  1.00  0.00     0.039 A 
ATOM     30  C   UNL A   1      36.841  30.222  27.405  1.00  0.00     0.014 A 
ATOM     31  C   UNL A   1      36.203  29.581  29.646  1.00  0.00     0.014 A 
ATOM     32  C   UNL A   1      38.113  29.681  27.616  1.00  0.00     0.010 A 
ATOM     33  C   UNL A   1      37.498  29.113  29.881  1.00  0.00     0.010 A 
ATOM     34  C   UNL A   1      38.476  29.184  28.879  1.00  0.00    -0.014 A 
BRANCH  34  35
ATOM     35  C   UNL A   1      39.893  28.832  29.177  1.00  0.00     0.031 A 
ATOM     36  C   UNL A   1      40.815  29.800  29.865  1.00  0.00     0.074 A 
ATOM     37  C   UNL A   1      40.369  27.638  28.766  1.00  0.00     0.049 A 
ATOM     38  N   UNL A   1      42.060  29.626  30.236  1.00  0.00    -0.248 NA
ATOM     39  C   UNL A   1      40.285  31.140  30.153  1.00  0.00     0.031 C 
ATOM     40  C   UNL A   1      39.607  26.634  28.018  1.00  0.00     0.029 A 
ATOM     41  N   UNL A   1      41.606  27.061  28.922  1.00  0.00    -0.354 N 
ATOM     42  C   UNL A   1      42.465  30.836  30.788  1.00  0.00     0.074 A 
ATOM     43  C   UNL A   1      41.348  31.748  30.660  1.00  0.00     0.031 C 
ATOM     44  C   UNL A   1      40.374  25.549  27.828  1.00  0.00     0.029 A 
ATOM     45  C   UNL A   1      41.689  25.787  28.410  1.00  0.00     0.049 A 
ATOM     46  H   UNL A   1      42.361  27.517  29.360  1.00  0.00     0.167 HD
ATOM     47  C   UNL A   1      43.651  31.155  31.364  1.00  0.00     0.031 A 
ATOM     48  C   UNL A   1      42.702  24.899  28.422  1.00  0.00     0.031 A 
ATOM     49  C   UNL A   1      44.762  30.249  31.495  1.00  0.00     0.049 A 
ATOM     50  C   UNL A   1      43.995  25.264  29.093  1.00  0.00     0.074 A 
ATOM     51  C   UNL A   1      45.974  30.456  32.132  1.00  0.00     0.029 A 
ATOM     52  N   UNL A   1      44.805  28.965  30.972  1.00  0.00    -0.354 N 
ATOM     53  N   UNL A   1      44.324  26.380  29.697  1.00  0.00    -0.248 NA
ATOM     54  C   UNL A   1      45.048  24.239  29.097  1.00  0.00     0.031 C 
ATOM     55  C   UNL A   1      46.766  29.315  31.955  1.00  0.00     0.029 A 
ATOM     56  C   UNL A   1      46.029  28.378  31.249  1.00  0.00     0.049 A 
ATOM     57  H   UNL A   1      44.071  28.533  30.476  1.00  0.00     0.167 HD
ATOM     58  C   UNL A   1      45.615  26.185  30.173  1.00  0.00     0.074 A 
ATOM     59  C   UNL A   1      45.999  24.837  29.801  1.00  0.00     0.031 C 
ATOM     60  C   UNL A   1      46.410  27.045  30.858  1.00  0.00     0.031 A 
BRANCH  47  61
ATOM     61  C   UNL A   1      43.803  32.557  31.893  1.00  0.00    -0.014 A 
ATOM     62  C   UNL A   1      44.368  33.575  31.103  1.00  0.00     0.010 A 
ATOM     63  C   UNL A   1      43.361  32.867  33.192  1.00  0.00     0.010 A 
ATOM     64  C   UNL A   1      44.540  34.861  31.619  1.00  0.00     0.020 A 
ATOM     65  C   UNL A   1      43.506  34.161  33.704  1.00  0.00     0.020 A 
ATOM     66  C   UNL A   1      44.116  35.143  32.922  1.00  0.00     0.054 A 
BRANCH  66  67
ATOM     67  S   UNL A   1      44.354  36.821  33.572  1.00  0.00     0.124 S 
ATOM     68  O   UNL A   1      42.977  37.261  33.779  1.00  0.00    -0.237 OA
ATOM     69  O   UNL A   1      45.128  36.589  34.788  1.00  0.00    -0.237 OA
ATOM     70  O   UNL A   1      45.073  37.507  32.502  1.00  0.00    -0.744 OA
ENDBRANCH  66  67
ENDBRANCH  47  61
BRANCH  48  71
ATOM     71  C   UNL A   1      42.509  23.551  27.822  1.00  0.00    -0.014 A 
ATOM     72  C   UNL A   1      43.081  23.246  26.574  1.00  0.00     0.010 A 
ATOM     73  C   UNL A   1      41.780  22.561  28.503  1.00  0.00     0.010 A 
ATOM     74  C   UNL A   1      42.921  21.975  26.013  1.00  0.00     0.020 A 
ATOM     75  C   UNL A   1      41.638  21.282  27.956  1.00  0.00     0.020 A 
ATOM     76  C   UNL A   1      42.203  21.000  26.710  1.00  0.00     0.054 A 
BRANCH  76  77
ATOM     77  S   UNL A   1      42.069  19.336  25.998  1.00  0.00     0.124 S 
ATOM     78  O   UNL A   1      42.900  19.448  24.805  1.00  0.00    -0.237 OA
ATOM     79  O   UNL A   1      42.603  18.491  27.065  1.00  0.00    -0.237 OA
ATOM     80  O   UNL A   1      40.636  19.184  25.755  1.00  0.00    -0.744 OA
ENDBRANCH  76  77
ENDBRANCH  48  71
BRANCH  60  81
ATOM     81  C   UNL A   1      47.769  26.540  31.262  1.00  0.00    -0.014 A 
ATOM     82  C   UNL A   1      48.857  26.586  30.371  1.00  0.00     0.010 A 
ATOM     83  C   UNL A   1      47.962  26.015  32.553  1.00  0.00     0.010 A 
ATOM     84  C   UNL A   1      50.100  26.069  30.747  1.00  0.00     0.020 A 
ATOM     85  C   UNL A   1      49.210  25.522  32.941  1.00  0.00     0.020 A 
ATOM     86  C   UNL A   1      50.266  25.531  32.027  1.00  0.00     0.054 A 
BRANCH  86  87
ATOM     87  S   UNL A   1      51.888  24.867  32.496  1.00  0.00     0.124 S 
ATOM     88  O   UNL A   1      52.781  25.579  31.587  1.00  0.00    -0.237 OA
ATOM     89  O   UNL A   1      51.996  25.241  33.904  1.00  0.00    -0.237 OA
ATOM     90  O   UNL A   1      51.758  23.433  32.247  1.00  0.00    -0.744 OA
ENDBRANCH  86  87
ENDBRANCH  60  81
ENDBRANCH  34  35
ENDBRANCH  26  29
ENDBRANCH  24  25
ENDBRANCH   1  24
TORSDOF 15
ENDMDL
MODEL 2
REMARK VINA RESULT:     -11.5      2.986      9.373
REMARK SMILES O=C(NCCCCNC(=O)c1ccc(-c2c3nc(c(-c4ccc(S(=O)(=O)[O-])cc4)c4ccc([nH]4)c(-c4ccc(S(=O)(=O)[O-])cc4)c4nc(c(-c5ccc(S(=O)(=O)[O-])cc5)c5ccc2[nH]5)C=C4)C=C3)cc1)C1=Cc2c(ccc(Cl)c2Cl)O[C@H]1C(F)(F)F
REMARK SMILES IDX 6 1 5 2 4 3 3 4 1 5 2 6 71 8 72 9 82 10 73 11 81 12 74 13
REMARK SMILES IDX 79 14 75 15 77 16 80 17 76 18 78 19 83 20 84 21 85 22 86 23
REMARK SMILES IDX 7 24 8 25 9 26 10 28 11 29 12 30 70 31 13 32 69 33 14 34
REMARK SMILES IDX 15 35 16 36 63 37 17 38 68 39 62 40 64 41 18 42 67 43 61 44
REMARK SMILES IDX 60 45 19 47 49 48 30 49 48 50 31 51 34 52 47 53 65 54 32 55
REMARK SMILES IDX 33 56 46 58 66 59 35 60 20 61 21 62 29 63 22 64 28 65 23 66
REMARK SMILES IDX 24 67 25 68 26 69 27 70 50 71 51 72 59 73 52 74 58 75 53 76
REMARK SMILES IDX 54 77 55 78 56 79 57 80 36 81 37 82 45 83 38 84 44 85 39 86
REMARK SMILES IDX 40 87 41 88 42 89 43 90
REMARK H PARENT 3 7 8 27 64 46 34 57
REMARK Flexibility Score: inf
ROOT
ATOM      1  C   UNL A   1      35.891  22.037  25.739  1.00  0.00     0.023 C 
ENDROOT
BRANCH   1   2
ATOM      2  C   UNL A   1      35.025  22.348  26.956  1.00  0.00     0.023 C 
BRANCH   2   3
ATOM      3  C   UNL A   1      33.792  21.475  27.143  1.00  0.00     0.116 C 
BRANCH   3   4
ATOM      4  N   UNL A   1      32.583  22.170  27.539  1.00  0.00    -0.352 N 
ATOM      5  O   UNL A   1      30.903  23.670  27.349  1.00  0.00    -0.270 OA
ATOM      6  C   UNL A   1      31.887  23.132  26.852  1.00  0.00     0.251 C 
ATOM      7  H   UNL A   1      32.211  21.918  28.415  1.00  0.00     0.163 HD
BRANCH   6   8
ATOM      8  C   UNL A   1      32.339  23.559  25.501  1.00  0.00     0.067 C 
ATOM      9  C   UNL A   1      32.995  24.731  25.442  1.00  0.00     0.027 C 
ATOM     10  C   UNL A   1      31.535  23.047  24.338  1.00  0.00     0.314 C 
ATOM     11  C   UNL A   1      32.190  25.790  24.787  1.00  0.00     0.037 A 
ATOM     12  O   UNL A   1      30.983  24.105  23.497  1.00  0.00    -0.475 OA
ATOM     13  C   UNL A   1      31.178  25.402  23.894  1.00  0.00     0.129 A 
ATOM     14  C   UNL A   1      32.296  27.136  25.185  1.00  0.00     0.070 A 
ATOM     15  C   UNL A   1      30.247  26.332  23.439  1.00  0.00     0.049 A 
ATOM     16  C   UNL A   1      31.337  28.060  24.746  1.00  0.00     0.060 A 
ATOM     17  Cl  UNL A   1      33.560  27.613  26.276  1.00  0.00    -0.082 Cl
ATOM     18  C   UNL A   1      30.309  27.651  23.888  1.00  0.00     0.026 A 
ATOM     19  Cl  UNL A   1      31.331  29.705  25.272  1.00  0.00    -0.083 Cl
BRANCH  10  20
ATOM     20  C   UNL A   1      32.336  22.042  23.481  1.00  0.00     0.429 C 
ATOM     21  F   UNL A   1      33.455  22.576  22.941  1.00  0.00    -0.167 F 
ATOM     22  F   UNL A   1      32.717  20.971  24.219  1.00  0.00    -0.167 F 
ATOM     23  F   UNL A   1      31.602  21.561  22.447  1.00  0.00    -0.167 F 
ENDBRANCH  10  20
ENDBRANCH   6   8
ENDBRANCH   3   4
ENDBRANCH   2   3
ENDBRANCH   1   2
BRANCH   1  24
ATOM     24  C   UNL A   1      37.099  22.943  25.492  1.00  0.00     0.116 C 
BRANCH  24  25
ATOM     25  N   UNL A   1      38.394  22.294  25.647  1.00  0.00    -0.352 N 
ATOM     26  C   UNL A   1      39.549  22.763  26.236  1.00  0.00     0.251 C 
ATOM     27  H   UNL A   1      38.453  21.384  25.276  1.00  0.00     0.163 HD
ATOM     28  O   UNL A   1      40.551  22.051  26.242  1.00  0.00    -0.269 OA
BRANCH  26  29
ATOM     29  C   UNL A   1      39.611  24.139  26.791  1.00  0.00     0.039 A 
ATOM     30  C   UNL A   1      39.114  24.361  28.079  1.00  0.00     0.014 A 
ATOM     31  C   UNL A   1      40.202  25.191  26.088  1.00  0.00     0.014 A 
ATOM     32  C   UNL A   1      39.324  25.595  28.704  1.00  0.00     0.010 A 
ATOM     33  C   UNL A   1      40.481  26.394  26.741  1.00  0.00     0.010 A 
ATOM     34  C   UNL A   1      40.071  26.599  28.066  1.00  0.00    -0.014 A 
BRANCH  34  35
ATOM     35  C   UNL A   1      40.501  27.814  28.813  1.00  0.00     0.031 A 
ATOM     36  C   UNL A   1      41.867  27.912  29.434  1.00  0.00     0.074 A 
ATOM     37  C   UNL A   1      39.621  28.822  28.982  1.00  0.00     0.049 A 
ATOM     38  N   UNL A   1      42.408  28.919  30.075  1.00  0.00    -0.248 NA
ATOM     39  C   UNL A   1      42.729  26.723  29.347  1.00  0.00     0.031 C 
ATOM     40  C   UNL A   1      38.236  28.828  28.501  1.00  0.00     0.029 A 
ATOM     41  N   UNL A   1      39.758  30.042  29.600  1.00  0.00    -0.354 N 
ATOM     42  C   UNL A   1      43.665  28.483  30.479  1.00  0.00     0.074 A 
ATOM     43  C   UNL A   1      43.786  27.105  30.051  1.00  0.00     0.031 C 
ATOM     44  C   UNL A   1      37.671  30.010  28.794  1.00  0.00     0.029 A 
ATOM     45  C   UNL A   1      38.637  30.835  29.510  1.00  0.00     0.049 A 
ATOM     46  H   UNL A   1      40.581  30.321  30.063  1.00  0.00     0.167 HD
ATOM     47  C   UNL A   1      44.636  29.169  31.130  1.00  0.00     0.031 A 
ATOM     48  C   UNL A   1      38.413  32.093  29.937  1.00  0.00     0.031 A 
ATOM     49  C   UNL A   1      44.520  30.539  31.555  1.00  0.00     0.049 A 
ATOM     50  C   UNL A   1      39.515  32.844  30.629  1.00  0.00     0.074 A 
ATOM     51  C   UNL A   1      45.477  31.343  32.152  1.00  0.00     0.029 A 
ATOM     52  N   UNL A   1      43.373  31.312  31.438  1.00  0.00    -0.354 N 
ATOM     53  N   UNL A   1      40.731  32.445  30.914  1.00  0.00    -0.248 NA
ATOM     54  C   UNL A   1      39.215  34.221  31.042  1.00  0.00     0.031 C 
ATOM     55  C   UNL A   1      44.895  32.584  32.436  1.00  0.00     0.029 A 
ATOM     56  C   UNL A   1      43.590  32.571  31.972  1.00  0.00     0.049 A 
ATOM     57  H   UNL A   1      42.528  31.008  31.033  1.00  0.00     0.167 HD
ATOM     58  C   UNL A   1      41.351  33.531  31.521  1.00  0.00     0.074 A 
ATOM     59  C   UNL A   1      40.380  34.608  31.545  1.00  0.00     0.031 C 
ATOM     60  C   UNL A   1      42.612  33.628  32.011  1.00  0.00     0.031 A 
BRANCH  47  61
ATOM     61  C   UNL A   1      45.916  28.432  31.428  1.00  0.00    -0.014 A 
ATOM     62  C   UNL A   1      46.112  27.786  32.663  1.00  0.00     0.010 A 
ATOM     63  C   UNL A   1      46.932  28.372  30.457  1.00  0.00     0.010 A 
ATOM     64  C   UNL A   1      47.318  27.140  32.942  1.00  0.00     0.020 A 
ATOM     65  C   UNL A   1      48.132  27.703  30.723  1.00  0.00     0.020 A 
ATOM     66  C   UNL A   1      48.325  27.112  31.972  1.00  0.00     0.054 A 
BRANCH  66  67
ATOM     67  S   UNL A   1      49.886  26.271  32.360  1.00  0.00     0.124 S 
ATOM     68  O   UNL A   1      49.836  25.118  31.465  1.00  0.00    -0.237 OA
ATOM     69  O   UNL A   1      50.888  27.281  32.028  1.00  0.00    -0.237 OA
ATOM     70  O   UNL A   1      49.767  25.961  33.783  1.00  0.00    -0.744 OA
ENDBRANCH  66  67
ENDBRANCH  47  61
BRANCH  48  71
ATOM     71  C   UNL A   1      37.101  32.741  29.668  1.00  0.00    -0.014 A 
ATOM     72  C   UNL A   1      36.081  32.697  30.636  1.00  0.00     0.010 A 
ATOM     73  C   UNL A   1      36.874  33.428  28.464  1.00  0.00     0.010 A 
ATOM     74  C   UNL A   1      34.853  33.320  30.399  1.00  0.00     0.020 A 
ATOM     75  C   UNL A   1      35.655  34.073  28.233  1.00  0.00     0.020 A 
ATOM     76  C   UNL A   1      34.649  34.008  29.200  1.00  0.00     0.054 A 
BRANCH  76  77
ATOM     77  S   UNL A   1      33.074  34.873  28.943  1.00  0.00     0.124 S 
ATOM     78  O   UNL A   1      32.501  34.862  30.284  1.00  0.00    -0.237 OA
ATOM     79  O   UNL A   1      33.507  36.178  28.449  1.00  0.00    -0.237 OA
ATOM     80  O   UNL A   1      32.386  34.041  27.958  1.00  0.00    -0.744 OA
ENDBRANCH  76  77
ENDBRANCH  48  71
BRANCH  60  81
ATOM     81  C   UNL A   1      43.013  34.954  32.601  1.00  0.00    -0.014 A 
ATOM     82  C   UNL A   1      42.762  35.255  33.952  1.00  0.00     0.010 A 
ATOM     83  C   UNL A   1      43.652  35.911  31.793  1.00  0.00     0.010 A 
ATOM     84  C   UNL A   1      43.098  36.509  34.471  1.00  0.00     0.020 A 
ATOM     85  C   UNL A   1      44.014  37.156  32.315  1.00  0.00     0.020 A 
ATOM     86  C   UNL A   1      43.713  37.455  33.646  1.00  0.00     0.054 A 
BRANCH  86  87
ATOM     87  S   UNL A   1      44.143  39.076  34.338  1.00  0.00     0.124 S 
ATOM     88  O   UNL A   1      45.439  39.335  33.718  1.00  0.00    -0.237 OA
ATOM     89  O   UNL A   1      43.046  39.925  33.881  1.00  0.00    -0.237 OA
ATOM     90  O   UNL A   1      44.178  38.837  35.779  1.00  0.00    -0.744 OA
ENDBRANCH  86  87
ENDBRANCH  60  81
ENDBRANCH  34  35
ENDBRANCH  26  29
ENDBRANCH  24  25
ENDBRANCH   1  24
TORSDOF 15
ENDMDL
MODEL 3
REMARK VINA RESULT:     -11.4      1.051      8.297
REMARK SMILES O=C(NCCCCNC(=O)c1ccc(-c2c3nc(c(-c4ccc(S(=O)(=O)[O-])cc4)c4ccc([nH]4)c(-c4ccc(S(=O)(=O)[O-])cc4)c4nc(c(-c5ccc(S(=O)(=O)[O-])cc5)c5ccc2[nH]5)C=C4)C=C3)cc1)C1=Cc2c(ccc(Cl)c2Cl)O[C@H]1C(F)(F)F
REMARK SMILES IDX 6 1 5 2 4 3 3 4 1 5 2 6 71 8 72 9 82 10 73 11 81 12 74 13
REMARK SMILES IDX 79 14 75 15 77 16 80 17 76 18 78 19 83 20 84 21 85 22 86 23
REMARK SMILES IDX 7 24 8 25 9 26 10 28 11 29 12 30 70 31 13 32 69 33 14 34
REMARK SMILES IDX 15 35 16 36 63 37 17 38 68 39 62 40 64 41 18 42 67 43 61 44
REMARK SMILES IDX 60 45 19 47 49 48 30 49 48 50 31 51 34 52 47 53 65 54 32 55
REMARK SMILES IDX 33 56 46 58 66 59 35 60 20 61 21 62 29 63 22 64 28 65 23 66
REMARK SMILES IDX 24 67 25 68 26 69 27 70 50 71 51 72 59 73 52 74 58 75 53 76
REMARK SMILES IDX 54 77 55 78 56 79 57 80 36 81 37 82 45 83 38 84 44 85 39 86
REMARK SMILES IDX 40 87 41 88 42 89 43 90
REMARK H PARENT 3 7 8 27 64 46 34 57
REMARK Flexibility Score: inf
ROOT
ATOM      1  C   UNL A   1      32.242  28.605  26.209  1.00  0.00     0.023 C 
ENDROOT
BRANCH   1   2
ATOM      2  C   UNL A   1      32.597  28.767  24.735  1.00  0.00     0.023 C 
BRANCH   2   3
ATOM      3  C   UNL A   1      33.901  28.123  24.284  1.00  0.00     0.116 C 
BRANCH   3   4
ATOM      4  N   UNL A   1      33.789  27.170  23.195  1.00  0.00    -0.352 N 
ATOM      5  O   UNL A   1      33.546  25.134  22.246  1.00  0.00    -0.270 OA
ATOM      6  C   UNL A   1      33.558  25.820  23.262  1.00  0.00     0.251 C 
ATOM      7  H   UNL A   1      33.892  27.542  22.289  1.00  0.00     0.163 HD
BRANCH   6   8
ATOM      8  C   UNL A   1      33.349  25.163  24.581  1.00  0.00     0.067 C 
ATOM      9  C   UNL A   1      34.462  24.825  25.254  1.00  0.00     0.027 C 
ATOM     10  C   UNL A   1      32.066  24.396  24.745  1.00  0.00     0.314 C 
ATOM     11  C   UNL A   1      34.669  23.358  25.293  1.00  0.00     0.037 A 
ATOM     12  O   UNL A   1      32.263  22.992  25.092  1.00  0.00    -0.475 OA
ATOM     13  C   UNL A   1      33.550  22.523  25.143  1.00  0.00     0.129 A 
ATOM     14  C   UNL A   1      35.963  22.805  25.288  1.00  0.00     0.070 A 
ATOM     15  C   UNL A   1      33.717  21.156  24.936  1.00  0.00     0.049 A 
ATOM     16  C   UNL A   1      36.123  21.432  25.050  1.00  0.00     0.060 A 
ATOM     17  Cl  UNL A   1      37.342  23.841  25.492  1.00  0.00    -0.082 Cl
ATOM     18  C   UNL A   1      35.001  20.618  24.859  1.00  0.00     0.026 A 
ATOM     19  Cl  UNL A   1      37.678  20.693  24.918  1.00  0.00    -0.083 Cl
BRANCH  10  20
ATOM     20  C   UNL A   1      31.116  25.072  25.759  1.00  0.00     0.429 C 
ATOM     21  F   UNL A   1      31.755  25.541  26.855  1.00  0.00    -0.167 F 
ATOM     22  F   UNL A   1      30.467  26.119  25.193  1.00  0.00    -0.167 F 
ATOM     23  F   UNL A   1      30.162  24.217  26.206  1.00  0.00    -0.167 F 
ENDBRANCH  10  20
ENDBRANCH   6   8
ENDBRANCH   3   4
ENDBRANCH   2   3
ENDBRANCH   1   2
BRANCH   1  24
ATOM     24  C   UNL A   1      33.369  28.805  27.224  1.00  0.00     0.116 C 
BRANCH  24  25
ATOM     25  N   UNL A   1      33.445  30.140  27.802  1.00  0.00    -0.352 N 
ATOM     26  C   UNL A   1      34.520  30.797  28.363  1.00  0.00     0.251 C 
ATOM     27  H   UNL A   1      32.603  30.649  27.791  1.00  0.00     0.163 HD
ATOM     28  O   UNL A   1      34.361  31.928  28.817  1.00  0.00    -0.269 OA
BRANCH  26  29
ATOM     29  C   UNL A   1      35.837  30.122  28.489  1.00  0.00     0.039 A 
ATOM     30  C   UNL A   1      36.709  30.154  27.395  1.00  0.00     0.014 A 
ATOM     31  C   UNL A   1      36.246  29.519  29.680  1.00  0.00     0.014 A 
ATOM     32  C   UNL A   1      38.023  29.696  27.538  1.00  0.00     0.010 A 
ATOM     33  C   UNL A   1      37.579  29.136  29.845  1.00  0.00     0.010 A 
ATOM     34  C   UNL A   1      38.490  29.248  28.785  1.00  0.00    -0.014 A 
BRANCH  34  35
ATOM     35  C   UNL A   1      39.940  28.989  29.003  1.00  0.00     0.031 A 
ATOM     36  C   UNL A   1      40.568  27.673  28.637  1.00  0.00     0.074 A 
ATOM     37  C   UNL A   1      40.691  29.942  29.596  1.00  0.00     0.049 A 
ATOM     38  N   UNL A   1      41.825  27.310  28.722  1.00  0.00    -0.248 NA
ATOM     39  C   UNL A   1      39.672  26.621  28.136  1.00  0.00     0.031 C 
ATOM     40  C   UNL A   1      40.196  31.236  30.074  1.00  0.00     0.029 A 
ATOM     41  N   UNL A   1      42.032  29.973  29.893  1.00  0.00    -0.354 N 
ATOM     42  C   UNL A   1      41.868  25.987  28.297  1.00  0.00     0.074 A 
ATOM     43  C   UNL A   1      40.506  25.599  28.002  1.00  0.00     0.031 C 
ATOM     44  C   UNL A   1      41.224  31.952  30.555  1.00  0.00     0.029 A 
ATOM     45  C   UNL A   1      42.445  31.162  30.450  1.00  0.00     0.049 A 
ATOM     46  H   UNL A   1      42.639  29.217  29.725  1.00  0.00     0.167 HD
ATOM     47  C   UNL A   1      42.944  25.175  28.151  1.00  0.00     0.031 A 
ATOM     48  C   UNL A   1      43.671  31.581  30.818  1.00  0.00     0.031 A 
ATOM     49  C   UNL A   1      44.300  25.559  28.441  1.00  0.00     0.049 A 
ATOM     50  C   UNL A   1      44.852  30.675  30.618  1.00  0.00     0.074 A 
ATOM     51  C   UNL A   1      45.463  24.832  28.251  1.00  0.00     0.029 A 
ATOM     52  N   UNL A   1      44.680  26.774  28.995  1.00  0.00    -0.354 N 
ATOM     53  N   UNL A   1      44.885  29.461  30.122  1.00  0.00    -0.248 NA
ATOM     54  C   UNL A   1      46.164  31.204  31.012  1.00  0.00     0.031 C 
ATOM     55  C   UNL A   1      46.540  25.589  28.730  1.00  0.00     0.029 A 
ATOM     56  C   UNL A   1      46.053  26.807  29.174  1.00  0.00     0.049 A 
ATOM     57  H   UNL A   1      44.062  27.505  29.225  1.00  0.00     0.167 HD
ATOM     58  C   UNL A   1      46.223  29.089  30.124  1.00  0.00     0.074 A 
ATOM     59  C   UNL A   1      46.970  30.214  30.654  1.00  0.00     0.031 C 
ATOM     60  C   UNL A   1      46.784  27.921  29.721  1.00  0.00     0.031 A 
BRANCH  47  61
ATOM     61  C   UNL A   1      42.686  23.776  27.654  1.00  0.00    -0.014 A 
ATOM     62  C   UNL A   1      42.416  22.725  28.550  1.00  0.00     0.010 A 
ATOM     63  C   UNL A   1      42.699  23.509  26.273  1.00  0.00     0.010 A 
ATOM     64  C   UNL A   1      42.218  21.425  28.080  1.00  0.00     0.020 A 
ATOM     65  C   UNL A   1      42.474  22.213  25.796  1.00  0.00     0.020 A 
ATOM     66  C   UNL A   1      42.258  21.176  26.705  1.00  0.00     0.054 A 
BRANCH  66  67
ATOM     67  S   UNL A   1      42.003  19.478  26.118  1.00  0.00     0.124 S 
ATOM     68  O   UNL A   1      40.559  19.451  25.897  1.00  0.00    -0.237 OA
ATOM     69  O   UNL A   1      42.824  19.425  24.912  1.00  0.00    -0.237 OA
ATOM     70  O   UNL A   1      42.478  18.654  27.227  1.00  0.00    -0.744 OA
ENDBRANCH  66  67
ENDBRANCH  47  61
BRANCH  48  71
ATOM     71  C   UNL A   1      43.849  32.954  31.365  1.00  0.00    -0.014 A 
ATOM     72  C   UNL A   1      43.755  33.179  32.750  1.00  0.00     0.010 A 
ATOM     73  C   UNL A   1      44.140  34.033  30.513  1.00  0.00     0.010 A 
ATOM     74  C   UNL A   1      43.940  34.462  33.273  1.00  0.00     0.020 A 
ATOM     75  C   UNL A   1      44.350  35.313  31.035  1.00  0.00     0.020 A 
ATOM     76  C   UNL A   1      44.240  35.521  32.411  1.00  0.00     0.054 A 
BRANCH  76  77
ATOM     77  S   UNL A   1      44.550  37.164  33.118  1.00  0.00     0.124 S 
ATOM     78  O   UNL A   1      44.960  37.926  31.945  1.00  0.00    -0.237 OA
ATOM     79  O   UNL A   1      43.247  37.517  33.680  1.00  0.00    -0.237 OA
ATOM     80  O   UNL A   1      45.597  36.916  34.106  1.00  0.00    -0.744 OA
ENDBRANCH  76  77
ENDBRANCH  48  71
BRANCH  60  81
ATOM     81  C   UNL A   1      48.282  27.814  29.826  1.00  0.00    -0.014 A 
ATOM     82  C   UNL A   1      48.897  27.316  30.990  1.00  0.00     0.010 A 
ATOM     83  C   UNL A   1      49.086  28.212  28.743  1.00  0.00     0.010 A 
ATOM     84  C   UNL A   1      50.290  27.268  31.087  1.00  0.00     0.020 A 
ATOM     85  C   UNL A   1      50.479  28.140  28.827  1.00  0.00     0.020 A 
ATOM     86  C   UNL A   1      51.073  27.690  30.008  1.00  0.00     0.054 A 
BRANCH  86  87
ATOM     87  S   UNL A   1      52.880  27.618  30.154  1.00  0.00     0.124 S 
ATOM     88  O   UNL A   1      53.092  28.086  31.520  1.00  0.00    -0.237 OA
ATOM     89  O   UNL A   1      53.167  26.205  29.921  1.00  0.00    -0.237 OA
ATOM     90  O   UNL A   1      53.346  28.522  29.104  1.00  0.00    -0.744 OA
ENDBRANCH  86  87
ENDBRANCH  60  81
ENDBRANCH  34  35
ENDBRANCH  26  29
ENDBRANCH  24  25
ENDBRANCH   1  24
TORSDOF 15
ENDMDL
