MODEL 1
REMARK VINA RESULT:     -11.8      0.000      0.000
REMARK SMILES Cn1cc([C@@H]2CC(NCCCCNC(=O)c3ccc(-c4c5nc(c(-c6ccc(S(=O)(=O)[O-])cc6)c6ccc([nH]6)c(-c6ccc(S(=O)(=O)[O-])cc6)c6nc(c(-c7ccc(S(=O)(=O)[O-])cc7)c7ccc4[nH]7)C=C6)C=C5)cc3)=[NH+]c3c2sc(C(=O)[O-])c3-c2ccc(Cl)cc2)cn1
REMARK SMILES IDX 12 1 11 2 10 3 9 4 8 5 5 6 6 7 78 8 7 9 77 10 79 11 76 12
REMARK SMILES IDX 84 13 80 14 4 17 1 18 2 19 3 20 93 21 92 22 85 23 86 24
REMARK SMILES IDX 91 25 87 26 90 27 88 28 89 29 81 30 82 31 83 32 13 33 14 34
REMARK SMILES IDX 15 36 16 37 17 38 75 39 18 40 74 41 19 42 20 43 21 44 68 45
REMARK SMILES IDX 22 46 73 47 67 48 69 49 23 50 72 51 66 52 65 53 24 55 54 56
REMARK SMILES IDX 35 57 53 58 36 59 39 60 52 61 70 62 37 63 38 64 51 66 71 67
REMARK SMILES IDX 40 68 25 69 26 70 34 71 27 72 33 73 28 74 29 75 30 76 31 77
REMARK SMILES IDX 32 78 55 79 56 80 64 81 57 82 63 83 58 84 59 85 60 86 61 87
REMARK SMILES IDX 62 88 41 89 42 90 50 91 43 92 49 93 44 94 45 95 46 96 47 97
REMARK SMILES IDX 48 98
REMARK H PARENT 8 15 76 16 13 35 69 54 39 65
REMARK Flexibility Score: inf
ROOT
ATOM      1  C   UNL A   1      35.239  32.418  28.662  1.00  0.00     0.116 C 
ENDROOT
BRANCH   1   2
ATOM      2  C   UNL A   1      34.558  31.153  28.155  1.00  0.00     0.025 C 
BRANCH   2   3
ATOM      3  C   UNL A   1      35.501  29.964  27.920  1.00  0.00     0.048 C 
BRANCH   3   4
ATOM      4  C   UNL A   1      34.884  28.735  27.246  1.00  0.00     0.233 C 
BRANCH   4   5
ATOM      5  N   UNL A   1      33.534  29.003  26.781  1.00  0.00    -0.278 N 
ATOM      6  C   UNL A   1      30.565  27.668  24.716  1.00  0.00     0.079 C 
ATOM      7  C   UNL A   1      31.363  28.556  25.684  1.00  0.00     0.142 C 
ATOM      8  C   UNL A   1      31.336  26.437  24.379  1.00  0.00     0.061 A 
ATOM      9  C   UNL A   1      32.814  28.143  25.969  1.00  0.00     0.248 C 
ATOM     10  C   UNL A   1      32.616  26.185  24.766  1.00  0.00     0.147 A 
ATOM     11  S   UNL A   1      30.711  25.161  23.445  1.00  0.00    -0.133 S 
ATOM     12  N   UNL A   1      33.383  27.056  25.536  1.00  0.00    -0.243 N 
ATOM     13  C   UNL A   1      33.127  24.927  24.315  1.00  0.00     0.049 A 
ATOM     14  C   UNL A   1      32.185  24.260  23.535  1.00  0.00     0.062 A 
ATOM     15  H   UNL A   1      33.106  29.845  27.058  1.00  0.00     0.304 HD
ATOM     16  H   UNL A   1      34.324  26.857  25.746  1.00  0.00     0.312 HD
BRANCH   6  17
ATOM     17  C   UNL A   1      30.139  28.400  23.473  1.00  0.00    -0.001 A 
ATOM     18  C   UNL A   1      28.010  30.265  21.243  1.00  0.00     0.173 C 
ATOM     19  N   UNL A   1      29.031  29.539  21.956  1.00  0.00    -0.276 N 
ATOM     20  C   UNL A   1      28.876  28.823  23.105  1.00  0.00     0.112 A 
ATOM     21  N   UNL A   1      30.297  29.572  21.510  1.00  0.00    -0.182 NA
ATOM     22  C   UNL A   1      30.974  28.891  22.439  1.00  0.00     0.139 A 
ENDBRANCH   6  17
BRANCH  13  23
ATOM     23  C   UNL A   1      34.440  24.390  24.660  1.00  0.00    -0.012 A 
ATOM     24  C   UNL A   1      35.384  24.082  23.672  1.00  0.00     0.010 A 
ATOM     25  C   UNL A   1      34.768  24.200  26.010  1.00  0.00     0.010 A 
ATOM     26  C   UNL A   1      36.618  23.531  24.032  1.00  0.00     0.021 A 
ATOM     27  C   UNL A   1      36.005  23.663  26.369  1.00  0.00     0.021 A 
ATOM     28  C   UNL A   1      36.918  23.316  25.377  1.00  0.00     0.041 A 
ATOM     29  Cl  UNL A   1      38.428  22.614  25.812  1.00  0.00    -0.084 Cl
ENDBRANCH  13  23
BRANCH  14  30
ATOM     30  C   UNL A   1      32.200  22.992  22.831  1.00  0.00     0.082 C 
ATOM     31  O   UNL A   1      31.687  21.934  23.159  1.00  0.00    -0.544 OA
ATOM     32  O   UNL A   1      32.877  23.039  21.662  1.00  0.00    -0.544 OA
ENDBRANCH  14  30
ENDBRANCH   4   5
ENDBRANCH   3   4
ENDBRANCH   2   3
ENDBRANCH   1   2
BRANCH   1  33
ATOM     33  N   UNL A   1      34.764  32.852  29.975  1.00  0.00    -0.352 N 
ATOM     34  C   UNL A   1      35.090  32.307  31.207  1.00  0.00     0.251 C 
ATOM     35  H   UNL A   1      34.142  33.615  29.985  1.00  0.00     0.163 HD
ATOM     36  O   UNL A   1      34.354  32.452  32.175  1.00  0.00    -0.269 OA
BRANCH  34  37
ATOM     37  C   UNL A   1      36.356  31.559  31.328  1.00  0.00     0.039 A 
ATOM     38  C   UNL A   1      36.391  30.167  31.455  1.00  0.00     0.014 A 
ATOM     39  C   UNL A   1      37.536  32.295  31.270  1.00  0.00     0.014 A 
ATOM     40  C   UNL A   1      37.629  29.523  31.432  1.00  0.00     0.010 A 
ATOM     41  C   UNL A   1      38.730  31.654  31.074  1.00  0.00     0.010 A 
ATOM     42  C   UNL A   1      38.798  30.274  31.216  1.00  0.00    -0.014 A 
BRANCH  42  43
ATOM     43  C   UNL A   1      40.089  29.629  30.987  1.00  0.00     0.031 A 
ATOM     44  C   UNL A   1      40.934  29.535  32.207  1.00  0.00     0.074 A 
ATOM     45  C   UNL A   1      40.394  28.960  29.850  1.00  0.00     0.049 A 
ATOM     46  N   UNL A   1      42.005  30.204  32.473  1.00  0.00    -0.248 NA
ATOM     47  C   UNL A   1      40.436  28.735  33.342  1.00  0.00     0.031 C 
ATOM     48  C   UNL A   1      39.530  28.704  28.690  1.00  0.00     0.029 A 
ATOM     49  N   UNL A   1      41.517  28.257  29.533  1.00  0.00    -0.354 N 
ATOM     50  C   UNL A   1      42.463  29.712  33.691  1.00  0.00     0.074 A 
ATOM     51  C   UNL A   1      41.357  28.996  34.273  1.00  0.00     0.031 C 
ATOM     52  C   UNL A   1      40.060  27.719  27.930  1.00  0.00     0.029 A 
ATOM     53  C   UNL A   1      41.382  27.407  28.437  1.00  0.00     0.049 A 
ATOM     54  H   UNL A   1      42.357  28.344  30.040  1.00  0.00     0.167 HD
ATOM     55  C   UNL A   1      43.794  29.669  33.977  1.00  0.00     0.031 A 
ATOM     56  C   UNL A   1      42.287  26.505  27.975  1.00  0.00     0.031 A 
ATOM     57  C   UNL A   1      44.557  30.471  33.052  1.00  0.00     0.049 A 
ATOM     58  C   UNL A   1      43.606  26.917  28.507  1.00  0.00     0.074 A 
ATOM     59  C   UNL A   1      44.565  31.802  32.687  1.00  0.00     0.029 A 
ATOM     60  N   UNL A   1      45.191  29.790  32.038  1.00  0.00    -0.354 N 
ATOM     61  N   UNL A   1      44.195  28.031  28.172  1.00  0.00    -0.248 NA
ATOM     62  C   UNL A   1      44.055  26.323  29.753  1.00  0.00     0.031 C 
ATOM     63  C   UNL A   1      44.785  31.796  31.279  1.00  0.00     0.029 A 
ATOM     64  C   UNL A   1      44.989  30.475  30.869  1.00  0.00     0.049 A 
ATOM     65  H   UNL A   1      45.701  28.954  32.136  1.00  0.00     0.167 HD
ATOM     66  C   UNL A   1      44.745  28.507  29.354  1.00  0.00     0.074 A 
ATOM     67  C   UNL A   1      44.721  27.362  30.264  1.00  0.00     0.031 C 
ATOM     68  C   UNL A   1      44.904  29.846  29.565  1.00  0.00     0.031 A 
BRANCH  55  69
ATOM     69  C   UNL A   1      44.436  28.558  34.777  1.00  0.00    -0.014 A 
ATOM     70  C   UNL A   1      44.305  27.230  34.322  1.00  0.00     0.010 A 
ATOM     71  C   UNL A   1      44.914  28.734  36.093  1.00  0.00     0.010 A 
ATOM     72  C   UNL A   1      44.576  26.141  35.164  1.00  0.00     0.020 A 
ATOM     73  C   UNL A   1      45.228  27.659  36.924  1.00  0.00     0.020 A 
ATOM     74  C   UNL A   1      45.028  26.366  36.465  1.00  0.00     0.054 A 
BRANCH  74  75
ATOM     75  S   UNL A   1      45.301  24.961  37.569  1.00  0.00     0.124 S 
ATOM     76  O   UNL A   1      43.934  24.544  37.866  1.00  0.00    -0.237 OA
ATOM     77  O   UNL A   1      46.075  24.054  36.727  1.00  0.00    -0.237 OA
ATOM     78  O   UNL A   1      46.035  25.545  38.689  1.00  0.00    -0.744 OA
ENDBRANCH  74  75
ENDBRANCH  55  69
BRANCH  56  79
ATOM     79  C   UNL A   1      42.059  25.176  27.351  1.00  0.00    -0.014 A 
ATOM     80  C   UNL A   1      42.829  24.733  26.258  1.00  0.00     0.010 A 
ATOM     81  C   UNL A   1      41.276  24.217  28.026  1.00  0.00     0.010 A 
ATOM     82  C   UNL A   1      42.856  23.374  25.887  1.00  0.00     0.020 A 
ATOM     83  C   UNL A   1      41.296  22.863  27.664  1.00  0.00     0.020 A 
ATOM     84  C   UNL A   1      42.102  22.443  26.607  1.00  0.00     0.054 A 
BRANCH  84  85
ATOM     85  S   UNL A   1      42.262  20.669  26.229  1.00  0.00     0.124 S 
ATOM     86  O   UNL A   1      42.447  20.084  27.554  1.00  0.00    -0.237 OA
ATOM     87  O   UNL A   1      40.991  20.365  25.576  1.00  0.00    -0.237 OA
ATOM     88  O   UNL A   1      43.434  20.608  25.358  1.00  0.00    -0.744 OA
ENDBRANCH  84  85
ENDBRANCH  56  79
BRANCH  68  89
ATOM     89  C   UNL A   1      44.799  30.779  28.376  1.00  0.00    -0.014 A 
ATOM     90  C   UNL A   1      43.593  31.324  27.890  1.00  0.00     0.010 A 
ATOM     91  C   UNL A   1      46.008  31.224  27.814  1.00  0.00     0.010 A 
ATOM     92  C   UNL A   1      43.605  32.270  26.848  1.00  0.00     0.020 A 
ATOM     93  C   UNL A   1      46.027  32.176  26.795  1.00  0.00     0.020 A 
ATOM     94  C   UNL A   1      44.825  32.688  26.307  1.00  0.00     0.054 A 
BRANCH  94  95
ATOM     95  S   UNL A   1      44.846  33.931  24.984  1.00  0.00     0.124 S 
ATOM     96  O   UNL A   1      44.451  33.154  23.812  1.00  0.00    -0.237 OA
ATOM     97  O   UNL A   1      43.870  34.915  25.446  1.00  0.00    -0.237 OA
ATOM     98  O   UNL A   1      46.230  34.404  24.972  1.00  0.00    -0.744 OA
ENDBRANCH  94  95
ENDBRANCH  68  89
ENDBRANCH  42  43
ENDBRANCH  34  37
ENDBRANCH   1  33
TORSDOF 16
ENDMDL
MODEL 2
REMARK VINA RESULT:     -11.7      3.335      8.325
REMARK SMILES Cn1cc([C@@H]2CC(NCCCCNC(=O)c3ccc(-c4c5nc(c(-c6ccc(S(=O)(=O)[O-])cc6)c6ccc([nH]6)c(-c6ccc(S(=O)(=O)[O-])cc6)c6nc(c(-c7ccc(S(=O)(=O)[O-])cc7)c7ccc4[nH]7)C=C6)C=C5)cc3)=[NH+]c3c2sc(C(=O)[O-])c3-c2ccc(Cl)cc2)cn1
REMARK SMILES IDX 12 1 11 2 10 3 9 4 8 5 5 6 6 7 78 8 7 9 77 10 79 11 76 12
REMARK SMILES IDX 84 13 80 14 4 17 1 18 2 19 3 20 93 21 92 22 85 23 86 24
REMARK SMILES IDX 91 25 87 26 90 27 88 28 89 29 81 30 82 31 83 32 13 33 14 34
REMARK SMILES IDX 15 36 16 37 17 38 75 39 18 40 74 41 19 42 20 43 21 44 68 45
REMARK SMILES IDX 22 46 73 47 67 48 69 49 23 50 72 51 66 52 65 53 24 55 54 56
REMARK SMILES IDX 35 57 53 58 36 59 39 60 52 61 70 62 37 63 38 64 51 66 71 67
REMARK SMILES IDX 40 68 25 69 26 70 34 71 27 72 33 73 28 74 29 75 30 76 31 77
REMARK SMILES IDX 32 78 55 79 56 80 64 81 57 82 63 83 58 84 59 85 60 86 61 87
REMARK SMILES IDX 62 88 41 89 42 90 50 91 43 92 49 93 44 94 45 95 46 96 47 97
REMARK SMILES IDX 48 98
REMARK H PARENT 8 15 76 16 13 35 69 54 39 65
REMARK Flexibility Score: inf
ROOT
ATOM      1  C   UNL A   1      39.155  20.125  25.965  1.00  0.00     0.116 C 
ENDROOT
BRANCH   1   2
ATOM      2  C   UNL A   1      38.000  19.764  25.040  1.00  0.00     0.025 C 
BRANCH   2   3
ATOM      3  C   UNL A   1      36.963  20.878  24.840  1.00  0.00     0.048 C 
BRANCH   3   4
ATOM      4  C   UNL A   1      37.318  21.954  23.809  1.00  0.00     0.233 C 
BRANCH   4   5
ATOM      5  N   UNL A   1      37.056  23.289  24.320  1.00  0.00    -0.278 N 
ATOM      6  C   UNL A   1      34.464  25.588  26.010  1.00  0.00     0.079 C 
ATOM      7  C   UNL A   1      35.814  25.095  25.464  1.00  0.00     0.142 C 
ATOM      8  C   UNL A   1      33.470  24.478  26.026  1.00  0.00     0.061 A 
ATOM      9  C   UNL A   1      35.849  23.677  24.877  1.00  0.00     0.248 C 
ATOM     10  C   UNL A   1      33.677  23.234  25.513  1.00  0.00     0.147 A 
ATOM     11  S   UNL A   1      31.912  24.618  26.693  1.00  0.00    -0.133 S 
ATOM     12  N   UNL A   1      34.860  22.833  24.898  1.00  0.00    -0.243 N 
ATOM     13  C   UNL A   1      32.564  22.348  25.659  1.00  0.00     0.049 A 
ATOM     14  C   UNL A   1      31.492  22.994  26.270  1.00  0.00     0.062 A 
ATOM     15  H   UNL A   1      37.778  23.956  24.267  1.00  0.00     0.304 HD
ATOM     16  H   UNL A   1      34.946  21.940  24.492  1.00  0.00     0.312 HD
BRANCH   6  17
ATOM     17  C   UNL A   1      33.936  26.781  25.263  1.00  0.00    -0.001 A 
ATOM     18  C   UNL A   1      32.343  28.653  22.628  1.00  0.00     0.173 C 
ATOM     19  N   UNL A   1      33.006  28.124  23.793  1.00  0.00    -0.276 N 
ATOM     20  C   UNL A   1      33.490  26.861  23.958  1.00  0.00     0.112 A 
ATOM     21  N   UNL A   1      33.152  28.900  24.879  1.00  0.00    -0.182 NA
ATOM     22  C   UNL A   1      33.705  28.081  25.778  1.00  0.00     0.139 A 
ENDBRANCH   6  17
BRANCH  13  23
ATOM     23  C   UNL A   1      32.561  20.942  25.264  1.00  0.00    -0.012 A 
ATOM     24  C   UNL A   1      32.823  19.924  26.188  1.00  0.00     0.010 A 
ATOM     25  C   UNL A   1      32.269  20.607  23.934  1.00  0.00     0.010 A 
ATOM     26  C   UNL A   1      32.852  18.590  25.770  1.00  0.00     0.021 A 
ATOM     27  C   UNL A   1      32.285  19.274  23.519  1.00  0.00     0.021 A 
ATOM     28  C   UNL A   1      32.592  18.273  24.436  1.00  0.00     0.041 A 
ATOM     29  Cl  UNL A   1      32.655  16.632  23.922  1.00  0.00    -0.084 Cl
ENDBRANCH  13  23
BRANCH  14  30
ATOM     30  C   UNL A   1      30.150  22.570  26.624  1.00  0.00     0.082 C 
ATOM     31  O   UNL A   1      29.492  21.657  26.152  1.00  0.00    -0.544 OA
ATOM     32  O   UNL A   1      29.603  23.309  27.615  1.00  0.00    -0.544 OA
ENDBRANCH  14  30
ENDBRANCH   4   5
ENDBRANCH   3   4
ENDBRANCH   2   3
ENDBRANCH   1   2
BRANCH   1  33
ATOM     33  N   UNL A   1      40.282  19.196  25.883  1.00  0.00    -0.352 N 
ATOM     34  C   UNL A   1      41.631  19.513  25.885  1.00  0.00     0.251 C 
ATOM     35  H   UNL A   1      40.057  18.240  25.818  1.00  0.00     0.163 HD
ATOM     36  O   UNL A   1      42.459  18.746  25.408  1.00  0.00    -0.269 OA
BRANCH  34  37
ATOM     37  C   UNL A   1      42.049  20.793  26.489  1.00  0.00     0.039 A 
ATOM     38  C   UNL A   1      42.480  21.877  25.717  1.00  0.00     0.014 A 
ATOM     39  C   UNL A   1      41.959  20.900  27.873  1.00  0.00     0.014 A 
ATOM     40  C   UNL A   1      42.732  23.093  26.353  1.00  0.00     0.010 A 
ATOM     41  C   UNL A   1      42.039  22.131  28.468  1.00  0.00     0.010 A 
ATOM     42  C   UNL A   1      42.485  23.220  27.731  1.00  0.00    -0.014 A 
BRANCH  42  43
ATOM     43  C   UNL A   1      42.543  24.518  28.401  1.00  0.00     0.031 A 
ATOM     44  C   UNL A   1      41.363  25.382  28.130  1.00  0.00     0.074 A 
ATOM     45  C   UNL A   1      43.444  24.817  29.366  1.00  0.00     0.049 A 
ATOM     46  N   UNL A   1      41.322  26.447  27.401  1.00  0.00    -0.248 NA
ATOM     47  C   UNL A   1      40.037  24.914  28.573  1.00  0.00     0.031 C 
ATOM     48  C   UNL A   1      44.465  23.939  29.955  1.00  0.00     0.029 A 
ATOM     49  N   UNL A   1      43.566  25.945  30.119  1.00  0.00    -0.354 N 
ATOM     50  C   UNL A   1      40.023  26.931  27.516  1.00  0.00     0.074 A 
ATOM     51  C   UNL A   1      39.238  25.844  28.045  1.00  0.00     0.031 C 
ATOM     52  C   UNL A   1      44.918  24.473  31.112  1.00  0.00     0.029 A 
ATOM     53  C   UNL A   1      44.368  25.807  31.251  1.00  0.00     0.049 A 
ATOM     54  H   UNL A   1      43.122  26.791  29.881  1.00  0.00     0.167 HD
ATOM     55  C   UNL A   1      39.761  28.266  27.460  1.00  0.00     0.031 A 
ATOM     56  C   UNL A   1      44.567  26.719  32.238  1.00  0.00     0.031 A 
ATOM     57  C   UNL A   1      40.892  29.003  26.952  1.00  0.00     0.049 A 
ATOM     58  C   UNL A   1      44.201  28.039  31.676  1.00  0.00     0.074 A 
ATOM     59  C   UNL A   1      41.625  28.985  25.783  1.00  0.00     0.029 A 
ATOM     60  N   UNL A   1      41.679  29.632  27.890  1.00  0.00    -0.354 N 
ATOM     61  N   UNL A   1      44.854  28.606  30.700  1.00  0.00    -0.248 NA
ATOM     62  C   UNL A   1      42.845  28.516  31.881  1.00  0.00     0.031 C 
ATOM     63  C   UNL A   1      42.976  29.184  26.193  1.00  0.00     0.029 A 
ATOM     64  C   UNL A   1      42.991  29.402  27.574  1.00  0.00     0.049 A 
ATOM     65  H   UNL A   1      41.353  30.157  28.656  1.00  0.00     0.167 HD
ATOM     66  C   UNL A   1      43.870  29.166  29.898  1.00  0.00     0.074 A 
ATOM     67  C   UNL A   1      42.668  29.173  30.731  1.00  0.00     0.031 C 
ATOM     68  C   UNL A   1      44.057  29.307  28.553  1.00  0.00     0.031 A 
BRANCH  55  69
ATOM     69  C   UNL A   1      38.687  28.938  28.287  1.00  0.00    -0.014 A 
ATOM     70  C   UNL A   1      37.851  29.890  27.670  1.00  0.00     0.010 A 
ATOM     71  C   UNL A   1      38.652  28.879  29.696  1.00  0.00     0.010 A 
ATOM     72  C   UNL A   1      37.074  30.778  28.429  1.00  0.00     0.020 A 
ATOM     73  C   UNL A   1      37.850  29.727  30.460  1.00  0.00     0.020 A 
ATOM     74  C   UNL A   1      37.087  30.694  29.821  1.00  0.00     0.054 A 
BRANCH  74  75
ATOM     75  S   UNL A   1      36.145  31.891  30.795  1.00  0.00     0.124 S 
ATOM     76  O   UNL A   1      34.936  32.045  29.993  1.00  0.00    -0.237 OA
ATOM     77  O   UNL A   1      35.980  31.190  32.066  1.00  0.00    -0.237 OA
ATOM     78  O   UNL A   1      37.021  33.059  30.841  1.00  0.00    -0.744 OA
ENDBRANCH  74  75
ENDBRANCH  55  69
BRANCH  56  79
ATOM     79  C   UNL A   1      44.776  26.502  33.693  1.00  0.00    -0.014 A 
ATOM     80  C   UNL A   1      45.674  27.295  34.434  1.00  0.00     0.010 A 
ATOM     81  C   UNL A   1      43.866  25.703  34.414  1.00  0.00     0.010 A 
ATOM     82  C   UNL A   1      45.628  27.327  35.842  1.00  0.00     0.020 A 
ATOM     83  C   UNL A   1      43.813  25.729  35.815  1.00  0.00     0.020 A 
ATOM     84  C   UNL A   1      44.682  26.557  36.524  1.00  0.00     0.054 A 
BRANCH  84  85
ATOM     85  S   UNL A   1      44.518  26.722  38.329  1.00  0.00     0.124 S 
ATOM     86  O   UNL A   1      43.102  26.434  38.540  1.00  0.00    -0.237 OA
ATOM     87  O   UNL A   1      45.448  25.713  38.829  1.00  0.00    -0.237 OA
ATOM     88  O   UNL A   1      44.912  28.106  38.584  1.00  0.00    -0.744 OA
ENDBRANCH  84  85
ENDBRANCH  56  79
BRANCH  68  89
ATOM     89  C   UNL A   1      45.462  29.170  28.004  1.00  0.00    -0.014 A 
ATOM     90  C   UNL A   1      46.376  30.234  27.863  1.00  0.00     0.010 A 
ATOM     91  C   UNL A   1      45.912  27.864  27.743  1.00  0.00     0.010 A 
ATOM     92  C   UNL A   1      47.697  29.992  27.447  1.00  0.00     0.020 A 
ATOM     93  C   UNL A   1      47.228  27.615  27.349  1.00  0.00     0.020 A 
ATOM     94  C   UNL A   1      48.113  28.681  27.191  1.00  0.00     0.054 A 
BRANCH  94  95
ATOM     95  S   UNL A   1      49.826  28.361  26.684  1.00  0.00     0.124 S 
ATOM     96  O   UNL A   1      50.575  29.356  27.448  1.00  0.00    -0.237 OA
ATOM     97  O   UNL A   1      50.032  26.972  27.088  1.00  0.00    -0.237 OA
ATOM     98  O   UNL A   1      49.809  28.579  25.238  1.00  0.00    -0.744 OA
ENDBRANCH  94  95
ENDBRANCH  68  89
ENDBRANCH  42  43
ENDBRANCH  34  37
ENDBRANCH   1  33
TORSDOF 16
ENDMDL
MODEL 3
REMARK VINA RESULT:     -11.4      4.848      9.593
REMARK SMILES Cn1cc([C@@H]2CC(NCCCCNC(=O)c3ccc(-c4c5nc(c(-c6ccc(S(=O)(=O)[O-])cc6)c6ccc([nH]6)c(-c6ccc(S(=O)(=O)[O-])cc6)c6nc(c(-c7ccc(S(=O)(=O)[O-])cc7)c7ccc4[nH]7)C=C6)C=C5)cc3)=[NH+]c3c2sc(C(=O)[O-])c3-c2ccc(Cl)cc2)cn1
REMARK SMILES IDX 12 1 11 2 10 3 9 4 8 5 5 6 6 7 78 8 7 9 77 10 79 11 76 12
REMARK SMILES IDX 84 13 80 14 4 17 1 18 2 19 3 20 93 21 92 22 85 23 86 24
REMARK SMILES IDX 91 25 87 26 90 27 88 28 89 29 81 30 82 31 83 32 13 33 14 34
REMARK SMILES IDX 15 36 16 37 17 38 75 39 18 40 74 41 19 42 20 43 21 44 68 45
REMARK SMILES IDX 22 46 73 47 67 48 69 49 23 50 72 51 66 52 65 53 24 55 54 56
REMARK SMILES IDX 35 57 53 58 36 59 39 60 52 61 70 62 37 63 38 64 51 66 71 67
REMARK SMILES IDX 40 68 25 69 26 70 34 71 27 72 33 73 28 74 29 75 30 76 31 77
REMARK SMILES IDX 32 78 55 79 56 80 64 81 57 82 63 83 58 84 59 85 60 86 61 87
REMARK SMILES IDX 62 88 41 89 42 90 50 91 43 92 49 93 44 94 45 95 46 96 47 97
REMARK SMILES IDX 48 98
REMARK H PARENT 8 15 76 16 13 35 69 54 39 65
REMARK Flexibility Score: inf
ROOT
ATOM      1  C   UNL A   1      34.142  35.042  32.089  1.00  0.00     0.116 C 
ENDROOT
BRANCH   1   2
ATOM      2  C   UNL A   1      33.797  33.932  33.073  1.00  0.00     0.025 C 
BRANCH   2   3
ATOM      3  C   UNL A   1      35.002  33.314  33.794  1.00  0.00     0.048 C 
BRANCH   3   4
ATOM      4  C   UNL A   1      35.897  34.284  34.571  1.00  0.00     0.233 C 
BRANCH   4   5
ATOM      5  N   UNL A   1      37.169  34.491  33.899  1.00  0.00    -0.278 N 
ATOM      6  C   UNL A   1      41.004  34.344  34.253  1.00  0.00     0.079 C 
ATOM      7  C   UNL A   1      39.622  34.460  33.591  1.00  0.00     0.142 C 
ATOM      8  C   UNL A   1      40.870  33.902  35.670  1.00  0.00     0.061 A 
ATOM      9  C   UNL A   1      38.399  34.302  34.505  1.00  0.00     0.248 C 
ATOM     10  C   UNL A   1      39.692  33.745  36.333  1.00  0.00     0.147 A 
ATOM     11  S   UNL A   1      42.195  33.534  36.670  1.00  0.00    -0.133 S 
ATOM     12  N   UNL A   1      38.442  33.981  35.765  1.00  0.00    -0.243 N 
ATOM     13  C   UNL A   1      39.836  33.307  37.686  1.00  0.00     0.049 A 
ATOM     14  C   UNL A   1      41.181  33.179  38.027  1.00  0.00     0.062 A 
ATOM     15  H   UNL A   1      37.155  34.783  32.960  1.00  0.00     0.304 HD
ATOM     16  H   UNL A   1      37.618  33.907  36.299  1.00  0.00     0.312 HD
BRANCH   6  17
ATOM     17  C   UNL A   1      41.806  35.612  34.151  1.00  0.00    -0.001 A 
ATOM     18  C   UNL A   1      43.976  38.102  32.710  1.00  0.00     0.173 C 
ATOM     19  N   UNL A   1      43.097  37.258  33.480  1.00  0.00    -0.276 N 
ATOM     20  C   UNL A   1      42.746  35.971  33.204  1.00  0.00     0.112 A 
ATOM     21  N   UNL A   1      42.499  37.755  34.575  1.00  0.00    -0.182 NA
ATOM     22  C   UNL A   1      41.703  36.759  34.976  1.00  0.00     0.139 A 
ENDBRANCH   6  17
BRANCH  13  23
ATOM     23  C   UNL A   1      38.726  32.990  38.582  1.00  0.00    -0.012 A 
ATOM     24  C   UNL A   1      38.468  33.760  39.723  1.00  0.00     0.010 A 
ATOM     25  C   UNL A   1      37.892  31.906  38.278  1.00  0.00     0.010 A 
ATOM     26  C   UNL A   1      37.423  33.408  40.582  1.00  0.00     0.021 A 
ATOM     27  C   UNL A   1      36.839  31.562  39.129  1.00  0.00     0.021 A 
ATOM     28  C   UNL A   1      36.620  32.306  40.285  1.00  0.00     0.041 A 
ATOM     29  Cl  UNL A   1      35.351  31.861  41.360  1.00  0.00    -0.084 Cl
ENDBRANCH  13  23
BRANCH  14  30
ATOM     30  C   UNL A   1      41.862  32.798  39.249  1.00  0.00     0.082 C 
ATOM     31  O   UNL A   1      41.997  33.443  40.277  1.00  0.00    -0.544 OA
ATOM     32  O   UNL A   1      42.395  31.557  39.198  1.00  0.00    -0.544 OA
ENDBRANCH  14  30
ENDBRANCH   4   5
ENDBRANCH   3   4
ENDBRANCH   2   3
ENDBRANCH   1   2
BRANCH   1  33
ATOM     33  N   UNL A   1      33.713  34.763  30.718  1.00  0.00    -0.352 N 
ATOM     34  C   UNL A   1      34.457  34.167  29.713  1.00  0.00     0.251 C 
ATOM     35  H   UNL A   1      32.795  35.030  30.484  1.00  0.00     0.163 HD
ATOM     36  O   UNL A   1      34.180  34.348  28.533  1.00  0.00    -0.269 OA
BRANCH  34  37
ATOM     37  C   UNL A   1      35.584  33.296  30.097  1.00  0.00     0.039 A 
ATOM     38  C   UNL A   1      35.409  31.945  30.412  1.00  0.00     0.014 A 
ATOM     39  C   UNL A   1      36.854  33.865  30.096  1.00  0.00     0.014 A 
ATOM     40  C   UNL A   1      36.540  31.158  30.637  1.00  0.00     0.010 A 
ATOM     41  C   UNL A   1      37.962  33.060  30.145  1.00  0.00     0.010 A 
ATOM     42  C   UNL A   1      37.819  31.719  30.477  1.00  0.00    -0.014 A 
BRANCH  42  43
ATOM     43  C   UNL A   1      39.025  30.894  30.507  1.00  0.00     0.031 A 
ATOM     44  C   UNL A   1      39.611  30.742  31.865  1.00  0.00     0.074 A 
ATOM     45  C   UNL A   1      39.434  30.139  29.461  1.00  0.00     0.049 A 
ATOM     46  N   UNL A   1      40.699  31.270  32.314  1.00  0.00    -0.248 NA
ATOM     47  C   UNL A   1      38.805  30.070  32.902  1.00  0.00     0.031 C 
ATOM     48  C   UNL A   1      38.768  29.950  28.164  1.00  0.00     0.029 A 
ATOM     49  N   UNL A   1      40.484  29.275  29.374  1.00  0.00    -0.354 N 
ATOM     50  C   UNL A   1      40.852  30.775  33.605  1.00  0.00     0.074 A 
ATOM     51  C   UNL A   1      39.568  30.245  33.984  1.00  0.00     0.031 C 
ATOM     52  C   UNL A   1      39.282  28.867  27.537  1.00  0.00     0.029 A 
ATOM     53  C   UNL A   1      40.431  28.401  28.288  1.00  0.00     0.049 A 
ATOM     54  H   UNL A   1      41.221  29.269  30.026  1.00  0.00     0.167 HD
ATOM     55  C   UNL A   1      42.089  30.565  34.136  1.00  0.00     0.031 A 
ATOM     56  C   UNL A   1      41.267  27.364  28.021  1.00  0.00     0.031 A 
ATOM     57  C   UNL A   1      43.114  31.211  33.355  1.00  0.00     0.049 A 
ATOM     58  C   UNL A   1      42.512  27.616  28.783  1.00  0.00     0.074 A 
ATOM     59  C   UNL A   1      43.379  32.510  32.972  1.00  0.00     0.029 A 
ATOM     60  N   UNL A   1      43.819  30.404  32.491  1.00  0.00    -0.354 N 
ATOM     61  N   UNL A   1      43.305  28.623  28.543  1.00  0.00    -0.248 NA
ATOM     62  C   UNL A   1      42.636  27.024  30.102  1.00  0.00     0.031 C 
ATOM     63  C   UNL A   1      43.849  32.410  31.630  1.00  0.00     0.029 A 
ATOM     64  C   UNL A   1      43.934  31.056  31.292  1.00  0.00     0.049 A 
ATOM     65  H   UNL A   1      44.178  29.512  32.699  1.00  0.00     0.167 HD
ATOM     66  C   UNL A   1      43.692  29.072  29.797  1.00  0.00     0.074 A 
ATOM     67  C   UNL A   1      43.339  27.985  30.709  1.00  0.00     0.031 C 
ATOM     68  C   UNL A   1      44.000  30.386  30.007  1.00  0.00     0.031 A 
BRANCH  55  69
ATOM     69  C   UNL A   1      42.409  29.413  35.064  1.00  0.00    -0.014 A 
ATOM     70  C   UNL A   1      43.305  29.629  36.131  1.00  0.00     0.010 A 
ATOM     71  C   UNL A   1      42.089  28.073  34.764  1.00  0.00     0.010 A 
ATOM     72  C   UNL A   1      43.897  28.557  36.814  1.00  0.00     0.020 A 
ATOM     73  C   UNL A   1      42.637  26.999  35.466  1.00  0.00     0.020 A 
ATOM     74  C   UNL A   1      43.563  27.247  36.468  1.00  0.00     0.054 A 
BRANCH  74  75
ATOM     75  S   UNL A   1      44.388  25.868  37.299  1.00  0.00     0.124 S 
ATOM     76  O   UNL A   1      43.306  24.895  37.409  1.00  0.00    -0.237 OA
ATOM     77  O   UNL A   1      45.452  25.534  36.356  1.00  0.00    -0.237 OA
ATOM     78  O   UNL A   1      44.839  26.451  38.560  1.00  0.00    -0.744 OA
ENDBRANCH  74  75
ENDBRANCH  55  69
BRANCH  56  79
ATOM     79  C   UNL A   1      40.969  26.052  27.393  1.00  0.00    -0.014 A 
ATOM     80  C   UNL A   1      41.935  25.362  26.633  1.00  0.00     0.010 A 
ATOM     81  C   UNL A   1      39.822  25.335  27.790  1.00  0.00     0.010 A 
ATOM     82  C   UNL A   1      41.784  23.995  26.329  1.00  0.00     0.020 A 
ATOM     83  C   UNL A   1      39.663  23.975  27.491  1.00  0.00     0.020 A 
ATOM     84  C   UNL A   1      40.655  23.304  26.778  1.00  0.00     0.054 A 
BRANCH  84  85
ATOM     85  S   UNL A   1      40.539  21.505  26.522  1.00  0.00     0.124 S 
ATOM     86  O   UNL A   1      40.639  20.990  27.884  1.00  0.00    -0.237 OA
ATOM     87  O   UNL A   1      39.233  21.356  25.885  1.00  0.00    -0.237 OA
ATOM     88  O   UNL A   1      41.683  21.206  25.663  1.00  0.00    -0.744 OA
ENDBRANCH  84  85
ENDBRANCH  56  79
BRANCH  68  89
ATOM     89  C   UNL A   1      44.247  31.269  28.802  1.00  0.00    -0.014 A 
ATOM     90  C   UNL A   1      45.026  30.902  27.686  1.00  0.00     0.010 A 
ATOM     91  C   UNL A   1      43.538  32.482  28.752  1.00  0.00     0.010 A 
ATOM     92  C   UNL A   1      45.109  31.746  26.563  1.00  0.00     0.020 A 
ATOM     93  C   UNL A   1      43.601  33.313  27.633  1.00  0.00     0.020 A 
ATOM     94  C   UNL A   1      44.395  32.948  26.547  1.00  0.00     0.054 A 
BRANCH  94  95
ATOM     95  S   UNL A   1      44.475  34.025  25.088  1.00  0.00     0.124 S 
ATOM     96  O   UNL A   1      44.225  33.092  23.991  1.00  0.00    -0.237 OA
ATOM     97  O   UNL A   1      43.414  34.997  25.342  1.00  0.00    -0.237 OA
ATOM     98  O   UNL A   1      45.830  34.574  25.133  1.00  0.00    -0.744 OA
ENDBRANCH  94  95
ENDBRANCH  68  89
ENDBRANCH  42  43
ENDBRANCH  34  37
ENDBRANCH   1  33
TORSDOF 16
ENDMDL
