MODEL 1
REMARK VINA RESULT:     -10.7      0.000      0.000
REMARK SMILES CCCCCCNC(=O)Oc1cccc(-c2ccc([C@@H](C)C(=O)NCCCCNC(=O)c3ccc(-c4c5nc(c(-c6ccc(S(=O)(=O)[O-])cc6)c6ccc([nH]6)c(-c6ccc(S(=O)(=O)[O-])cc6)c6nc(c(-c7ccc(S(=O)(=O)[O-])cc7)c7ccc4[nH]7)C=C6)C=C5)cc3)cc2[N+](=O)[O-])c1
REMARK SMILES IDX 20 1 21 2 19 3 16 4 17 5 93 6 18 7 92 8 15 9 11 10 12 11
REMARK SMILES IDX 97 12 13 13 14 14 10 15 8 16 7 17 9 19 6 20 5 21 4 22 3 23
REMARK SMILES IDX 2 24 1 25 94 26 95 27 96 28 22 29 23 30 24 31 25 33 26 34
REMARK SMILES IDX 27 35 28 36 29 37 30 38 31 40 32 41 33 42 91 43 34 44 90 45
REMARK SMILES IDX 35 46 36 47 37 48 84 49 38 50 89 51 83 52 85 53 39 54 88 55
REMARK SMILES IDX 82 56 81 57 40 59 70 60 51 61 69 62 52 63 55 64 68 65 86 66
REMARK SMILES IDX 53 67 54 68 67 70 87 71 56 72 41 73 42 74 50 75 43 76 49 77
REMARK SMILES IDX 44 78 45 79 46 80 47 81 48 82 71 83 72 84 80 85 73 86 79 87
REMARK SMILES IDX 74 88 75 89 76 90 77 91 78 92 57 93 58 94 66 95 59 96 65 97
REMARK SMILES IDX 60 98 61 99 62 100 63 101 64 102
REMARK H PARENT 7 18 24 32 29 39 85 58 55 69
REMARK Flexibility Score: inf
ROOT
ATOM      1  C   UNL A   1      29.579  27.969  23.126  1.00  0.00     0.105 C 
ATOM      2  C   UNL A   1      28.052  27.969  23.132  1.00  0.00     0.023 C 
ENDROOT
BRANCH   1   3
ATOM      3  C   UNL A   1      30.239  26.842  23.908  1.00  0.00    -0.029 A 
ATOM      4  C   UNL A   1      31.733  24.846  25.340  1.00  0.00     0.060 A 
ATOM      5  C   UNL A   1      30.983  25.834  26.000  1.00  0.00     0.016 A 
ATOM      6  C   UNL A   1      31.620  24.825  23.936  1.00  0.00     0.277 A 
ATOM      7  C   UNL A   1      30.211  26.771  25.301  1.00  0.00     0.005 A 
ATOM      8  C   UNL A   1      30.930  25.830  23.226  1.00  0.00     0.090 A 
BRANCH   4   9
ATOM      9  C   UNL A   1      32.597  23.947  26.139  1.00  0.00    -0.008 A 
ATOM     10  C   UNL A   1      34.774  23.001  26.667  1.00  0.00     0.133 A 
ATOM     11  C   UNL A   1      34.224  22.215  27.676  1.00  0.00     0.047 A 
ATOM     12  C   UNL A   1      33.983  23.870  25.914  1.00  0.00     0.056 A 
ATOM     13  C   UNL A   1      32.862  22.305  27.939  1.00  0.00     0.004 A 
ATOM     14  C   UNL A   1      32.057  23.153  27.171  1.00  0.00     0.009 A 
BRANCH  10  15
ATOM     15  O   UNL A   1      36.117  22.750  26.336  1.00  0.00    -0.410 OA
BRANCH  15  16
ATOM     16  C   UNL A   1      36.511  22.746  25.007  1.00  0.00     0.412 C 
ATOM     17  N   UNL A   1      36.309  21.537  24.399  1.00  0.00    -0.321 N 
ATOM     18  H   UNL A   1      36.622  21.451  23.469  1.00  0.00     0.167 HD
ATOM     19  O   UNL A   1      36.994  23.692  24.400  1.00  0.00    -0.224 OA
BRANCH  17  20
ATOM     20  C   UNL A   1      35.682  20.369  24.986  1.00  0.00     0.119 C 
BRANCH  20  21
ATOM     21  C   UNL A   1      34.206  20.258  24.602  1.00  0.00     0.021 C 
BRANCH  21  22
ATOM     22  C   UNL A   1      33.641  18.832  24.619  1.00  0.00     0.002 C 
BRANCH  22  23
ATOM     23  C   UNL A   1      34.622  17.731  24.202  1.00  0.00    -0.000 C 
BRANCH  23  24
ATOM     24  C   UNL A   1      34.430  16.383  24.902  1.00  0.00    -0.003 C 
ATOM     25  C   UNL A   1      35.725  15.800  25.449  1.00  0.00     0.004 C 
ENDBRANCH  23  24
ENDBRANCH  22  23
ENDBRANCH  21  22
ENDBRANCH  20  21
ENDBRANCH  17  20
ENDBRANCH  15  16
ENDBRANCH  10  15
ENDBRANCH   4   9
BRANCH   6  26
ATOM     26  N   UNL A   1      32.136  23.706  23.150  1.00  0.00     0.063 N 
ATOM     27  O   UNL A   1      33.141  23.913  22.455  1.00  0.00    -0.258 OA
ATOM     28  O   UNL A   1      31.501  22.643  23.177  1.00  0.00    -0.258 OA
ENDBRANCH   6  26
ENDBRANCH   1   3
BRANCH   1  29
ATOM     29  C   UNL A   1      30.217  29.349  23.359  1.00  0.00     0.227 C 
ATOM     30  O   UNL A   1      29.507  30.294  23.723  1.00  0.00    -0.274 OA
ATOM     31  N   UNL A   1      31.542  29.615  23.201  1.00  0.00    -0.356 N 
ATOM     32  H   UNL A   1      31.803  30.524  23.472  1.00  0.00     0.163 HD
BRANCH  31  33
ATOM     33  C   UNL A   1      32.638  28.806  22.710  1.00  0.00     0.116 C 
BRANCH  33  34
ATOM     34  C   UNL A   1      33.644  28.481  23.816  1.00  0.00     0.023 C 
BRANCH  34  35
ATOM     35  C   UNL A   1      33.130  28.687  25.238  1.00  0.00     0.023 C 
BRANCH  35  36
ATOM     36  C   UNL A   1      34.162  29.215  26.225  1.00  0.00     0.116 C 
BRANCH  36  37
ATOM     37  N   UNL A   1      33.843  30.525  26.775  1.00  0.00    -0.352 N 
ATOM     38  C   UNL A   1      34.545  31.235  27.723  1.00  0.00     0.251 C 
ATOM     39  H   UNL A   1      33.030  30.955  26.426  1.00  0.00     0.163 HD
ATOM     40  O   UNL A   1      34.111  32.296  28.156  1.00  0.00    -0.269 OA
BRANCH  38  41
ATOM     41  C   UNL A   1      35.806  30.666  28.242  1.00  0.00     0.039 A 
ATOM     42  C   UNL A   1      37.013  31.296  27.934  1.00  0.00     0.014 A 
ATOM     43  C   UNL A   1      35.778  29.566  29.103  1.00  0.00     0.014 A 
ATOM     44  C   UNL A   1      38.188  30.864  28.551  1.00  0.00     0.010 A 
ATOM     45  C   UNL A   1      36.932  29.198  29.783  1.00  0.00     0.010 A 
ATOM     46  C   UNL A   1      38.150  29.839  29.511  1.00  0.00    -0.014 A 
BRANCH  46  47
ATOM     47  C   UNL A   1      39.373  29.410  30.236  1.00  0.00     0.031 A 
ATOM     48  C   UNL A   1      39.775  30.114  31.505  1.00  0.00     0.074 A 
ATOM     49  C   UNL A   1      40.159  28.444  29.718  1.00  0.00     0.049 A 
ATOM     50  N   UNL A   1      40.838  29.936  32.244  1.00  0.00    -0.248 NA
ATOM     51  C   UNL A   1      38.879  31.179  31.987  1.00  0.00     0.031 C 
ATOM     52  C   UNL A   1      39.907  27.723  28.466  1.00  0.00     0.029 A 
ATOM     53  N   UNL A   1      41.335  27.907  30.176  1.00  0.00    -0.354 N 
ATOM     54  C   UNL A   1      40.751  30.880  33.261  1.00  0.00     0.074 A 
ATOM     55  C   UNL A   1      39.563  31.663  33.012  1.00  0.00     0.031 C 
ATOM     56  C   UNL A   1      40.881  26.819  28.276  1.00  0.00     0.029 A 
ATOM     57  C   UNL A   1      41.846  26.921  29.366  1.00  0.00     0.049 A 
ATOM     58  H   UNL A   1      41.772  28.199  31.009  1.00  0.00     0.167 HD
ATOM     59  C   UNL A   1      41.573  31.063  34.321  1.00  0.00     0.031 A 
ATOM     60  C   UNL A   1      42.968  26.182  29.484  1.00  0.00     0.031 A 
ATOM     61  C   UNL A   1      42.741  30.266  34.579  1.00  0.00     0.049 A 
ATOM     62  C   UNL A   1      43.858  26.393  30.679  1.00  0.00     0.074 A 
ATOM     63  C   UNL A   1      43.604  30.328  35.658  1.00  0.00     0.029 A 
ATOM     64  N   UNL A   1      43.208  29.258  33.748  1.00  0.00    -0.354 N 
ATOM     65  N   UNL A   1      43.721  27.245  31.668  1.00  0.00    -0.248 NA
ATOM     66  C   UNL A   1      45.043  25.531  30.784  1.00  0.00     0.031 C 
ATOM     67  C   UNL A   1      44.621  29.389  35.457  1.00  0.00     0.029 A 
ATOM     68  C   UNL A   1      44.358  28.702  34.281  1.00  0.00     0.049 A 
ATOM     69  H   UNL A   1      42.785  28.979  32.904  1.00  0.00     0.167 HD
ATOM     70  C   UNL A   1      44.786  27.000  32.529  1.00  0.00     0.074 A 
ATOM     71  C   UNL A   1      45.549  25.913  31.949  1.00  0.00     0.031 C 
ATOM     72  C   UNL A   1      45.102  27.617  33.693  1.00  0.00     0.031 A 
BRANCH  59  73
ATOM     73  C   UNL A   1      41.231  32.172  35.282  1.00  0.00    -0.014 A 
ATOM     74  C   UNL A   1      40.471  31.923  36.439  1.00  0.00     0.010 A 
ATOM     75  C   UNL A   1      41.700  33.476  35.041  1.00  0.00     0.010 A 
ATOM     76  C   UNL A   1      40.146  32.965  37.312  1.00  0.00     0.020 A 
ATOM     77  C   UNL A   1      41.403  34.515  35.927  1.00  0.00     0.020 A 
ATOM     78  C   UNL A   1      40.612  34.255  37.047  1.00  0.00     0.054 A 
BRANCH  78  79
ATOM     79  S   UNL A   1      40.191  35.585  38.208  1.00  0.00     0.124 S 
ATOM     80  O   UNL A   1      40.045  36.728  37.312  1.00  0.00    -0.237 OA
ATOM     81  O   UNL A   1      38.954  35.101  38.815  1.00  0.00    -0.237 OA
ATOM     82  O   UNL A   1      41.343  35.639  39.105  1.00  0.00    -0.744 OA
ENDBRANCH  78  79
ENDBRANCH  59  73
BRANCH  60  83
ATOM     83  C   UNL A   1      43.298  25.156  28.456  1.00  0.00    -0.014 A 
ATOM     84  C   UNL A   1      44.166  25.464  27.395  1.00  0.00     0.010 A 
ATOM     85  C   UNL A   1      42.756  23.861  28.541  1.00  0.00     0.010 A 
ATOM     86  C   UNL A   1      44.470  24.504  26.424  1.00  0.00     0.020 A 
ATOM     87  C   UNL A   1      43.079  22.890  27.589  1.00  0.00     0.020 A 
ATOM     88  C   UNL A   1      43.925  23.221  26.529  1.00  0.00     0.054 A 
BRANCH  88  89
ATOM     89  S   UNL A   1      44.374  21.977  25.287  1.00  0.00     0.124 S 
ATOM     90  O   UNL A   1      43.730  20.778  25.812  1.00  0.00    -0.237 OA
ATOM     91  O   UNL A   1      43.791  22.526  24.065  1.00  0.00    -0.237 OA
ATOM     92  O   UNL A   1      45.835  21.970  25.323  1.00  0.00    -0.744 OA
ENDBRANCH  88  89
ENDBRANCH  60  83
BRANCH  72  93
ATOM     93  C   UNL A   1      46.301  27.106  34.446  1.00  0.00    -0.014 A 
ATOM     94  C   UNL A   1      46.196  26.039  35.355  1.00  0.00     0.010 A 
ATOM     95  C   UNL A   1      47.565  27.671  34.194  1.00  0.00     0.010 A 
ATOM     96  C   UNL A   1      47.330  25.567  36.022  1.00  0.00     0.020 A 
ATOM     97  C   UNL A   1      48.704  27.182  34.836  1.00  0.00     0.020 A 
ATOM     98  C   UNL A   1      48.577  26.142  35.758  1.00  0.00     0.054 A 
BRANCH  98  99
ATOM     99  S   UNL A   1      50.040  25.482  36.603  1.00  0.00     0.124 S 
ATOM    100  O   UNL A   1      51.113  26.286  36.025  1.00  0.00    -0.237 OA
ATOM    101  O   UNL A   1      49.744  25.745  38.009  1.00  0.00    -0.237 OA
ATOM    102  O   UNL A   1      50.047  24.070  36.228  1.00  0.00    -0.744 OA
ENDBRANCH  98  99
ENDBRANCH  72  93
ENDBRANCH  46  47
ENDBRANCH  38  41
ENDBRANCH  36  37
ENDBRANCH  35  36
ENDBRANCH  34  35
ENDBRANCH  33  34
ENDBRANCH  31  33
ENDBRANCH   1  29
TORSDOF 24
ENDMDL
MODEL 2
REMARK VINA RESULT:     -10.3      2.654      8.700
REMARK SMILES CCCCCCNC(=O)Oc1cccc(-c2ccc([C@@H](C)C(=O)NCCCCNC(=O)c3ccc(-c4c5nc(c(-c6ccc(S(=O)(=O)[O-])cc6)c6ccc([nH]6)c(-c6ccc(S(=O)(=O)[O-])cc6)c6nc(c(-c7ccc(S(=O)(=O)[O-])cc7)c7ccc4[nH]7)C=C6)C=C5)cc3)cc2[N+](=O)[O-])c1
REMARK SMILES IDX 20 1 21 2 19 3 16 4 17 5 93 6 18 7 92 8 15 9 11 10 12 11
REMARK SMILES IDX 97 12 13 13 14 14 10 15 8 16 7 17 9 19 6 20 5 21 4 22 3 23
REMARK SMILES IDX 2 24 1 25 94 26 95 27 96 28 22 29 23 30 24 31 25 33 26 34
REMARK SMILES IDX 27 35 28 36 29 37 30 38 31 40 32 41 33 42 91 43 34 44 90 45
REMARK SMILES IDX 35 46 36 47 37 48 84 49 38 50 89 51 83 52 85 53 39 54 88 55
REMARK SMILES IDX 82 56 81 57 40 59 70 60 51 61 69 62 52 63 55 64 68 65 86 66
REMARK SMILES IDX 53 67 54 68 67 70 87 71 56 72 41 73 42 74 50 75 43 76 49 77
REMARK SMILES IDX 44 78 45 79 46 80 47 81 48 82 71 83 72 84 80 85 73 86 79 87
REMARK SMILES IDX 74 88 75 89 76 90 77 91 78 92 57 93 58 94 66 95 59 96 65 97
REMARK SMILES IDX 60 98 61 99 62 100 63 101 64 102
REMARK H PARENT 7 18 24 32 29 39 85 58 55 69
REMARK Flexibility Score: inf
ROOT
ATOM      1  C   UNL A   1      32.437  27.405  25.800  1.00  0.00     0.105 C 
ATOM      2  C   UNL A   1      31.143  27.436  24.990  1.00  0.00     0.023 C 
ENDROOT
BRANCH   1   3
ATOM      3  C   UNL A   1      33.187  26.080  25.789  1.00  0.00    -0.029 A 
ATOM      4  C   UNL A   1      34.397  23.479  25.601  1.00  0.00     0.060 A 
ATOM      5  C   UNL A   1      34.875  24.579  24.869  1.00  0.00     0.016 A 
ATOM      6  C   UNL A   1      33.360  23.752  26.514  1.00  0.00     0.277 A 
ATOM      7  C   UNL A   1      34.320  25.858  25.005  1.00  0.00     0.005 A 
ATOM      8  C   UNL A   1      32.730  25.013  26.575  1.00  0.00     0.090 A 
BRANCH   4   9
ATOM      9  C   UNL A   1      34.972  22.139  25.340  1.00  0.00    -0.008 A 
ATOM     10  C   UNL A   1      34.717  19.757  24.924  1.00  0.00     0.133 A 
ATOM     11  C   UNL A   1      36.097  19.589  24.850  1.00  0.00     0.047 A 
ATOM     12  C   UNL A   1      34.151  21.013  25.150  1.00  0.00     0.056 A 
ATOM     13  C   UNL A   1      36.923  20.697  24.996  1.00  0.00     0.004 A 
ATOM     14  C   UNL A   1      36.366  21.955  25.250  1.00  0.00     0.009 A 
BRANCH  10  15
ATOM     15  O   UNL A   1      33.941  18.585  24.932  1.00  0.00    -0.410 OA
BRANCH  15  16
ATOM     16  C   UNL A   1      33.897  17.779  23.806  1.00  0.00     0.412 C 
ATOM     17  N   UNL A   1      32.847  18.077  22.981  1.00  0.00    -0.321 N 
ATOM     18  H   UNL A   1      32.727  17.502  22.191  1.00  0.00     0.167 HD
ATOM     19  O   UNL A   1      34.685  16.882  23.536  1.00  0.00    -0.224 OA
BRANCH  17  20
ATOM     20  C   UNL A   1      31.894  19.156  23.152  1.00  0.00     0.119 C 
BRANCH  20  21
ATOM     21  C   UNL A   1      32.110  20.278  22.136  1.00  0.00     0.021 C 
BRANCH  21  22
ATOM     22  C   UNL A   1      31.713  21.676  22.624  1.00  0.00     0.002 C 
BRANCH  22  23
ATOM     23  C   UNL A   1      32.755  22.776  22.393  1.00  0.00    -0.000 C 
BRANCH  23  24
ATOM     24  C   UNL A   1      32.230  24.210  22.495  1.00  0.00    -0.003 C 
ATOM     25  C   UNL A   1      30.888  24.310  23.204  1.00  0.00     0.004 C 
ENDBRANCH  23  24
ENDBRANCH  22  23
ENDBRANCH  21  22
ENDBRANCH  20  21
ENDBRANCH  17  20
ENDBRANCH  15  16
ENDBRANCH  10  15
ENDBRANCH   4   9
BRANCH   6  26
ATOM     26  N   UNL A   1      32.948  22.766  27.511  1.00  0.00     0.063 N 
ATOM     27  O   UNL A   1      33.843  22.148  28.104  1.00  0.00    -0.258 OA
ATOM     28  O   UNL A   1      31.734  22.562  27.653  1.00  0.00    -0.258 OA
ENDBRANCH   6  26
ENDBRANCH   1   3
BRANCH   1  29
ATOM     29  C   UNL A   1      32.334  28.053  27.191  1.00  0.00     0.227 C 
ATOM     30  O   UNL A   1      31.311  27.886  27.866  1.00  0.00    -0.274 OA
ATOM     31  N   UNL A   1      33.314  28.809  27.756  1.00  0.00    -0.356 N 
ATOM     32  H   UNL A   1      33.126  29.080  28.684  1.00  0.00     0.163 HD
BRANCH  31  33
ATOM     33  C   UNL A   1      34.581  29.289  27.245  1.00  0.00     0.116 C 
BRANCH  33  34
ATOM     34  C   UNL A   1      34.958  30.645  27.844  1.00  0.00     0.023 C 
BRANCH  34  35
ATOM     35  C   UNL A   1      33.806  31.638  27.970  1.00  0.00     0.023 C 
BRANCH  35  36
ATOM     36  C   UNL A   1      34.173  33.089  27.691  1.00  0.00     0.116 C 
BRANCH  36  37
ATOM     37  N   UNL A   1      33.298  34.059  28.337  1.00  0.00    -0.352 N 
ATOM     38  C   UNL A   1      33.391  34.558  29.616  1.00  0.00     0.251 C 
ATOM     39  H   UNL A   1      32.553  34.398  27.791  1.00  0.00     0.163 HD
ATOM     40  O   UNL A   1      32.530  35.311  30.056  1.00  0.00    -0.269 OA
BRANCH  38  41
ATOM     41  C   UNL A   1      34.524  34.129  30.462  1.00  0.00     0.039 A 
ATOM     42  C   UNL A   1      34.324  33.119  31.405  1.00  0.00     0.014 A 
ATOM     43  C   UNL A   1      35.797  34.667  30.255  1.00  0.00     0.014 A 
ATOM     44  C   UNL A   1      35.421  32.595  32.090  1.00  0.00     0.010 A 
ATOM     45  C   UNL A   1      36.897  34.083  30.872  1.00  0.00     0.010 A 
ATOM     46  C   UNL A   1      36.721  33.045  31.800  1.00  0.00    -0.014 A 
BRANCH  46  47
ATOM     47  C   UNL A   1      37.911  32.455  32.462  1.00  0.00     0.031 A 
ATOM     48  C   UNL A   1      38.665  31.340  31.787  1.00  0.00     0.074 A 
ATOM     49  C   UNL A   1      38.269  32.865  33.695  1.00  0.00     0.049 A 
ATOM     50  N   UNL A   1      39.683  30.648  32.227  1.00  0.00    -0.248 NA
ATOM     51  C   UNL A   1      38.192  30.928  30.454  1.00  0.00     0.031 C 
ATOM     52  C   UNL A   1      37.586  33.900  34.478  1.00  0.00     0.029 A 
ATOM     53  N   UNL A   1      39.293  32.457  34.511  1.00  0.00    -0.354 N 
ATOM     54  C   UNL A   1      39.954  29.707  31.241  1.00  0.00     0.074 A 
ATOM     55  C   UNL A   1      38.961  29.879  30.206  1.00  0.00     0.031 C 
ATOM     56  C   UNL A   1      38.229  34.064  35.645  1.00  0.00     0.029 A 
ATOM     57  C   UNL A   1      39.343  33.124  35.713  1.00  0.00     0.049 A 
ATOM     58  H   UNL A   1      39.933  31.752  34.261  1.00  0.00     0.167 HD
ATOM     59  C   UNL A   1      40.955  28.797  31.189  1.00  0.00     0.031 A 
ATOM     60  C   UNL A   1      40.189  32.992  36.755  1.00  0.00     0.031 A 
ATOM     61  C   UNL A   1      41.956  28.645  32.209  1.00  0.00     0.049 A 
ATOM     62  C   UNL A   1      41.303  31.985  36.667  1.00  0.00     0.074 A 
ATOM     63  C   UNL A   1      43.050  27.797  32.223  1.00  0.00     0.029 A 
ATOM     64  N   UNL A   1      41.988  29.360  33.397  1.00  0.00    -0.354 N 
ATOM     65  N   UNL A   1      41.585  31.150  35.694  1.00  0.00    -0.248 NA
ATOM     66  C   UNL A   1      42.224  31.913  37.810  1.00  0.00     0.031 C 
ATOM     67  C   UNL A   1      43.717  27.966  33.441  1.00  0.00     0.029 A 
ATOM     68  C   UNL A   1      43.072  28.961  34.160  1.00  0.00     0.049 A 
ATOM     69  H   UNL A   1      41.336  30.050  33.660  1.00  0.00     0.167 HD
ATOM     70  C   UNL A   1      42.734  30.476  36.094  1.00  0.00     0.074 A 
ATOM     71  C   UNL A   1      43.100  31.009  37.391  1.00  0.00     0.031 C 
ATOM     72  C   UNL A   1      43.424  29.507  35.446  1.00  0.00     0.031 A 
BRANCH  59  73
ATOM     73  C   UNL A   1      41.013  27.896  29.983  1.00  0.00    -0.014 A 
ATOM     74  C   UNL A   1      40.064  26.875  29.791  1.00  0.00     0.010 A 
ATOM     75  C   UNL A   1      42.011  28.091  29.012  1.00  0.00     0.010 A 
ATOM     76  C   UNL A   1      40.141  26.037  28.676  1.00  0.00     0.020 A 
ATOM     77  C   UNL A   1      42.073  27.274  27.879  1.00  0.00     0.020 A 
ATOM     78  C   UNL A   1      41.148  26.240  27.729  1.00  0.00     0.054 A 
BRANCH  78  79
ATOM     79  S   UNL A   1      41.212  25.148  26.281  1.00  0.00     0.124 S 
ATOM     80  O   UNL A   1      41.381  26.106  25.192  1.00  0.00    -0.237 OA
ATOM     81  O   UNL A   1      42.372  24.308  26.564  1.00  0.00    -0.237 OA
ATOM     82  O   UNL A   1      39.924  24.458  26.311  1.00  0.00    -0.744 OA
ENDBRANCH  78  79
ENDBRANCH  59  73
BRANCH  60  83
ATOM     83  C   UNL A   1      40.030  33.855  37.958  1.00  0.00    -0.014 A 
ATOM     84  C   UNL A   1      39.145  33.489  38.986  1.00  0.00     0.010 A 
ATOM     85  C   UNL A   1      40.776  35.041  38.088  1.00  0.00     0.010 A 
ATOM     86  C   UNL A   1      38.990  34.303  40.113  1.00  0.00     0.020 A 
ATOM     87  C   UNL A   1      40.645  35.844  39.225  1.00  0.00     0.020 A 
ATOM     88  C   UNL A   1      39.743  35.475  40.226  1.00  0.00     0.054 A 
BRANCH  88  89
ATOM     89  S   UNL A   1      39.562  36.489  41.719  1.00  0.00     0.124 S 
ATOM     90  O   UNL A   1      40.923  36.498  42.247  1.00  0.00    -0.237 OA
ATOM     91  O   UNL A   1      39.084  37.761  41.183  1.00  0.00    -0.237 OA
ATOM     92  O   UNL A   1      38.586  35.752  42.517  1.00  0.00    -0.744 OA
ENDBRANCH  88  89
ENDBRANCH  60  83
BRANCH  72  93
ATOM     93  C   UNL A   1      44.672  28.984  36.105  1.00  0.00    -0.014 A 
ATOM     94  C   UNL A   1      44.617  27.983  37.091  1.00  0.00     0.010 A 
ATOM     95  C   UNL A   1      45.927  29.466  35.686  1.00  0.00     0.010 A 
ATOM     96  C   UNL A   1      45.793  27.497  37.668  1.00  0.00     0.020 A 
ATOM     97  C   UNL A   1      47.105  28.961  36.240  1.00  0.00     0.020 A 
ATOM     98  C   UNL A   1      47.029  27.989  37.239  1.00  0.00     0.054 A 
BRANCH  98  99
ATOM     99  S   UNL A   1      48.543  27.310  37.973  1.00  0.00     0.124 S 
ATOM    100  O   UNL A   1      48.823  26.178  37.094  1.00  0.00    -0.237 OA
ATOM    101  O   UNL A   1      49.477  28.428  37.876  1.00  0.00    -0.237 OA
ATOM    102  O   UNL A   1      48.140  26.959  39.333  1.00  0.00    -0.744 OA
ENDBRANCH  98  99
ENDBRANCH  72  93
ENDBRANCH  46  47
ENDBRANCH  38  41
ENDBRANCH  36  37
ENDBRANCH  35  36
ENDBRANCH  34  35
ENDBRANCH  33  34
ENDBRANCH  31  33
ENDBRANCH   1  29
TORSDOF 24
ENDMDL
MODEL 3
REMARK VINA RESULT:      -9.9      2.208      3.611
REMARK SMILES CCCCCCNC(=O)Oc1cccc(-c2ccc([C@@H](C)C(=O)NCCCCNC(=O)c3ccc(-c4c5nc(c(-c6ccc(S(=O)(=O)[O-])cc6)c6ccc([nH]6)c(-c6ccc(S(=O)(=O)[O-])cc6)c6nc(c(-c7ccc(S(=O)(=O)[O-])cc7)c7ccc4[nH]7)C=C6)C=C5)cc3)cc2[N+](=O)[O-])c1
REMARK SMILES IDX 20 1 21 2 19 3 16 4 17 5 93 6 18 7 92 8 15 9 11 10 12 11
REMARK SMILES IDX 97 12 13 13 14 14 10 15 8 16 7 17 9 19 6 20 5 21 4 22 3 23
REMARK SMILES IDX 2 24 1 25 94 26 95 27 96 28 22 29 23 30 24 31 25 33 26 34
REMARK SMILES IDX 27 35 28 36 29 37 30 38 31 40 32 41 33 42 91 43 34 44 90 45
REMARK SMILES IDX 35 46 36 47 37 48 84 49 38 50 89 51 83 52 85 53 39 54 88 55
REMARK SMILES IDX 82 56 81 57 40 59 70 60 51 61 69 62 52 63 55 64 68 65 86 66
REMARK SMILES IDX 53 67 54 68 67 70 87 71 56 72 41 73 42 74 50 75 43 76 49 77
REMARK SMILES IDX 44 78 45 79 46 80 47 81 48 82 71 83 72 84 80 85 73 86 79 87
REMARK SMILES IDX 74 88 75 89 76 90 77 91 78 92 57 93 58 94 66 95 59 96 65 97
REMARK SMILES IDX 60 98 61 99 62 100 63 101 64 102
REMARK H PARENT 7 18 24 32 29 39 85 58 55 69
REMARK Flexibility Score: inf
ROOT
ATOM      1  C   UNL A   1      31.696  27.892  25.664  1.00  0.00     0.105 C 
ATOM      2  C   UNL A   1      31.622  27.916  27.189  1.00  0.00     0.023 C 
ENDROOT
BRANCH   1   3
ATOM      3  C   UNL A   1      31.716  26.508  25.029  1.00  0.00    -0.029 A 
ATOM      4  C   UNL A   1      31.969  23.834  24.004  1.00  0.00     0.060 A 
ATOM      5  C   UNL A   1      30.953  24.195  24.905  1.00  0.00     0.016 A 
ATOM      6  C   UNL A   1      32.789  24.886  23.549  1.00  0.00     0.277 A 
ATOM      7  C   UNL A   1      30.798  25.511  25.360  1.00  0.00     0.005 A 
ATOM      8  C   UNL A   1      32.701  26.188  24.084  1.00  0.00     0.090 A 
BRANCH   4   9
ATOM      9  C   UNL A   1      32.130  22.408  23.637  1.00  0.00    -0.008 A 
ATOM     10  C   UNL A   1      32.807  20.136  24.173  1.00  0.00     0.133 A 
ATOM     11  C   UNL A   1      32.433  19.691  22.908  1.00  0.00     0.047 A 
ATOM     12  C   UNL A   1      32.647  21.471  24.548  1.00  0.00     0.056 A 
ATOM     13  C   UNL A   1      31.884  20.595  22.007  1.00  0.00     0.004 A 
ATOM     14  C   UNL A   1      31.745  21.940  22.364  1.00  0.00     0.009 A 
BRANCH  10  15
ATOM     15  O   UNL A   1      33.504  19.220  24.981  1.00  0.00    -0.410 OA
BRANCH  15  16
ATOM     16  C   UNL A   1      34.587  18.527  24.462  1.00  0.00     0.412 C 
ATOM     17  N   UNL A   1      35.776  19.174  24.664  1.00  0.00    -0.321 N 
ATOM     18  H   UNL A   1      36.578  18.761  24.269  1.00  0.00     0.167 HD
ATOM     19  O   UNL A   1      34.536  17.454  23.877  1.00  0.00    -0.224 OA
BRANCH  17  20
ATOM     20  C   UNL A   1      35.974  20.407  25.401  1.00  0.00     0.119 C 
BRANCH  20  21
ATOM     21  C   UNL A   1      36.603  21.498  24.534  1.00  0.00     0.021 C 
BRANCH  21  22
ATOM     22  C   UNL A   1      37.615  22.394  25.259  1.00  0.00     0.002 C 
BRANCH  22  23
ATOM     23  C   UNL A   1      37.049  23.701  25.826  1.00  0.00    -0.000 C 
BRANCH  23  24
ATOM     24  C   UNL A   1      35.572  23.963  25.521  1.00  0.00    -0.003 C 
ATOM     25  C   UNL A   1      34.657  23.698  26.708  1.00  0.00     0.004 C 
ENDBRANCH  23  24
ENDBRANCH  22  23
ENDBRANCH  21  22
ENDBRANCH  20  21
ENDBRANCH  17  20
ENDBRANCH  15  16
ENDBRANCH  10  15
ENDBRANCH   4   9
BRANCH   6  26
ATOM     26  N   UNL A   1      33.708  24.700  22.429  1.00  0.00     0.063 N 
ATOM     27  O   UNL A   1      33.738  25.585  21.562  1.00  0.00    -0.258 OA
ATOM     28  O   UNL A   1      34.351  23.642  22.381  1.00  0.00    -0.258 OA
ENDBRANCH   6  26
ENDBRANCH   1   3
BRANCH   1  29
ATOM     29  C   UNL A   1      32.718  28.871  25.061  1.00  0.00     0.227 C 
ATOM     30  O   UNL A   1      32.487  29.391  23.963  1.00  0.00    -0.274 OA
ATOM     31  N   UNL A   1      33.883  29.227  25.665  1.00  0.00    -0.356 N 
ATOM     32  H   UNL A   1      34.385  29.927  25.188  1.00  0.00     0.163 HD
BRANCH  31  33
ATOM     33  C   UNL A   1      34.523  28.767  26.880  1.00  0.00     0.116 C 
BRANCH  33  34
ATOM     34  C   UNL A   1      35.055  29.931  27.719  1.00  0.00     0.023 C 
BRANCH  34  35
ATOM     35  C   UNL A   1      34.559  31.311  27.295  1.00  0.00     0.023 C 
BRANCH  35  36
ATOM     36  C   UNL A   1      33.242  31.743  27.924  1.00  0.00     0.116 C 
BRANCH  36  37
ATOM     37  N   UNL A   1      33.019  33.182  27.908  1.00  0.00    -0.352 N 
ATOM     38  C   UNL A   1      33.688  34.147  28.626  1.00  0.00     0.251 C 
ATOM     39  H   UNL A   1      32.305  33.502  27.311  1.00  0.00     0.163 HD
ATOM     40  O   UNL A   1      33.335  35.320  28.576  1.00  0.00    -0.269 OA
BRANCH  38  41
ATOM     41  C   UNL A   1      34.809  33.732  29.495  1.00  0.00     0.039 A 
ATOM     42  C   UNL A   1      34.556  32.879  30.570  1.00  0.00     0.014 A 
ATOM     43  C   UNL A   1      36.116  34.118  29.186  1.00  0.00     0.014 A 
ATOM     44  C   UNL A   1      35.627  32.353  31.294  1.00  0.00     0.010 A 
ATOM     45  C   UNL A   1      37.182  33.523  29.849  1.00  0.00     0.010 A 
ATOM     46  C   UNL A   1      36.949  32.638  30.914  1.00  0.00    -0.014 A 
BRANCH  46  47
ATOM     47  C   UNL A   1      38.106  32.035  31.621  1.00  0.00     0.031 A 
ATOM     48  C   UNL A   1      38.503  32.548  32.979  1.00  0.00     0.074 A 
ATOM     49  C   UNL A   1      38.844  31.083  31.014  1.00  0.00     0.049 A 
ATOM     50  N   UNL A   1      39.519  32.204  33.727  1.00  0.00    -0.248 NA
ATOM     51  C   UNL A   1      37.664  33.612  33.560  1.00  0.00     0.031 C 
ATOM     52  C   UNL A   1      38.595  30.539  29.675  1.00  0.00     0.029 A 
ATOM     53  N   UNL A   1      39.959  30.408  31.442  1.00  0.00    -0.354 N 
ATOM     54  C   UNL A   1      39.455  33.022  34.849  1.00  0.00     0.074 A 
ATOM     55  C   UNL A   1      38.336  33.916  34.659  1.00  0.00     0.031 C 
ATOM     56  C   UNL A   1      39.511  29.595  29.407  1.00  0.00     0.029 A 
ATOM     57  C   UNL A   1      40.434  29.491  30.533  1.00  0.00     0.049 A 
ATOM     58  H   UNL A   1      40.380  30.564  32.318  1.00  0.00     0.167 HD
ATOM     59  C   UNL A   1      40.243  33.014  35.950  1.00  0.00     0.031 A 
ATOM     60  C   UNL A   1      41.495  28.662  30.597  1.00  0.00     0.031 A 
ATOM     61  C   UNL A   1      41.340  32.106  36.146  1.00  0.00     0.049 A 
ATOM     62  C   UNL A   1      42.346  28.660  31.838  1.00  0.00     0.074 A 
ATOM     63  C   UNL A   1      42.159  31.973  37.253  1.00  0.00     0.029 A 
ATOM     64  N   UNL A   1      41.769  31.174  35.214  1.00  0.00    -0.354 N 
ATOM     65  N   UNL A   1      42.228  29.394  32.920  1.00  0.00    -0.248 NA
ATOM     66  C   UNL A   1      43.463  27.706  31.875  1.00  0.00     0.031 C 
ATOM     67  C   UNL A   1      43.115  30.991  36.972  1.00  0.00     0.029 A 
ATOM     68  C   UNL A   1      42.854  30.473  35.712  1.00  0.00     0.049 A 
ATOM     69  H   UNL A   1      41.364  31.031  34.328  1.00  0.00     0.167 HD
ATOM     70  C   UNL A   1      43.236  28.968  33.778  1.00  0.00     0.074 A 
ATOM     71  C   UNL A   1      43.944  27.905  33.094  1.00  0.00     0.031 C 
ATOM     72  C   UNL A   1      43.544  29.415  35.020  1.00  0.00     0.031 A 
BRANCH  59  73
ATOM     73  C   UNL A   1      39.938  34.021  37.028  1.00  0.00    -0.014 A 
ATOM     74  C   UNL A   1      39.323  33.634  38.233  1.00  0.00     0.010 A 
ATOM     75  C   UNL A   1      40.298  35.369  36.848  1.00  0.00     0.010 A 
ATOM     76  C   UNL A   1      39.031  34.582  39.216  1.00  0.00     0.020 A 
ATOM     77  C   UNL A   1      40.036  36.316  37.842  1.00  0.00     0.020 A 
ATOM     78  C   UNL A   1      39.386  35.918  39.013  1.00  0.00     0.054 A 
BRANCH  78  79
ATOM     79  S   UNL A   1      39.013  37.125  40.315  1.00  0.00     0.124 S 
ATOM     80  O   UNL A   1      40.299  37.236  40.997  1.00  0.00    -0.237 OA
ATOM     81  O   UNL A   1      38.602  38.301  39.554  1.00  0.00    -0.237 OA
ATOM     82  O   UNL A   1      37.951  36.483  41.088  1.00  0.00    -0.744 OA
ENDBRANCH  78  79
ENDBRANCH  59  73
BRANCH  60  83
ATOM     83  C   UNL A   1      41.795  27.746  29.462  1.00  0.00    -0.014 A 
ATOM     84  C   UNL A   1      40.947  26.663  29.176  1.00  0.00     0.010 A 
ATOM     85  C   UNL A   1      42.925  27.961  28.651  1.00  0.00     0.010 A 
ATOM     86  C   UNL A   1      41.232  25.797  28.115  1.00  0.00     0.020 A 
ATOM     87  C   UNL A   1      43.199  27.115  27.572  1.00  0.00     0.020 A 
ATOM     88  C   UNL A   1      42.356  26.030  27.319  1.00  0.00     0.054 A 
BRANCH  88  89
ATOM     89  S   UNL A   1      42.679  24.924  25.917  1.00  0.00     0.124 S 
ATOM     90  O   UNL A   1      44.136  24.837  25.928  1.00  0.00    -0.237 OA
ATOM     91  O   UNL A   1      41.969  23.708  26.304  1.00  0.00    -0.237 OA
ATOM     92  O   UNL A   1      42.103  25.638  24.780  1.00  0.00    -0.744 OA
ENDBRANCH  88  89
ENDBRANCH  60  83
BRANCH  72  93
ATOM     93  C   UNL A   1      44.672  28.729  35.744  1.00  0.00    -0.014 A 
ATOM     94  C   UNL A   1      44.444  27.607  36.561  1.00  0.00     0.010 A 
ATOM     95  C   UNL A   1      45.990  29.184  35.554  1.00  0.00     0.010 A 
ATOM     96  C   UNL A   1      45.512  26.974  37.201  1.00  0.00     0.020 A 
ATOM     97  C   UNL A   1      47.062  28.534  36.169  1.00  0.00     0.020 A 
ATOM     98  C   UNL A   1      46.815  27.441  37.001  1.00  0.00     0.054 A 
BRANCH  98  99
ATOM     99  S   UNL A   1      48.188  26.573  37.808  1.00  0.00     0.124 S 
ATOM    100  O   UNL A   1      48.324  27.317  39.057  1.00  0.00    -0.237 OA
ATOM    101  O   UNL A   1      47.674  25.212  37.940  1.00  0.00    -0.237 OA
ATOM    102  O   UNL A   1      49.294  26.726  36.866  1.00  0.00    -0.744 OA
ENDBRANCH  98  99
ENDBRANCH  72  93
ENDBRANCH  46  47
ENDBRANCH  38  41
ENDBRANCH  36  37
ENDBRANCH  35  36
ENDBRANCH  34  35
ENDBRANCH  33  34
ENDBRANCH  31  33
ENDBRANCH   1  29
TORSDOF 24
ENDMDL
