MODEL 1
REMARK VINA RESULT:     -13.4      0.000      0.000
REMARK SMILES CC[C@@H](Sc1nnc2ccc3ccccc3n12)C(=O)Nc1cccc(C(=O)NCCCCNC(=O)c2ccc(-c3c4nc(c(-c5ccc(S(=O)(=O)[O-])cc5)c5ccc([nH]5)c(-c5ccc(S(=O)(=O)[O-])cc5)c5nc(c(-c6ccc(S(=O)(=O)[O-])cc6)c6ccc3[nH]6)C=C5)C=C4)cc2)c1
REMARK SMILES IDX 30 1 29 2 28 3 26 4 27 5 25 7 21 8 22 9 96 10 23 11 24 12
REMARK SMILES IDX 20 13 18 14 19 15 3 17 2 18 1 19 4 20 5 21 6 22 17 23 7 24
REMARK SMILES IDX 8 25 16 26 9 27 11 28 15 29 10 30 12 31 14 32 13 33 31 34
REMARK SMILES IDX 32 35 33 36 34 37 35 39 36 40 37 41 95 42 38 43 94 44 39 45
REMARK SMILES IDX 40 46 41 47 88 48 42 49 93 50 87 51 89 52 43 53 92 54 86 55
REMARK SMILES IDX 85 56 44 58 74 59 55 60 73 61 56 62 59 63 72 64 90 65 57 66
REMARK SMILES IDX 58 67 71 69 91 70 60 71 45 72 46 73 54 74 47 75 53 76 48 77
REMARK SMILES IDX 49 78 50 79 51 80 52 81 75 82 76 83 84 84 77 85 83 86 78 87
REMARK SMILES IDX 79 88 80 89 81 90 82 91 61 92 62 93 70 94 63 95 69 96 64 97
REMARK SMILES IDX 65 98 66 99 67 100 68 101
REMARK H PARENT 28 6 20 16 33 38 89 57 59 68
REMARK Flexibility Score: inf
ROOT
ATOM      1  C   UNL A   1      32.464  29.958  26.786  1.00  0.00     0.023 C 
ENDROOT
BRANCH   1   2
ATOM      2  C   UNL A   1      32.492  29.690  25.293  1.00  0.00     0.116 C 
BRANCH   2   3
ATOM      3  N   UNL A   1      31.314  30.112  24.563  1.00  0.00    -0.352 N 
ATOM      4  C   UNL A   1      30.370  29.403  23.849  1.00  0.00     0.251 C 
ATOM      5  O   UNL A   1      29.426  30.025  23.386  1.00  0.00    -0.269 OA
ATOM      6  H   UNL A   1      31.158  31.084  24.581  1.00  0.00     0.163 HD
BRANCH   4   7
ATOM      7  C   UNL A   1      30.472  27.936  23.575  1.00  0.00     0.041 A 
ATOM      8  C   UNL A   1      30.278  25.608  24.196  1.00  0.00     0.041 A 
ATOM      9  C   UNL A   1      30.913  25.236  23.018  1.00  0.00     0.026 A 
ATOM     10  C   UNL A   1      29.897  26.937  24.360  1.00  0.00     0.040 A 
ATOM     11  C   UNL A   1      31.405  26.203  22.152  1.00  0.00     0.003 A 
ATOM     12  C   UNL A   1      31.244  27.551  22.466  1.00  0.00     0.014 A 
BRANCH   8  13
ATOM     13  N   UNL A   1      30.026  24.739  25.271  1.00  0.00    -0.325 N 
ATOM     14  C   UNL A   1      30.913  24.235  26.200  1.00  0.00     0.237 C 
ATOM     15  O   UNL A   1      30.399  23.730  27.210  1.00  0.00    -0.273 OA
ATOM     16  H   UNL A   1      29.091  24.451  25.376  1.00  0.00     0.169 HD
BRANCH  14  17
ATOM     17  C   UNL A   1      32.460  24.219  26.051  1.00  0.00     0.144 C 
BRANCH  17  18
ATOM     18  C   UNL A   1      32.924  25.676  26.259  1.00  0.00     0.021 C 
ATOM     19  C   UNL A   1      33.843  26.358  25.273  1.00  0.00     0.005 C 
ENDBRANCH  17  18
BRANCH  17  20
ATOM     20  S   UNL A   1      33.135  22.704  26.899  1.00  0.00    -0.072 SA
BRANCH  20  21
ATOM     21  C   UNL A   1      34.580  22.303  26.015  1.00  0.00     0.196 A 
ATOM     22  N   UNL A   1      35.583  23.144  25.936  1.00  0.00    -0.122 NA
ATOM     23  N   UNL A   1      34.988  21.069  25.517  1.00  0.00    -0.270 N 
ATOM     24  N   UNL A   1      36.712  22.469  25.597  1.00  0.00    -0.129 NA
ATOM     25  C   UNL A   1      36.372  21.220  25.389  1.00  0.00     0.161 A 
ATOM     26  C   UNL A   1      34.331  19.874  25.101  1.00  0.00     0.057 A 
ATOM     27  C   UNL A   1      37.186  20.120  25.044  1.00  0.00     0.050 A 
ATOM     28  C   UNL A   1      35.170  18.825  24.640  1.00  0.00    -0.001 A 
ATOM     29  C   UNL A   1      32.947  19.732  25.020  1.00  0.00     0.027 A 
ATOM     30  C   UNL A   1      36.630  18.958  24.685  1.00  0.00     0.014 A 
ATOM     31  C   UNL A   1      34.615  17.660  24.100  1.00  0.00     0.010 A 
ATOM     32  C   UNL A   1      32.408  18.559  24.469  1.00  0.00     0.002 A 
ATOM     33  C   UNL A   1      33.233  17.532  24.007  1.00  0.00     0.001 A 
ENDBRANCH  20  21
ENDBRANCH  17  20
ENDBRANCH  14  17
ENDBRANCH   8  13
ENDBRANCH   4   7
ENDBRANCH   2   3
ENDBRANCH   1   2
BRANCH   1  34
ATOM     34  C   UNL A   1      33.803  30.137  27.487  1.00  0.00     0.023 C 
BRANCH  34  35
ATOM     35  C   UNL A   1      34.273  31.573  27.723  1.00  0.00     0.116 C 
BRANCH  35  36
ATOM     36  N   UNL A   1      34.144  32.071  29.080  1.00  0.00    -0.352 N 
ATOM     37  C   UNL A   1      34.987  32.164  30.155  1.00  0.00     0.251 C 
ATOM     38  H   UNL A   1      33.245  32.421  29.271  1.00  0.00     0.163 HD
ATOM     39  O   UNL A   1      34.613  32.909  31.066  1.00  0.00    -0.269 OA
BRANCH  37  40
ATOM     40  C   UNL A   1      36.247  31.392  30.331  1.00  0.00     0.039 A 
ATOM     41  C   UNL A   1      37.524  31.871  30.062  1.00  0.00     0.014 A 
ATOM     42  C   UNL A   1      36.107  30.039  30.706  1.00  0.00     0.014 A 
ATOM     43  C   UNL A   1      38.608  31.000  30.012  1.00  0.00     0.010 A 
ATOM     44  C   UNL A   1      37.196  29.170  30.699  1.00  0.00     0.010 A 
ATOM     45  C   UNL A   1      38.437  29.641  30.290  1.00  0.00    -0.014 A 
BRANCH  45  46
ATOM     46  C   UNL A   1      39.616  28.786  30.172  1.00  0.00     0.031 A 
ATOM     47  C   UNL A   1      40.373  28.551  31.433  1.00  0.00     0.074 A 
ATOM     48  C   UNL A   1      40.026  28.202  29.030  1.00  0.00     0.049 A 
ATOM     49  N   UNL A   1      41.565  28.956  31.729  1.00  0.00    -0.248 NA
ATOM     50  C   UNL A   1      39.680  27.865  32.530  1.00  0.00     0.031 C 
ATOM     51  C   UNL A   1      39.315  28.067  27.757  1.00  0.00     0.029 A 
ATOM     52  N   UNL A   1      41.181  27.514  28.814  1.00  0.00    -0.354 N 
ATOM     53  C   UNL A   1      41.842  28.460  33.001  1.00  0.00     0.074 A 
ATOM     54  C   UNL A   1      40.611  27.886  33.486  1.00  0.00     0.031 C 
ATOM     55  C   UNL A   1      39.952  27.150  26.990  1.00  0.00     0.029 A 
ATOM     56  C   UNL A   1      41.189  26.764  27.648  1.00  0.00     0.049 A 
ATOM     57  H   UNL A   1      41.947  27.546  29.432  1.00  0.00     0.167 HD
ATOM     58  C   UNL A   1      43.102  28.438  33.523  1.00  0.00     0.031 A 
ATOM     59  C   UNL A   1      42.118  25.844  27.289  1.00  0.00     0.031 A 
ATOM     60  C   UNL A   1      44.007  29.276  32.784  1.00  0.00     0.049 A 
ATOM     61  C   UNL A   1      43.363  26.157  28.033  1.00  0.00     0.074 A 
ATOM     62  C   UNL A   1      44.084  30.631  32.535  1.00  0.00     0.029 A 
ATOM     63  N   UNL A   1      44.839  28.677  31.869  1.00  0.00    -0.354 N 
ATOM     64  N   UNL A   1      44.082  27.224  27.825  1.00  0.00    -0.248 NA
ATOM     65  C   UNL A   1      43.600  25.483  29.300  1.00  0.00     0.031 C 
ATOM     66  C   UNL A   1      44.555  30.731  31.195  1.00  0.00     0.029 A 
ATOM     67  C   UNL A   1      44.791  29.436  30.727  1.00  0.00     0.049 A 
ATOM     68  H   UNL A   1      45.369  27.858  32.007  1.00  0.00     0.167 HD
ATOM     69  C   UNL A   1      44.539  27.597  29.081  1.00  0.00     0.074 A 
ATOM     70  C   UNL A   1      44.292  26.434  29.931  1.00  0.00     0.031 C 
ATOM     71  C   UNL A   1      44.831  28.897  29.380  1.00  0.00     0.031 A 
BRANCH  58  72
ATOM     72  C   UNL A   1      43.587  27.458  34.558  1.00  0.00    -0.014 A 
ATOM     73  C   UNL A   1      43.725  26.080  34.297  1.00  0.00     0.010 A 
ATOM     74  C   UNL A   1      44.149  27.940  35.759  1.00  0.00     0.010 A 
ATOM     75  C   UNL A   1      44.376  25.221  35.187  1.00  0.00     0.020 A 
ATOM     76  C   UNL A   1      44.842  27.094  36.638  1.00  0.00     0.020 A 
ATOM     77  C   UNL A   1      44.947  25.737  36.345  1.00  0.00     0.054 A 
BRANCH  77  78
ATOM     78  S   UNL A   1      45.895  24.614  37.401  1.00  0.00     0.124 S 
ATOM     79  O   UNL A   1      45.766  25.251  38.709  1.00  0.00    -0.237 OA
ATOM     80  O   UNL A   1      45.176  23.353  37.240  1.00  0.00    -0.237 OA
ATOM     81  O   UNL A   1      47.235  24.644  36.819  1.00  0.00    -0.744 OA
ENDBRANCH  77  78
ENDBRANCH  58  72
BRANCH  59  82
ATOM     82  C   UNL A   1      41.847  24.493  26.735  1.00  0.00    -0.014 A 
ATOM     83  C   UNL A   1      40.784  23.725  27.251  1.00  0.00     0.010 A 
ATOM     84  C   UNL A   1      42.808  23.840  25.941  1.00  0.00     0.010 A 
ATOM     85  C   UNL A   1      40.727  22.341  27.057  1.00  0.00     0.020 A 
ATOM     86  C   UNL A   1      42.758  22.450  25.745  1.00  0.00     0.020 A 
ATOM     87  C   UNL A   1      41.738  21.706  26.340  1.00  0.00     0.054 A 
BRANCH  87  88
ATOM     88  S   UNL A   1      41.741  19.892  26.292  1.00  0.00     0.124 S 
ATOM     89  O   UNL A   1      42.276  19.555  27.608  1.00  0.00    -0.237 OA
ATOM     90  O   UNL A   1      40.328  19.579  26.091  1.00  0.00    -0.237 OA
ATOM     91  O   UNL A   1      42.613  19.576  25.163  1.00  0.00    -0.744 OA
ENDBRANCH  87  88
ENDBRANCH  59  82
BRANCH  71  92
ATOM     92  C   UNL A   1      44.912  29.920  28.264  1.00  0.00    -0.014 A 
ATOM     93  C   UNL A   1      46.136  30.595  28.086  1.00  0.00     0.010 A 
ATOM     94  C   UNL A   1      43.790  30.377  27.544  1.00  0.00     0.010 A 
ATOM     95  C   UNL A   1      46.231  31.714  27.254  1.00  0.00     0.020 A 
ATOM     96  C   UNL A   1      43.886  31.483  26.684  1.00  0.00     0.020 A 
ATOM     97  C   UNL A   1      45.101  32.163  26.570  1.00  0.00     0.054 A 
BRANCH  97  98
ATOM     98  S   UNL A   1      45.249  33.658  25.551  1.00  0.00     0.124 S 
ATOM     99  O   UNL A   1      44.468  34.635  26.309  1.00  0.00    -0.237 OA
ATOM    100  O   UNL A   1      46.691  33.897  25.530  1.00  0.00    -0.237 OA
ATOM    101  O   UNL A   1      44.669  33.273  24.267  1.00  0.00    -0.744 OA
ENDBRANCH  97  98
ENDBRANCH  71  92
ENDBRANCH  45  46
ENDBRANCH  37  40
ENDBRANCH  35  36
ENDBRANCH  34  35
ENDBRANCH   1  34
TORSDOF 19
ENDMDL
MODEL 2
REMARK VINA RESULT:     -12.7      1.174      2.063
REMARK SMILES CC[C@@H](Sc1nnc2ccc3ccccc3n12)C(=O)Nc1cccc(C(=O)NCCCCNC(=O)c2ccc(-c3c4nc(c(-c5ccc(S(=O)(=O)[O-])cc5)c5ccc([nH]5)c(-c5ccc(S(=O)(=O)[O-])cc5)c5nc(c(-c6ccc(S(=O)(=O)[O-])cc6)c6ccc3[nH]6)C=C5)C=C4)cc2)c1
REMARK SMILES IDX 30 1 29 2 28 3 26 4 27 5 25 7 21 8 22 9 96 10 23 11 24 12
REMARK SMILES IDX 20 13 18 14 19 15 3 17 2 18 1 19 4 20 5 21 6 22 17 23 7 24
REMARK SMILES IDX 8 25 16 26 9 27 11 28 15 29 10 30 12 31 14 32 13 33 31 34
REMARK SMILES IDX 32 35 33 36 34 37 35 39 36 40 37 41 95 42 38 43 94 44 39 45
REMARK SMILES IDX 40 46 41 47 88 48 42 49 93 50 87 51 89 52 43 53 92 54 86 55
REMARK SMILES IDX 85 56 44 58 74 59 55 60 73 61 56 62 59 63 72 64 90 65 57 66
REMARK SMILES IDX 58 67 71 69 91 70 60 71 45 72 46 73 54 74 47 75 53 76 48 77
REMARK SMILES IDX 49 78 50 79 51 80 52 81 75 82 76 83 84 84 77 85 83 86 78 87
REMARK SMILES IDX 79 88 80 89 81 90 82 91 61 92 62 93 70 94 63 95 69 96 64 97
REMARK SMILES IDX 65 98 66 99 67 100 68 101
REMARK H PARENT 28 6 20 16 33 38 89 57 59 68
REMARK Flexibility Score: inf
ROOT
ATOM      1  C   UNL A   1      32.553  31.464  27.003  1.00  0.00     0.023 C 
ENDROOT
BRANCH   1   2
ATOM      2  C   UNL A   1      31.938  30.509  25.999  1.00  0.00     0.116 C 
BRANCH   2   3
ATOM      3  N   UNL A   1      32.868  29.617  25.337  1.00  0.00    -0.352 N 
ATOM      4  C   UNL A   1      32.687  28.413  24.689  1.00  0.00     0.251 C 
ATOM      5  O   UNL A   1      33.662  27.906  24.154  1.00  0.00    -0.269 OA
ATOM      6  H   UNL A   1      33.802  29.929  25.353  1.00  0.00     0.163 HD
BRANCH   4   7
ATOM      7  C   UNL A   1      31.382  27.682  24.654  1.00  0.00     0.041 A 
ATOM      8  C   UNL A   1      29.882  25.915  25.338  1.00  0.00     0.041 A 
ATOM      9  C   UNL A   1      28.989  26.279  24.339  1.00  0.00     0.026 A 
ATOM     10  C   UNL A   1      30.968  26.745  25.600  1.00  0.00     0.040 A 
ATOM     11  C   UNL A   1      29.317  27.286  23.439  1.00  0.00     0.003 A 
ATOM     12  C   UNL A   1      30.542  27.938  23.557  1.00  0.00     0.014 A 
BRANCH   8  13
ATOM     13  N   UNL A   1      29.793  24.731  26.089  1.00  0.00    -0.325 N 
ATOM     14  C   UNL A   1      30.812  23.929  26.559  1.00  0.00     0.237 C 
ATOM     15  O   UNL A   1      30.488  23.112  27.435  1.00  0.00    -0.273 OA
ATOM     16  H   UNL A   1      28.882  24.434  26.310  1.00  0.00     0.169 HD
BRANCH  14  17
ATOM     17  C   UNL A   1      32.282  23.950  26.053  1.00  0.00     0.144 C 
BRANCH  17  18
ATOM     18  C   UNL A   1      33.166  23.722  27.298  1.00  0.00     0.021 C 
ATOM     19  C   UNL A   1      33.359  22.343  27.883  1.00  0.00     0.005 C 
ENDBRANCH  17  18
BRANCH  17  20
ATOM     20  S   UNL A   1      32.379  23.032  24.436  1.00  0.00    -0.072 SA
BRANCH  20  21
ATOM     21  C   UNL A   1      32.734  21.386  24.876  1.00  0.00     0.196 A 
ATOM     22  N   UNL A   1      31.774  20.518  25.088  1.00  0.00    -0.122 NA
ATOM     23  N   UNL A   1      33.949  20.709  24.830  1.00  0.00    -0.270 N 
ATOM     24  N   UNL A   1      32.271  19.259  24.979  1.00  0.00    -0.129 NA
ATOM     25  C   UNL A   1      33.564  19.366  24.780  1.00  0.00     0.161 A 
ATOM     26  C   UNL A   1      35.324  21.084  24.892  1.00  0.00     0.057 A 
ATOM     27  C   UNL A   1      34.521  18.350  24.576  1.00  0.00     0.050 A 
ATOM     28  C   UNL A   1      36.266  20.026  24.809  1.00  0.00    -0.001 A 
ATOM     29  C   UNL A   1      35.768  22.382  25.137  1.00  0.00     0.027 A 
ATOM     30  C   UNL A   1      35.826  18.645  24.582  1.00  0.00     0.014 A 
ATOM     31  C   UNL A   1      37.632  20.278  24.979  1.00  0.00     0.010 A 
ATOM     32  C   UNL A   1      37.141  22.616  25.313  1.00  0.00     0.002 A 
ATOM     33  C   UNL A   1      38.066  21.573  25.241  1.00  0.00     0.001 A 
ENDBRANCH  20  21
ENDBRANCH  17  20
ENDBRANCH  14  17
ENDBRANCH   8  13
ENDBRANCH   4   7
ENDBRANCH   2   3
ENDBRANCH   1   2
BRANCH   1  34
ATOM     34  C   UNL A   1      33.775  30.979  27.769  1.00  0.00     0.023 C 
BRANCH  34  35
ATOM     35  C   UNL A   1      34.625  32.046  28.463  1.00  0.00     0.116 C 
BRANCH  35  36
ATOM     36  N   UNL A   1      34.395  32.218  29.885  1.00  0.00    -0.352 N 
ATOM     37  C   UNL A   1      35.162  32.065  31.009  1.00  0.00     0.251 C 
ATOM     38  H   UNL A   1      33.478  32.510  30.089  1.00  0.00     0.163 HD
ATOM     39  O   UNL A   1      34.713  32.578  32.038  1.00  0.00    -0.269 OA
BRANCH  37  40
ATOM     40  C   UNL A   1      36.422  31.277  31.091  1.00  0.00     0.039 A 
ATOM     41  C   UNL A   1      37.705  31.813  31.053  1.00  0.00     0.014 A 
ATOM     42  C   UNL A   1      36.287  29.874  31.108  1.00  0.00     0.014 A 
ATOM     43  C   UNL A   1      38.810  30.987  30.879  1.00  0.00     0.010 A 
ATOM     44  C   UNL A   1      37.393  29.037  30.975  1.00  0.00     0.010 A 
ATOM     45  C   UNL A   1      38.651  29.600  30.797  1.00  0.00    -0.014 A 
BRANCH  45  46
ATOM     46  C   UNL A   1      39.855  28.806  30.568  1.00  0.00     0.031 A 
ATOM     47  C   UNL A   1      40.778  28.680  31.731  1.00  0.00     0.074 A 
ATOM     48  C   UNL A   1      40.153  28.186  29.411  1.00  0.00     0.049 A 
ATOM     49  N   UNL A   1      41.971  29.164  31.853  1.00  0.00    -0.248 NA
ATOM     50  C   UNL A   1      40.271  28.016  32.938  1.00  0.00     0.031 C 
ATOM     51  C   UNL A   1      39.298  27.944  28.247  1.00  0.00     0.029 A 
ATOM     52  N   UNL A   1      41.313  27.551  29.079  1.00  0.00    -0.354 N 
ATOM     53  C   UNL A   1      42.435  28.753  33.100  1.00  0.00     0.074 A 
ATOM     54  C   UNL A   1      41.312  28.139  33.765  1.00  0.00     0.031 C 
ATOM     55  C   UNL A   1      39.888  27.024  27.447  1.00  0.00     0.029 A 
ATOM     56  C   UNL A   1      41.219  26.742  27.958  1.00  0.00     0.049 A 
ATOM     57  H   UNL A   1      42.146  27.658  29.593  1.00  0.00     0.167 HD
ATOM     58  C   UNL A   1      43.749  28.828  33.456  1.00  0.00     0.031 A 
ATOM     59  C   UNL A   1      42.150  25.857  27.526  1.00  0.00     0.031 A 
ATOM     60  C   UNL A   1      44.501  29.673  32.569  1.00  0.00     0.049 A 
ATOM     61  C   UNL A   1      43.458  26.276  28.088  1.00  0.00     0.074 A 
ATOM     62  C   UNL A   1      44.464  31.015  32.251  1.00  0.00     0.029 A 
ATOM     63  N   UNL A   1      45.248  29.073  31.584  1.00  0.00    -0.354 N 
ATOM     64  N   UNL A   1      44.078  27.368  27.741  1.00  0.00    -0.248 NA
ATOM     65  C   UNL A   1      43.892  25.684  29.344  1.00  0.00     0.031 C 
ATOM     66  C   UNL A   1      44.756  31.070  30.858  1.00  0.00     0.029 A 
ATOM     67  C   UNL A   1      45.010  29.766  30.424  1.00  0.00     0.049 A 
ATOM     68  H   UNL A   1      45.839  28.293  31.689  1.00  0.00     0.167 HD
ATOM     69  C   UNL A   1      44.666  27.831  28.909  1.00  0.00     0.074 A 
ATOM     70  C   UNL A   1      44.599  26.704  29.837  1.00  0.00     0.031 C 
ATOM     71  C   UNL A   1      44.913  29.160  29.109  1.00  0.00     0.031 A 
BRANCH  58  72
ATOM     72  C   UNL A   1      44.419  27.932  34.464  1.00  0.00    -0.014 A 
ATOM     73  C   UNL A   1      44.700  28.343  35.782  1.00  0.00     0.010 A 
ATOM     74  C   UNL A   1      44.568  26.558  34.178  1.00  0.00     0.010 A 
ATOM     75  C   UNL A   1      45.119  27.441  36.764  1.00  0.00     0.020 A 
ATOM     76  C   UNL A   1      44.947  25.638  35.167  1.00  0.00     0.020 A 
ATOM     77  C   UNL A   1      45.223  26.090  36.455  1.00  0.00     0.054 A 
BRANCH  77  78
ATOM     78  S   UNL A   1      45.639  24.939  37.789  1.00  0.00     0.124 S 
ATOM     79  O   UNL A   1      46.540  24.009  37.114  1.00  0.00    -0.237 OA
ATOM     80  O   UNL A   1      46.262  25.818  38.775  1.00  0.00    -0.237 OA
ATOM     81  O   UNL A   1      44.345  24.385  38.180  1.00  0.00    -0.744 OA
ENDBRANCH  77  78
ENDBRANCH  58  72
BRANCH  59  82
ATOM     82  C   UNL A   1      41.895  24.465  27.073  1.00  0.00    -0.014 A 
ATOM     83  C   UNL A   1      41.423  23.506  27.991  1.00  0.00     0.010 A 
ATOM     84  C   UNL A   1      42.408  24.008  25.845  1.00  0.00     0.010 A 
ATOM     85  C   UNL A   1      41.540  22.136  27.734  1.00  0.00     0.020 A 
ATOM     86  C   UNL A   1      42.531  22.633  25.582  1.00  0.00     0.020 A 
ATOM     87  C   UNL A   1      42.131  21.708  26.548  1.00  0.00     0.054 A 
BRANCH  87  88
ATOM     88  S   UNL A   1      42.456  19.933  26.347  1.00  0.00     0.124 S 
ATOM     89  O   UNL A   1      41.410  19.539  25.408  1.00  0.00    -0.237 OA
ATOM     90  O   UNL A   1      43.816  19.920  25.814  1.00  0.00    -0.237 OA
ATOM     91  O   UNL A   1      42.315  19.399  27.700  1.00  0.00    -0.744 OA
ENDBRANCH  87  88
ENDBRANCH  59  82
BRANCH  71  92
ATOM     92  C   UNL A   1      44.791  30.125  27.946  1.00  0.00    -0.014 A 
ATOM     93  C   UNL A   1      45.960  30.786  27.521  1.00  0.00     0.010 A 
ATOM     94  C   UNL A   1      43.558  30.549  27.413  1.00  0.00     0.010 A 
ATOM     95  C   UNL A   1      45.902  31.861  26.631  1.00  0.00     0.020 A 
ATOM     96  C   UNL A   1      43.494  31.611  26.495  1.00  0.00     0.020 A 
ATOM     97  C   UNL A   1      44.666  32.280  26.134  1.00  0.00     0.054 A 
BRANCH  97  98
ATOM     98  S   UNL A   1      44.624  33.721  25.032  1.00  0.00     0.124 S 
ATOM     99  O   UNL A   1      45.984  34.246  25.147  1.00  0.00    -0.237 OA
ATOM    100  O   UNL A   1      44.295  33.130  23.736  1.00  0.00    -0.237 OA
ATOM    101  O   UNL A   1      43.586  34.576  25.602  1.00  0.00    -0.744 OA
ENDBRANCH  97  98
ENDBRANCH  71  92
ENDBRANCH  45  46
ENDBRANCH  37  40
ENDBRANCH  35  36
ENDBRANCH  34  35
ENDBRANCH   1  34
TORSDOF 19
ENDMDL
MODEL 3
REMARK VINA RESULT:     -12.6      1.750      2.968
REMARK SMILES CC[C@@H](Sc1nnc2ccc3ccccc3n12)C(=O)Nc1cccc(C(=O)NCCCCNC(=O)c2ccc(-c3c4nc(c(-c5ccc(S(=O)(=O)[O-])cc5)c5ccc([nH]5)c(-c5ccc(S(=O)(=O)[O-])cc5)c5nc(c(-c6ccc(S(=O)(=O)[O-])cc6)c6ccc3[nH]6)C=C5)C=C4)cc2)c1
REMARK SMILES IDX 30 1 29 2 28 3 26 4 27 5 25 7 21 8 22 9 96 10 23 11 24 12
REMARK SMILES IDX 20 13 18 14 19 15 3 17 2 18 1 19 4 20 5 21 6 22 17 23 7 24
REMARK SMILES IDX 8 25 16 26 9 27 11 28 15 29 10 30 12 31 14 32 13 33 31 34
REMARK SMILES IDX 32 35 33 36 34 37 35 39 36 40 37 41 95 42 38 43 94 44 39 45
REMARK SMILES IDX 40 46 41 47 88 48 42 49 93 50 87 51 89 52 43 53 92 54 86 55
REMARK SMILES IDX 85 56 44 58 74 59 55 60 73 61 56 62 59 63 72 64 90 65 57 66
REMARK SMILES IDX 58 67 71 69 91 70 60 71 45 72 46 73 54 74 47 75 53 76 48 77
REMARK SMILES IDX 49 78 50 79 51 80 52 81 75 82 76 83 84 84 77 85 83 86 78 87
REMARK SMILES IDX 79 88 80 89 81 90 82 91 61 92 62 93 70 94 63 95 69 96 64 97
REMARK SMILES IDX 65 98 66 99 67 100 68 101
REMARK H PARENT 28 6 20 16 33 38 89 57 59 68
REMARK Flexibility Score: inf
ROOT
ATOM      1  C   UNL A   1      34.807  33.390  28.508  1.00  0.00     0.023 C 
ENDROOT
BRANCH   1   2
ATOM      2  C   UNL A   1      34.142  32.104  28.055  1.00  0.00     0.116 C 
BRANCH   2   3
ATOM      3  N   UNL A   1      32.896  32.269  27.334  1.00  0.00    -0.352 N 
ATOM      4  C   UNL A   1      32.088  31.366  26.675  1.00  0.00     0.251 C 
ATOM      5  O   UNL A   1      31.040  31.782  26.205  1.00  0.00    -0.269 OA
ATOM      6  H   UNL A   1      32.566  33.195  27.311  1.00  0.00     0.163 HD
BRANCH   4   7
ATOM      7  C   UNL A   1      32.453  29.930  26.466  1.00  0.00     0.041 A 
ATOM      8  C   UNL A   1      33.380  28.106  25.178  1.00  0.00     0.041 A 
ATOM      9  C   UNL A   1      32.885  27.196  26.102  1.00  0.00     0.026 A 
ATOM     10  C   UNL A   1      33.322  29.464  25.479  1.00  0.00     0.040 A 
ATOM     11  C   UNL A   1      32.104  27.630  27.165  1.00  0.00     0.003 A 
ATOM     12  C   UNL A   1      31.833  28.989  27.306  1.00  0.00     0.014 A 
BRANCH   8  13
ATOM     13  N   UNL A   1      33.904  27.757  23.922  1.00  0.00    -0.325 N 
ATOM     14  C   UNL A   1      33.255  27.194  22.842  1.00  0.00     0.237 C 
ATOM     15  O   UNL A   1      33.864  27.255  21.763  1.00  0.00    -0.273 OA
ATOM     16  H   UNL A   1      34.862  27.939  23.795  1.00  0.00     0.169 HD
BRANCH  14  17
ATOM     17  C   UNL A   1      31.878  26.477  22.893  1.00  0.00     0.144 C 
BRANCH  17  18
ATOM     18  C   UNL A   1      30.850  27.486  22.339  1.00  0.00     0.021 C 
ATOM     19  C   UNL A   1      30.479  28.733  23.107  1.00  0.00     0.005 C 
ENDBRANCH  17  18
BRANCH  17  20
ATOM     20  S   UNL A   1      32.097  24.706  22.360  1.00  0.00    -0.072 SA
BRANCH  20  21
ATOM     21  C   UNL A   1      32.036  23.784  23.835  1.00  0.00     0.196 A 
ATOM     22  N   UNL A   1      30.954  23.760  24.577  1.00  0.00    -0.122 NA
ATOM     23  N   UNL A   1      32.921  22.816  24.301  1.00  0.00    -0.270 N 
ATOM     24  N   UNL A   1      30.990  22.674  25.392  1.00  0.00    -0.129 NA
ATOM     25  C   UNL A   1      32.144  22.080  25.200  1.00  0.00     0.161 A 
ATOM     26  C   UNL A   1      34.305  22.529  24.109  1.00  0.00     0.057 A 
ATOM     27  C   UNL A   1      32.647  20.900  25.786  1.00  0.00     0.050 A 
ATOM     28  C   UNL A   1      34.815  21.405  24.811  1.00  0.00    -0.001 A 
ATOM     29  C   UNL A   1      35.176  23.338  23.382  1.00  0.00     0.027 A 
ATOM     30  C   UNL A   1      33.926  20.553  25.609  1.00  0.00     0.014 A 
ATOM     31  C   UNL A   1      36.183  21.113  24.782  1.00  0.00     0.010 A 
ATOM     32  C   UNL A   1      36.546  23.034  23.370  1.00  0.00     0.002 A 
ATOM     33  C   UNL A   1      37.049  21.934  24.069  1.00  0.00     0.001 A 
ENDBRANCH  20  21
ENDBRANCH  17  20
ENDBRANCH  14  17
ENDBRANCH   8  13
ENDBRANCH   4   7
ENDBRANCH   2   3
ENDBRANCH   1   2
BRANCH   1  34
ATOM     34  C   UNL A   1      35.104  33.536  29.993  1.00  0.00     0.023 C 
BRANCH  34  35
ATOM     35  C   UNL A   1      34.409  32.553  30.937  1.00  0.00     0.116 C 
BRANCH  35  36
ATOM     36  N   UNL A   1      34.921  32.503  32.294  1.00  0.00    -0.352 N 
ATOM     37  C   UNL A   1      36.076  32.049  32.870  1.00  0.00     0.251 C 
ATOM     38  H   UNL A   1      34.292  32.880  32.950  1.00  0.00     0.163 HD
ATOM     39  O   UNL A   1      36.285  32.430  34.025  1.00  0.00    -0.269 OA
BRANCH  37  40
ATOM     40  C   UNL A   1      37.031  31.090  32.248  1.00  0.00     0.039 A 
ATOM     41  C   UNL A   1      37.037  29.716  32.459  1.00  0.00     0.014 A 
ATOM     42  C   UNL A   1      38.063  31.650  31.467  1.00  0.00     0.014 A 
ATOM     43  C   UNL A   1      38.116  28.943  32.042  1.00  0.00     0.010 A 
ATOM     44  C   UNL A   1      39.127  30.875  31.009  1.00  0.00     0.010 A 
ATOM     45  C   UNL A   1      39.182  29.529  31.353  1.00  0.00    -0.014 A 
BRANCH  45  46
ATOM     46  C   UNL A   1      40.297  28.658  30.989  1.00  0.00     0.031 A 
ATOM     47  C   UNL A   1      41.270  28.364  32.078  1.00  0.00     0.074 A 
ATOM     48  C   UNL A   1      40.473  28.110  29.772  1.00  0.00     0.049 A 
ATOM     49  N   UNL A   1      42.505  28.737  32.160  1.00  0.00    -0.248 NA
ATOM     50  C   UNL A   1      40.776  27.650  33.263  1.00  0.00     0.031 C 
ATOM     51  C   UNL A   1      39.535  28.034  28.650  1.00  0.00     0.029 A 
ATOM     52  N   UNL A   1      41.552  27.411  29.321  1.00  0.00    -0.354 N 
ATOM     53  C   UNL A   1      43.002  28.190  33.341  1.00  0.00     0.074 A 
ATOM     54  C   UNL A   1      41.868  27.620  34.028  1.00  0.00     0.031 C 
ATOM     55  C   UNL A   1      39.996  27.136  27.748  1.00  0.00     0.029 A 
ATOM     56  C   UNL A   1      41.324  26.704  28.151  1.00  0.00     0.049 A 
ATOM     57  H   UNL A   1      42.419  27.406  29.787  1.00  0.00     0.167 HD
ATOM     58  C   UNL A   1      44.336  28.126  33.617  1.00  0.00     0.031 A 
ATOM     59  C   UNL A   1      42.148  25.782  27.595  1.00  0.00     0.031 A 
ATOM     60  C   UNL A   1      45.107  28.975  32.751  1.00  0.00     0.049 A 
ATOM     61  C   UNL A   1      43.517  26.045  28.103  1.00  0.00     0.074 A 
ATOM     62  C   UNL A   1      45.170  30.336  32.537  1.00  0.00     0.029 A 
ATOM     63  N   UNL A   1      45.741  28.395  31.677  1.00  0.00    -0.354 N 
ATOM     64  N   UNL A   1      44.210  27.106  27.800  1.00  0.00    -0.248 NA
ATOM     65  C   UNL A   1      43.968  25.321  29.281  1.00  0.00     0.031 C 
ATOM     66  C   UNL A   1      45.386  30.478  31.136  1.00  0.00     0.029 A 
ATOM     67  C   UNL A   1      45.499  29.196  30.590  1.00  0.00     0.049 A 
ATOM     68  H   UNL A   1      46.266  27.563  31.687  1.00  0.00     0.167 HD
ATOM     69  C   UNL A   1      44.902  27.424  28.960  1.00  0.00     0.074 A 
ATOM     70  C   UNL A   1      44.789  26.235  29.803  1.00  0.00     0.031 C 
ATOM     71  C   UNL A   1      45.275  28.707  29.243  1.00  0.00     0.031 A 
BRANCH  58  72
ATOM     72  C   UNL A   1      44.981  27.100  34.511  1.00  0.00    -0.014 A 
ATOM     73  C   UNL A   1      45.084  27.261  35.907  1.00  0.00     0.010 A 
ATOM     74  C   UNL A   1      45.288  25.825  33.991  1.00  0.00     0.010 A 
ATOM     75  C   UNL A   1      45.484  26.217  36.744  1.00  0.00     0.020 A 
ATOM     76  C   UNL A   1      45.649  24.758  34.827  1.00  0.00     0.020 A 
ATOM     77  C   UNL A   1      45.748  24.964  36.200  1.00  0.00     0.054 A 
BRANCH  77  78
ATOM     78  S   UNL A   1      46.131  23.606  37.334  1.00  0.00     0.124 S 
ATOM     79  O   UNL A   1      45.826  22.436  36.515  1.00  0.00    -0.237 OA
ATOM     80  O   UNL A   1      47.547  23.826  37.616  1.00  0.00    -0.237 OA
ATOM     81  O   UNL A   1      45.230  23.834  38.461  1.00  0.00    -0.744 OA
ENDBRANCH  77  78
ENDBRANCH  58  72
BRANCH  59  82
ATOM     82  C   UNL A   1      41.746  24.457  27.056  1.00  0.00    -0.014 A 
ATOM     83  C   UNL A   1      40.875  23.635  27.799  1.00  0.00     0.010 A 
ATOM     84  C   UNL A   1      42.455  23.874  25.990  1.00  0.00     0.010 A 
ATOM     85  C   UNL A   1      40.779  22.263  27.546  1.00  0.00     0.020 A 
ATOM     86  C   UNL A   1      42.365  22.496  25.732  1.00  0.00     0.020 A 
ATOM     87  C   UNL A   1      41.557  21.695  26.540  1.00  0.00     0.054 A 
BRANCH  87  88
ATOM     88  S   UNL A   1      41.563  19.886  26.383  1.00  0.00     0.124 S 
ATOM     89  O   UNL A   1      42.560  19.676  25.337  1.00  0.00    -0.237 OA
ATOM     90  O   UNL A   1      41.959  19.455  27.722  1.00  0.00    -0.237 OA
ATOM     91  O   UNL A   1      40.188  19.565  26.011  1.00  0.00    -0.744 OA
ENDBRANCH  87  88
ENDBRANCH  59  82
BRANCH  71  92
ATOM     92  C   UNL A   1      45.172  29.769  28.165  1.00  0.00    -0.014 A 
ATOM     93  C   UNL A   1      46.367  30.377  27.732  1.00  0.00     0.010 A 
ATOM     94  C   UNL A   1      43.951  30.321  27.731  1.00  0.00     0.010 A 
ATOM     95  C   UNL A   1      46.348  31.522  26.931  1.00  0.00     0.020 A 
ATOM     96  C   UNL A   1      43.925  31.455  26.902  1.00  0.00     0.020 A 
ATOM     97  C   UNL A   1      45.126  32.066  26.533  1.00  0.00     0.054 A 
BRANCH  97  98
ATOM     98  S   UNL A   1      45.141  33.590  25.549  1.00  0.00     0.124 S 
ATOM     99  O   UNL A   1      44.326  34.496  26.357  1.00  0.00    -0.237 OA
ATOM    100  O   UNL A   1      46.563  33.924  25.486  1.00  0.00    -0.237 OA
ATOM    101  O   UNL A   1      44.543  33.198  24.275  1.00  0.00    -0.744 OA
ENDBRANCH  97  98
ENDBRANCH  71  92
ENDBRANCH  45  46
ENDBRANCH  37  40
ENDBRANCH  35  36
ENDBRANCH  34  35
ENDBRANCH   1  34
TORSDOF 19
ENDMDL
