MODEL 1
REMARK VINA RESULT:     -10.1      0.000      0.000
REMARK SMILES CC(C)Oc1ccccc1NCc1cc(C(=O)NCCCCNC(=O)c2ccc(-c3c4nc(c(-c5ccc(S(=O)(=O)[O-])cc5)c5ccc([nH]5)c(-c5ccc(S(=O)(=O)[O-])cc5)c5nc(c(-c6ccc(S(=O)(=O)[O-])cc6)c6ccc3[nH]6)C=C5)C=C4)cc2)cs1
REMARK SMILES IDX 19 1 18 2 16 3 17 4 15 6 13 7 14 8 87 9 86 10 12 11 11 12
REMARK SMILES IDX 10 14 5 15 6 16 7 17 9 18 8 19 4 20 2 21 1 22 3 23 20 24
REMARK SMILES IDX 21 25 22 26 23 27 24 28 25 30 26 31 27 32 85 33 28 34 84 35
REMARK SMILES IDX 29 36 30 37 31 38 78 39 32 40 83 41 77 42 79 43 33 44 82 45
REMARK SMILES IDX 76 46 75 47 34 49 64 50 45 51 63 52 46 53 49 54 62 55 80 56
REMARK SMILES IDX 47 57 48 58 61 60 81 61 50 62 35 63 36 64 44 65 37 66 43 67
REMARK SMILES IDX 38 68 39 69 40 70 41 71 42 72 65 73 66 74 74 75 67 76 73 77
REMARK SMILES IDX 68 78 69 79 70 80 71 81 72 82 51 83 52 84 60 85 53 86 59 87
REMARK SMILES IDX 54 88 55 89 56 90 57 91 58 92
REMARK H PARENT 18 5 11 13 23 29 79 48 49 59
REMARK Flexibility Score: inf
ROOT
ATOM      1  C   UNL A   1      36.569  20.996  25.007  1.00  0.00     0.116 C 
ENDROOT
BRANCH   1   2
ATOM      2  N   UNL A   1      35.404  20.138  25.009  1.00  0.00    -0.352 N 
ATOM      3  C   UNL A   1      34.066  20.435  25.025  1.00  0.00     0.252 C 
ATOM      4  O   UNL A   1      33.280  19.492  24.890  1.00  0.00    -0.269 OA
ATOM      5  H   UNL A   1      35.607  19.175  24.998  1.00  0.00     0.163 HD
BRANCH   3   6
ATOM      6  C   UNL A   1      33.581  21.815  25.131  1.00  0.00     0.050 A 
ATOM      7  C   UNL A   1      32.786  23.974  24.589  1.00  0.00     0.024 A 
ATOM      8  C   UNL A   1      33.403  22.825  24.123  1.00  0.00     0.031 A 
ATOM      9  S   UNL A   1      32.602  23.925  26.285  1.00  0.00    -0.146 S 
ATOM     10  C   UNL A   1      33.256  22.349  26.369  1.00  0.00     0.079 A 
BRANCH   7  11
ATOM     11  C   UNL A   1      32.315  25.165  23.798  1.00  0.00     0.160 C 
BRANCH  11  12
ATOM     12  N   UNL A   1      31.262  25.926  24.447  1.00  0.00    -0.377 N 
ATOM     13  H   UNL A   1      30.881  25.530  25.263  1.00  0.00     0.161 HD
BRANCH  12  14
ATOM     14  C   UNL A   1      30.732  27.140  24.053  1.00  0.00     0.077 A 
ATOM     15  C   UNL A   1      31.226  28.344  24.605  1.00  0.00     0.142 A 
ATOM     16  C   UNL A   1      30.641  29.581  24.313  1.00  0.00     0.048 A 
ATOM     17  C   UNL A   1      29.572  29.651  23.426  1.00  0.00     0.004 A 
ATOM     18  C   UNL A   1      29.684  27.248  23.131  1.00  0.00     0.029 A 
ATOM     19  C   UNL A   1      29.099  28.485  22.831  1.00  0.00     0.002 A 
BRANCH  15  20
ATOM     20  O   UNL A   1      32.196  28.330  25.573  1.00  0.00    -0.489 OA
BRANCH  20  21
ATOM     21  C   UNL A   1      33.464  28.938  25.264  1.00  0.00     0.167 C 
ATOM     22  C   UNL A   1      34.382  28.768  26.464  1.00  0.00     0.052 C 
ATOM     23  C   UNL A   1      34.179  28.531  23.973  1.00  0.00     0.052 C 
ENDBRANCH  20  21
ENDBRANCH  15  20
ENDBRANCH  12  14
ENDBRANCH  11  12
ENDBRANCH   7  11
ENDBRANCH   3   6
ENDBRANCH   1   2
BRANCH   1  24
ATOM     24  C   UNL A   1      37.862  20.185  24.997  1.00  0.00     0.023 C 
BRANCH  24  25
ATOM     25  C   UNL A   1      39.091  20.980  25.443  1.00  0.00     0.023 C 
BRANCH  25  26
ATOM     26  C   UNL A   1      39.936  20.312  26.525  1.00  0.00     0.116 C 
BRANCH  26  27
ATOM     27  N   UNL A   1      41.116  19.639  26.001  1.00  0.00    -0.352 N 
ATOM     28  C   UNL A   1      42.361  20.167  25.754  1.00  0.00     0.251 C 
ATOM     29  H   UNL A   1      41.008  18.682  25.797  1.00  0.00     0.163 HD
ATOM     30  O   UNL A   1      43.221  19.490  25.197  1.00  0.00    -0.269 OA
BRANCH  28  31
ATOM     31  C   UNL A   1      42.637  21.569  26.132  1.00  0.00     0.039 A 
ATOM     32  C   UNL A   1      43.003  21.857  27.449  1.00  0.00     0.014 A 
ATOM     33  C   UNL A   1      42.584  22.585  25.175  1.00  0.00     0.014 A 
ATOM     34  C   UNL A   1      43.388  23.155  27.788  1.00  0.00     0.010 A 
ATOM     35  C   UNL A   1      43.040  23.859  25.497  1.00  0.00     0.010 A 
ATOM     36  C   UNL A   1      43.450  24.158  26.806  1.00  0.00    -0.014 A 
BRANCH  36  37
ATOM     37  C   UNL A   1      43.945  25.522  27.124  1.00  0.00     0.031 A 
ATOM     38  C   UNL A   1      45.374  25.895  26.829  1.00  0.00     0.074 A 
ATOM     39  C   UNL A   1      43.128  26.404  27.735  1.00  0.00     0.049 A 
ATOM     40  N   UNL A   1      46.006  27.009  27.094  1.00  0.00    -0.248 NA
ATOM     41  C   UNL A   1      46.208  24.874  26.171  1.00  0.00     0.031 C 
ATOM     42  C   UNL A   1      41.733  26.152  28.110  1.00  0.00     0.029 A 
ATOM     43  N   UNL A   1      43.354  27.692  28.156  1.00  0.00    -0.354 N 
ATOM     44  C   UNL A   1      47.309  26.819  26.649  1.00  0.00     0.074 A 
ATOM     45  C   UNL A   1      47.393  25.467  26.147  1.00  0.00     0.031 C 
ATOM     46  C   UNL A   1      41.223  27.257  28.679  1.00  0.00     0.029 A 
ATOM     47  C   UNL A   1      42.261  28.280  28.751  1.00  0.00     0.049 A 
ATOM     48  H   UNL A   1      44.217  28.152  28.043  1.00  0.00     0.167 HD
ATOM     49  C   UNL A   1      48.337  27.701  26.637  1.00  0.00     0.031 A 
ATOM     50  C   UNL A   1      42.113  29.502  29.301  1.00  0.00     0.031 A 
ATOM     51  C   UNL A   1      48.248  29.051  27.126  1.00  0.00     0.049 A 
ATOM     52  C   UNL A   1      43.280  30.453  29.296  1.00  0.00     0.074 A 
ATOM     53  C   UNL A   1      49.222  30.034  27.113  1.00  0.00     0.029 A 
ATOM     54  N   UNL A   1      47.123  29.608  27.713  1.00  0.00    -0.354 N 
ATOM     55  N   UNL A   1      44.487  30.275  28.812  1.00  0.00    -0.248 NA
ATOM     56  C   UNL A   1      43.061  31.775  29.899  1.00  0.00     0.031 C 
ATOM     57  C   UNL A   1      48.703  31.169  27.743  1.00  0.00     0.029 A 
ATOM     58  C   UNL A   1      47.384  30.916  28.088  1.00  0.00     0.049 A 
ATOM     59  H   UNL A   1      46.265  29.144  27.844  1.00  0.00     0.167 HD
ATOM     60  C   UNL A   1      45.159  31.474  29.023  1.00  0.00     0.074 A 
ATOM     61  C   UNL A   1      44.221  32.374  29.662  1.00  0.00     0.031 C 
ATOM     62  C   UNL A   1      46.438  31.802  28.715  1.00  0.00     0.031 A 
BRANCH  49  63
ATOM     63  C   UNL A   1      49.652  27.235  26.068  1.00  0.00    -0.014 A 
ATOM     64  C   UNL A   1      50.699  26.817  26.911  1.00  0.00     0.010 A 
ATOM     65  C   UNL A   1      49.823  27.152  24.674  1.00  0.00     0.010 A 
ATOM     66  C   UNL A   1      51.901  26.355  26.370  1.00  0.00     0.020 A 
ATOM     67  C   UNL A   1      51.013  26.662  24.129  1.00  0.00     0.020 A 
ATOM     68  C   UNL A   1      52.050  26.278  24.983  1.00  0.00     0.054 A 
BRANCH  68  69
ATOM     69  S   UNL A   1      53.606  25.631  24.312  1.00  0.00     0.124 S 
ATOM     70  O   UNL A   1      53.506  24.210  24.638  1.00  0.00    -0.237 OA
ATOM     71  O   UNL A   1      53.501  25.958  22.892  1.00  0.00    -0.237 OA
ATOM     72  O   UNL A   1      54.633  26.366  25.045  1.00  0.00    -0.744 OA
ENDBRANCH  68  69
ENDBRANCH  49  63
BRANCH  50  73
ATOM     73  C   UNL A   1      40.810  29.902  29.904  1.00  0.00    -0.014 A 
ATOM     74  C   UNL A   1      40.616  29.841  31.295  1.00  0.00     0.010 A 
ATOM     75  C   UNL A   1      39.748  30.328  29.086  1.00  0.00     0.010 A 
ATOM     76  C   UNL A   1      39.376  30.166  31.855  1.00  0.00     0.020 A 
ATOM     77  C   UNL A   1      38.516  30.686  29.644  1.00  0.00     0.020 A 
ATOM     78  C   UNL A   1      38.333  30.584  31.024  1.00  0.00     0.054 A 
BRANCH  78  79
ATOM     79  S   UNL A   1      36.740  31.024  31.772  1.00  0.00     0.124 S 
ATOM     80  O   UNL A   1      35.896  29.904  31.368  1.00  0.00    -0.237 OA
ATOM     81  O   UNL A   1      37.067  31.091  33.195  1.00  0.00    -0.237 OA
ATOM     82  O   UNL A   1      36.416  32.308  31.155  1.00  0.00    -0.744 OA
ENDBRANCH  78  79
ENDBRANCH  50  73
BRANCH  62  83
ATOM     83  C   UNL A   1      46.890  33.206  29.018  1.00  0.00    -0.014 A 
ATOM     84  C   UNL A   1      47.518  33.528  30.233  1.00  0.00     0.010 A 
ATOM     85  C   UNL A   1      46.734  34.208  28.040  1.00  0.00     0.010 A 
ATOM     86  C   UNL A   1      47.954  34.833  30.479  1.00  0.00     0.020 A 
ATOM     87  C   UNL A   1      47.198  35.505  28.269  1.00  0.00     0.020 A 
ATOM     88  C   UNL A   1      47.793  35.813  29.493  1.00  0.00     0.054 A 
BRANCH  88  89
ATOM     89  S   UNL A   1      48.411  37.487  29.818  1.00  0.00     0.124 S 
ATOM     90  O   UNL A   1      47.171  38.241  29.989  1.00  0.00    -0.237 OA
ATOM     91  O   UNL A   1      49.207  37.304  31.030  1.00  0.00    -0.237 OA
ATOM     92  O   UNL A   1      49.179  37.813  28.618  1.00  0.00    -0.744 OA
ENDBRANCH  88  89
ENDBRANCH  62  83
ENDBRANCH  36  37
ENDBRANCH  28  31
ENDBRANCH  26  27
ENDBRANCH  25  26
ENDBRANCH  24  25
ENDBRANCH   1  24
TORSDOF 19
ENDMDL
MODEL 2
REMARK VINA RESULT:     -10.1      5.854      8.149
REMARK SMILES CC(C)Oc1ccccc1NCc1cc(C(=O)NCCCCNC(=O)c2ccc(-c3c4nc(c(-c5ccc(S(=O)(=O)[O-])cc5)c5ccc([nH]5)c(-c5ccc(S(=O)(=O)[O-])cc5)c5nc(c(-c6ccc(S(=O)(=O)[O-])cc6)c6ccc3[nH]6)C=C5)C=C4)cc2)cs1
REMARK SMILES IDX 19 1 18 2 16 3 17 4 15 6 13 7 14 8 87 9 86 10 12 11 11 12
REMARK SMILES IDX 10 14 5 15 6 16 7 17 9 18 8 19 4 20 2 21 1 22 3 23 20 24
REMARK SMILES IDX 21 25 22 26 23 27 24 28 25 30 26 31 27 32 85 33 28 34 84 35
REMARK SMILES IDX 29 36 30 37 31 38 78 39 32 40 83 41 77 42 79 43 33 44 82 45
REMARK SMILES IDX 76 46 75 47 34 49 64 50 45 51 63 52 46 53 49 54 62 55 80 56
REMARK SMILES IDX 47 57 48 58 61 60 81 61 50 62 35 63 36 64 44 65 37 66 43 67
REMARK SMILES IDX 38 68 39 69 40 70 41 71 42 72 65 73 66 74 74 75 67 76 73 77
REMARK SMILES IDX 68 78 69 79 70 80 71 81 72 82 51 83 52 84 60 85 53 86 59 87
REMARK SMILES IDX 54 88 55 89 56 90 57 91 58 92
REMARK H PARENT 18 5 11 13 23 29 79 48 49 59
REMARK Flexibility Score: inf
ROOT
ATOM      1  C   UNL A   1      39.754  21.702  26.074  1.00  0.00     0.116 C 
ENDROOT
BRANCH   1   2
ATOM      2  N   UNL A   1      39.367  23.052  26.419  1.00  0.00    -0.352 N 
ATOM      3  C   UNL A   1      38.168  23.705  26.299  1.00  0.00     0.252 C 
ATOM      4  O   UNL A   1      38.088  24.831  26.801  1.00  0.00    -0.269 OA
ATOM      5  H   UNL A   1      40.089  23.596  26.809  1.00  0.00     0.163 HD
BRANCH   3   6
ATOM      6  C   UNL A   1      37.006  23.077  25.660  1.00  0.00     0.050 A 
ATOM      7  C   UNL A   1      35.102  22.706  24.311  1.00  0.00     0.024 A 
ATOM      8  C   UNL A   1      35.957  23.647  24.858  1.00  0.00     0.031 A 
ATOM      9  S   UNL A   1      35.433  21.148  24.924  1.00  0.00    -0.146 S 
ATOM     10  C   UNL A   1      36.759  21.723  25.832  1.00  0.00     0.079 A 
BRANCH   7  11
ATOM     11  C   UNL A   1      33.992  22.923  23.317  1.00  0.00     0.160 C 
BRANCH  11  12
ATOM     12  N   UNL A   1      33.398  24.247  23.374  1.00  0.00    -0.377 N 
ATOM     13  H   UNL A   1      33.821  24.937  22.815  1.00  0.00     0.161 HD
BRANCH  12  14
ATOM     14  C   UNL A   1      32.308  24.652  24.123  1.00  0.00     0.077 A 
ATOM     15  C   UNL A   1      31.801  25.964  23.987  1.00  0.00     0.142 A 
ATOM     16  C   UNL A   1      30.772  26.442  24.806  1.00  0.00     0.048 A 
ATOM     17  C   UNL A   1      30.193  25.605  25.754  1.00  0.00     0.004 A 
ATOM     18  C   UNL A   1      31.676  23.821  25.055  1.00  0.00     0.029 A 
ATOM     19  C   UNL A   1      30.641  24.293  25.873  1.00  0.00     0.002 A 
BRANCH  15  20
ATOM     20  O   UNL A   1      32.406  26.872  23.158  1.00  0.00    -0.489 OA
BRANCH  20  21
ATOM     21  C   UNL A   1      33.618  27.498  23.617  1.00  0.00     0.167 C 
ATOM     22  C   UNL A   1      34.010  28.573  22.615  1.00  0.00     0.052 C 
ATOM     23  C   UNL A   1      33.668  28.046  25.045  1.00  0.00     0.052 C 
ENDBRANCH  20  21
ENDBRANCH  15  20
ENDBRANCH  12  14
ENDBRANCH  11  12
ENDBRANCH   7  11
ENDBRANCH   3   6
ENDBRANCH   1   2
BRANCH   1  24
ATOM     24  C   UNL A   1      41.186  21.401  26.506  1.00  0.00     0.023 C 
BRANCH  24  25
ATOM     25  C   UNL A   1      41.542  21.951  27.888  1.00  0.00     0.023 C 
BRANCH  25  26
ATOM     26  C   UNL A   1      42.606  23.046  27.895  1.00  0.00     0.116 C 
BRANCH  26  27
ATOM     27  N   UNL A   1      42.819  23.651  26.588  1.00  0.00    -0.352 N 
ATOM     28  C   UNL A   1      42.615  24.957  26.208  1.00  0.00     0.251 C 
ATOM     29  H   UNL A   1      43.152  23.047  25.886  1.00  0.00     0.163 HD
ATOM     30  O   UNL A   1      42.730  25.284  25.031  1.00  0.00    -0.269 OA
BRANCH  28  31
ATOM     31  C   UNL A   1      42.218  25.950  27.227  1.00  0.00     0.039 A 
ATOM     32  C   UNL A   1      41.149  25.659  28.079  1.00  0.00     0.014 A 
ATOM     33  C   UNL A   1      42.932  27.142  27.373  1.00  0.00     0.014 A 
ATOM     34  C   UNL A   1      40.846  26.532  29.125  1.00  0.00     0.010 A 
ATOM     35  C   UNL A   1      42.676  27.970  28.461  1.00  0.00     0.010 A 
ATOM     36  C   UNL A   1      41.633  27.673  29.351  1.00  0.00    -0.014 A 
BRANCH  36  37
ATOM     37  C   UNL A   1      41.385  28.565  30.512  1.00  0.00     0.031 A 
ATOM     38  C   UNL A   1      42.208  28.420  31.765  1.00  0.00     0.074 A 
ATOM     39  C   UNL A   1      40.380  29.464  30.464  1.00  0.00     0.049 A 
ATOM     40  N   UNL A   1      42.098  29.058  32.901  1.00  0.00    -0.248 NA
ATOM     41  C   UNL A   1      43.280  27.409  31.746  1.00  0.00     0.031 C 
ATOM     42  C   UNL A   1      39.485  29.676  29.323  1.00  0.00     0.029 A 
ATOM     43  N   UNL A   1      39.936  30.364  31.402  1.00  0.00    -0.354 N 
ATOM     44  C   UNL A   1      43.074  28.520  33.733  1.00  0.00     0.074 A 
ATOM     45  C   UNL A   1      43.729  27.467  32.991  1.00  0.00     0.031 C 
ATOM     46  C   UNL A   1      38.620  30.661  29.618  1.00  0.00     0.029 A 
ATOM     47  C   UNL A   1      38.866  31.119  30.981  1.00  0.00     0.049 A 
ATOM     48  H   UNL A   1      40.346  30.460  32.292  1.00  0.00     0.167 HD
ATOM     49  C   UNL A   1      43.409  28.886  34.993  1.00  0.00     0.031 A 
ATOM     50  C   UNL A   1      38.156  32.069  31.623  1.00  0.00     0.031 A 
ATOM     51  C   UNL A   1      42.763  29.943  35.725  1.00  0.00     0.049 A 
ATOM     52  C   UNL A   1      38.536  32.440  33.032  1.00  0.00     0.074 A 
ATOM     53  C   UNL A   1      43.063  30.418  36.990  1.00  0.00     0.029 A 
ATOM     54  N   UNL A   1      41.689  30.687  35.261  1.00  0.00    -0.354 N 
ATOM     55  N   UNL A   1      39.503  31.961  33.778  1.00  0.00    -0.248 NA
ATOM     56  C   UNL A   1      37.736  33.487  33.681  1.00  0.00     0.031 C 
ATOM     57  C   UNL A   1      42.135  31.414  37.312  1.00  0.00     0.029 A 
ATOM     58  C   UNL A   1      41.300  31.604  36.223  1.00  0.00     0.049 A 
ATOM     59  H   UNL A   1      41.267  30.580  34.379  1.00  0.00     0.167 HD
ATOM     60  C   UNL A   1      39.448  32.673  34.971  1.00  0.00     0.074 A 
ATOM     61  C   UNL A   1      38.365  33.626  34.841  1.00  0.00     0.031 C 
ATOM     62  C   UNL A   1      40.226  32.552  36.076  1.00  0.00     0.031 A 
BRANCH  49  63
ATOM     63  C   UNL A   1      44.535  28.141  35.662  1.00  0.00    -0.014 A 
ATOM     64  C   UNL A   1      44.313  26.897  36.282  1.00  0.00     0.010 A 
ATOM     65  C   UNL A   1      45.842  28.658  35.616  1.00  0.00     0.010 A 
ATOM     66  C   UNL A   1      45.372  26.200  36.869  1.00  0.00     0.020 A 
ATOM     67  C   UNL A   1      46.910  27.950  36.177  1.00  0.00     0.020 A 
ATOM     68  C   UNL A   1      46.664  26.730  36.810  1.00  0.00     0.054 A 
BRANCH  68  69
ATOM     69  S   UNL A   1      48.024  25.779  37.542  1.00  0.00     0.124 S 
ATOM     70  O   UNL A   1      47.764  24.437  37.027  1.00  0.00    -0.237 OA
ATOM     71  O   UNL A   1      49.206  26.443  36.997  1.00  0.00    -0.237 OA
ATOM     72  O   UNL A   1      47.829  25.943  38.980  1.00  0.00    -0.744 OA
ENDBRANCH  68  69
ENDBRANCH  49  63
BRANCH  50  73
ATOM     73  C   UNL A   1      37.013  32.742  30.943  1.00  0.00    -0.014 A 
ATOM     74  C   UNL A   1      35.688  32.435  31.298  1.00  0.00     0.010 A 
ATOM     75  C   UNL A   1      37.245  33.681  29.921  1.00  0.00     0.010 A 
ATOM     76  C   UNL A   1      34.616  33.027  30.622  1.00  0.00     0.020 A 
ATOM     77  C   UNL A   1      36.177  34.301  29.265  1.00  0.00     0.020 A 
ATOM     78  C   UNL A   1      34.869  33.955  29.608  1.00  0.00     0.054 A 
BRANCH  78  79
ATOM     79  S   UNL A   1      33.464  34.730  28.760  1.00  0.00     0.124 S 
ATOM     80  O   UNL A   1      33.078  33.695  27.807  1.00  0.00    -0.237 OA
ATOM     81  O   UNL A   1      32.526  34.966  29.855  1.00  0.00    -0.237 OA
ATOM     82  O   UNL A   1      34.042  35.938  28.176  1.00  0.00    -0.744 OA
ENDBRANCH  78  79
ENDBRANCH  50  73
BRANCH  62  83
ATOM     83  C   UNL A   1      39.969  33.500  37.217  1.00  0.00    -0.014 A 
ATOM     84  C   UNL A   1      40.655  34.722  37.323  1.00  0.00     0.010 A 
ATOM     85  C   UNL A   1      38.977  33.185  38.166  1.00  0.00     0.010 A 
ATOM     86  C   UNL A   1      40.378  35.598  38.377  1.00  0.00     0.020 A 
ATOM     87  C   UNL A   1      38.675  34.072  39.201  1.00  0.00     0.020 A 
ATOM     88  C   UNL A   1      39.387  35.267  39.308  1.00  0.00     0.054 A 
BRANCH  88  89
ATOM     89  S   UNL A   1      39.013  36.444  40.638  1.00  0.00     0.124 S 
ATOM     90  O   UNL A   1      38.037  35.703  41.433  1.00  0.00    -0.237 OA
ATOM     91  O   UNL A   1      40.317  36.641  41.266  1.00  0.00    -0.237 OA
ATOM     92  O   UNL A   1      38.485  37.609  39.931  1.00  0.00    -0.744 OA
ENDBRANCH  88  89
ENDBRANCH  62  83
ENDBRANCH  36  37
ENDBRANCH  28  31
ENDBRANCH  26  27
ENDBRANCH  25  26
ENDBRANCH  24  25
ENDBRANCH   1  24
TORSDOF 19
ENDMDL
MODEL 3
REMARK VINA RESULT:      -9.9      5.663      8.872
REMARK SMILES CC(C)Oc1ccccc1NCc1cc(C(=O)NCCCCNC(=O)c2ccc(-c3c4nc(c(-c5ccc(S(=O)(=O)[O-])cc5)c5ccc([nH]5)c(-c5ccc(S(=O)(=O)[O-])cc5)c5nc(c(-c6ccc(S(=O)(=O)[O-])cc6)c6ccc3[nH]6)C=C5)C=C4)cc2)cs1
REMARK SMILES IDX 19 1 18 2 16 3 17 4 15 6 13 7 14 8 87 9 86 10 12 11 11 12
REMARK SMILES IDX 10 14 5 15 6 16 7 17 9 18 8 19 4 20 2 21 1 22 3 23 20 24
REMARK SMILES IDX 21 25 22 26 23 27 24 28 25 30 26 31 27 32 85 33 28 34 84 35
REMARK SMILES IDX 29 36 30 37 31 38 78 39 32 40 83 41 77 42 79 43 33 44 82 45
REMARK SMILES IDX 76 46 75 47 34 49 64 50 45 51 63 52 46 53 49 54 62 55 80 56
REMARK SMILES IDX 47 57 48 58 61 60 81 61 50 62 35 63 36 64 44 65 37 66 43 67
REMARK SMILES IDX 38 68 39 69 40 70 41 71 42 72 65 73 66 74 74 75 67 76 73 77
REMARK SMILES IDX 68 78 69 79 70 80 71 81 72 82 51 83 52 84 60 85 53 86 59 87
REMARK SMILES IDX 54 88 55 89 56 90 57 91 58 92
REMARK H PARENT 18 5 11 13 23 29 79 48 49 59
REMARK Flexibility Score: inf
ROOT
ATOM      1  C   UNL A   1      40.937  26.616  25.980  1.00  0.00     0.116 C 
ENDROOT
BRANCH   1   2
ATOM      2  N   UNL A   1      40.287  26.602  27.272  1.00  0.00    -0.352 N 
ATOM      3  C   UNL A   1      39.575  25.622  27.913  1.00  0.00     0.252 C 
ATOM      4  O   UNL A   1      39.238  25.846  29.081  1.00  0.00    -0.269 OA
ATOM      5  H   UNL A   1      40.369  27.443  27.778  1.00  0.00     0.163 HD
BRANCH   3   6
ATOM      6  C   UNL A   1      39.278  24.337  27.272  1.00  0.00     0.050 A 
ATOM      7  C   UNL A   1      38.248  22.645  25.984  1.00  0.00     0.024 A 
ATOM      8  C   UNL A   1      38.102  23.887  26.578  1.00  0.00     0.031 A 
ATOM      9  S   UNL A   1      39.730  21.923  26.430  1.00  0.00    -0.146 S 
ATOM     10  C   UNL A   1      40.197  23.300  27.326  1.00  0.00     0.079 A 
BRANCH   7  11
ATOM     11  C   UNL A   1      37.290  21.932  25.067  1.00  0.00     0.160 C 
BRANCH  11  12
ATOM     12  N   UNL A   1      35.891  22.142  25.396  1.00  0.00    -0.377 N 
ATOM     13  H   UNL A   1      35.710  22.677  26.202  1.00  0.00     0.161 HD
BRANCH  12  14
ATOM     14  C   UNL A   1      34.784  21.679  24.711  1.00  0.00     0.077 A 
ATOM     15  C   UNL A   1      34.094  22.530  23.818  1.00  0.00     0.142 A 
ATOM     16  C   UNL A   1      32.907  22.131  23.192  1.00  0.00     0.048 A 
ATOM     17  C   UNL A   1      32.403  20.853  23.410  1.00  0.00     0.004 A 
ATOM     18  C   UNL A   1      34.275  20.385  24.875  1.00  0.00     0.029 A 
ATOM     19  C   UNL A   1      33.091  19.979  24.246  1.00  0.00     0.002 A 
BRANCH  15  20
ATOM     20  O   UNL A   1      34.472  23.836  23.654  1.00  0.00    -0.489 OA
BRANCH  20  21
ATOM     21  C   UNL A   1      33.439  24.840  23.654  1.00  0.00     0.167 C 
ATOM     22  C   UNL A   1      33.151  25.231  25.095  1.00  0.00     0.052 C 
ATOM     23  C   UNL A   1      33.622  26.084  22.782  1.00  0.00     0.052 C 
ENDBRANCH  20  21
ENDBRANCH  15  20
ENDBRANCH  12  14
ENDBRANCH  11  12
ENDBRANCH   7  11
ENDBRANCH   3   6
ENDBRANCH   1   2
BRANCH   1  24
ATOM     24  C   UNL A   1      41.927  27.771  25.862  1.00  0.00     0.023 C 
BRANCH  24  25
ATOM     25  C   UNL A   1      43.025  27.539  24.822  1.00  0.00     0.023 C 
BRANCH  25  26
ATOM     26  C   UNL A   1      44.391  27.169  25.394  1.00  0.00     0.116 C 
BRANCH  26  27
ATOM     27  N   UNL A   1      44.498  25.767  25.773  1.00  0.00    -0.352 N 
ATOM     28  C   UNL A   1      44.441  25.216  27.031  1.00  0.00     0.251 C 
ATOM     29  H   UNL A   1      44.628  25.132  25.032  1.00  0.00     0.163 HD
ATOM     30  O   UNL A   1      44.668  24.020  27.194  1.00  0.00    -0.269 OA
BRANCH  28  31
ATOM     31  C   UNL A   1      44.142  26.087  28.187  1.00  0.00     0.039 A 
ATOM     32  C   UNL A   1      44.814  27.305  28.310  1.00  0.00     0.014 A 
ATOM     33  C   UNL A   1      43.164  25.723  29.115  1.00  0.00     0.014 A 
ATOM     34  C   UNL A   1      44.451  28.192  29.325  1.00  0.00     0.010 A 
ATOM     35  C   UNL A   1      42.753  26.639  30.078  1.00  0.00     0.010 A 
ATOM     36  C   UNL A   1      43.389  27.885  30.192  1.00  0.00    -0.014 A 
BRANCH  36  37
ATOM     37  C   UNL A   1      42.925  28.852  31.219  1.00  0.00     0.031 A 
ATOM     38  C   UNL A   1      43.677  28.995  32.515  1.00  0.00     0.074 A 
ATOM     39  C   UNL A   1      41.794  29.557  31.012  1.00  0.00     0.049 A 
ATOM     40  N   UNL A   1      43.391  29.734  33.556  1.00  0.00    -0.248 NA
ATOM     41  C   UNL A   1      44.897  28.184  32.673  1.00  0.00     0.031 C 
ATOM     42  C   UNL A   1      40.952  29.480  29.814  1.00  0.00     0.029 A 
ATOM     43  N   UNL A   1      41.150  30.472  31.808  1.00  0.00    -0.354 N 
ATOM     44  C   UNL A   1      44.384  29.469  34.493  1.00  0.00     0.074 A 
ATOM     45  C   UNL A   1      45.248  28.462  33.920  1.00  0.00     0.031 C 
ATOM     46  C   UNL A   1      39.922  30.333  29.943  1.00  0.00     0.029 A 
ATOM     47  C   UNL A   1      40.001  30.983  31.247  1.00  0.00     0.049 A 
ATOM     48  H   UNL A   1      41.479  30.740  32.696  1.00  0.00     0.167 HD
ATOM     49  C   UNL A   1      44.573  30.031  35.710  1.00  0.00     0.031 A 
ATOM     50  C   UNL A   1      39.107  31.868  31.731  1.00  0.00     0.031 A 
ATOM     51  C   UNL A   1      43.718  31.043  36.273  1.00  0.00     0.049 A 
ATOM     52  C   UNL A   1      39.328  32.459  33.098  1.00  0.00     0.074 A 
ATOM     53  C   UNL A   1      43.854  31.706  37.480  1.00  0.00     0.029 A 
ATOM     54  N   UNL A   1      42.571  31.536  35.671  1.00  0.00    -0.354 N 
ATOM     55  N   UNL A   1      40.309  32.241  33.942  1.00  0.00    -0.248 NA
ATOM     56  C   UNL A   1      38.329  33.426  33.573  1.00  0.00     0.031 C 
ATOM     57  C   UNL A   1      42.758  32.562  37.632  1.00  0.00     0.029 A 
ATOM     58  C   UNL A   1      41.976  32.480  36.490  1.00  0.00     0.049 A 
ATOM     59  H   UNL A   1      42.230  31.257  34.791  1.00  0.00     0.167 HD
ATOM     60  C   UNL A   1      40.062  33.068  35.031  1.00  0.00     0.074 A 
ATOM     61  C   UNL A   1      38.850  33.803  34.733  1.00  0.00     0.031 C 
ATOM     62  C   UNL A   1      40.775  33.209  36.176  1.00  0.00     0.031 A 
BRANCH  49  63
ATOM     63  C   UNL A   1      45.758  29.570  36.518  1.00  0.00    -0.014 A 
ATOM     64  C   UNL A   1      47.009  30.202  36.396  1.00  0.00     0.010 A 
ATOM     65  C   UNL A   1      45.604  28.534  37.457  1.00  0.00     0.010 A 
ATOM     66  C   UNL A   1      48.091  29.786  37.175  1.00  0.00     0.020 A 
ATOM     67  C   UNL A   1      46.677  28.135  38.261  1.00  0.00     0.020 A 
ATOM     68  C   UNL A   1      47.918  28.757  38.105  1.00  0.00     0.054 A 
BRANCH  68  69
ATOM     69  S   UNL A   1      49.330  28.271  39.134  1.00  0.00     0.124 S 
ATOM     70  O   UNL A   1      49.005  28.905  40.409  1.00  0.00    -0.237 OA
ATOM     71  O   UNL A   1      49.248  26.813  39.119  1.00  0.00    -0.237 OA
ATOM     72  O   UNL A   1      50.481  28.836  38.434  1.00  0.00    -0.744 OA
ENDBRANCH  68  69
ENDBRANCH  49  63
BRANCH  50  73
ATOM     73  C   UNL A   1      37.917  32.254  30.921  1.00  0.00    -0.014 A 
ATOM     74  C   UNL A   1      36.715  31.532  31.025  1.00  0.00     0.010 A 
ATOM     75  C   UNL A   1      37.987  33.337  30.025  1.00  0.00     0.010 A 
ATOM     76  C   UNL A   1      35.617  31.862  30.225  1.00  0.00     0.020 A 
ATOM     77  C   UNL A   1      36.880  33.692  29.247  1.00  0.00     0.020 A 
ATOM     78  C   UNL A   1      35.708  32.940  29.339  1.00  0.00     0.054 A 
BRANCH  78  79
ATOM     79  S   UNL A   1      34.263  33.367  28.327  1.00  0.00     0.124 S 
ATOM     80  O   UNL A   1      33.389  34.010  29.303  1.00  0.00    -0.237 OA
ATOM     81  O   UNL A   1      34.838  34.247  27.313  1.00  0.00    -0.237 OA
ATOM     82  O   UNL A   1      33.802  32.073  27.828  1.00  0.00    -0.744 OA
ENDBRANCH  78  79
ENDBRANCH  50  73
BRANCH  62  83
ATOM     83  C   UNL A   1      40.294  34.228  37.176  1.00  0.00    -0.014 A 
ATOM     84  C   UNL A   1      39.376  33.888  38.185  1.00  0.00     0.010 A 
ATOM     85  C   UNL A   1      40.818  35.535  37.136  1.00  0.00     0.010 A 
ATOM     86  C   UNL A   1      38.967  34.846  39.119  1.00  0.00     0.020 A 
ATOM     87  C   UNL A   1      40.436  36.484  38.087  1.00  0.00     0.020 A 
ATOM     88  C   UNL A   1      39.503  36.137  39.064  1.00  0.00     0.054 A 
BRANCH  88  89
ATOM     89  S   UNL A   1      38.991  37.346  40.316  1.00  0.00     0.124 S 
ATOM     90  O   UNL A   1      40.276  37.816  40.828  1.00  0.00    -0.237 OA
ATOM     91  O   UNL A   1      38.233  38.318  39.531  1.00  0.00    -0.237 OA
ATOM     92  O   UNL A   1      38.197  36.557  41.256  1.00  0.00    -0.744 OA
ENDBRANCH  88  89
ENDBRANCH  62  83
ENDBRANCH  36  37
ENDBRANCH  28  31
ENDBRANCH  26  27
ENDBRANCH  25  26
ENDBRANCH  24  25
ENDBRANCH   1  24
TORSDOF 19
ENDMDL
