MODEL 1
REMARK VINA RESULT:     -10.3      0.000      0.000
REMARK SMILES C[C@H](C(=O)NCCCCNC(=O)c1ccc(-c2c3nc(c(-c4ccc(S(=O)(=O)[O-])cc4)c4ccc([nH]4)c(-c4ccc(S(=O)(=O)[O-])cc4)c4nc(c(-c5ccc(S(=O)(=O)[O-])cc5)c5ccc2[nH]5)C=C4)C=C3)cc1)n1c(=O)ssc1=O
REMARK SMILES IDX 8 1 7 2 6 3 5 4 3 5 4 6 2 8 1 9 73 10 74 11 78 12 75 13
REMARK SMILES IDX 76 14 77 15 79 16 9 17 10 18 11 19 12 21 13 22 14 23 72 24
REMARK SMILES IDX 15 25 71 26 16 27 17 28 18 29 65 30 19 31 70 32 64 33 66 34
REMARK SMILES IDX 20 35 69 36 63 37 62 38 21 40 51 41 32 42 50 43 33 44 36 45
REMARK SMILES IDX 49 46 67 47 34 48 35 49 48 51 68 52 37 53 22 54 23 55 31 56
REMARK SMILES IDX 24 57 30 58 25 59 26 60 27 61 28 62 29 63 52 64 53 65 61 66
REMARK SMILES IDX 54 67 60 68 55 69 56 70 57 71 58 72 59 73 38 74 39 75 47 76
REMARK SMILES IDX 40 77 46 78 41 79 42 80 43 81 44 82 45 83
REMARK H PARENT 5 7 10 20 66 39 36 50
REMARK Flexibility Score: inf
ROOT
ATOM      1  C   UNL A   1      32.024  27.806  27.120  1.00  0.00     0.023 C 
ENDROOT
BRANCH   1   2
ATOM      2  C   UNL A   1      31.508  27.688  25.681  1.00  0.00     0.023 C 
BRANCH   2   3
ATOM      3  C   UNL A   1      30.603  26.481  25.443  1.00  0.00     0.116 C 
BRANCH   3   4
ATOM      4  N   UNL A   1      30.822  25.467  26.450  1.00  0.00    -0.354 N 
ATOM      5  C   UNL A   1      31.615  24.363  26.497  1.00  0.00     0.243 C 
ATOM      6  O   UNL A   1      31.611  23.776  27.585  1.00  0.00    -0.273 OA
ATOM      7  H   UNL A   1      30.291  25.603  27.268  1.00  0.00     0.163 HD
BRANCH   5   8
ATOM      8  C   UNL A   1      32.628  23.967  25.381  1.00  0.00     0.181 C 
ATOM      9  C   UNL A   1      33.983  24.621  25.711  1.00  0.00     0.042 C 
BRANCH   8  10
ATOM     10  N   UNL A   1      32.728  22.531  25.054  1.00  0.00    -0.244 N 
ATOM     11  C   UNL A   1      33.399  21.642  25.868  1.00  0.00     0.321 A 
ATOM     12  C   UNL A   1      32.322  22.103  23.801  1.00  0.00     0.321 A 
ATOM     13  O   UNL A   1      34.159  21.918  26.787  1.00  0.00    -0.256 OA
ATOM     14  S   UNL A   1      33.158  19.964  25.416  1.00  0.00    -0.014 S 
ATOM     15  S   UNL A   1      32.405  20.364  23.583  1.00  0.00    -0.014 S 
ATOM     16  O   UNL A   1      31.960  22.821  22.887  1.00  0.00    -0.256 OA
ENDBRANCH   8  10
ENDBRANCH   5   8
ENDBRANCH   3   4
ENDBRANCH   2   3
ENDBRANCH   1   2
BRANCH   1  17
ATOM     17  C   UNL A   1      33.400  28.455  27.263  1.00  0.00     0.116 C 
BRANCH  17  18
ATOM     18  N   UNL A   1      33.345  29.873  27.580  1.00  0.00    -0.352 N 
ATOM     19  C   UNL A   1      34.330  30.676  28.103  1.00  0.00     0.251 C 
ATOM     20  H   UNL A   1      32.486  30.317  27.396  1.00  0.00     0.163 HD
ATOM     21  O   UNL A   1      34.079  31.842  28.395  1.00  0.00    -0.269 OA
BRANCH  19  22
ATOM     22  C   UNL A   1      35.674  30.116  28.356  1.00  0.00     0.039 A 
ATOM     23  C   UNL A   1      36.605  30.119  27.314  1.00  0.00     0.014 A 
ATOM     24  C   UNL A   1      36.027  29.623  29.615  1.00  0.00     0.014 A 
ATOM     25  C   UNL A   1      37.912  29.697  27.558  1.00  0.00     0.010 A 
ATOM     26  C   UNL A   1      37.349  29.269  29.874  1.00  0.00     0.010 A 
ATOM     27  C   UNL A   1      38.307  29.310  28.851  1.00  0.00    -0.014 A 
BRANCH  27  28
ATOM     28  C   UNL A   1      39.725  28.976  29.140  1.00  0.00     0.031 A 
ATOM     29  C   UNL A   1      40.634  29.986  29.786  1.00  0.00     0.074 A 
ATOM     30  C   UNL A   1      40.201  27.767  28.782  1.00  0.00     0.049 A 
ATOM     31  N   UNL A   1      41.893  29.863  30.118  1.00  0.00    -0.248 NA
ATOM     32  C   UNL A   1      40.064  31.312  30.075  1.00  0.00     0.031 C 
ATOM     33  C   UNL A   1      39.436  26.724  28.091  1.00  0.00     0.029 A 
ATOM     34  N   UNL A   1      41.441  27.206  28.954  1.00  0.00    -0.354 N 
ATOM     35  C   UNL A   1      42.266  31.091  30.653  1.00  0.00     0.074 A 
ATOM     36  C   UNL A   1      41.117  31.963  30.547  1.00  0.00     0.031 C 
ATOM     37  C   UNL A   1      40.213  25.641  27.927  1.00  0.00     0.029 A 
ATOM     38  C   UNL A   1      41.537  25.920  28.475  1.00  0.00     0.049 A 
ATOM     39  H   UNL A   1      42.192  27.678  29.379  1.00  0.00     0.167 HD
ATOM     40  C   UNL A   1      43.447  31.450  31.209  1.00  0.00     0.031 A 
ATOM     41  C   UNL A   1      42.572  25.058  28.479  1.00  0.00     0.031 A 
ATOM     42  C   UNL A   1      44.586  30.579  31.320  1.00  0.00     0.049 A 
ATOM     43  C   UNL A   1      43.868  25.479  29.115  1.00  0.00     0.074 A 
ATOM     44  C   UNL A   1      45.815  30.836  31.904  1.00  0.00     0.029 A 
ATOM     45  N   UNL A   1      44.637  29.278  30.841  1.00  0.00    -0.354 N 
ATOM     46  N   UNL A   1      44.175  26.623  29.679  1.00  0.00    -0.248 NA
ATOM     47  C   UNL A   1      44.949  24.485  29.133  1.00  0.00     0.031 C 
ATOM     48  C   UNL A   1      46.622  29.705  31.743  1.00  0.00     0.029 A 
ATOM     49  C   UNL A   1      45.880  28.726  31.105  1.00  0.00     0.049 A 
ATOM     50  H   UNL A   1      43.899  28.816  30.382  1.00  0.00     0.167 HD
ATOM     51  C   UNL A   1      45.482  26.478  30.134  1.00  0.00     0.074 A 
ATOM     52  C   UNL A   1      45.892  25.128  29.807  1.00  0.00     0.031 C 
ATOM     53  C   UNL A   1      46.274  27.383  30.761  1.00  0.00     0.031 A 
BRANCH  40  54
ATOM     54  C   UNL A   1      43.562  32.848  31.759  1.00  0.00    -0.014 A 
ATOM     55  C   UNL A   1      44.098  33.886  30.976  1.00  0.00     0.010 A 
ATOM     56  C   UNL A   1      43.076  33.142  33.046  1.00  0.00     0.010 A 
ATOM     57  C   UNL A   1      44.174  35.187  31.480  1.00  0.00     0.020 A 
ATOM     58  C   UNL A   1      43.126  34.448  33.545  1.00  0.00     0.020 A 
ATOM     59  C   UNL A   1      43.687  35.460  32.762  1.00  0.00     0.054 A 
BRANCH  59  60
ATOM     60  S   UNL A   1      43.758  37.167  33.370  1.00  0.00     0.124 S 
ATOM     61  O   UNL A   1      45.068  37.203  34.014  1.00  0.00    -0.237 OA
ATOM     62  O   UNL A   1      43.639  37.950  32.143  1.00  0.00    -0.237 OA
ATOM     63  O   UNL A   1      42.616  37.259  34.277  1.00  0.00    -0.744 OA
ENDBRANCH  59  60
ENDBRANCH  40  54
BRANCH  41  64
ATOM     64  C   UNL A   1      42.425  23.707  27.872  1.00  0.00    -0.014 A 
ATOM     65  C   UNL A   1      41.979  22.617  28.643  1.00  0.00     0.010 A 
ATOM     66  C   UNL A   1      42.743  23.500  26.518  1.00  0.00     0.010 A 
ATOM     67  C   UNL A   1      41.888  21.341  28.080  1.00  0.00     0.020 A 
ATOM     68  C   UNL A   1      42.626  22.230  25.944  1.00  0.00     0.020 A 
ATOM     69  C   UNL A   1      42.215  21.155  26.734  1.00  0.00     0.054 A 
BRANCH  69  70
ATOM     70  S   UNL A   1      42.064  19.497  26.014  1.00  0.00     0.124 S 
ATOM     71  O   UNL A   1      42.590  18.654  27.084  1.00  0.00    -0.237 OA
ATOM     72  O   UNL A   1      40.629  19.387  25.767  1.00  0.00    -0.237 OA
ATOM     73  O   UNL A   1      42.892  19.573  24.811  1.00  0.00    -0.744 OA
ENDBRANCH  69  70
ENDBRANCH  41  64
BRANCH  53  74
ATOM     74  C   UNL A   1      47.655  26.928  31.149  1.00  0.00    -0.014 A 
ATOM     75  C   UNL A   1      47.885  26.261  32.366  1.00  0.00     0.010 A 
ATOM     76  C   UNL A   1      48.734  27.157  30.276  1.00  0.00     0.010 A 
ATOM     77  C   UNL A   1      49.179  25.878  32.727  1.00  0.00     0.020 A 
ATOM     78  C   UNL A   1      50.025  26.748  30.621  1.00  0.00     0.020 A 
ATOM     79  C   UNL A   1      50.242  26.131  31.855  1.00  0.00     0.054 A 
BRANCH  79  80
ATOM     80  S   UNL A   1      51.912  25.618  32.342  1.00  0.00     0.124 S 
ATOM     81  O   UNL A   1      52.586  25.520  31.051  1.00  0.00    -0.237 OA
ATOM     82  O   UNL A   1      52.350  26.719  33.198  1.00  0.00    -0.237 OA
ATOM     83  O   UNL A   1      51.696  24.349  33.032  1.00  0.00    -0.744 OA
ENDBRANCH  79  80
ENDBRANCH  53  74
ENDBRANCH  27  28
ENDBRANCH  19  22
ENDBRANCH  17  18
ENDBRANCH   1  17
TORSDOF 15
ENDMDL
MODEL 2
REMARK VINA RESULT:     -10.0      0.713      8.579
REMARK SMILES C[C@H](C(=O)NCCCCNC(=O)c1ccc(-c2c3nc(c(-c4ccc(S(=O)(=O)[O-])cc4)c4ccc([nH]4)c(-c4ccc(S(=O)(=O)[O-])cc4)c4nc(c(-c5ccc(S(=O)(=O)[O-])cc5)c5ccc2[nH]5)C=C4)C=C3)cc1)n1c(=O)ssc1=O
REMARK SMILES IDX 8 1 7 2 6 3 5 4 3 5 4 6 2 8 1 9 73 10 74 11 78 12 75 13
REMARK SMILES IDX 76 14 77 15 79 16 9 17 10 18 11 19 12 21 13 22 14 23 72 24
REMARK SMILES IDX 15 25 71 26 16 27 17 28 18 29 65 30 19 31 70 32 64 33 66 34
REMARK SMILES IDX 20 35 69 36 63 37 62 38 21 40 51 41 32 42 50 43 33 44 36 45
REMARK SMILES IDX 49 46 67 47 34 48 35 49 48 51 68 52 37 53 22 54 23 55 31 56
REMARK SMILES IDX 24 57 30 58 25 59 26 60 27 61 28 62 29 63 52 64 53 65 61 66
REMARK SMILES IDX 54 67 60 68 55 69 56 70 57 71 58 72 59 73 38 74 39 75 47 76
REMARK SMILES IDX 40 77 46 78 41 79 42 80 43 81 44 82 45 83
REMARK H PARENT 5 7 10 20 66 39 36 50
REMARK Flexibility Score: inf
ROOT
ATOM      1  C   UNL A   1      32.345  27.561  27.072  1.00  0.00     0.023 C 
ENDROOT
BRANCH   1   2
ATOM      2  C   UNL A   1      31.454  27.708  25.833  1.00  0.00     0.023 C 
BRANCH   2   3
ATOM      3  C   UNL A   1      30.798  26.405  25.381  1.00  0.00     0.116 C 
BRANCH   3   4
ATOM      4  N   UNL A   1      30.928  25.385  26.397  1.00  0.00    -0.354 N 
ATOM      5  C   UNL A   1      31.670  24.249  26.480  1.00  0.00     0.243 C 
ATOM      6  O   UNL A   1      31.591  23.664  27.568  1.00  0.00    -0.273 OA
ATOM      7  H   UNL A   1      30.366  25.545  27.189  1.00  0.00     0.163 HD
BRANCH   5   8
ATOM      8  C   UNL A   1      32.716  23.808  25.413  1.00  0.00     0.181 C 
ATOM      9  C   UNL A   1      34.079  24.409  25.801  1.00  0.00     0.042 C 
BRANCH   8  10
ATOM     10  N   UNL A   1      32.774  22.366  25.095  1.00  0.00    -0.244 N 
ATOM     11  C   UNL A   1      33.374  21.457  25.941  1.00  0.00     0.321 A 
ATOM     12  C   UNL A   1      32.406  21.948  23.828  1.00  0.00     0.321 A 
ATOM     13  O   UNL A   1      34.103  21.707  26.892  1.00  0.00    -0.256 OA
ATOM     14  S   UNL A   1      33.087  19.787  25.484  1.00  0.00    -0.014 S 
ATOM     15  S   UNL A   1      32.431  20.206  23.619  1.00  0.00    -0.014 S 
ATOM     16  O   UNL A   1      32.113  22.675  22.896  1.00  0.00    -0.256 OA
ENDBRANCH   8  10
ENDBRANCH   5   8
ENDBRANCH   3   4
ENDBRANCH   2   3
ENDBRANCH   1   2
BRANCH   1  17
ATOM     17  C   UNL A   1      33.651  28.353  27.027  1.00  0.00     0.116 C 
BRANCH  17  18
ATOM     18  N   UNL A   1      33.511  29.731  27.472  1.00  0.00    -0.352 N 
ATOM     19  C   UNL A   1      34.441  30.537  28.084  1.00  0.00     0.251 C 
ATOM     20  H   UNL A   1      32.630  30.142  27.314  1.00  0.00     0.163 HD
ATOM     21  O   UNL A   1      34.119  31.654  28.477  1.00  0.00    -0.269 OA
BRANCH  19  22
ATOM     22  C   UNL A   1      35.811  30.031  28.310  1.00  0.00     0.039 A 
ATOM     23  C   UNL A   1      36.727  30.093  27.256  1.00  0.00     0.014 A 
ATOM     24  C   UNL A   1      36.203  29.533  29.554  1.00  0.00     0.014 A 
ATOM     25  C   UNL A   1      38.054  29.724  27.475  1.00  0.00     0.010 A 
ATOM     26  C   UNL A   1      37.542  29.233  29.790  1.00  0.00     0.010 A 
ATOM     27  C   UNL A   1      38.483  29.333  28.755  1.00  0.00    -0.014 A 
BRANCH  27  28
ATOM     28  C   UNL A   1      39.918  29.057  29.020  1.00  0.00     0.031 A 
ATOM     29  C   UNL A   1      40.514  27.714  28.695  1.00  0.00     0.074 A 
ATOM     30  C   UNL A   1      40.676  30.014  29.592  1.00  0.00     0.049 A 
ATOM     31  N   UNL A   1      41.746  27.303  28.851  1.00  0.00    -0.248 NA
ATOM     32  C   UNL A   1      39.605  26.694  28.146  1.00  0.00     0.031 C 
ATOM     33  C   UNL A   1      40.199  31.334  30.015  1.00  0.00     0.029 A 
ATOM     34  N   UNL A   1      42.010  30.027  29.915  1.00  0.00    -0.354 N 
ATOM     35  C   UNL A   1      41.761  25.981  28.421  1.00  0.00     0.074 A 
ATOM     36  C   UNL A   1      40.404  25.641  28.053  1.00  0.00     0.031 C 
ATOM     37  C   UNL A   1      41.230  32.039  30.510  1.00  0.00     0.029 A 
ATOM     38  C   UNL A   1      42.433  31.214  30.466  1.00  0.00     0.049 A 
ATOM     39  H   UNL A   1      42.608  29.259  29.767  1.00  0.00     0.167 HD
ATOM     40  C   UNL A   1      42.814  25.137  28.314  1.00  0.00     0.031 A 
ATOM     41  C   UNL A   1      43.654  31.599  30.886  1.00  0.00     0.031 A 
ATOM     42  C   UNL A   1      44.165  25.479  28.673  1.00  0.00     0.049 A 
ATOM     43  C   UNL A   1      44.808  30.645  30.743  1.00  0.00     0.074 A 
ATOM     44  C   UNL A   1      45.309  24.707  28.562  1.00  0.00     0.029 A 
ATOM     45  N   UNL A   1      44.556  26.697  29.209  1.00  0.00    -0.354 N 
ATOM     46  N   UNL A   1      44.812  29.423  30.267  1.00  0.00    -0.248 NA
ATOM     47  C   UNL A   1      46.125  31.132  31.174  1.00  0.00     0.031 C 
ATOM     48  C   UNL A   1      46.385  25.444  29.068  1.00  0.00     0.029 A 
ATOM     49  C   UNL A   1      45.921  26.692  29.446  1.00  0.00     0.049 A 
ATOM     50  H   UNL A   1      43.954  27.453  29.392  1.00  0.00     0.167 HD
ATOM     51  C   UNL A   1      46.136  29.000  30.327  1.00  0.00     0.074 A 
ATOM     52  C   UNL A   1      46.906  30.109  30.854  1.00  0.00     0.031 C 
ATOM     53  C   UNL A   1      46.668  27.802  29.982  1.00  0.00     0.031 A 
BRANCH  40  54
ATOM     54  C   UNL A   1      42.549  23.758  27.767  1.00  0.00    -0.014 A 
ATOM     55  C   UNL A   1      42.655  23.500  26.389  1.00  0.00     0.010 A 
ATOM     56  C   UNL A   1      42.249  22.697  28.641  1.00  0.00     0.010 A 
ATOM     57  C   UNL A   1      42.437  22.213  25.890  1.00  0.00     0.020 A 
ATOM     58  C   UNL A   1      42.056  21.402  28.149  1.00  0.00     0.020 A 
ATOM     59  C   UNL A   1      42.140  21.172  26.774  1.00  0.00     0.054 A 
BRANCH  59  60
ATOM     60  S   UNL A   1      41.908  19.504  26.101  1.00  0.00     0.124 S 
ATOM     61  O   UNL A   1      42.389  18.667  27.197  1.00  0.00    -0.237 OA
ATOM     62  O   UNL A   1      40.469  19.453  25.857  1.00  0.00    -0.237 OA
ATOM     63  O   UNL A   1      42.740  19.496  24.900  1.00  0.00    -0.744 OA
ENDBRANCH  59  60
ENDBRANCH  40  54
BRANCH  41  64
ATOM     64  C   UNL A   1      43.853  32.953  31.471  1.00  0.00    -0.014 A 
ATOM     65  C   UNL A   1      43.765  33.155  32.861  1.00  0.00     0.010 A 
ATOM     66  C   UNL A   1      44.120  34.053  30.638  1.00  0.00     0.010 A 
ATOM     67  C   UNL A   1      43.905  34.436  33.401  1.00  0.00     0.020 A 
ATOM     68  C   UNL A   1      44.290  35.332  31.177  1.00  0.00     0.020 A 
ATOM     69  C   UNL A   1      44.164  35.518  32.555  1.00  0.00     0.054 A 
BRANCH  69  70
ATOM     70  S   UNL A   1      44.370  37.169  33.277  1.00  0.00     0.124 S 
ATOM     71  O   UNL A   1      44.755  37.962  32.112  1.00  0.00    -0.237 OA
ATOM     72  O   UNL A   1      43.044  37.446  33.822  1.00  0.00    -0.237 OA
ATOM     73  O   UNL A   1      45.419  36.974  34.276  1.00  0.00    -0.744 OA
ENDBRANCH  69  70
ENDBRANCH  41  64
BRANCH  53  74
ATOM     74  C   UNL A   1      48.155  27.642  30.148  1.00  0.00    -0.014 A 
ATOM     75  C   UNL A   1      49.045  28.030  29.131  1.00  0.00     0.010 A 
ATOM     76  C   UNL A   1      48.668  27.110  31.346  1.00  0.00     0.010 A 
ATOM     77  C   UNL A   1      50.420  27.840  29.289  1.00  0.00     0.020 A 
ATOM     78  C   UNL A   1      50.045  26.947  31.517  1.00  0.00     0.020 A 
ATOM     79  C   UNL A   1      50.911  27.292  30.478  1.00  0.00     0.054 A 
BRANCH  79  80
ATOM     80  S   UNL A   1      52.701  27.062  30.661  1.00  0.00     0.124 S 
ATOM     81  O   UNL A   1      53.092  28.282  31.362  1.00  0.00    -0.237 OA
ATOM     82  O   UNL A   1      52.788  25.831  31.443  1.00  0.00    -0.237 OA
ATOM     83  O   UNL A   1      53.177  26.953  29.285  1.00  0.00    -0.744 OA
ENDBRANCH  79  80
ENDBRANCH  53  74
ENDBRANCH  27  28
ENDBRANCH  19  22
ENDBRANCH  17  18
ENDBRANCH   1  17
TORSDOF 15
ENDMDL
MODEL 3
REMARK VINA RESULT:     -10.0      2.944      9.401
REMARK SMILES C[C@H](C(=O)NCCCCNC(=O)c1ccc(-c2c3nc(c(-c4ccc(S(=O)(=O)[O-])cc4)c4ccc([nH]4)c(-c4ccc(S(=O)(=O)[O-])cc4)c4nc(c(-c5ccc(S(=O)(=O)[O-])cc5)c5ccc2[nH]5)C=C4)C=C3)cc1)n1c(=O)ssc1=O
REMARK SMILES IDX 8 1 7 2 6 3 5 4 3 5 4 6 2 8 1 9 73 10 74 11 78 12 75 13
REMARK SMILES IDX 76 14 77 15 79 16 9 17 10 18 11 19 12 21 13 22 14 23 72 24
REMARK SMILES IDX 15 25 71 26 16 27 17 28 18 29 65 30 19 31 70 32 64 33 66 34
REMARK SMILES IDX 20 35 69 36 63 37 62 38 21 40 51 41 32 42 50 43 33 44 36 45
REMARK SMILES IDX 49 46 67 47 34 48 35 49 48 51 68 52 37 53 22 54 23 55 31 56
REMARK SMILES IDX 24 57 30 58 25 59 26 60 27 61 28 62 29 63 52 64 53 65 61 66
REMARK SMILES IDX 54 67 60 68 55 69 56 70 57 71 58 72 59 73 38 74 39 75 47 76
REMARK SMILES IDX 40 77 46 78 41 79 42 80 43 81 44 82 45 83
REMARK H PARENT 5 7 10 20 66 39 36 50
REMARK Flexibility Score: inf
ROOT
ATOM      1  C   UNL A   1      35.701  23.658  25.732  1.00  0.00     0.023 C 
ENDROOT
BRANCH   1   2
ATOM      2  C   UNL A   1      34.706  24.790  25.454  1.00  0.00     0.023 C 
BRANCH   2   3
ATOM      3  C   UNL A   1      34.038  24.707  24.083  1.00  0.00     0.116 C 
BRANCH   3   4
ATOM      4  N   UNL A   1      32.727  24.107  24.184  1.00  0.00    -0.354 N 
ATOM      5  C   UNL A   1      31.468  24.621  24.168  1.00  0.00     0.243 C 
ATOM      6  O   UNL A   1      30.568  23.773  24.182  1.00  0.00    -0.273 OA
ATOM      7  H   UNL A   1      32.749  23.128  24.285  1.00  0.00     0.163 HD
BRANCH   5   8
ATOM      8  C   UNL A   1      31.142  26.125  23.922  1.00  0.00     0.181 C 
ATOM      9  C   UNL A   1      29.613  26.271  23.815  1.00  0.00     0.042 C 
BRANCH   8  10
ATOM     10  N   UNL A   1      31.767  27.099  24.841  1.00  0.00    -0.244 N 
ATOM     11  C   UNL A   1      31.661  26.980  26.211  1.00  0.00     0.321 A 
ATOM     12  C   UNL A   1      32.290  28.269  24.316  1.00  0.00     0.321 A 
ATOM     13  O   UNL A   1      30.898  26.250  26.829  1.00  0.00    -0.256 OA
ATOM     14  S   UNL A   1      32.698  28.092  27.088  1.00  0.00    -0.014 S 
ATOM     15  S   UNL A   1      33.084  29.287  25.503  1.00  0.00    -0.014 S 
ATOM     16  O   UNL A   1      32.209  28.626  23.155  1.00  0.00    -0.256 OA
ENDBRANCH   8  10
ENDBRANCH   5   8
ENDBRANCH   3   4
ENDBRANCH   2   3
ENDBRANCH   1   2
BRANCH   1  17
ATOM     17  C   UNL A   1      36.999  23.725  24.926  1.00  0.00     0.116 C 
BRANCH  17  18
ATOM     18  N   UNL A   1      37.985  22.734  25.329  1.00  0.00    -0.352 N 
ATOM     19  C   UNL A   1      39.089  22.898  26.132  1.00  0.00     0.251 C 
ATOM     20  H   UNL A   1      37.844  21.825  24.979  1.00  0.00     0.163 HD
ATOM     21  O   UNL A   1      39.871  21.966  26.294  1.00  0.00    -0.269 OA
BRANCH  19  22
ATOM     22  C   UNL A   1      39.352  24.211  26.756  1.00  0.00     0.039 A 
ATOM     23  C   UNL A   1      38.883  24.440  28.052  1.00  0.00     0.014 A 
ATOM     24  C   UNL A   1      40.083  25.196  26.086  1.00  0.00     0.014 A 
ATOM     25  C   UNL A   1      39.213  25.630  28.703  1.00  0.00     0.010 A 
ATOM     26  C   UNL A   1      40.470  26.351  26.762  1.00  0.00     0.010 A 
ATOM     27  C   UNL A   1      40.045  26.576  28.080  1.00  0.00    -0.014 A 
BRANCH  27  28
ATOM     28  C   UNL A   1      40.497  27.785  28.814  1.00  0.00     0.031 A 
ATOM     29  C   UNL A   1      41.866  27.839  29.435  1.00  0.00     0.074 A 
ATOM     30  C   UNL A   1      39.649  28.824  28.952  1.00  0.00     0.049 A 
ATOM     31  N   UNL A   1      42.427  28.815  30.103  1.00  0.00    -0.248 NA
ATOM     32  C   UNL A   1      42.705  26.636  29.311  1.00  0.00     0.031 C 
ATOM     33  C   UNL A   1      38.271  28.867  28.452  1.00  0.00     0.029 A 
ATOM     34  N   UNL A   1      39.820  30.048  29.550  1.00  0.00    -0.354 N 
ATOM     35  C   UNL A   1      43.681  28.345  30.477  1.00  0.00     0.074 A 
ATOM     36  C   UNL A   1      43.775  26.978  30.015  1.00  0.00     0.031 C 
ATOM     37  C   UNL A   1      37.736  30.066  28.735  1.00  0.00     0.029 A 
ATOM     38  C   UNL A   1      38.718  30.866  29.459  1.00  0.00     0.049 A 
ATOM     39  H   UNL A   1      40.653  30.315  30.002  1.00  0.00     0.167 HD
ATOM     40  C   UNL A   1      44.673  29.002  31.123  1.00  0.00     0.031 A 
ATOM     41  C   UNL A   1      38.521  32.122  29.904  1.00  0.00     0.031 A 
ATOM     42  C   UNL A   1      44.580  30.364  31.576  1.00  0.00     0.049 A 
ATOM     43  C   UNL A   1      39.646  32.832  30.605  1.00  0.00     0.074 A 
ATOM     44  C   UNL A   1      45.547  31.133  32.202  1.00  0.00     0.029 A 
ATOM     45  N   UNL A   1      43.456  31.166  31.448  1.00  0.00    -0.354 N 
ATOM     46  N   UNL A   1      40.849  32.391  30.887  1.00  0.00    -0.248 NA
ATOM     47  C   UNL A   1      39.392  34.215  31.029  1.00  0.00     0.031 C 
ATOM     48  C   UNL A   1      44.994  32.385  32.488  1.00  0.00     0.029 A 
ATOM     49  C   UNL A   1      43.700  32.414  31.995  1.00  0.00     0.049 A 
ATOM     50  H   UNL A   1      42.610  30.888  31.029  1.00  0.00     0.167 HD
ATOM     51  C   UNL A   1      41.501  33.452  31.507  1.00  0.00     0.074 A 
ATOM     52  C   UNL A   1      40.570  34.561  31.530  1.00  0.00     0.031 C 
ATOM     53  C   UNL A   1      42.757  33.502  32.018  1.00  0.00     0.031 A 
BRANCH  40  54
ATOM     54  C   UNL A   1      45.961  28.257  31.362  1.00  0.00    -0.014 A 
ATOM     55  C   UNL A   1      46.122  27.449  32.502  1.00  0.00     0.010 A 
ATOM     56  C   UNL A   1      46.997  28.315  30.413  1.00  0.00     0.010 A 
ATOM     57  C   UNL A   1      47.307  26.736  32.704  1.00  0.00     0.020 A 
ATOM     58  C   UNL A   1      48.175  27.583  30.597  1.00  0.00     0.020 A 
ATOM     59  C   UNL A   1      48.326  26.807  31.749  1.00  0.00     0.054 A 
BRANCH  59  60
ATOM     60  S   UNL A   1      49.833  25.834  32.017  1.00  0.00     0.124 S 
ATOM     61  O   UNL A   1      49.462  25.014  33.167  1.00  0.00    -0.237 OA
ATOM     62  O   UNL A   1      49.979  25.116  30.754  1.00  0.00    -0.237 OA
ATOM     63  O   UNL A   1      50.856  26.845  32.277  1.00  0.00    -0.744 OA
ENDBRANCH  59  60
ENDBRANCH  40  54
BRANCH  41  64
ATOM     64  C   UNL A   1      37.210  32.795  29.692  1.00  0.00    -0.014 A 
ATOM     65  C   UNL A   1      36.872  33.330  28.435  1.00  0.00     0.010 A 
ATOM     66  C   UNL A   1      36.295  32.914  30.752  1.00  0.00     0.010 A 
ATOM     67  C   UNL A   1      35.660  34.002  28.254  1.00  0.00     0.020 A 
ATOM     68  C   UNL A   1      35.069  33.561  30.567  1.00  0.00     0.020 A 
ATOM     69  C   UNL A   1      34.768  34.117  29.323  1.00  0.00     0.054 A 
BRANCH  69  70
ATOM     70  S   UNL A   1      33.187  34.969  29.061  1.00  0.00     0.124 S 
ATOM     71  O   UNL A   1      32.581  34.895  30.387  1.00  0.00    -0.237 OA
ATOM     72  O   UNL A   1      33.611  36.298  28.630  1.00  0.00    -0.237 OA
ATOM     73  O   UNL A   1      32.536  34.166  28.028  1.00  0.00    -0.744 OA
ENDBRANCH  69  70
ENDBRANCH  41  64
BRANCH  53  74
ATOM     74  C   UNL A   1      43.194  34.808  32.625  1.00  0.00    -0.014 A 
ATOM     75  C   UNL A   1      43.017  35.068  33.995  1.00  0.00     0.010 A 
ATOM     76  C   UNL A   1      43.805  35.782  31.813  1.00  0.00     0.010 A 
ATOM     77  C   UNL A   1      43.396  36.300  34.534  1.00  0.00     0.020 A 
ATOM     78  C   UNL A   1      44.212  37.003  32.356  1.00  0.00     0.020 A 
ATOM     79  C   UNL A   1      43.984  37.263  33.709  1.00  0.00     0.054 A 
BRANCH  79  80
ATOM     80  S   UNL A   1      44.474  38.852  34.433  1.00  0.00     0.124 S 
ATOM     81  O   UNL A   1      45.917  38.854  34.210  1.00  0.00    -0.237 OA
ATOM     82  O   UNL A   1      43.714  39.815  33.639  1.00  0.00    -0.237 OA
ATOM     83  O   UNL A   1      44.059  38.739  35.828  1.00  0.00    -0.744 OA
ENDBRANCH  79  80
ENDBRANCH  53  74
ENDBRANCH  27  28
ENDBRANCH  19  22
ENDBRANCH  17  18
ENDBRANCH   1  17
TORSDOF 15
ENDMDL
