MODEL 1
REMARK VINA RESULT:     -10.5      0.000      0.000
REMARK SMILES C[C@@H](CCC(=O)Nc1ccccn1)C(=O)NCCCCNC(=O)c1ccc(-c2c3nc(c(-c4ccc(S(=O)(=O)[O-])cc4)c4ccc([nH]4)c(-c4ccc(S(=O)(=O)[O-])cc4)c4nc(c(-c5ccc(S(=O)(=O)[O-])cc5)c5ccc2[nH]5)C=C4)C=C3)cc1
REMARK SMILES IDX 18 1 17 2 16 3 14 4 15 5 2 7 1 8 3 9 4 10 5 11 6 12 7 13
REMARK SMILES IDX 8 15 9 16 13 17 10 18 12 19 11 20 19 21 20 22 21 23 22 24
REMARK SMILES IDX 23 26 24 27 25 28 83 29 26 30 82 31 27 32 28 33 29 34 76 35
REMARK SMILES IDX 30 36 81 37 75 38 77 39 31 40 80 41 74 42 73 43 32 45 62 46
REMARK SMILES IDX 43 47 61 48 44 49 47 50 60 51 78 52 45 53 46 54 59 56 79 57
REMARK SMILES IDX 48 58 33 59 34 60 42 61 35 62 41 63 36 64 37 65 38 66 39 67
REMARK SMILES IDX 40 68 63 69 64 70 72 71 65 72 71 73 66 74 67 75 68 76 69 77
REMARK SMILES IDX 70 78 49 79 50 80 58 81 51 82 57 83 52 84 53 85 54 86 55 87
REMARK SMILES IDX 56 88
REMARK H PARENT 16 6 7 14 21 25 77 44 47 55
REMARK Flexibility Score: inf
ROOT
ATOM      1  C   UNL A   1      35.221  22.871  23.773  1.00  0.00     0.023 C 
ENDROOT
BRANCH   1   2
ATOM      2  C   UNL A   1      34.202  23.913  23.273  1.00  0.00     0.116 C 
BRANCH   2   3
ATOM      3  N   UNL A   1      33.720  24.756  24.369  1.00  0.00    -0.356 N 
ATOM      4  C   UNL A   1      32.605  24.953  25.104  1.00  0.00     0.222 C 
ATOM      5  O   UNL A   1      32.738  25.818  25.986  1.00  0.00    -0.275 OA
ATOM      6  H   UNL A   1      34.432  25.371  24.662  1.00  0.00     0.163 HD
BRANCH   4   7
ATOM      7  C   UNL A   1      31.237  24.253  24.999  1.00  0.00     0.076 C 
ATOM      8  C   UNL A   1      30.698  24.248  23.544  1.00  0.00     0.018 C 
BRANCH   7   9
ATOM      9  C   UNL A   1      30.944  22.937  25.713  1.00  0.00     0.023 C 
BRANCH   9  10
ATOM     10  C   UNL A   1      31.666  21.685  25.211  1.00  0.00     0.101 C 
BRANCH  10  11
ATOM     11  C   UNL A   1      32.838  21.202  26.022  1.00  0.00     0.225 C 
ATOM     12  O   UNL A   1      33.398  22.012  26.774  1.00  0.00    -0.275 OA
ATOM     13  N   UNL A   1      33.282  19.930  26.084  1.00  0.00    -0.311 N 
ATOM     14  H   UNL A   1      33.707  19.777  26.958  1.00  0.00     0.171 HD
BRANCH  13  15
ATOM     15  C   UNL A   1      33.345  18.759  25.334  1.00  0.00     0.132 A 
ATOM     16  C   UNL A   1      34.294  18.405  24.399  1.00  0.00     0.047 A 
ATOM     17  N   UNL A   1      32.436  17.861  25.766  1.00  0.00    -0.239 NA
ATOM     18  C   UNL A   1      34.323  17.099  23.891  1.00  0.00     0.005 A 
ATOM     19  C   UNL A   1      32.475  16.604  25.270  1.00  0.00     0.113 A 
ATOM     20  C   UNL A   1      33.393  16.175  24.335  1.00  0.00     0.020 A 
ENDBRANCH  13  15
ENDBRANCH  10  11
ENDBRANCH   9  10
ENDBRANCH   7   9
ENDBRANCH   4   7
ENDBRANCH   2   3
ENDBRANCH   1   2
BRANCH   1  21
ATOM     21  C   UNL A   1      36.650  23.344  24.033  1.00  0.00     0.023 C 
BRANCH  21  22
ATOM     22  C   UNL A   1      37.188  23.169  25.445  1.00  0.00     0.116 C 
BRANCH  22  23
ATOM     23  N   UNL A   1      38.439  22.438  25.569  1.00  0.00    -0.352 N 
ATOM     24  C   UNL A   1      39.604  22.881  26.189  1.00  0.00     0.251 C 
ATOM     25  H   UNL A   1      38.464  21.536  25.175  1.00  0.00     0.163 HD
ATOM     26  O   UNL A   1      40.612  22.213  26.206  1.00  0.00    -0.269 OA
BRANCH  24  27
ATOM     27  C   UNL A   1      39.591  24.246  26.782  1.00  0.00     0.039 A 
ATOM     28  C   UNL A   1      39.081  24.422  28.070  1.00  0.00     0.014 A 
ATOM     29  C   UNL A   1      40.216  25.303  26.119  1.00  0.00     0.014 A 
ATOM     30  C   UNL A   1      39.313  25.628  28.741  1.00  0.00     0.010 A 
ATOM     31  C   UNL A   1      40.527  26.463  26.821  1.00  0.00     0.010 A 
ATOM     32  C   UNL A   1      40.099  26.632  28.148  1.00  0.00    -0.014 A 
BRANCH  32  33
ATOM     33  C   UNL A   1      40.520  27.845  28.901  1.00  0.00     0.031 A 
ATOM     34  C   UNL A   1      41.855  27.875  29.598  1.00  0.00     0.074 A 
ATOM     35  C   UNL A   1      39.663  28.877  29.049  1.00  0.00     0.049 A 
ATOM     36  N   UNL A   1      42.354  28.795  30.384  1.00  0.00    -0.248 NA
ATOM     37  C   UNL A   1      42.725  26.702  29.417  1.00  0.00     0.031 C 
ATOM     38  C   UNL A   1      38.312  28.950  28.485  1.00  0.00     0.029 A 
ATOM     39  N   UNL A   1      39.798  30.065  29.726  1.00  0.00    -0.354 N 
ATOM     40  C   UNL A   1      43.579  28.298  30.816  1.00  0.00     0.074 A 
ATOM     41  C   UNL A   1      43.721  26.976  30.247  1.00  0.00     0.031 C 
ATOM     42  C   UNL A   1      37.759  30.130  28.811  1.00  0.00     0.029 A 
ATOM     43  C   UNL A   1      38.697  30.884  29.636  1.00  0.00     0.049 A 
ATOM     44  H   UNL A   1      40.610  30.307  30.229  1.00  0.00     0.167 HD
ATOM     45  C   UNL A   1      44.513  28.895  31.593  1.00  0.00     0.031 A 
ATOM     46  C   UNL A   1      38.464  32.106  30.158  1.00  0.00     0.031 A 
ATOM     47  C   UNL A   1      44.389  30.224  32.128  1.00  0.00     0.049 A 
ATOM     48  C   UNL A   1      39.533  32.767  30.986  1.00  0.00     0.074 A 
ATOM     49  C   UNL A   1      45.311  30.944  32.867  1.00  0.00     0.029 A 
ATOM     50  N   UNL A   1      43.276  31.035  31.974  1.00  0.00    -0.354 N 
ATOM     51  N   UNL A   1      40.714  32.306  31.325  1.00  0.00    -0.248 NA
ATOM     52  C   UNL A   1      39.244  34.117  31.490  1.00  0.00     0.031 C 
ATOM     53  C   UNL A   1      44.743  32.180  33.189  1.00  0.00     0.029 A 
ATOM     54  C   UNL A   1      43.484  32.246  32.612  1.00  0.00     0.049 A 
ATOM     55  H   UNL A   1      42.459  30.788  31.485  1.00  0.00     0.167 HD
ATOM     56  C   UNL A   1      41.318  33.320  32.060  1.00  0.00     0.074 A 
ATOM     57  C   UNL A   1      40.379  34.421  32.106  1.00  0.00     0.031 C 
ATOM     58  C   UNL A   1      42.542  33.335  32.644  1.00  0.00     0.031 A 
BRANCH  45  59
ATOM     59  C   UNL A   1      45.761  28.108  31.897  1.00  0.00    -0.014 A 
ATOM     60  C   UNL A   1      46.810  28.026  30.963  1.00  0.00     0.010 A 
ATOM     61  C   UNL A   1      45.895  27.454  33.135  1.00  0.00     0.010 A 
ATOM     62  C   UNL A   1      47.945  27.260  31.239  1.00  0.00     0.020 A 
ATOM     63  C   UNL A   1      47.042  26.710  33.427  1.00  0.00     0.020 A 
ATOM     64  C   UNL A   1      48.050  26.601  32.466  1.00  0.00     0.054 A 
BRANCH  64  65
ATOM     65  S   UNL A   1      49.537  25.617  32.801  1.00  0.00     0.124 S 
ATOM     66  O   UNL A   1      50.284  26.498  33.696  1.00  0.00    -0.237 OA
ATOM     67  O   UNL A   1      48.992  24.411  33.419  1.00  0.00    -0.237 OA
ATOM     68  O   UNL A   1      50.128  25.424  31.479  1.00  0.00    -0.744 OA
ENDBRANCH  64  65
ENDBRANCH  45  59
BRANCH  46  69
ATOM     69  C   UNL A   1      37.177  32.803  29.884  1.00  0.00    -0.014 A 
ATOM     70  C   UNL A   1      36.148  32.793  30.843  1.00  0.00     0.010 A 
ATOM     71  C   UNL A   1      36.973  33.484  28.671  1.00  0.00     0.010 A 
ATOM     72  C   UNL A   1      34.933  33.438  30.587  1.00  0.00     0.020 A 
ATOM     73  C   UNL A   1      35.770  34.151  28.422  1.00  0.00     0.020 A 
ATOM     74  C   UNL A   1      34.752  34.113  29.378  1.00  0.00     0.054 A 
BRANCH  74  75
ATOM     75  S   UNL A   1      33.188  34.988  29.088  1.00  0.00     0.124 S 
ATOM     76  O   UNL A   1      32.567  34.945  30.408  1.00  0.00    -0.237 OA
ATOM     77  O   UNL A   1      33.639  36.304  28.642  1.00  0.00    -0.237 OA
ATOM     78  O   UNL A   1      32.533  34.182  28.059  1.00  0.00    -0.744 OA
ENDBRANCH  74  75
ENDBRANCH  46  69
BRANCH  58  79
ATOM     79  C   UNL A   1      42.955  34.595  33.353  1.00  0.00    -0.014 A 
ATOM     80  C   UNL A   1      42.803  34.729  34.745  1.00  0.00     0.010 A 
ATOM     81  C   UNL A   1      43.564  35.633  32.625  1.00  0.00     0.010 A 
ATOM     82  C   UNL A   1      43.232  35.891  35.391  1.00  0.00     0.020 A 
ATOM     83  C   UNL A   1      44.015  36.786  33.272  1.00  0.00     0.020 A 
ATOM     84  C   UNL A   1      43.835  36.913  34.651  1.00  0.00     0.054 A 
BRANCH  84  85
ATOM     85  S   UNL A   1      44.431  38.388  35.520  1.00  0.00     0.124 S 
ATOM     86  O   UNL A   1      43.816  39.465  34.749  1.00  0.00    -0.237 OA
ATOM     87  O   UNL A   1      43.904  38.202  36.870  1.00  0.00    -0.237 OA
ATOM     88  O   UNL A   1      45.885  38.292  35.407  1.00  0.00    -0.744 OA
ENDBRANCH  84  85
ENDBRANCH  58  79
ENDBRANCH  32  33
ENDBRANCH  24  27
ENDBRANCH  22  23
ENDBRANCH  21  22
ENDBRANCH   1  21
TORSDOF 18
ENDMDL
MODEL 2
REMARK VINA RESULT:     -10.3      2.663      9.126
REMARK SMILES C[C@@H](CCC(=O)Nc1ccccn1)C(=O)NCCCCNC(=O)c1ccc(-c2c3nc(c(-c4ccc(S(=O)(=O)[O-])cc4)c4ccc([nH]4)c(-c4ccc(S(=O)(=O)[O-])cc4)c4nc(c(-c5ccc(S(=O)(=O)[O-])cc5)c5ccc2[nH]5)C=C4)C=C3)cc1
REMARK SMILES IDX 18 1 17 2 16 3 14 4 15 5 2 7 1 8 3 9 4 10 5 11 6 12 7 13
REMARK SMILES IDX 8 15 9 16 13 17 10 18 12 19 11 20 19 21 20 22 21 23 22 24
REMARK SMILES IDX 23 26 24 27 25 28 83 29 26 30 82 31 27 32 28 33 29 34 76 35
REMARK SMILES IDX 30 36 81 37 75 38 77 39 31 40 80 41 74 42 73 43 32 45 62 46
REMARK SMILES IDX 43 47 61 48 44 49 47 50 60 51 78 52 45 53 46 54 59 56 79 57
REMARK SMILES IDX 48 58 33 59 34 60 42 61 35 62 41 63 36 64 37 65 38 66 39 67
REMARK SMILES IDX 40 68 63 69 64 70 72 71 65 72 71 73 66 74 67 75 68 76 69 77
REMARK SMILES IDX 70 78 49 79 50 80 58 81 51 82 57 83 52 84 53 85 54 86 55 87
REMARK SMILES IDX 56 88
REMARK H PARENT 16 6 7 14 21 25 77 44 47 55
REMARK Flexibility Score: inf
ROOT
ATOM      1  C   UNL A   1      34.232  27.391  25.502  1.00  0.00     0.023 C 
ENDROOT
BRANCH   1   2
ATOM      2  C   UNL A   1      33.418  26.100  25.717  1.00  0.00     0.116 C 
BRANCH   2   3
ATOM      3  N   UNL A   1      33.656  25.135  24.640  1.00  0.00    -0.356 N 
ATOM      4  C   UNL A   1      33.077  24.052  24.080  1.00  0.00     0.222 C 
ATOM      5  O   UNL A   1      33.709  23.595  23.113  1.00  0.00    -0.275 OA
ATOM      6  H   UNL A   1      34.503  25.342  24.182  1.00  0.00     0.163 HD
BRANCH   4   7
ATOM      7  C   UNL A   1      31.766  23.343  24.468  1.00  0.00     0.076 C 
ATOM      8  C   UNL A   1      30.789  23.232  23.269  1.00  0.00     0.018 C 
BRANCH   7   9
ATOM      9  C   UNL A   1      31.752  22.081  25.326  1.00  0.00     0.023 C 
BRANCH   9  10
ATOM     10  C   UNL A   1      32.127  20.761  24.646  1.00  0.00     0.101 C 
BRANCH  10  11
ATOM     11  C   UNL A   1      33.108  19.878  25.367  1.00  0.00     0.225 C 
ATOM     12  O   UNL A   1      32.690  18.813  25.845  1.00  0.00    -0.275 OA
ATOM     13  N   UNL A   1      34.437  20.088  25.459  1.00  0.00    -0.311 N 
ATOM     14  H   UNL A   1      34.896  19.222  25.550  1.00  0.00     0.171 HD
BRANCH  13  15
ATOM     15  C   UNL A   1      35.381  21.111  25.471  1.00  0.00     0.132 A 
ATOM     16  C   UNL A   1      35.303  22.325  26.120  1.00  0.00     0.047 A 
ATOM     17  N   UNL A   1      36.537  20.706  24.905  1.00  0.00    -0.239 NA
ATOM     18  C   UNL A   1      36.433  23.150  26.198  1.00  0.00     0.005 A 
ATOM     19  C   UNL A   1      37.620  21.510  24.989  1.00  0.00     0.113 A 
ATOM     20  C   UNL A   1      37.620  22.735  25.620  1.00  0.00     0.020 A 
ENDBRANCH  13  15
ENDBRANCH  10  11
ENDBRANCH   9  10
ENDBRANCH   7   9
ENDBRANCH   4   7
ENDBRANCH   2   3
ENDBRANCH   1   2
BRANCH   1  21
ATOM     21  C   UNL A   1      33.565  28.718  25.858  1.00  0.00     0.023 C 
BRANCH  21  22
ATOM     22  C   UNL A   1      33.295  28.980  27.332  1.00  0.00     0.116 C 
BRANCH  22  23
ATOM     23  N   UNL A   1      33.365  30.368  27.760  1.00  0.00    -0.352 N 
ATOM     24  C   UNL A   1      34.477  31.023  28.281  1.00  0.00     0.251 C 
ATOM     25  H   UNL A   1      32.541  30.899  27.672  1.00  0.00     0.163 HD
ATOM     26  O   UNL A   1      34.426  32.174  28.649  1.00  0.00    -0.269 OA
BRANCH  24  27
ATOM     27  C   UNL A   1      35.731  30.236  28.433  1.00  0.00     0.039 A 
ATOM     28  C   UNL A   1      36.645  30.202  27.378  1.00  0.00     0.014 A 
ATOM     29  C   UNL A   1      36.054  29.665  29.666  1.00  0.00     0.014 A 
ATOM     30  C   UNL A   1      37.934  29.706  27.602  1.00  0.00     0.010 A 
ATOM     31  C   UNL A   1      37.362  29.261  29.910  1.00  0.00     0.010 A 
ATOM     32  C   UNL A   1      38.324  29.297  28.889  1.00  0.00    -0.014 A 
BRANCH  32  33
ATOM     33  C   UNL A   1      39.736  28.940  29.203  1.00  0.00     0.031 A 
ATOM     34  C   UNL A   1      40.649  29.959  29.833  1.00  0.00     0.074 A 
ATOM     35  C   UNL A   1      40.227  27.740  28.829  1.00  0.00     0.049 A 
ATOM     36  N   UNL A   1      41.930  29.872  30.088  1.00  0.00    -0.248 NA
ATOM     37  C   UNL A   1      40.052  31.256  30.188  1.00  0.00     0.031 C 
ATOM     38  C   UNL A   1      39.471  26.685  28.147  1.00  0.00     0.029 A 
ATOM     39  N   UNL A   1      41.485  27.206  28.961  1.00  0.00    -0.354 N 
ATOM     40  C   UNL A   1      42.297  31.111  30.601  1.00  0.00     0.074 A 
ATOM     41  C   UNL A   1      41.116  31.946  30.572  1.00  0.00     0.031 C 
ATOM     42  C   UNL A   1      40.269  25.623  27.953  1.00  0.00     0.029 A 
ATOM     43  C   UNL A   1      41.602  25.929  28.460  1.00  0.00     0.049 A 
ATOM     44  H   UNL A   1      42.235  27.692  29.376  1.00  0.00     0.167 HD
ATOM     45  C   UNL A   1      43.499  31.512  31.078  1.00  0.00     0.031 A 
ATOM     46  C   UNL A   1      42.662  25.097  28.413  1.00  0.00     0.031 A 
ATOM     47  C   UNL A   1      44.664  30.671  31.142  1.00  0.00     0.049 A 
ATOM     48  C   UNL A   1      43.978  25.549  28.986  1.00  0.00     0.074 A 
ATOM     49  C   UNL A   1      45.908  30.963  31.674  1.00  0.00     0.029 A 
ATOM     50  N   UNL A   1      44.725  29.371  30.666  1.00  0.00    -0.354 N 
ATOM     51  N   UNL A   1      44.285  26.703  29.530  1.00  0.00    -0.248 NA
ATOM     52  C   UNL A   1      45.086  24.585  28.949  1.00  0.00     0.031 C 
ATOM     53  C   UNL A   1      46.732  29.849  31.489  1.00  0.00     0.029 A 
ATOM     54  C   UNL A   1      45.988  28.848  30.883  1.00  0.00     0.049 A 
ATOM     55  H   UNL A   1      43.981  28.890  30.238  1.00  0.00     0.167 HD
ATOM     56  C   UNL A   1      45.614  26.593  29.924  1.00  0.00     0.074 A 
ATOM     57  C   UNL A   1      46.048  25.258  29.568  1.00  0.00     0.031 C 
ATOM     58  C   UNL A   1      46.402  27.516  30.528  1.00  0.00     0.031 A 
BRANCH  45  59
ATOM     59  C   UNL A   1      43.603  32.928  31.581  1.00  0.00    -0.014 A 
ATOM     60  C   UNL A   1      43.877  33.990  30.699  1.00  0.00     0.010 A 
ATOM     61  C   UNL A   1      43.415  33.204  32.947  1.00  0.00     0.010 A 
ATOM     62  C   UNL A   1      44.013  35.294  31.182  1.00  0.00     0.020 A 
ATOM     63  C   UNL A   1      43.522  34.512  33.430  1.00  0.00     0.020 A 
ATOM     64  C   UNL A   1      43.842  35.545  32.545  1.00  0.00     0.054 A 
BRANCH  64  65
ATOM     65  S   UNL A   1      44.020  37.248  33.145  1.00  0.00     0.124 S 
ATOM     66  O   UNL A   1      44.006  38.008  31.897  1.00  0.00    -0.237 OA
ATOM     67  O   UNL A   1      42.843  37.414  33.994  1.00  0.00    -0.237 OA
ATOM     68  O   UNL A   1      45.298  37.234  33.852  1.00  0.00    -0.744 OA
ENDBRANCH  64  65
ENDBRANCH  45  59
BRANCH  46  69
ATOM     69  C   UNL A   1      42.516  23.733  27.833  1.00  0.00    -0.014 A 
ATOM     70  C   UNL A   1      42.210  22.639  28.663  1.00  0.00     0.010 A 
ATOM     71  C   UNL A   1      42.673  23.520  26.452  1.00  0.00     0.010 A 
ATOM     72  C   UNL A   1      42.081  21.354  28.125  1.00  0.00     0.020 A 
ATOM     73  C   UNL A   1      42.520  22.241  25.907  1.00  0.00     0.020 A 
ATOM     74  C   UNL A   1      42.236  21.164  26.750  1.00  0.00     0.054 A 
BRANCH  74  75
ATOM     75  S   UNL A   1      42.012  19.497  26.065  1.00  0.00     0.124 S 
ATOM     76  O   UNL A   1      42.874  19.534  24.888  1.00  0.00    -0.237 OA
ATOM     77  O   UNL A   1      42.467  18.642  27.158  1.00  0.00    -0.237 OA
ATOM     78  O   UNL A   1      40.578  19.433  25.791  1.00  0.00    -0.744 OA
ENDBRANCH  74  75
ENDBRANCH  46  69
BRANCH  58  79
ATOM     79  C   UNL A   1      47.806  27.105  30.877  1.00  0.00    -0.014 A 
ATOM     80  C   UNL A   1      48.089  26.428  32.076  1.00  0.00     0.010 A 
ATOM     81  C   UNL A   1      48.846  27.342  29.959  1.00  0.00     0.010 A 
ATOM     82  C   UNL A   1      49.394  26.018  32.363  1.00  0.00     0.020 A 
ATOM     83  C   UNL A   1      50.147  26.912  30.232  1.00  0.00     0.020 A 
ATOM     84  C   UNL A   1      50.415  26.262  31.439  1.00  0.00     0.054 A 
BRANCH  84  85
ATOM     85  S   UNL A   1      52.090  25.673  31.809  1.00  0.00     0.124 S 
ATOM     86  O   UNL A   1      52.799  25.975  30.569  1.00  0.00    -0.237 OA
ATOM     87  O   UNL A   1      52.469  26.484  32.963  1.00  0.00    -0.237 OA
ATOM     88  O   UNL A   1      51.901  24.251  32.090  1.00  0.00    -0.744 OA
ENDBRANCH  84  85
ENDBRANCH  58  79
ENDBRANCH  32  33
ENDBRANCH  24  27
ENDBRANCH  22  23
ENDBRANCH  21  22
ENDBRANCH   1  21
TORSDOF 18
ENDMDL
MODEL 3
REMARK VINA RESULT:     -10.3      3.147      4.131
REMARK SMILES C[C@@H](CCC(=O)Nc1ccccn1)C(=O)NCCCCNC(=O)c1ccc(-c2c3nc(c(-c4ccc(S(=O)(=O)[O-])cc4)c4ccc([nH]4)c(-c4ccc(S(=O)(=O)[O-])cc4)c4nc(c(-c5ccc(S(=O)(=O)[O-])cc5)c5ccc2[nH]5)C=C4)C=C3)cc1
REMARK SMILES IDX 18 1 17 2 16 3 14 4 15 5 2 7 1 8 3 9 4 10 5 11 6 12 7 13
REMARK SMILES IDX 8 15 9 16 13 17 10 18 12 19 11 20 19 21 20 22 21 23 22 24
REMARK SMILES IDX 23 26 24 27 25 28 83 29 26 30 82 31 27 32 28 33 29 34 76 35
REMARK SMILES IDX 30 36 81 37 75 38 77 39 31 40 80 41 74 42 73 43 32 45 62 46
REMARK SMILES IDX 43 47 61 48 44 49 47 50 60 51 78 52 45 53 46 54 59 56 79 57
REMARK SMILES IDX 48 58 33 59 34 60 42 61 35 62 41 63 36 64 37 65 38 66 39 67
REMARK SMILES IDX 40 68 63 69 64 70 72 71 65 72 71 73 66 74 67 75 68 76 69 77
REMARK SMILES IDX 70 78 49 79 50 80 58 81 51 82 57 83 52 84 53 85 54 86 55 87
REMARK SMILES IDX 56 88
REMARK H PARENT 16 6 7 14 21 25 77 44 47 55
REMARK Flexibility Score: inf
ROOT
ATOM      1  C   UNL A   1      40.189  21.113  26.305  1.00  0.00     0.023 C 
ENDROOT
BRANCH   1   2
ATOM      2  C   UNL A   1      38.785  20.856  25.724  1.00  0.00     0.116 C 
BRANCH   2   3
ATOM      3  N   UNL A   1      38.213  22.078  25.155  1.00  0.00    -0.356 N 
ATOM      4  C   UNL A   1      37.076  22.805  25.206  1.00  0.00     0.222 C 
ATOM      5  O   UNL A   1      37.116  23.838  24.518  1.00  0.00    -0.275 OA
ATOM      6  H   UNL A   1      38.859  22.503  24.545  1.00  0.00     0.163 HD
BRANCH   4   7
ATOM      7  C   UNL A   1      35.783  22.529  25.996  1.00  0.00     0.076 C 
ATOM      8  C   UNL A   1      34.855  23.772  26.043  1.00  0.00     0.018 C 
BRANCH   7   9
ATOM      9  C   UNL A   1      34.988  21.239  25.822  1.00  0.00     0.023 C 
BRANCH   9  10
ATOM     10  C   UNL A   1      33.545  21.224  26.334  1.00  0.00     0.101 C 
BRANCH  10  11
ATOM     11  C   UNL A   1      32.482  20.788  25.363  1.00  0.00     0.225 C 
ATOM     12  O   UNL A   1      31.541  21.565  25.142  1.00  0.00    -0.275 OA
ATOM     13  N   UNL A   1      32.505  19.659  24.624  1.00  0.00    -0.311 N 
ATOM     14  H   UNL A   1      31.999  19.806  23.793  1.00  0.00     0.171 HD
BRANCH  13  15
ATOM     15  C   UNL A   1      32.998  18.358  24.637  1.00  0.00     0.132 A 
ATOM     16  C   UNL A   1      34.248  17.925  24.249  1.00  0.00     0.047 A 
ATOM     17  N   UNL A   1      32.151  17.528  25.279  1.00  0.00    -0.239 NA
ATOM     18  C   UNL A   1      34.650  16.612  24.525  1.00  0.00     0.005 A 
ATOM     19  C   UNL A   1      32.551  16.264  25.542  1.00  0.00     0.113 A 
ATOM     20  C   UNL A   1      33.784  15.759  25.186  1.00  0.00     0.020 A 
ENDBRANCH  13  15
ENDBRANCH  10  11
ENDBRANCH   9  10
ENDBRANCH   7   9
ENDBRANCH   4   7
ENDBRANCH   2   3
ENDBRANCH   1   2
BRANCH   1  21
ATOM     21  C   UNL A   1      40.357  22.290  27.263  1.00  0.00     0.023 C 
BRANCH  21  22
ATOM     22  C   UNL A   1      41.582  23.170  27.066  1.00  0.00     0.116 C 
BRANCH  22  23
ATOM     23  N   UNL A   1      41.530  24.103  25.951  1.00  0.00    -0.352 N 
ATOM     24  C   UNL A   1      41.478  25.491  26.030  1.00  0.00     0.251 C 
ATOM     25  H   UNL A   1      41.532  23.711  25.048  1.00  0.00     0.163 HD
ATOM     26  O   UNL A   1      41.395  26.184  25.042  1.00  0.00    -0.269 OA
BRANCH  24  27
ATOM     27  C   UNL A   1      41.462  26.104  27.386  1.00  0.00     0.039 A 
ATOM     28  C   UNL A   1      42.548  26.882  27.793  1.00  0.00     0.014 A 
ATOM     29  C   UNL A   1      40.314  26.024  28.177  1.00  0.00     0.014 A 
ATOM     30  C   UNL A   1      42.429  27.681  28.935  1.00  0.00     0.010 A 
ATOM     31  C   UNL A   1      40.166  26.889  29.255  1.00  0.00     0.010 A 
ATOM     32  C   UNL A   1      41.212  27.745  29.636  1.00  0.00    -0.014 A 
BRANCH  32  33
ATOM     33  C   UNL A   1      40.992  28.720  30.739  1.00  0.00     0.031 A 
ATOM     34  C   UNL A   1      41.808  28.628  32.002  1.00  0.00     0.074 A 
ATOM     35  C   UNL A   1      39.992  29.621  30.652  1.00  0.00     0.049 A 
ATOM     36  N   UNL A   1      41.695  29.317  33.109  1.00  0.00    -0.248 NA
ATOM     37  C   UNL A   1      42.863  27.602  32.037  1.00  0.00     0.031 C 
ATOM     38  C   UNL A   1      39.079  29.774  29.515  1.00  0.00     0.029 A 
ATOM     39  N   UNL A   1      39.566  30.577  31.542  1.00  0.00    -0.354 N 
ATOM     40  C   UNL A   1      42.640  28.787  33.980  1.00  0.00     0.074 A 
ATOM     41  C   UNL A   1      43.279  27.687  33.292  1.00  0.00     0.031 C 
ATOM     42  C   UNL A   1      38.228  30.784  29.763  1.00  0.00     0.029 A 
ATOM     43  C   UNL A   1      38.506  31.327  31.088  1.00  0.00     0.049 A 
ATOM     44  H   UNL A   1      39.983  30.714  32.424  1.00  0.00     0.167 HD
ATOM     45  C   UNL A   1      42.968  29.193  35.230  1.00  0.00     0.031 A 
ATOM     46  C   UNL A   1      37.831  32.340  31.669  1.00  0.00     0.031 A 
ATOM     47  C   UNL A   1      42.359  30.310  35.901  1.00  0.00     0.049 A 
ATOM     48  C   UNL A   1      38.238  32.800  33.043  1.00  0.00     0.074 A 
ATOM     49  C   UNL A   1      42.671  30.845  37.139  1.00  0.00     0.029 A 
ATOM     50  N   UNL A   1      41.321  31.070  35.385  1.00  0.00    -0.354 N 
ATOM     51  N   UNL A   1      39.182  32.329  33.823  1.00  0.00    -0.248 NA
ATOM     52  C   UNL A   1      37.498  33.937  33.609  1.00  0.00     0.031 C 
ATOM     53  C   UNL A   1      41.798  31.908  37.387  1.00  0.00     0.029 A 
ATOM     54  C   UNL A   1      40.972  32.064  36.283  1.00  0.00     0.049 A 
ATOM     55  H   UNL A   1      40.895  30.925  34.510  1.00  0.00     0.167 HD
ATOM     56  C   UNL A   1      39.166  33.128  34.960  1.00  0.00     0.074 A 
ATOM     57  C   UNL A   1      38.129  34.120  34.762  1.00  0.00     0.031 C 
ATOM     58  C   UNL A   1      39.942  33.046  36.069  1.00  0.00     0.031 A 
BRANCH  45  59
ATOM     59  C   UNL A   1      44.046  28.423  35.945  1.00  0.00    -0.014 A 
ATOM     60  C   UNL A   1      43.727  27.339  36.783  1.00  0.00     0.010 A 
ATOM     61  C   UNL A   1      45.396  28.777  35.769  1.00  0.00     0.010 A 
ATOM     62  C   UNL A   1      44.731  26.658  37.474  1.00  0.00     0.020 A 
ATOM     63  C   UNL A   1      46.407  28.080  36.437  1.00  0.00     0.020 A 
ATOM     64  C   UNL A   1      46.065  27.038  37.302  1.00  0.00     0.054 A 
BRANCH  64  65
ATOM     65  S   UNL A   1      47.350  26.134  38.208  1.00  0.00     0.124 S 
ATOM     66  O   UNL A   1      47.341  24.840  37.529  1.00  0.00    -0.237 OA
ATOM     67  O   UNL A   1      48.539  26.952  37.982  1.00  0.00    -0.237 OA
ATOM     68  O   UNL A   1      46.859  26.120  39.583  1.00  0.00    -0.744 OA
ENDBRANCH  64  65
ENDBRANCH  45  59
BRANCH  46  69
ATOM     69  C   UNL A   1      36.720  33.013  30.941  1.00  0.00    -0.014 A 
ATOM     70  C   UNL A   1      37.000  33.900  29.886  1.00  0.00     0.010 A 
ATOM     71  C   UNL A   1      35.380  32.769  31.290  1.00  0.00     0.010 A 
ATOM     72  C   UNL A   1      35.962  34.544  29.204  1.00  0.00     0.020 A 
ATOM     73  C   UNL A   1      34.338  33.391  30.595  1.00  0.00     0.020 A 
ATOM     74  C   UNL A   1      34.637  34.284  29.563  1.00  0.00     0.054 A 
BRANCH  74  75
ATOM     75  S   UNL A   1      33.302  35.088  28.631  1.00  0.00     0.124 S 
ATOM     76  O   UNL A   1      34.043  36.001  27.767  1.00  0.00    -0.237 OA
ATOM     77  O   UNL A   1      32.660  33.960  27.961  1.00  0.00    -0.237 OA
ATOM     78  O   UNL A   1      32.496  35.723  29.672  1.00  0.00    -0.744 OA
ENDBRANCH  74  75
ENDBRANCH  46  69
BRANCH  58  79
ATOM     79  C   UNL A   1      39.727  34.079  37.142  1.00  0.00    -0.014 A 
ATOM     80  C   UNL A   1      39.029  33.767  38.322  1.00  0.00     0.010 A 
ATOM     81  C   UNL A   1      40.291  35.359  36.994  1.00  0.00     0.010 A 
ATOM     82  C   UNL A   1      38.877  34.727  39.325  1.00  0.00     0.020 A 
ATOM     83  C   UNL A   1      40.161  36.314  38.006  1.00  0.00     0.020 A 
ATOM     84  C   UNL A   1      39.443  35.995  39.160  1.00  0.00     0.054 A 
BRANCH  84  85
ATOM     85  S   UNL A   1      39.277  37.208  40.499  1.00  0.00     0.124 S 
ATOM     86  O   UNL A   1      38.397  38.206  39.898  1.00  0.00    -0.237 OA
ATOM     87  O   UNL A   1      38.688  36.418  41.578  1.00  0.00    -0.237 OA
ATOM     88  O   UNL A   1      40.650  37.649  40.737  1.00  0.00    -0.744 OA
ENDBRANCH  84  85
ENDBRANCH  58  79
ENDBRANCH  32  33
ENDBRANCH  24  27
ENDBRANCH  22  23
ENDBRANCH  21  22
ENDBRANCH   1  21
TORSDOF 18
ENDMDL
