MODEL 1
REMARK VINA RESULT:     -11.4      0.000      0.000
REMARK SMILES Cc1cc2c(cc1C)/C(=C/C(=O)NCCCCNC(=O)c1ccc(-c3c4nc(c(-c5ccc(S(=O)(=O)[O-])cc5)c5ccc([nH]5)c(-c5ccc(S(=O)(=O)[O-])cc5)c5nc(c(-c6ccc(S(=O)(=O)[O-])cc6)c6ccc3[nH]6)C=C5)C=C4)cc1)CO2
REMARK SMILES IDX 17 1 16 2 15 3 14 4 13 5 11 6 12 7 10 9 1 10 2 11 3 12 7 13
REMARK SMILES IDX 4 14 6 15 8 16 5 17 82 18 9 19 81 20 18 21 19 22 20 24 21 25
REMARK SMILES IDX 22 26 80 27 23 28 79 29 24 30 25 31 26 32 73 33 27 34 78 35
REMARK SMILES IDX 72 36 74 37 28 38 77 39 71 40 70 41 29 43 59 44 40 45 58 46
REMARK SMILES IDX 41 47 44 48 57 49 75 50 42 51 43 52 56 54 76 55 45 56 30 57
REMARK SMILES IDX 31 58 39 59 32 60 38 61 33 62 34 63 35 64 36 65 37 66 60 67
REMARK SMILES IDX 61 68 69 69 62 70 68 71 63 72 64 73 65 74 66 75 67 76 46 77
REMARK SMILES IDX 47 78 55 79 48 80 54 81 49 82 50 83 51 84 52 85 53 86
REMARK H PARENT 13 8 18 23 74 42 44 53
REMARK Flexibility Score: inf
ROOT
ATOM      1  C   UNL A   1      33.324  28.780  27.298  1.00  0.00     0.116 C 
ENDROOT
BRANCH   1   2
ATOM      2  C   UNL A   1      31.933  28.164  27.349  1.00  0.00     0.023 C 
BRANCH   2   3
ATOM      3  C   UNL A   1      31.391  27.701  25.997  1.00  0.00     0.023 C 
BRANCH   3   4
ATOM      4  C   UNL A   1      32.081  28.345  24.796  1.00  0.00     0.116 C 
BRANCH   4   5
ATOM      5  N   UNL A   1      31.413  28.025  23.548  1.00  0.00    -0.353 N 
ATOM      6  C   UNL A   1      31.785  27.062  22.651  1.00  0.00     0.244 C 
ATOM      7  O   UNL A   1      31.155  26.833  21.630  1.00  0.00    -0.270 OA
ATOM      8  H   UNL A   1      30.613  28.553  23.323  1.00  0.00     0.163 HD
BRANCH   6   9
ATOM      9  C   UNL A   1      32.989  26.295  23.016  1.00  0.00     0.079 C 
ATOM     10  C   UNL A   1      36.327  20.882  25.125  1.00  0.00     0.045 C 
ATOM     11  C   UNL A   1      35.473  22.076  24.803  1.00  0.00    -0.044 A 
ATOM     12  C   UNL A   1      34.168  21.854  24.330  1.00  0.00     0.050 A 
ATOM     13  C   UNL A   1      35.931  23.404  25.009  1.00  0.00    -0.047 A 
ATOM     14  C   UNL A   1      33.385  22.942  24.012  1.00  0.00     0.127 A 
ATOM     15  C   UNL A   1      35.138  24.487  24.583  1.00  0.00     0.016 A 
ATOM     16  C   UNL A   1      37.184  23.699  25.792  1.00  0.00     0.044 C 
ATOM     17  C   UNL A   1      33.887  24.229  24.052  1.00  0.00     0.024 A 
ATOM     18  O   UNL A   1      32.063  22.853  23.646  1.00  0.00    -0.488 OA
ATOM     19  C   UNL A   1      32.837  25.087  23.565  1.00  0.00     0.006 C 
ATOM     20  C   UNL A   1      31.607  24.234  23.661  1.00  0.00     0.266 C 
ENDBRANCH   6   9
ENDBRANCH   4   5
ENDBRANCH   3   4
ENDBRANCH   2   3
ENDBRANCH   1   2
BRANCH   1  21
ATOM     21  N   UNL A   1      33.362  30.173  27.728  1.00  0.00    -0.352 N 
ATOM     22  C   UNL A   1      34.432  30.867  28.246  1.00  0.00     0.251 C 
ATOM     23  H   UNL A   1      32.522  30.677  27.636  1.00  0.00     0.163 HD
ATOM     24  O   UNL A   1      34.304  32.020  28.634  1.00  0.00    -0.269 OA
BRANCH  22  25
ATOM     25  C   UNL A   1      35.718  30.158  28.371  1.00  0.00     0.039 A 
ATOM     26  C   UNL A   1      36.101  29.623  29.603  1.00  0.00     0.014 A 
ATOM     27  C   UNL A   1      36.591  30.152  27.281  1.00  0.00     0.014 A 
ATOM     28  C   UNL A   1      37.420  29.233  29.793  1.00  0.00     0.010 A 
ATOM     29  C   UNL A   1      37.894  29.689  27.456  1.00  0.00     0.010 A 
ATOM     30  C   UNL A   1      38.333  29.278  28.727  1.00  0.00    -0.014 A 
BRANCH  30  31
ATOM     31  C   UNL A   1      39.752  28.923  28.960  1.00  0.00     0.031 A 
ATOM     32  C   UNL A   1      40.675  29.890  29.650  1.00  0.00     0.074 A 
ATOM     33  C   UNL A   1      40.195  27.706  28.593  1.00  0.00     0.049 A 
ATOM     34  N   UNL A   1      41.952  29.766  29.901  1.00  0.00    -0.248 NA
ATOM     35  C   UNL A   1      40.094  31.160  30.121  1.00  0.00     0.031 C 
ATOM     36  C   UNL A   1      39.373  26.669  27.964  1.00  0.00     0.029 A 
ATOM     37  N   UNL A   1      41.430  27.125  28.717  1.00  0.00    -0.354 N 
ATOM     38  C   UNL A   1      42.332  30.941  30.540  1.00  0.00     0.074 A 
ATOM     39  C   UNL A   1      41.156  31.778  30.621  1.00  0.00     0.031 C 
ATOM     40  C   UNL A   1      40.114  25.562  27.805  1.00  0.00     0.029 A 
ATOM     41  C   UNL A   1      41.478  25.835  28.247  1.00  0.00     0.049 A 
ATOM     42  H   UNL A   1      42.208  27.588  29.104  1.00  0.00     0.167 HD
ATOM     43  C   UNL A   1      43.550  31.283  31.020  1.00  0.00     0.031 A 
ATOM     44  C   UNL A   1      42.507  24.968  28.158  1.00  0.00     0.031 A 
ATOM     45  C   UNL A   1      44.709  30.433  30.950  1.00  0.00     0.049 A 
ATOM     46  C   UNL A   1      43.865  25.399  28.625  1.00  0.00     0.074 A 
ATOM     47  C   UNL A   1      45.985  30.689  31.417  1.00  0.00     0.029 A 
ATOM     48  N   UNL A   1      44.734  29.167  30.387  1.00  0.00    -0.354 N 
ATOM     49  N   UNL A   1      44.212  26.527  29.199  1.00  0.00    -0.248 NA
ATOM     50  C   UNL A   1      44.974  24.458  28.421  1.00  0.00     0.031 C 
ATOM     51  C   UNL A   1      46.795  29.600  31.090  1.00  0.00     0.029 A 
ATOM     52  C   UNL A   1      46.010  28.640  30.469  1.00  0.00     0.049 A 
ATOM     53  H   UNL A   1      43.958  28.710  29.988  1.00  0.00     0.167 HD
ATOM     54  C   UNL A   1      45.579  26.432  29.424  1.00  0.00     0.074 A 
ATOM     55  C   UNL A   1      45.995  25.130  28.941  1.00  0.00     0.031 C 
ATOM     56  C   UNL A   1      46.411  27.346  29.975  1.00  0.00     0.031 A 
BRANCH  43  57
ATOM     57  C   UNL A   1      43.715  32.635  31.658  1.00  0.00    -0.014 A 
ATOM     58  C   UNL A   1      43.611  32.762  33.056  1.00  0.00     0.010 A 
ATOM     59  C   UNL A   1      43.857  33.793  30.874  1.00  0.00     0.010 A 
ATOM     60  C   UNL A   1      43.621  34.024  33.658  1.00  0.00     0.020 A 
ATOM     61  C   UNL A   1      43.889  35.056  31.475  1.00  0.00     0.020 A 
ATOM     62  C   UNL A   1      43.749  35.164  32.861  1.00  0.00     0.054 A 
BRANCH  62  63
ATOM     63  S   UNL A   1      43.750  36.795  33.655  1.00  0.00     0.124 S 
ATOM     64  O   UNL A   1      44.841  36.671  34.616  1.00  0.00    -0.237 OA
ATOM     65  O   UNL A   1      43.995  37.699  32.533  1.00  0.00    -0.237 OA
ATOM     66  O   UNL A   1      42.410  36.891  34.235  1.00  0.00    -0.744 OA
ENDBRANCH  62  63
ENDBRANCH  43  57
BRANCH  44  67
ATOM     67  C   UNL A   1      42.259  23.618  27.590  1.00  0.00    -0.014 A 
ATOM     68  C   UNL A   1      41.876  22.555  28.430  1.00  0.00     0.010 A 
ATOM     69  C   UNL A   1      42.516  23.361  26.233  1.00  0.00     0.010 A 
ATOM     70  C   UNL A   1      41.822  21.249  27.940  1.00  0.00     0.020 A 
ATOM     71  C   UNL A   1      42.436  22.057  25.733  1.00  0.00     0.020 A 
ATOM     72  C   UNL A   1      42.123  21.006  26.598  1.00  0.00     0.054 A 
BRANCH  72  73
ATOM     73  S   UNL A   1      42.118  19.294  25.996  1.00  0.00     0.124 S 
ATOM     74  O   UNL A   1      42.669  18.575  27.140  1.00  0.00    -0.237 OA
ATOM     75  O   UNL A   1      40.703  19.053  25.724  1.00  0.00    -0.237 OA
ATOM     76  O   UNL A   1      42.976  19.348  24.815  1.00  0.00    -0.744 OA
ENDBRANCH  72  73
ENDBRANCH  44  67
BRANCH  56  77
ATOM     77  C   UNL A   1      47.871  27.005  30.086  1.00  0.00    -0.014 A 
ATOM     78  C   UNL A   1      48.345  26.326  31.224  1.00  0.00     0.010 A 
ATOM     79  C   UNL A   1      48.790  27.505  29.148  1.00  0.00     0.010 A 
ATOM     80  C   UNL A   1      49.717  26.196  31.448  1.00  0.00     0.020 A 
ATOM     81  C   UNL A   1      50.164  27.357  29.358  1.00  0.00     0.020 A 
ATOM     82  C   UNL A   1      50.617  26.730  30.522  1.00  0.00     0.054 A 
BRANCH  82  83
ATOM     83  S   UNL A   1      52.395  26.615  30.864  1.00  0.00     0.124 S 
ATOM     84  O   UNL A   1      52.444  25.564  31.876  1.00  0.00    -0.237 OA
ATOM     85  O   UNL A   1      52.951  26.260  29.560  1.00  0.00    -0.237 OA
ATOM     86  O   UNL A   1      52.739  27.954  31.335  1.00  0.00    -0.744 OA
ENDBRANCH  82  83
ENDBRANCH  56  77
ENDBRANCH  30  31
ENDBRANCH  22  25
ENDBRANCH   1  21
TORSDOF 14
ENDMDL
MODEL 2
REMARK VINA RESULT:     -11.3      2.569      9.456
REMARK SMILES Cc1cc2c(cc1C)/C(=C/C(=O)NCCCCNC(=O)c1ccc(-c3c4nc(c(-c5ccc(S(=O)(=O)[O-])cc5)c5ccc([nH]5)c(-c5ccc(S(=O)(=O)[O-])cc5)c5nc(c(-c6ccc(S(=O)(=O)[O-])cc6)c6ccc3[nH]6)C=C5)C=C4)cc1)CO2
REMARK SMILES IDX 17 1 16 2 15 3 14 4 13 5 11 6 12 7 10 9 1 10 2 11 3 12 7 13
REMARK SMILES IDX 4 14 6 15 8 16 5 17 82 18 9 19 81 20 18 21 19 22 20 24 21 25
REMARK SMILES IDX 22 26 80 27 23 28 79 29 24 30 25 31 26 32 73 33 27 34 78 35
REMARK SMILES IDX 72 36 74 37 28 38 77 39 71 40 70 41 29 43 59 44 40 45 58 46
REMARK SMILES IDX 41 47 44 48 57 49 75 50 42 51 43 52 56 54 76 55 45 56 30 57
REMARK SMILES IDX 31 58 39 59 32 60 38 61 33 62 34 63 35 64 36 65 37 66 60 67
REMARK SMILES IDX 61 68 69 69 62 70 68 71 63 72 64 73 65 74 66 75 67 76 46 77
REMARK SMILES IDX 47 78 55 79 48 80 54 81 49 82 50 83 51 84 52 85 53 86
REMARK H PARENT 13 8 18 23 74 42 44 53
REMARK Flexibility Score: inf
ROOT
ATOM      1  C   UNL A   1      36.847  22.930  26.088  1.00  0.00     0.116 C 
ENDROOT
BRANCH   1   2
ATOM      2  C   UNL A   1      35.623  22.045  25.899  1.00  0.00     0.023 C 
BRANCH   2   3
ATOM      3  C   UNL A   1      34.380  22.504  26.659  1.00  0.00     0.023 C 
BRANCH   3   4
ATOM      4  C   UNL A   1      33.243  22.987  25.760  1.00  0.00     0.116 C 
BRANCH   4   5
ATOM      5  N   UNL A   1      33.689  23.226  24.399  1.00  0.00    -0.353 N 
ATOM      6  C   UNL A   1      34.003  24.437  23.849  1.00  0.00     0.244 C 
ATOM      7  O   UNL A   1      34.397  24.556  22.698  1.00  0.00    -0.270 OA
ATOM      8  H   UNL A   1      33.772  22.439  23.814  1.00  0.00     0.163 HD
BRANCH   6   9
ATOM      9  C   UNL A   1      33.861  25.593  24.750  1.00  0.00     0.079 C 
ATOM     10  C   UNL A   1      31.506  31.582  26.615  1.00  0.00     0.045 C 
ATOM     11  C   UNL A   1      32.083  30.320  26.038  1.00  0.00    -0.044 A 
ATOM     12  C   UNL A   1      31.360  29.656  25.031  1.00  0.00     0.050 A 
ATOM     13  C   UNL A   1      33.347  29.818  26.446  1.00  0.00    -0.047 A 
ATOM     14  C   UNL A   1      31.870  28.487  24.511  1.00  0.00     0.127 A 
ATOM     15  C   UNL A   1      33.790  28.572  25.961  1.00  0.00     0.016 A 
ATOM     16  C   UNL A   1      34.295  30.638  27.281  1.00  0.00     0.044 C 
ATOM     17  C   UNL A   1      33.015  27.908  25.026  1.00  0.00     0.024 A 
ATOM     18  O   UNL A   1      31.312  27.811  23.454  1.00  0.00    -0.488 OA
ATOM     19  C   UNL A   1      33.192  26.665  24.318  1.00  0.00     0.006 C 
ATOM     20  C   UNL A   1      32.314  26.815  23.111  1.00  0.00     0.266 C 
ENDBRANCH   6   9
ENDBRANCH   4   5
ENDBRANCH   3   4
ENDBRANCH   2   3
ENDBRANCH   1   2
BRANCH   1  21
ATOM     21  N   UNL A   1      38.107  22.196  26.075  1.00  0.00    -0.352 N 
ATOM     22  C   UNL A   1      39.356  22.658  26.422  1.00  0.00     0.251 C 
ATOM     23  H   UNL A   1      38.057  21.257  25.782  1.00  0.00     0.163 HD
ATOM     24  O   UNL A   1      40.345  21.951  26.295  1.00  0.00    -0.269 OA
BRANCH  22  25
ATOM     25  C   UNL A   1      39.469  24.049  26.897  1.00  0.00     0.039 A 
ATOM     26  C   UNL A   1      40.014  25.027  26.061  1.00  0.00     0.014 A 
ATOM     27  C   UNL A   1      39.149  24.334  28.225  1.00  0.00     0.014 A 
ATOM     28  C   UNL A   1      40.397  26.246  26.604  1.00  0.00     0.010 A 
ATOM     29  C   UNL A   1      39.467  25.587  28.748  1.00  0.00     0.010 A 
ATOM     30  C   UNL A   1      40.142  26.531  27.955  1.00  0.00    -0.014 A 
BRANCH  30  31
ATOM     31  C   UNL A   1      40.616  27.809  28.538  1.00  0.00     0.031 A 
ATOM     32  C   UNL A   1      42.069  27.998  28.878  1.00  0.00     0.074 A 
ATOM     33  C   UNL A   1      39.740  28.817  28.714  1.00  0.00     0.049 A 
ATOM     34  N   UNL A   1      42.654  29.029  29.429  1.00  0.00    -0.248 NA
ATOM     35  C   UNL A   1      42.988  26.891  28.557  1.00  0.00     0.031 C 
ATOM     36  C   UNL A   1      38.317  28.761  28.370  1.00  0.00     0.029 A 
ATOM     37  N   UNL A   1      39.918  30.087  29.199  1.00  0.00    -0.354 N 
ATOM     38  C   UNL A   1      43.998  28.693  29.539  1.00  0.00     0.074 A 
ATOM     39  C   UNL A   1      44.144  27.353  29.016  1.00  0.00     0.031 C 
ATOM     40  C   UNL A   1      37.765  29.960  28.606  1.00  0.00     0.029 A 
ATOM     41  C   UNL A   1      38.771  30.842  29.189  1.00  0.00     0.049 A 
ATOM     42  H   UNL A   1      40.785  30.423  29.522  1.00  0.00     0.167 HD
ATOM     43  C   UNL A   1      45.016  29.440  30.026  1.00  0.00     0.031 A 
ATOM     44  C   UNL A   1      38.542  32.098  29.620  1.00  0.00     0.031 A 
ATOM     45  C   UNL A   1      44.862  30.779  30.526  1.00  0.00     0.049 A 
ATOM     46  C   UNL A   1      39.670  32.878  30.227  1.00  0.00     0.074 A 
ATOM     47  C   UNL A   1      45.838  31.620  31.032  1.00  0.00     0.029 A 
ATOM     48  N   UNL A   1      43.665  31.476  30.579  1.00  0.00    -0.354 N 
ATOM     49  N   UNL A   1      40.929  32.532  30.351  1.00  0.00    -0.248 NA
ATOM     50  C   UNL A   1      39.351  34.206  30.769  1.00  0.00     0.031 C 
ATOM     51  C   UNL A   1      45.222  32.805  31.440  1.00  0.00     0.029 A 
ATOM     52  C   UNL A   1      43.872  32.726  31.135  1.00  0.00     0.049 A 
ATOM     53  H   UNL A   1      42.797  31.133  30.267  1.00  0.00     0.167 HD
ATOM     54  C   UNL A   1      41.554  33.597  30.985  1.00  0.00     0.074 A 
ATOM     55  C   UNL A   1      40.539  34.609  31.205  1.00  0.00     0.031 C 
ATOM     56  C   UNL A   1      42.850  33.719  31.356  1.00  0.00     0.031 A 
BRANCH  43  57
ATOM     57  C   UNL A   1      46.395  28.838  30.059  1.00  0.00    -0.014 A 
ATOM     58  C   UNL A   1      47.220  28.928  28.923  1.00  0.00     0.010 A 
ATOM     59  C   UNL A   1      46.829  28.085  31.164  1.00  0.00     0.010 A 
ATOM     60  C   UNL A   1      48.446  28.258  28.880  1.00  0.00     0.020 A 
ATOM     61  C   UNL A   1      48.065  27.430  31.133  1.00  0.00     0.020 A 
ATOM     62  C   UNL A   1      48.856  27.504  29.983  1.00  0.00     0.054 A 
BRANCH  62  63
ATOM     63  S   UNL A   1      50.445  26.631  29.909  1.00  0.00     0.124 S 
ATOM     64  O   UNL A   1      50.577  26.115  31.267  1.00  0.00    -0.237 OA
ATOM     65  O   UNL A   1      50.213  25.629  28.871  1.00  0.00    -0.237 OA
ATOM     66  O   UNL A   1      51.393  27.682  29.542  1.00  0.00    -0.744 OA
ENDBRANCH  62  63
ENDBRANCH  43  57
BRANCH  44  67
ATOM     67  C   UNL A   1      37.174  32.663  29.486  1.00  0.00    -0.014 A 
ATOM     68  C   UNL A   1      36.788  33.312  28.297  1.00  0.00     0.010 A 
ATOM     69  C   UNL A   1      36.294  32.659  30.580  1.00  0.00     0.010 A 
ATOM     70  C   UNL A   1      35.579  34.005  28.228  1.00  0.00     0.020 A 
ATOM     71  C   UNL A   1      35.068  33.329  30.505  1.00  0.00     0.020 A 
ATOM     72  C   UNL A   1      34.735  34.026  29.342  1.00  0.00     0.054 A 
BRANCH  72  73
ATOM     73  S   UNL A   1      33.201  34.990  29.259  1.00  0.00     0.124 S 
ATOM     74  O   UNL A   1      32.709  34.885  30.630  1.00  0.00    -0.237 OA
ATOM     75  O   UNL A   1      33.673  36.314  28.861  1.00  0.00    -0.237 OA
ATOM     76  O   UNL A   1      32.411  34.285  28.253  1.00  0.00    -0.744 OA
ENDBRANCH  72  73
ENDBRANCH  44  67
BRANCH  56  77
ATOM     77  C   UNL A   1      43.275  34.979  32.058  1.00  0.00    -0.014 A 
ATOM     78  C   UNL A   1      42.929  35.176  33.408  1.00  0.00     0.010 A 
ATOM     79  C   UNL A   1      43.866  36.029  31.337  1.00  0.00     0.010 A 
ATOM     80  C   UNL A   1      43.120  36.421  34.011  1.00  0.00     0.020 A 
ATOM     81  C   UNL A   1      44.078  37.270  31.943  1.00  0.00     0.020 A 
ATOM     82  C   UNL A   1      43.676  37.465  33.268  1.00  0.00     0.054 A 
BRANCH  82  83
ATOM     83  S   UNL A   1      43.851  39.095  34.044  1.00  0.00     0.124 S 
ATOM     84  O   UNL A   1      44.021  38.746  35.451  1.00  0.00    -0.237 OA
ATOM     85  O   UNL A   1      45.034  39.641  33.383  1.00  0.00    -0.237 OA
ATOM     86  O   UNL A   1      42.597  39.767  33.713  1.00  0.00    -0.744 OA
ENDBRANCH  82  83
ENDBRANCH  56  77
ENDBRANCH  30  31
ENDBRANCH  22  25
ENDBRANCH   1  21
TORSDOF 14
ENDMDL
MODEL 3
REMARK VINA RESULT:     -11.3      1.195      8.490
REMARK SMILES Cc1cc2c(cc1C)/C(=C/C(=O)NCCCCNC(=O)c1ccc(-c3c4nc(c(-c5ccc(S(=O)(=O)[O-])cc5)c5ccc([nH]5)c(-c5ccc(S(=O)(=O)[O-])cc5)c5nc(c(-c6ccc(S(=O)(=O)[O-])cc6)c6ccc3[nH]6)C=C5)C=C4)cc1)CO2
REMARK SMILES IDX 17 1 16 2 15 3 14 4 13 5 11 6 12 7 10 9 1 10 2 11 3 12 7 13
REMARK SMILES IDX 4 14 6 15 8 16 5 17 82 18 9 19 81 20 18 21 19 22 20 24 21 25
REMARK SMILES IDX 22 26 80 27 23 28 79 29 24 30 25 31 26 32 73 33 27 34 78 35
REMARK SMILES IDX 72 36 74 37 28 38 77 39 71 40 70 41 29 43 59 44 40 45 58 46
REMARK SMILES IDX 41 47 44 48 57 49 75 50 42 51 43 52 56 54 76 55 45 56 30 57
REMARK SMILES IDX 31 58 39 59 32 60 38 61 33 62 34 63 35 64 36 65 37 66 60 67
REMARK SMILES IDX 61 68 69 69 62 70 68 71 63 72 64 73 65 74 66 75 67 76 46 77
REMARK SMILES IDX 47 78 55 79 48 80 54 81 49 82 50 83 51 84 52 85 53 86
REMARK H PARENT 13 8 18 23 74 42 44 53
REMARK Flexibility Score: inf
ROOT
ATOM      1  C   UNL A   1      33.571  28.638  27.225  1.00  0.00     0.116 C 
ENDROOT
BRANCH   1   2
ATOM      2  C   UNL A   1      33.859  28.464  25.741  1.00  0.00     0.023 C 
BRANCH   2   3
ATOM      3  C   UNL A   1      33.097  29.422  24.826  1.00  0.00     0.023 C 
BRANCH   3   4
ATOM      4  C   UNL A   1      33.304  29.158  23.336  1.00  0.00     0.116 C 
BRANCH   4   5
ATOM      5  N   UNL A   1      32.066  29.269  22.586  1.00  0.00    -0.353 N 
ATOM      6  C   UNL A   1      31.064  28.342  22.532  1.00  0.00     0.244 C 
ATOM      7  O   UNL A   1      30.035  28.519  21.896  1.00  0.00    -0.270 OA
ATOM      8  H   UNL A   1      31.936  30.093  22.064  1.00  0.00     0.163 HD
BRANCH   6   9
ATOM      9  C   UNL A   1      31.295  27.119  23.320  1.00  0.00     0.079 C 
ATOM     10  C   UNL A   1      33.366  20.819  24.280  1.00  0.00     0.045 C 
ATOM     11  C   UNL A   1      32.806  22.166  23.920  1.00  0.00    -0.044 A 
ATOM     12  C   UNL A   1      33.327  22.825  22.792  1.00  0.00     0.050 A 
ATOM     13  C   UNL A   1      31.745  22.760  24.653  1.00  0.00    -0.047 A 
ATOM     14  C   UNL A   1      32.836  24.070  22.466  1.00  0.00     0.127 A 
ATOM     15  C   UNL A   1      31.336  24.072  24.348  1.00  0.00     0.016 A 
ATOM     16  C   UNL A   1      30.948  21.979  25.667  1.00  0.00     0.044 C 
ATOM     17  C   UNL A   1      31.924  24.720  23.277  1.00  0.00     0.024 A 
ATOM     18  O   UNL A   1      33.187  24.759  21.331  1.00  0.00    -0.488 OA
ATOM     19  C   UNL A   1      31.716  26.019  22.688  1.00  0.00     0.006 C 
ATOM     20  C   UNL A   1      32.247  25.868  21.294  1.00  0.00     0.266 C 
ENDBRANCH   6   9
ENDBRANCH   4   5
ENDBRANCH   3   4
ENDBRANCH   2   3
ENDBRANCH   1   2
BRANCH   1  21
ATOM     21  N   UNL A   1      33.563  30.030  27.660  1.00  0.00    -0.352 N 
ATOM     22  C   UNL A   1      34.601  30.749  28.208  1.00  0.00     0.251 C 
ATOM     23  H   UNL A   1      32.713  30.514  27.546  1.00  0.00     0.163 HD
ATOM     24  O   UNL A   1      34.435  31.896  28.596  1.00  0.00    -0.269 OA
BRANCH  22  25
ATOM     25  C   UNL A   1      35.901  30.071  28.366  1.00  0.00     0.039 A 
ATOM     26  C   UNL A   1      36.256  29.525  29.602  1.00  0.00     0.014 A 
ATOM     27  C   UNL A   1      36.810  30.107  27.307  1.00  0.00     0.014 A 
ATOM     28  C   UNL A   1      37.577  29.165  29.830  1.00  0.00     0.010 A 
ATOM     29  C   UNL A   1      38.119  29.675  27.519  1.00  0.00     0.010 A 
ATOM     30  C   UNL A   1      38.524  29.253  28.797  1.00  0.00    -0.014 A 
BRANCH  30  31
ATOM     31  C   UNL A   1      39.944  28.931  29.073  1.00  0.00     0.031 A 
ATOM     32  C   UNL A   1      40.509  27.591  28.687  1.00  0.00     0.074 A 
ATOM     33  C   UNL A   1      40.736  29.869  29.627  1.00  0.00     0.049 A 
ATOM     34  N   UNL A   1      41.713  27.122  28.887  1.00  0.00    -0.248 NA
ATOM     35  C   UNL A   1      39.612  26.655  27.986  1.00  0.00     0.031 C 
ATOM     36  C   UNL A   1      40.306  31.220  29.993  1.00  0.00     0.029 A 
ATOM     37  N   UNL A   1      42.067  29.840  29.955  1.00  0.00    -0.354 N 
ATOM     38  C   UNL A   1      41.715  25.837  28.357  1.00  0.00     0.074 A 
ATOM     39  C   UNL A   1      40.387  25.588  27.843  1.00  0.00     0.031 C 
ATOM     40  C   UNL A   1      41.365  31.907  30.446  1.00  0.00     0.029 A 
ATOM     41  C   UNL A   1      42.527  31.025  30.476  1.00  0.00     0.049 A 
ATOM     42  H   UNL A   1      42.636  29.047  29.830  1.00  0.00     0.167 HD
ATOM     43  C   UNL A   1      42.737  24.952  28.299  1.00  0.00     0.031 A 
ATOM     44  C   UNL A   1      43.743  31.364  30.949  1.00  0.00     0.031 A 
ATOM     45  C   UNL A   1      44.060  25.218  28.796  1.00  0.00     0.049 A 
ATOM     46  C   UNL A   1      44.838  30.340  30.945  1.00  0.00     0.074 A 
ATOM     47  C   UNL A   1      45.165  24.385  28.773  1.00  0.00     0.029 A 
ATOM     48  N   UNL A   1      44.461  26.401  29.396  1.00  0.00    -0.354 N 
ATOM     49  N   UNL A   1      44.813  29.118  30.467  1.00  0.00    -0.248 NA
ATOM     50  C   UNL A   1      46.117  30.724  31.557  1.00  0.00     0.031 C 
ATOM     51  C   UNL A   1      46.219  25.044  29.408  1.00  0.00     0.029 A 
ATOM     52  C   UNL A   1      45.789  26.311  29.774  1.00  0.00     0.049 A 
ATOM     53  H   UNL A   1      43.887  27.189  29.533  1.00  0.00     0.167 HD
ATOM     54  C   UNL A   1      46.071  28.587  30.720  1.00  0.00     0.074 A 
ATOM     55  C   UNL A   1      46.840  29.624  31.378  1.00  0.00     0.031 C 
ATOM     56  C   UNL A   1      46.539  27.349  30.437  1.00  0.00     0.031 A 
BRANCH  43  57
ATOM     57  C   UNL A   1      42.481  23.601  27.687  1.00  0.00    -0.014 A 
ATOM     58  C   UNL A   1      42.133  22.518  28.515  1.00  0.00     0.010 A 
ATOM     59  C   UNL A   1      42.696  23.374  26.317  1.00  0.00     0.010 A 
ATOM     60  C   UNL A   1      42.027  21.226  27.990  1.00  0.00     0.020 A 
ATOM     61  C   UNL A   1      42.571  22.087  25.784  1.00  0.00     0.020 A 
ATOM     62  C   UNL A   1      42.258  21.018  26.628  1.00  0.00     0.054 A 
BRANCH  62  63
ATOM     63  S   UNL A   1      42.127  19.335  25.962  1.00  0.00     0.124 S 
ATOM     64  O   UNL A   1      42.997  19.398  24.792  1.00  0.00    -0.237 OA
ATOM     65  O   UNL A   1      42.613  18.513  27.068  1.00  0.00    -0.237 OA
ATOM     66  O   UNL A   1      40.700  19.193  25.676  1.00  0.00    -0.744 OA
ENDBRANCH  62  63
ENDBRANCH  43  57
BRANCH  44  67
ATOM     67  C   UNL A   1      43.952  32.741  31.466  1.00  0.00    -0.014 A 
ATOM     68  C   UNL A   1      43.710  33.034  32.822  1.00  0.00     0.010 A 
ATOM     69  C   UNL A   1      44.280  33.787  30.587  1.00  0.00     0.010 A 
ATOM     70  C   UNL A   1      43.723  34.354  33.275  1.00  0.00     0.020 A 
ATOM     71  C   UNL A   1      44.321  35.108  31.045  1.00  0.00     0.020 A 
ATOM     72  C   UNL A   1      44.009  35.385  32.377  1.00  0.00     0.054 A 
BRANCH  72  73
ATOM     73  S   UNL A   1      43.951  37.100  32.968  1.00  0.00     0.124 S 
ATOM     74  O   UNL A   1      42.748  37.089  33.795  1.00  0.00    -0.237 OA
ATOM     75  O   UNL A   1      45.212  37.233  33.693  1.00  0.00    -0.237 OA
ATOM     76  O   UNL A   1      43.859  37.879  31.736  1.00  0.00    -0.744 OA
ENDBRANCH  72  73
ENDBRANCH  44  67
BRANCH  56  77
ATOM     77  C   UNL A   1      47.947  27.009  30.841  1.00  0.00    -0.014 A 
ATOM     78  C   UNL A   1      48.187  26.400  32.087  1.00  0.00     0.010 A 
ATOM     79  C   UNL A   1      49.033  27.445  30.065  1.00  0.00     0.010 A 
ATOM     80  C   UNL A   1      49.490  26.278  32.573  1.00  0.00     0.020 A 
ATOM     81  C   UNL A   1      50.340  27.305  30.539  1.00  0.00     0.020 A 
ATOM     82  C   UNL A   1      50.557  26.749  31.803  1.00  0.00     0.054 A 
BRANCH  82  83
ATOM     83  S   UNL A   1      52.237  26.648  32.480  1.00  0.00     0.124 S 
ATOM     84  O   UNL A   1      52.930  27.695  31.737  1.00  0.00    -0.237 OA
ATOM     85  O   UNL A   1      52.028  26.917  33.901  1.00  0.00    -0.237 OA
ATOM     86  O   UNL A   1      52.649  25.281  32.168  1.00  0.00    -0.744 OA
ENDBRANCH  82  83
ENDBRANCH  56  77
ENDBRANCH  30  31
ENDBRANCH  22  25
ENDBRANCH   1  21
TORSDOF 14
ENDMDL
