MODEL 1
REMARK VINA RESULT:     -11.2      0.000      0.000
REMARK SMILES Cc1cc(-c2cncc(C(=O)NCCCCNC(=O)c3ccc(-c4c5nc(c(-c6ccc(S(=O)(=O)[O-])cc6)c6ccc([nH]6)c(-c6ccc(S(=O)(=O)[O-])cc6)c6nc(c(-c7ccc(S(=O)(=O)[O-])cc7)c7ccc4[nH]7)C=C6)C=C5)cc3)c2)ccc1F
REMARK SMILES IDX 15 1 14 2 13 3 12 4 10 5 11 6 9 8 5 9 6 10 80 11 7 12 8 13
REMARK SMILES IDX 4 14 1 15 2 16 3 17 83 18 82 19 84 20 81 21 16 22 17 23
REMARK SMILES IDX 18 24 19 26 20 27 21 28 79 29 22 30 78 31 23 32 24 33 25 34
REMARK SMILES IDX 72 35 26 36 77 37 71 38 73 39 27 40 76 41 70 42 69 43 28 45
REMARK SMILES IDX 58 46 39 47 57 48 40 49 43 50 56 51 74 52 41 53 42 54 55 56
REMARK SMILES IDX 75 57 44 58 29 59 30 60 38 61 31 62 37 63 32 64 33 65 34 66
REMARK SMILES IDX 35 67 36 68 59 69 60 70 68 71 61 72 67 73 62 74 63 75 64 76
REMARK SMILES IDX 65 77 66 78 45 79 46 80 54 81 47 82 53 83 48 84 49 85 50 86
REMARK SMILES IDX 51 87 52 88
REMARK H PARENT 12 7 17 25 73 44 43 55
REMARK Flexibility Score: inf
ROOT
ATOM      1  C   UNL A   1      33.238  28.355  25.700  1.00  0.00     0.023 C 
ENDROOT
BRANCH   1   2
ATOM      2  C   UNL A   1      31.863  28.762  25.161  1.00  0.00     0.023 C 
BRANCH   2   3
ATOM      3  C   UNL A   1      31.063  27.612  24.546  1.00  0.00     0.116 C 
BRANCH   3   4
ATOM      4  N   UNL A   1      30.693  26.633  25.553  1.00  0.00    -0.352 N 
ATOM      5  C   UNL A   1      31.102  25.343  25.785  1.00  0.00     0.252 C 
ATOM      6  O   UNL A   1      30.656  24.773  26.781  1.00  0.00    -0.269 OA
ATOM      7  H   UNL A   1      30.019  26.957  26.192  1.00  0.00     0.163 HD
BRANCH   5   8
ATOM      8  C   UNL A   1      32.079  24.619  24.936  1.00  0.00     0.058 A 
ATOM      9  C   UNL A   1      34.222  23.589  24.425  1.00  0.00     0.001 A 
ATOM     10  C   UNL A   1      33.677  23.188  23.210  1.00  0.00     0.119 A 
ATOM     11  C   UNL A   1      33.406  24.358  25.267  1.00  0.00     0.025 A 
ATOM     12  N   UNL A   1      32.416  23.472  22.814  1.00  0.00    -0.263 NA
ATOM     13  C   UNL A   1      31.647  24.172  23.691  1.00  0.00     0.124 A 
BRANCH   9  14
ATOM     14  C   UNL A   1      35.553  23.172  24.867  1.00  0.00    -0.016 A 
ATOM     15  C   UNL A   1      37.671  19.986  24.819  1.00  0.00     0.047 C 
ATOM     16  C   UNL A   1      37.229  21.396  25.067  1.00  0.00    -0.015 A 
ATOM     17  C   UNL A   1      35.978  21.850  24.631  1.00  0.00     0.015 A 
ATOM     18  C   UNL A   1      38.057  22.287  25.747  1.00  0.00     0.126 A 
ATOM     19  C   UNL A   1      37.662  23.599  25.990  1.00  0.00     0.040 A 
ATOM     20  F   UNL A   1      39.260  21.881  26.181  1.00  0.00    -0.207 F 
ATOM     21  C   UNL A   1      36.413  24.044  25.550  1.00  0.00     0.012 A 
ENDBRANCH   9  14
ENDBRANCH   5   8
ENDBRANCH   3   4
ENDBRANCH   2   3
ENDBRANCH   1   2
BRANCH   1  22
ATOM     22  C   UNL A   1      33.459  28.625  27.186  1.00  0.00     0.116 C 
BRANCH  22  23
ATOM     23  N   UNL A   1      33.467  30.042  27.521  1.00  0.00    -0.352 N 
ATOM     24  C   UNL A   1      34.487  30.781  28.078  1.00  0.00     0.251 C 
ATOM     25  H   UNL A   1      32.638  30.535  27.325  1.00  0.00     0.163 HD
ATOM     26  O   UNL A   1      34.312  31.953  28.382  1.00  0.00    -0.269 OA
BRANCH  24  27
ATOM     27  C   UNL A   1      35.780  30.119  28.346  1.00  0.00     0.039 A 
ATOM     28  C   UNL A   1      36.754  30.116  27.345  1.00  0.00     0.014 A 
ATOM     29  C   UNL A   1      36.049  29.574  29.604  1.00  0.00     0.014 A 
ATOM     30  C   UNL A   1      38.037  29.648  27.636  1.00  0.00     0.010 A 
ATOM     31  C   UNL A   1      37.341  29.155  29.907  1.00  0.00     0.010 A 
ATOM     32  C   UNL A   1      38.351  29.212  28.933  1.00  0.00    -0.014 A 
BRANCH  32  33
ATOM     33  C   UNL A   1      39.745  28.876  29.318  1.00  0.00     0.031 A 
ATOM     34  C   UNL A   1      40.620  29.905  29.975  1.00  0.00     0.074 A 
ATOM     35  C   UNL A   1      40.249  27.673  28.978  1.00  0.00     0.049 A 
ATOM     36  N   UNL A   1      41.890  29.828  30.277  1.00  0.00    -0.248 NA
ATOM     37  C   UNL A   1      39.992  31.191  30.313  1.00  0.00     0.031 C 
ATOM     38  C   UNL A   1      39.509  26.605  28.299  1.00  0.00     0.029 A 
ATOM     39  N   UNL A   1      41.509  27.153  29.137  1.00  0.00    -0.354 N 
ATOM     40  C   UNL A   1      42.221  31.062  30.824  1.00  0.00     0.074 A 
ATOM     41  C   UNL A   1      41.026  31.877  30.782  1.00  0.00     0.031 C 
ATOM     42  C   UNL A   1      40.326  25.557  28.109  1.00  0.00     0.029 A 
ATOM     43  C   UNL A   1      41.654  25.891  28.613  1.00  0.00     0.049 A 
ATOM     44  H   UNL A   1      42.239  27.639  29.585  1.00  0.00     0.167 HD
ATOM     45  C   UNL A   1      43.410  31.473  31.325  1.00  0.00     0.031 A 
ATOM     46  C   UNL A   1      42.739  25.096  28.529  1.00  0.00     0.031 A 
ATOM     47  C   UNL A   1      44.594  30.657  31.374  1.00  0.00     0.049 A 
ATOM     48  C   UNL A   1      44.051  25.581  29.076  1.00  0.00     0.074 A 
ATOM     49  C   UNL A   1      45.826  30.961  31.927  1.00  0.00     0.029 A 
ATOM     50  N   UNL A   1      44.697  29.381  30.842  1.00  0.00    -0.354 N 
ATOM     51  N   UNL A   1      44.326  26.726  29.654  1.00  0.00    -0.248 NA
ATOM     52  C   UNL A   1      45.197  24.669  28.960  1.00  0.00     0.031 C 
ATOM     53  C   UNL A   1      46.687  29.885  31.690  1.00  0.00     0.029 A 
ATOM     54  C   UNL A   1      45.980  28.894  31.028  1.00  0.00     0.049 A 
ATOM     55  H   UNL A   1      43.967  28.893  30.398  1.00  0.00     0.167 HD
ATOM     56  C   UNL A   1      45.675  26.667  29.982  1.00  0.00     0.074 A 
ATOM     57  C   UNL A   1      46.156  25.369  29.552  1.00  0.00     0.031 C 
ATOM     58  C   UNL A   1      46.446  27.605  30.585  1.00  0.00     0.031 A 
BRANCH  45  59
ATOM     59  C   UNL A   1      43.488  32.880  31.854  1.00  0.00    -0.014 A 
ATOM     60  C   UNL A   1      43.195  33.163  33.199  1.00  0.00     0.010 A 
ATOM     61  C   UNL A   1      43.889  33.925  31.003  1.00  0.00     0.010 A 
ATOM     62  C   UNL A   1      43.259  34.475  33.675  1.00  0.00     0.020 A 
ATOM     63  C   UNL A   1      43.977  35.236  31.481  1.00  0.00     0.020 A 
ATOM     64  C   UNL A   1      43.642  35.504  32.810  1.00  0.00     0.054 A 
BRANCH  64  65
ATOM     65  S   UNL A   1      43.726  37.198  33.453  1.00  0.00     0.124 S 
ATOM     66  O   UNL A   1      42.520  37.267  34.274  1.00  0.00    -0.237 OA
ATOM     67  O   UNL A   1      44.988  37.200  34.191  1.00  0.00    -0.237 OA
ATOM     68  O   UNL A   1      43.711  38.026  32.250  1.00  0.00    -0.744 OA
ENDBRANCH  64  65
ENDBRANCH  45  59
BRANCH  46  69
ATOM     69  C   UNL A   1      42.623  23.757  27.893  1.00  0.00    -0.014 A 
ATOM     70  C   UNL A   1      42.863  23.602  26.518  1.00  0.00     0.010 A 
ATOM     71  C   UNL A   1      42.298  22.627  28.666  1.00  0.00     0.010 A 
ATOM     72  C   UNL A   1      42.775  22.340  25.923  1.00  0.00     0.020 A 
ATOM     73  C   UNL A   1      42.231  21.361  28.079  1.00  0.00     0.020 A 
ATOM     74  C   UNL A   1      42.461  21.226  26.709  1.00  0.00     0.054 A 
BRANCH  74  75
ATOM     75  S   UNL A   1      42.420  19.587  25.931  1.00  0.00     0.124 S 
ATOM     76  O   UNL A   1      41.041  19.513  25.456  1.00  0.00    -0.237 OA
ATOM     77  O   UNL A   1      43.441  19.701  24.893  1.00  0.00    -0.237 OA
ATOM     78  O   UNL A   1      42.755  18.683  27.028  1.00  0.00    -0.744 OA
ENDBRANCH  74  75
ENDBRANCH  46  69
BRANCH  58  79
ATOM     79  C   UNL A   1      47.890  27.264  30.823  1.00  0.00    -0.014 A 
ATOM     80  C   UNL A   1      48.294  26.631  32.012  1.00  0.00     0.010 A 
ATOM     81  C   UNL A   1      48.842  27.515  29.819  1.00  0.00     0.010 A 
ATOM     82  C   UNL A   1      49.630  26.268  32.198  1.00  0.00     0.020 A 
ATOM     83  C   UNL A   1      50.175  27.135  29.993  1.00  0.00     0.020 A 
ATOM     84  C   UNL A   1      50.562  26.521  31.187  1.00  0.00     0.054 A 
BRANCH  84  85
ATOM     85  S   UNL A   1      52.278  25.981  31.423  1.00  0.00     0.124 S 
ATOM     86  O   UNL A   1      52.101  24.605  31.883  1.00  0.00    -0.237 OA
ATOM     87  O   UNL A   1      52.850  26.129  30.087  1.00  0.00    -0.237 OA
ATOM     88  O   UNL A   1      52.797  26.910  32.423  1.00  0.00    -0.744 OA
ENDBRANCH  84  85
ENDBRANCH  58  79
ENDBRANCH  32  33
ENDBRANCH  24  27
ENDBRANCH  22  23
ENDBRANCH   1  22
TORSDOF 15
ENDMDL
MODEL 2
REMARK VINA RESULT:     -10.7      1.936      2.534
REMARK SMILES Cc1cc(-c2cncc(C(=O)NCCCCNC(=O)c3ccc(-c4c5nc(c(-c6ccc(S(=O)(=O)[O-])cc6)c6ccc([nH]6)c(-c6ccc(S(=O)(=O)[O-])cc6)c6nc(c(-c7ccc(S(=O)(=O)[O-])cc7)c7ccc4[nH]7)C=C6)C=C5)cc3)c2)ccc1F
REMARK SMILES IDX 15 1 14 2 13 3 12 4 10 5 11 6 9 8 5 9 6 10 80 11 7 12 8 13
REMARK SMILES IDX 4 14 1 15 2 16 3 17 83 18 82 19 84 20 81 21 16 22 17 23
REMARK SMILES IDX 18 24 19 26 20 27 21 28 79 29 22 30 78 31 23 32 24 33 25 34
REMARK SMILES IDX 72 35 26 36 77 37 71 38 73 39 27 40 76 41 70 42 69 43 28 45
REMARK SMILES IDX 58 46 39 47 57 48 40 49 43 50 56 51 74 52 41 53 42 54 55 56
REMARK SMILES IDX 75 57 44 58 29 59 30 60 38 61 31 62 37 63 32 64 33 65 34 66
REMARK SMILES IDX 35 67 36 68 59 69 60 70 68 71 61 72 67 73 62 74 63 75 64 76
REMARK SMILES IDX 65 77 66 78 45 79 46 80 54 81 47 82 53 83 48 84 49 85 50 86
REMARK SMILES IDX 51 87 52 88
REMARK H PARENT 12 7 17 25 73 44 43 55
REMARK Flexibility Score: inf
ROOT
ATOM      1  C   UNL A   1      32.712  28.306  25.479  1.00  0.00     0.023 C 
ENDROOT
BRANCH   1   2
ATOM      2  C   UNL A   1      31.906  27.394  26.409  1.00  0.00     0.023 C 
BRANCH   2   3
ATOM      3  C   UNL A   1      30.839  26.556  25.700  1.00  0.00     0.116 C 
BRANCH   3   4
ATOM      4  N   UNL A   1      30.452  25.411  26.505  1.00  0.00    -0.352 N 
ATOM      5  C   UNL A   1      30.826  24.090  26.478  1.00  0.00     0.252 C 
ATOM      6  O   UNL A   1      30.374  23.350  27.352  1.00  0.00    -0.269 OA
ATOM      7  H   UNL A   1      29.794  25.622  27.205  1.00  0.00     0.163 HD
BRANCH   5   8
ATOM      8  C   UNL A   1      31.773  23.518  25.489  1.00  0.00     0.058 A 
ATOM      9  C   UNL A   1      33.936  22.725  24.709  1.00  0.00     0.001 A 
ATOM     10  C   UNL A   1      33.312  22.362  23.520  1.00  0.00     0.119 A 
ATOM     11  C   UNL A   1      33.144  23.356  25.678  1.00  0.00     0.025 A 
ATOM     12  N   UNL A   1      31.998  22.558  23.263  1.00  0.00    -0.263 NA
ATOM     13  C   UNL A   1      31.262  23.122  24.258  1.00  0.00     0.124 A 
BRANCH   9  14
ATOM     14  C   UNL A   1      35.334  22.400  24.996  1.00  0.00    -0.016 A 
ATOM     15  C   UNL A   1      38.418  24.191  26.380  1.00  0.00     0.047 C 
ATOM     16  C   UNL A   1      37.528  23.133  25.803  1.00  0.00    -0.015 A 
ATOM     17  C   UNL A   1      36.175  23.388  25.545  1.00  0.00     0.015 A 
ATOM     18  C   UNL A   1      38.033  21.869  25.506  1.00  0.00     0.126 A 
ATOM     19  C   UNL A   1      37.221  20.875  24.966  1.00  0.00     0.040 A 
ATOM     20  F   UNL A   1      39.325  21.596  25.739  1.00  0.00    -0.207 F 
ATOM     21  C   UNL A   1      35.873  21.138  24.712  1.00  0.00     0.012 A 
ENDBRANCH   9  14
ENDBRANCH   5   8
ENDBRANCH   3   4
ENDBRANCH   2   3
ENDBRANCH   1   2
BRANCH   1  22
ATOM     22  C   UNL A   1      33.977  28.902  26.091  1.00  0.00     0.116 C 
BRANCH  22  23
ATOM     23  N   UNL A   1      33.787  30.247  26.615  1.00  0.00    -0.352 N 
ATOM     24  C   UNL A   1      34.559  30.922  27.533  1.00  0.00     0.251 C 
ATOM     25  H   UNL A   1      33.007  30.738  26.268  1.00  0.00     0.163 HD
ATOM     26  O   UNL A   1      34.220  32.024  27.942  1.00  0.00    -0.269 OA
BRANCH  24  27
ATOM     27  C   UNL A   1      35.778  30.269  28.054  1.00  0.00     0.039 A 
ATOM     28  C   UNL A   1      36.960  30.366  27.316  1.00  0.00     0.014 A 
ATOM     29  C   UNL A   1      35.764  29.631  29.297  1.00  0.00     0.014 A 
ATOM     30  C   UNL A   1      38.155  29.904  27.871  1.00  0.00     0.010 A 
ATOM     31  C   UNL A   1      36.963  29.218  29.868  1.00  0.00     0.010 A 
ATOM     32  C   UNL A   1      38.172  29.373  29.171  1.00  0.00    -0.014 A 
BRANCH  32  33
ATOM     33  C   UNL A   1      39.447  29.037  29.851  1.00  0.00     0.031 A 
ATOM     34  C   UNL A   1      39.946  29.883  30.988  1.00  0.00     0.074 A 
ATOM     35  C   UNL A   1      40.204  28.031  29.372  1.00  0.00     0.049 A 
ATOM     36  N   UNL A   1      41.085  29.810  31.626  1.00  0.00    -0.248 NA
ATOM     37  C   UNL A   1      39.059  30.961  31.452  1.00  0.00     0.031 C 
ATOM     38  C   UNL A   1      39.846  27.164  28.244  1.00  0.00     0.029 A 
ATOM     39  N   UNL A   1      41.441  27.578  29.757  1.00  0.00    -0.354 N 
ATOM     40  C   UNL A   1      41.064  30.844  32.553  1.00  0.00     0.074 A 
ATOM     41  C   UNL A   1      39.811  31.547  32.374  1.00  0.00     0.031 C 
ATOM     42  C   UNL A   1      40.836  26.282  28.036  1.00  0.00     0.029 A 
ATOM     43  C   UNL A   1      41.914  26.544  28.984  1.00  0.00     0.049 A 
ATOM     44  H   UNL A   1      41.941  27.959  30.514  1.00  0.00     0.167 HD
ATOM     45  C   UNL A   1      41.998  31.170  33.478  1.00  0.00     0.031 A 
ATOM     46  C   UNL A   1      43.091  25.890  29.021  1.00  0.00     0.031 A 
ATOM     47  C   UNL A   1      43.238  30.464  33.660  1.00  0.00     0.049 A 
ATOM     48  C   UNL A   1      44.119  26.282  30.044  1.00  0.00     0.074 A 
ATOM     49  C   UNL A   1      44.216  30.675  34.617  1.00  0.00     0.029 A 
ATOM     50  N   UNL A   1      43.676  29.415  32.865  1.00  0.00    -0.354 N 
ATOM     51  N   UNL A   1      44.049  27.218  30.960  1.00  0.00    -0.248 NA
ATOM     52  C   UNL A   1      45.382  25.531  30.039  1.00  0.00     0.031 C 
ATOM     53  C   UNL A   1      45.265  29.783  34.372  1.00  0.00     0.029 A 
ATOM     54  C   UNL A   1      44.922  28.988  33.290  1.00  0.00     0.049 A 
ATOM     55  H   UNL A   1      43.174  29.032  32.110  1.00  0.00     0.167 HD
ATOM     56  C   UNL A   1      45.255  27.160  31.649  1.00  0.00     0.074 A 
ATOM     57  C   UNL A   1      46.028  26.088  31.055  1.00  0.00     0.031 C 
ATOM     58  C   UNL A   1      45.682  27.928  32.682  1.00  0.00     0.031 A 
BRANCH  45  59
ATOM     59  C   UNL A   1      41.714  32.356  34.359  1.00  0.00    -0.014 A 
ATOM     60  C   UNL A   1      41.051  32.199  35.589  1.00  0.00     0.010 A 
ATOM     61  C   UNL A   1      42.142  33.637  33.967  1.00  0.00     0.010 A 
ATOM     62  C   UNL A   1      40.782  33.310  36.393  1.00  0.00     0.020 A 
ATOM     63  C   UNL A   1      41.895  34.748  34.779  1.00  0.00     0.020 A 
ATOM     64  C   UNL A   1      41.199  34.579  35.979  1.00  0.00     0.054 A 
BRANCH  64  65
ATOM     65  S   UNL A   1      40.845  36.004  37.043  1.00  0.00     0.124 S 
ATOM     66  O   UNL A   1      42.145  36.667  37.097  1.00  0.00    -0.237 OA
ATOM     67  O   UNL A   1      39.809  36.714  36.296  1.00  0.00    -0.237 OA
ATOM     68  O   UNL A   1      40.400  35.399  38.296  1.00  0.00    -0.744 OA
ENDBRANCH  64  65
ENDBRANCH  45  59
BRANCH  46  69
ATOM     69  C   UNL A   1      43.358  24.798  28.048  1.00  0.00    -0.014 A 
ATOM     70  C   UNL A   1      44.028  25.069  26.843  1.00  0.00     0.010 A 
ATOM     71  C   UNL A   1      42.966  23.477  28.335  1.00  0.00     0.010 A 
ATOM     72  C   UNL A   1      44.298  24.039  25.938  1.00  0.00     0.020 A 
ATOM     73  C   UNL A   1      43.254  22.443  27.441  1.00  0.00     0.020 A 
ATOM     74  C   UNL A   1      43.910  22.731  26.244  1.00  0.00     0.054 A 
BRANCH  74  75
ATOM     75  S   UNL A   1      44.330  21.398  25.087  1.00  0.00     0.124 S 
ATOM     76  O   UNL A   1      45.666  21.017  25.536  1.00  0.00    -0.237 OA
ATOM     77  O   UNL A   1      43.277  20.417  25.334  1.00  0.00    -0.237 OA
ATOM     78  O   UNL A   1      44.269  22.050  23.781  1.00  0.00    -0.744 OA
ENDBRANCH  74  75
ENDBRANCH  46  69
BRANCH  58  79
ATOM     79  C   UNL A   1      47.046  27.634  33.242  1.00  0.00    -0.014 A 
ATOM     80  C   UNL A   1      47.218  26.675  34.254  1.00  0.00     0.010 A 
ATOM     81  C   UNL A   1      48.176  28.276  32.702  1.00  0.00     0.010 A 
ATOM     82  C   UNL A   1      48.496  26.370  34.728  1.00  0.00     0.020 A 
ATOM     83  C   UNL A   1      49.457  27.959  33.158  1.00  0.00     0.020 A 
ATOM     84  C   UNL A   1      49.608  27.013  34.176  1.00  0.00     0.054 A 
BRANCH  84  85
ATOM     85  S   UNL A   1      51.264  26.554  34.759  1.00  0.00     0.124 S 
ATOM     86  O   UNL A   1      51.298  27.167  36.085  1.00  0.00    -0.237 OA
ATOM     87  O   UNL A   1      51.219  25.094  34.743  1.00  0.00    -0.237 OA
ATOM     88  O   UNL A   1      52.157  27.154  33.771  1.00  0.00    -0.744 OA
ENDBRANCH  84  85
ENDBRANCH  58  79
ENDBRANCH  32  33
ENDBRANCH  24  27
ENDBRANCH  22  23
ENDBRANCH   1  22
TORSDOF 15
ENDMDL
MODEL 3
REMARK VINA RESULT:     -10.6      4.463     10.429
REMARK SMILES Cc1cc(-c2cncc(C(=O)NCCCCNC(=O)c3ccc(-c4c5nc(c(-c6ccc(S(=O)(=O)[O-])cc6)c6ccc([nH]6)c(-c6ccc(S(=O)(=O)[O-])cc6)c6nc(c(-c7ccc(S(=O)(=O)[O-])cc7)c7ccc4[nH]7)C=C6)C=C5)cc3)c2)ccc1F
REMARK SMILES IDX 15 1 14 2 13 3 12 4 10 5 11 6 9 8 5 9 6 10 80 11 7 12 8 13
REMARK SMILES IDX 4 14 1 15 2 16 3 17 83 18 82 19 84 20 81 21 16 22 17 23
REMARK SMILES IDX 18 24 19 26 20 27 21 28 79 29 22 30 78 31 23 32 24 33 25 34
REMARK SMILES IDX 72 35 26 36 77 37 71 38 73 39 27 40 76 41 70 42 69 43 28 45
REMARK SMILES IDX 58 46 39 47 57 48 40 49 43 50 56 51 74 52 41 53 42 54 55 56
REMARK SMILES IDX 75 57 44 58 29 59 30 60 38 61 31 62 37 63 32 64 33 65 34 66
REMARK SMILES IDX 35 67 36 68 59 69 60 70 68 71 61 72 67 73 62 74 63 75 64 76
REMARK SMILES IDX 65 77 66 78 45 79 46 80 54 81 47 82 53 83 48 84 49 85 50 86
REMARK SMILES IDX 51 87 52 88
REMARK H PARENT 12 7 17 25 73 44 43 55
REMARK Flexibility Score: inf
ROOT
ATOM      1  C   UNL A   1      37.648  23.066  25.720  1.00  0.00     0.023 C 
ENDROOT
BRANCH   1   2
ATOM      2  C   UNL A   1      36.278  23.574  25.262  1.00  0.00     0.023 C 
BRANCH   2   3
ATOM      3  C   UNL A   1      35.839  23.051  23.892  1.00  0.00     0.116 C 
BRANCH   3   4
ATOM      4  N   UNL A   1      34.430  22.701  23.892  1.00  0.00    -0.352 N 
ATOM      5  C   UNL A   1      33.293  23.429  23.640  1.00  0.00     0.252 C 
ATOM      6  O   UNL A   1      32.218  22.831  23.644  1.00  0.00    -0.269 OA
ATOM      7  H   UNL A   1      34.255  21.759  24.116  1.00  0.00     0.163 HD
BRANCH   5   8
ATOM      8  C   UNL A   1      33.294  24.878  23.320  1.00  0.00     0.058 A 
ATOM      9  C   UNL A   1      33.215  27.253  23.839  1.00  0.00     0.001 A 
ATOM     10  C   UNL A   1      33.409  27.499  22.483  1.00  0.00     0.119 A 
ATOM     11  C   UNL A   1      33.112  25.912  24.235  1.00  0.00     0.025 A 
ATOM     12  N   UNL A   1      33.526  26.531  21.547  1.00  0.00    -0.263 NA
ATOM     13  C   UNL A   1      33.474  25.246  21.990  1.00  0.00     0.124 A 
BRANCH   9  14
ATOM     14  C   UNL A   1      33.202  28.321  24.839  1.00  0.00    -0.016 A 
ATOM     15  C   UNL A   1      35.309  29.391  27.848  1.00  0.00     0.047 C 
ATOM     16  C   UNL A   1      34.228  29.351  26.811  1.00  0.00    -0.015 A 
ATOM     17  C   UNL A   1      34.219  28.369  25.813  1.00  0.00     0.015 A 
ATOM     18  C   UNL A   1      33.201  30.293  26.823  1.00  0.00     0.126 A 
ATOM     19  C   UNL A   1      32.187  30.269  25.870  1.00  0.00     0.040 A 
ATOM     20  F   UNL A   1      33.181  31.245  27.768  1.00  0.00    -0.207 F 
ATOM     21  C   UNL A   1      32.187  29.286  24.878  1.00  0.00     0.012 A 
ENDBRANCH   9  14
ENDBRANCH   5   8
ENDBRANCH   3   4
ENDBRANCH   2   3
ENDBRANCH   1   2
BRANCH   1  22
ATOM     22  C   UNL A   1      38.546  24.117  26.368  1.00  0.00     0.116 C 
BRANCH  22  23
ATOM     23  N   UNL A   1      39.966  23.875  26.157  1.00  0.00    -0.352 N 
ATOM     24  C   UNL A   1      41.035  24.608  26.620  1.00  0.00     0.251 C 
ATOM     25  H   UNL A   1      40.191  23.086  25.612  1.00  0.00     0.163 HD
ATOM     26  O   UNL A   1      42.176  24.325  26.284  1.00  0.00    -0.269 OA
BRANCH  24  27
ATOM     27  C   UNL A   1      40.774  25.773  27.490  1.00  0.00     0.039 A 
ATOM     28  C   UNL A   1      39.823  25.654  28.506  1.00  0.00     0.014 A 
ATOM     29  C   UNL A   1      41.521  26.945  27.347  1.00  0.00     0.014 A 
ATOM     30  C   UNL A   1      39.684  26.681  29.441  1.00  0.00     0.010 A 
ATOM     31  C   UNL A   1      41.417  27.945  28.309  1.00  0.00     0.010 A 
ATOM     32  C   UNL A   1      40.516  27.811  29.377  1.00  0.00    -0.014 A 
BRANCH  32  33
ATOM     33  C   UNL A   1      40.514  28.833  30.453  1.00  0.00     0.031 A 
ATOM     34  C   UNL A   1      41.422  28.687  31.640  1.00  0.00     0.074 A 
ATOM     35  C   UNL A   1      39.615  29.836  30.406  1.00  0.00     0.049 A 
ATOM     36  N   UNL A   1      41.478  29.416  32.724  1.00  0.00    -0.248 NA
ATOM     37  C   UNL A   1      42.374  27.566  31.614  1.00  0.00     0.031 C 
ATOM     38  C   UNL A   1      38.649  30.059  29.326  1.00  0.00     0.029 A 
ATOM     39  N   UNL A   1      39.350  30.844  31.299  1.00  0.00    -0.354 N 
ATOM     40  C   UNL A   1      42.456  28.832  33.521  1.00  0.00     0.074 A 
ATOM     41  C   UNL A   1      42.945  27.672  32.806  1.00  0.00     0.031 C 
ATOM     42  C   UNL A   1      37.906  31.138  29.615  1.00  0.00     0.029 A 
ATOM     43  C   UNL A   1      38.312  31.660  30.916  1.00  0.00     0.049 A 
ATOM     44  H   UNL A   1      39.857  30.970  32.134  1.00  0.00     0.167 HD
ATOM     45  C   UNL A   1      42.913  29.234  34.730  1.00  0.00     0.031 A 
ATOM     46  C   UNL A   1      37.737  32.701  31.549  1.00  0.00     0.031 A 
ATOM     47  C   UNL A   1      42.432  30.393  35.433  1.00  0.00     0.049 A 
ATOM     48  C   UNL A   1      38.249  33.117  32.898  1.00  0.00     0.074 A 
ATOM     49  C   UNL A   1      42.882  30.920  36.631  1.00  0.00     0.029 A 
ATOM     50  N   UNL A   1      41.387  31.199  35.008  1.00  0.00    -0.354 N 
ATOM     51  N   UNL A   1      39.224  32.594  33.603  1.00  0.00    -0.248 NA
ATOM     52  C   UNL A   1      37.585  34.261  33.538  1.00  0.00     0.031 C 
ATOM     53  C   UNL A   1      42.079  32.020  36.952  1.00  0.00     0.029 A 
ATOM     54  C   UNL A   1      41.158  32.203  35.933  1.00  0.00     0.049 A 
ATOM     55  H   UNL A   1      40.883  31.076  34.172  1.00  0.00     0.167 HD
ATOM     56  C   UNL A   1      39.299  33.353  34.764  1.00  0.00     0.074 A 
ATOM     57  C   UNL A   1      38.281  34.380  34.661  1.00  0.00     0.031 C 
ATOM     58  C   UNL A   1      40.136  33.211  35.821  1.00  0.00     0.031 A 
BRANCH  45  59
ATOM     59  C   UNL A   1      43.986  28.400  35.376  1.00  0.00    -0.014 A 
ATOM     60  C   UNL A   1      45.347  28.668  35.143  1.00  0.00     0.010 A 
ATOM     61  C   UNL A   1      43.631  27.356  36.248  1.00  0.00     0.010 A 
ATOM     62  C   UNL A   1      46.334  27.878  35.738  1.00  0.00     0.020 A 
ATOM     63  C   UNL A   1      44.616  26.578  36.864  1.00  0.00     0.020 A 
ATOM     64  C   UNL A   1      45.961  26.833  36.589  1.00  0.00     0.054 A 
BRANCH  64  65
ATOM     65  S   UNL A   1      47.261  25.828  37.357  1.00  0.00     0.124 S 
ATOM     66  O   UNL A   1      47.049  24.529  36.722  1.00  0.00    -0.237 OA
ATOM     67  O   UNL A   1      48.483  26.526  36.962  1.00  0.00    -0.237 OA
ATOM     68  O   UNL A   1      46.947  25.886  38.782  1.00  0.00    -0.744 OA
ENDBRANCH  64  65
ENDBRANCH  45  59
BRANCH  46  69
ATOM     69  C   UNL A   1      36.603  33.418  30.907  1.00  0.00    -0.014 A 
ATOM     70  C   UNL A   1      36.801  34.134  29.714  1.00  0.00     0.010 A 
ATOM     71  C   UNL A   1      35.315  33.364  31.472  1.00  0.00     0.010 A 
ATOM     72  C   UNL A   1      35.731  34.791  29.099  1.00  0.00     0.020 A 
ATOM     73  C   UNL A   1      34.240  34.002  30.847  1.00  0.00     0.020 A 
ATOM     74  C   UNL A   1      34.456  34.718  29.669  1.00  0.00     0.054 A 
BRANCH  74  75
ATOM     75  S   UNL A   1      33.068  35.520  28.818  1.00  0.00     0.124 S 
ATOM     76  O   UNL A   1      32.466  34.400  28.101  1.00  0.00    -0.237 OA
ATOM     77  O   UNL A   1      32.282  36.057  29.926  1.00  0.00    -0.237 OA
ATOM     78  O   UNL A   1      33.718  36.525  27.981  1.00  0.00    -0.744 OA
ENDBRANCH  74  75
ENDBRANCH  46  69
BRANCH  58  79
ATOM     79  C   UNL A   1      39.994  34.192  36.951  1.00  0.00    -0.014 A 
ATOM     80  C   UNL A   1      40.659  35.430  36.918  1.00  0.00     0.010 A 
ATOM     81  C   UNL A   1      39.131  33.902  38.024  1.00  0.00     0.010 A 
ATOM     82  C   UNL A   1      40.475  36.357  37.947  1.00  0.00     0.020 A 
ATOM     83  C   UNL A   1      38.929  34.835  39.044  1.00  0.00     0.020 A 
ATOM     84  C   UNL A   1      39.610  36.054  39.003  1.00  0.00     0.054 A 
BRANCH  84  85
ATOM     85  S   UNL A   1      39.335  37.299  40.293  1.00  0.00     0.124 S 
ATOM     86  O   UNL A   1      38.484  38.266  39.604  1.00  0.00    -0.237 OA
ATOM     87  O   UNL A   1      38.684  36.530  41.351  1.00  0.00    -0.237 OA
ATOM     88  O   UNL A   1      40.681  37.768  40.612  1.00  0.00    -0.744 OA
ENDBRANCH  84  85
ENDBRANCH  58  79
ENDBRANCH  32  33
ENDBRANCH  24  27
ENDBRANCH  22  23
ENDBRANCH   1  22
TORSDOF 15
ENDMDL
