MODEL 1
REMARK VINA RESULT:     -11.0      0.000      0.000
REMARK SMILES O=C(NCCCCNC(=O)c1ccccc1[C@@H]1SCC(=O)N1NC(=S)Nc1ccccc1)c1ccc(-c2c3nc(c(-c4ccc(S(=O)(=O)[O-])cc4)c4ccc([nH]4)c(-c4ccc(S(=O)(=O)[O-])cc4)c4nc(c(-c5ccc(S(=O)(=O)[O-])cc5)c5ccc2[nH]5)C=C4)C=C3)cc1
REMARK SMILES IDX 6 1 5 2 4 3 3 4 1 5 2 6 33 8 34 9 92 10 35 11 91 12 36 13
REMARK SMILES IDX 37 14 38 15 85 16 39 17 90 18 84 19 86 20 40 21 89 22 83 23
REMARK SMILES IDX 82 24 41 26 71 27 52 28 70 29 53 30 56 31 69 32 87 33 54 34
REMARK SMILES IDX 55 35 68 37 88 38 57 39 42 40 43 41 51 42 44 43 50 44 45 45
REMARK SMILES IDX 46 46 47 47 48 48 49 49 72 50 73 51 81 52 74 53 80 54 75 55
REMARK SMILES IDX 76 56 77 57 78 58 79 59 58 60 59 61 67 62 60 63 66 64 61 65
REMARK SMILES IDX 62 66 63 67 64 68 65 69 7 70 8 71 9 72 10 74 11 75 12 76
REMARK SMILES IDX 16 77 13 78 15 79 14 80 17 81 18 82 22 83 19 84 20 85 21 86
REMARK SMILES IDX 23 87 24 89 25 90 26 91 27 93 28 94 32 95 29 96 31 97 30 98
REMARK H PARENT 3 7 86 25 56 36 8 73 23 88 26 92
REMARK Flexibility Score: inf
ROOT
ATOM      1  C   UNL A   1      37.318  20.459  25.016  1.00  0.00     0.023 C 
ENDROOT
BRANCH   1   2
ATOM      2  C   UNL A   1      38.422  21.475  25.358  1.00  0.00     0.023 C 
BRANCH   2   3
ATOM      3  C   UNL A   1      39.542  21.159  26.378  1.00  0.00     0.116 C 
BRANCH   3   4
ATOM      4  N   UNL A   1      40.250  19.889  26.325  1.00  0.00    -0.352 N 
ATOM      5  O   UNL A   1      42.096  18.653  25.837  1.00  0.00    -0.269 OA
ATOM      6  C   UNL A   1      41.629  19.738  26.170  1.00  0.00     0.251 C 
ATOM      7  H   UNL A   1      39.713  19.068  26.405  1.00  0.00     0.163 HD
BRANCH   6   8
ATOM      8  C   UNL A   1      42.536  20.892  26.401  1.00  0.00     0.039 A 
ATOM      9  C   UNL A   1      42.682  21.408  27.683  1.00  0.00     0.014 A 
ATOM     10  C   UNL A   1      43.238  21.483  25.353  1.00  0.00     0.014 A 
ATOM     11  C   UNL A   1      43.335  22.612  27.911  1.00  0.00     0.010 A 
ATOM     12  C   UNL A   1      43.959  22.667  25.586  1.00  0.00     0.010 A 
ATOM     13  C   UNL A   1      43.950  23.281  26.853  1.00  0.00    -0.014 A 
BRANCH  13  14
ATOM     14  C   UNL A   1      44.456  24.666  27.059  1.00  0.00     0.031 A 
ATOM     15  C   UNL A   1      43.500  25.738  27.520  1.00  0.00     0.074 A 
ATOM     16  C   UNL A   1      45.765  24.960  26.918  1.00  0.00     0.049 A 
ATOM     17  N   UNL A   1      43.703  27.022  27.671  1.00  0.00    -0.248 NA
ATOM     18  C   UNL A   1      42.131  25.308  27.852  1.00  0.00     0.031 C 
ATOM     19  C   UNL A   1      46.816  24.006  26.556  1.00  0.00     0.029 A 
ATOM     20  N   UNL A   1      46.436  26.148  27.075  1.00  0.00    -0.354 N 
ATOM     21  C   UNL A   1      42.480  27.557  28.060  1.00  0.00     0.074 A 
ATOM     22  C   UNL A   1      41.538  26.462  28.118  1.00  0.00     0.031 C 
ATOM     23  C   UNL A   1      47.998  24.643  26.537  1.00  0.00     0.029 A 
ATOM     24  C   UNL A   1      47.784  26.059  26.818  1.00  0.00     0.049 A 
ATOM     25  H   UNL A   1      45.992  26.985  27.345  1.00  0.00     0.167 HD
ATOM     26  C   UNL A   1      42.167  28.845  28.342  1.00  0.00     0.031 A 
ATOM     27  C   UNL A   1      48.735  27.013  26.777  1.00  0.00     0.031 A 
ATOM     28  C   UNL A   1      43.112  29.929  28.319  1.00  0.00     0.049 A 
ATOM     29  C   UNL A   1      48.358  28.443  27.050  1.00  0.00     0.074 A 
ATOM     30  C   UNL A   1      42.893  31.268  28.596  1.00  0.00     0.029 A 
ATOM     31  N   UNL A   1      44.458  29.798  28.014  1.00  0.00    -0.354 N 
ATOM     32  N   UNL A   1      47.186  28.937  27.369  1.00  0.00    -0.248 NA
ATOM     33  C   UNL A   1      49.430  29.443  26.950  1.00  0.00     0.031 C 
ATOM     34  C   UNL A   1      44.099  31.954  28.417  1.00  0.00     0.029 A 
ATOM     35  C   UNL A   1      45.079  31.034  28.080  1.00  0.00     0.049 A 
ATOM     36  H   UNL A   1      44.905  28.953  27.784  1.00  0.00     0.167 HD
ATOM     37  C   UNL A   1      47.382  30.305  27.521  1.00  0.00     0.074 A 
ATOM     38  C   UNL A   1      48.788  30.556  27.276  1.00  0.00     0.031 C 
ATOM     39  C   UNL A   1      46.478  31.267  27.831  1.00  0.00     0.031 A 
BRANCH  26  40
ATOM     40  C   UNL A   1      40.729  29.159  28.656  1.00  0.00    -0.014 A 
ATOM     41  C   UNL A   1      39.775  29.339  27.639  1.00  0.00     0.010 A 
ATOM     42  C   UNL A   1      40.320  29.239  30.001  1.00  0.00     0.010 A 
ATOM     43  C   UNL A   1      38.446  29.633  27.961  1.00  0.00     0.020 A 
ATOM     44  C   UNL A   1      38.988  29.508  30.327  1.00  0.00     0.020 A 
ATOM     45  C   UNL A   1      38.063  29.720  29.303  1.00  0.00     0.054 A 
BRANCH  45  46
ATOM     46  S   UNL A   1      36.329  30.086  29.695  1.00  0.00     0.124 S 
ATOM     47  O   UNL A   1      36.165  29.415  30.982  1.00  0.00    -0.237 OA
ATOM     48  O   UNL A   1      36.311  31.546  29.742  1.00  0.00    -0.237 OA
ATOM     49  O   UNL A   1      35.590  29.492  28.584  1.00  0.00    -0.744 OA
ENDBRANCH  45  46
ENDBRANCH  26  40
BRANCH  27  50
ATOM     50  C   UNL A   1      50.133  26.646  26.418  1.00  0.00    -0.014 A 
ATOM     51  C   UNL A   1      51.043  26.229  27.403  1.00  0.00     0.010 A 
ATOM     52  C   UNL A   1      50.551  26.689  25.074  1.00  0.00     0.010 A 
ATOM     53  C   UNL A   1      52.347  25.862  27.054  1.00  0.00     0.020 A 
ATOM     54  C   UNL A   1      51.845  26.298  24.717  1.00  0.00     0.020 A 
ATOM     55  C   UNL A   1      52.737  25.894  25.711  1.00  0.00     0.054 A 
BRANCH  55  56
ATOM     56  S   UNL A   1      54.406  25.338  25.267  1.00  0.00     0.124 S 
ATOM     57  O   UNL A   1      55.170  25.688  26.460  1.00  0.00    -0.237 OA
ATOM     58  O   UNL A   1      54.215  23.908  25.034  1.00  0.00    -0.237 OA
ATOM     59  O   UNL A   1      54.717  26.118  24.070  1.00  0.00    -0.744 OA
ENDBRANCH  55  56
ENDBRANCH  27  50
BRANCH  39  60
ATOM     60  C   UNL A   1      46.986  32.677  27.955  1.00  0.00    -0.014 A 
ATOM     61  C   UNL A   1      47.480  33.165  29.178  1.00  0.00     0.010 A 
ATOM     62  C   UNL A   1      47.014  33.507  26.821  1.00  0.00     0.010 A 
ATOM     63  C   UNL A   1      47.965  34.473  29.270  1.00  0.00     0.020 A 
ATOM     64  C   UNL A   1      47.519  34.807  26.904  1.00  0.00     0.020 A 
ATOM     65  C   UNL A   1      47.979  35.286  28.132  1.00  0.00     0.054 A 
BRANCH  65  66
ATOM     66  S   UNL A   1      48.646  36.968  28.266  1.00  0.00     0.124 S 
ATOM     67  O   UNL A   1      50.047  36.713  28.591  1.00  0.00    -0.237 OA
ATOM     68  O   UNL A   1      48.397  37.520  26.937  1.00  0.00    -0.237 OA
ATOM     69  O   UNL A   1      47.856  37.568  29.340  1.00  0.00    -0.744 OA
ENDBRANCH  65  66
ENDBRANCH  39  60
ENDBRANCH  13  14
ENDBRANCH   6   8
ENDBRANCH   3   4
ENDBRANCH   2   3
ENDBRANCH   1   2
BRANCH   1  70
ATOM     70  C   UNL A   1      35.969  21.080  24.610  1.00  0.00     0.116 C 
BRANCH  70  71
ATOM     71  N   UNL A   1      35.961  22.502  24.296  1.00  0.00    -0.352 N 
ATOM     72  C   UNL A   1      35.607  23.535  25.148  1.00  0.00     0.251 C 
ATOM     73  H   UNL A   1      36.236  22.754  23.384  1.00  0.00     0.163 HD
ATOM     74  O   UNL A   1      36.083  24.659  25.005  1.00  0.00    -0.269 OA
BRANCH  72  75
ATOM     75  C   UNL A   1      34.542  23.375  26.167  1.00  0.00     0.046 A 
ATOM     76  C   UNL A   1      34.752  22.251  26.989  1.00  0.00     0.014 A 
ATOM     77  C   UNL A   1      33.298  24.062  26.203  1.00  0.00    -0.001 A 
ATOM     78  C   UNL A   1      33.763  21.806  27.862  1.00  0.00     0.001 A 
ATOM     79  C   UNL A   1      32.324  23.591  27.118  1.00  0.00     0.007 A 
ATOM     80  C   UNL A   1      32.552  22.481  27.931  1.00  0.00     0.000 A 
BRANCH  77  81
ATOM     81  C   UNL A   1      32.872  25.258  25.347  1.00  0.00     0.197 C 
ATOM     82  S   UNL A   1      32.994  26.833  26.213  1.00  0.00    -0.120 SA
ATOM     83  N   UNL A   1      31.535  25.163  24.813  1.00  0.00    -0.236 N 
ATOM     84  C   UNL A   1      31.212  27.123  26.107  1.00  0.00     0.174 C 
ATOM     85  C   UNL A   1      30.608  25.819  25.627  1.00  0.00     0.252 C 
ATOM     86  O   UNL A   1      29.498  25.441  25.963  1.00  0.00    -0.272 OA
BRANCH  83  87
ATOM     87  N   UNL A   1      31.352  24.091  23.909  1.00  0.00    -0.270 N 
ATOM     88  H   UNL A   1      30.650  23.457  24.180  1.00  0.00     0.191 HD
BRANCH  87  89
ATOM     89  C   UNL A   1      31.958  23.769  22.741  1.00  0.00     0.189 C 
ATOM     90  S   UNL A   1      32.898  24.975  22.042  1.00  0.00    -0.039 S 
BRANCH  89  91
ATOM     91  N   UNL A   1      32.001  22.531  22.226  1.00  0.00    -0.331 N 
ATOM     92  H   UNL A   1      31.931  22.492  21.244  1.00  0.00     0.169 HD
BRANCH  91  93
ATOM     93  C   UNL A   1      32.130  21.292  22.850  1.00  0.00     0.040 A 
ATOM     94  C   UNL A   1      32.354  21.283  24.228  1.00  0.00     0.026 A 
ATOM     95  C   UNL A   1      32.078  20.098  22.147  1.00  0.00     0.026 A 
ATOM     96  C   UNL A   1      32.497  20.089  24.924  1.00  0.00     0.002 A 
ATOM     97  C   UNL A   1      32.278  18.899  22.834  1.00  0.00     0.002 A 
ATOM     98  C   UNL A   1      32.476  18.894  24.220  1.00  0.00     0.000 A 
ENDBRANCH  91  93
ENDBRANCH  89  91
ENDBRANCH  87  89
ENDBRANCH  83  87
ENDBRANCH  77  81
ENDBRANCH  72  75
ENDBRANCH  70  71
ENDBRANCH   1  70
TORSDOF 19
ENDMDL
MODEL 2
REMARK VINA RESULT:     -10.9      6.514     11.613
REMARK SMILES O=C(NCCCCNC(=O)c1ccccc1[C@@H]1SCC(=O)N1NC(=S)Nc1ccccc1)c1ccc(-c2c3nc(c(-c4ccc(S(=O)(=O)[O-])cc4)c4ccc([nH]4)c(-c4ccc(S(=O)(=O)[O-])cc4)c4nc(c(-c5ccc(S(=O)(=O)[O-])cc5)c5ccc2[nH]5)C=C4)C=C3)cc1
REMARK SMILES IDX 6 1 5 2 4 3 3 4 1 5 2 6 33 8 34 9 92 10 35 11 91 12 36 13
REMARK SMILES IDX 37 14 38 15 85 16 39 17 90 18 84 19 86 20 40 21 89 22 83 23
REMARK SMILES IDX 82 24 41 26 71 27 52 28 70 29 53 30 56 31 69 32 87 33 54 34
REMARK SMILES IDX 55 35 68 37 88 38 57 39 42 40 43 41 51 42 44 43 50 44 45 45
REMARK SMILES IDX 46 46 47 47 48 48 49 49 72 50 73 51 81 52 74 53 80 54 75 55
REMARK SMILES IDX 76 56 77 57 78 58 79 59 58 60 59 61 67 62 60 63 66 64 61 65
REMARK SMILES IDX 62 66 63 67 64 68 65 69 7 70 8 71 9 72 10 74 11 75 12 76
REMARK SMILES IDX 16 77 13 78 15 79 14 80 17 81 18 82 22 83 19 84 20 85 21 86
REMARK SMILES IDX 23 87 24 89 25 90 26 91 27 93 28 94 32 95 29 96 31 97 30 98
REMARK H PARENT 3 7 86 25 56 36 8 73 23 88 26 92
REMARK Flexibility Score: inf
ROOT
ATOM      1  C   UNL A   1      39.718  21.736  26.448  1.00  0.00     0.023 C 
ENDROOT
BRANCH   1   2
ATOM      2  C   UNL A   1      40.351  22.630  27.529  1.00  0.00     0.023 C 
BRANCH   2   3
ATOM      3  C   UNL A   1      40.215  24.171  27.503  1.00  0.00     0.116 C 
BRANCH   3   4
ATOM      4  N   UNL A   1      40.855  24.950  26.454  1.00  0.00    -0.352 N 
ATOM      5  O   UNL A   1      41.127  26.884  25.289  1.00  0.00    -0.269 OA
ATOM      6  C   UNL A   1      40.826  26.341  26.348  1.00  0.00     0.251 C 
ATOM      7  H   UNL A   1      41.350  24.455  25.762  1.00  0.00     0.163 HD
BRANCH   6   8
ATOM      8  C   UNL A   1      40.424  27.170  27.514  1.00  0.00     0.039 A 
ATOM      9  C   UNL A   1      40.654  28.541  27.496  1.00  0.00     0.014 A 
ATOM     10  C   UNL A   1      39.834  26.601  28.639  1.00  0.00     0.014 A 
ATOM     11  C   UNL A   1      40.506  29.317  28.638  1.00  0.00     0.010 A 
ATOM     12  C   UNL A   1      39.615  27.392  29.779  1.00  0.00     0.010 A 
ATOM     13  C   UNL A   1      40.021  28.741  29.811  1.00  0.00    -0.014 A 
BRANCH  13  14
ATOM     14  C   UNL A   1      40.069  29.517  31.081  1.00  0.00     0.031 A 
ATOM     15  C   UNL A   1      41.235  29.324  32.018  1.00  0.00     0.074 A 
ATOM     16  C   UNL A   1      39.133  30.445  31.369  1.00  0.00     0.049 A 
ATOM     17  N   UNL A   1      41.430  29.821  33.213  1.00  0.00    -0.248 NA
ATOM     18  C   UNL A   1      42.324  28.449  31.552  1.00  0.00     0.031 C 
ATOM     19  C   UNL A   1      37.994  30.796  30.517  1.00  0.00     0.029 A 
ATOM     20  N   UNL A   1      39.000  31.272  32.457  1.00  0.00    -0.354 N 
ATOM     21  C   UNL A   1      42.631  29.280  33.658  1.00  0.00     0.074 A 
ATOM     22  C   UNL A   1      43.119  28.411  32.610  1.00  0.00     0.031 C 
ATOM     23  C   UNL A   1      37.291  31.777  31.107  1.00  0.00     0.029 A 
ATOM     24  C   UNL A   1      37.887  32.078  32.405  1.00  0.00     0.049 A 
ATOM     25  H   UNL A   1      39.640  31.285  33.205  1.00  0.00     0.167 HD
ATOM     26  C   UNL A   1      43.272  29.485  34.835  1.00  0.00     0.031 A 
ATOM     27  C   UNL A   1      37.381  32.937  33.312  1.00  0.00     0.031 A 
ATOM     28  C   UNL A   1      42.806  30.376  35.863  1.00  0.00     0.049 A 
ATOM     29  C   UNL A   1      38.084  33.117  34.629  1.00  0.00     0.074 A 
ATOM     30  C   UNL A   1      43.388  30.656  37.087  1.00  0.00     0.029 A 
ATOM     31  N   UNL A   1      41.654  31.141  35.782  1.00  0.00    -0.354 N 
ATOM     32  N   UNL A   1      39.192  32.559  35.052  1.00  0.00    -0.248 NA
ATOM     33  C   UNL A   1      37.462  34.035  35.594  1.00  0.00     0.031 C 
ATOM     34  C   UNL A   1      42.564  31.560  37.766  1.00  0.00     0.029 A 
ATOM     35  C   UNL A   1      41.497  31.881  36.942  1.00  0.00     0.049 A 
ATOM     36  H   UNL A   1      41.037  31.156  35.016  1.00  0.00     0.167 HD
ATOM     37  C   UNL A   1      39.409  33.069  36.328  1.00  0.00     0.074 A 
ATOM     38  C   UNL A   1      38.326  33.993  36.599  1.00  0.00     0.031 C 
ATOM     39  C   UNL A   1      40.413  32.794  37.197  1.00  0.00     0.031 A 
BRANCH  26  40
ATOM     40  C   UNL A   1      44.527  28.693  35.091  1.00  0.00    -0.014 A 
ATOM     41  C   UNL A   1      44.495  27.464  35.773  1.00  0.00     0.010 A 
ATOM     42  C   UNL A   1      45.757  29.176  34.606  1.00  0.00     0.010 A 
ATOM     43  C   UNL A   1      45.677  26.752  36.001  1.00  0.00     0.020 A 
ATOM     44  C   UNL A   1      46.936  28.455  34.809  1.00  0.00     0.020 A 
ATOM     45  C   UNL A   1      46.891  27.255  35.520  1.00  0.00     0.054 A 
BRANCH  45  46
ATOM     46  S   UNL A   1      48.408  26.304  35.812  1.00  0.00     0.124 S 
ATOM     47  O   UNL A   1      48.986  27.005  36.956  1.00  0.00    -0.237 OA
ATOM     48  O   UNL A   1      47.900  24.963  36.090  1.00  0.00    -0.237 OA
ATOM     49  O   UNL A   1      49.148  26.439  34.560  1.00  0.00    -0.744 OA
ENDBRANCH  45  46
ENDBRANCH  26  40
BRANCH  27  50
ATOM     50  C   UNL A   1      36.113  33.660  33.017  1.00  0.00    -0.014 A 
ATOM     51  C   UNL A   1      34.868  33.040  33.216  1.00  0.00     0.010 A 
ATOM     52  C   UNL A   1      36.149  34.990  32.558  1.00  0.00     0.010 A 
ATOM     53  C   UNL A   1      33.681  33.736  32.961  1.00  0.00     0.020 A 
ATOM     54  C   UNL A   1      34.966  35.697  32.327  1.00  0.00     0.020 A 
ATOM     55  C   UNL A   1      33.739  35.063  32.523  1.00  0.00     0.054 A 
BRANCH  55  56
ATOM     56  S   UNL A   1      32.190  35.974  32.274  1.00  0.00     0.124 S 
ATOM     57  O   UNL A   1      31.193  35.007  32.721  1.00  0.00    -0.237 OA
ATOM     58  O   UNL A   1      32.367  37.144  33.132  1.00  0.00    -0.237 OA
ATOM     59  O   UNL A   1      32.190  36.260  30.840  1.00  0.00    -0.744 OA
ENDBRANCH  55  56
ENDBRANCH  27  50
BRANCH  39  60
ATOM     60  C   UNL A   1      40.406  33.524  38.512  1.00  0.00    -0.014 A 
ATOM     61  C   UNL A   1      39.779  32.973  39.644  1.00  0.00     0.010 A 
ATOM     62  C   UNL A   1      41.077  34.755  38.627  1.00  0.00     0.010 A 
ATOM     63  C   UNL A   1      39.799  33.658  40.863  1.00  0.00     0.020 A 
ATOM     64  C   UNL A   1      41.117  35.430  39.849  1.00  0.00     0.020 A 
ATOM     65  C   UNL A   1      40.465  34.883  40.955  1.00  0.00     0.054 A 
BRANCH  65  66
ATOM     66  S   UNL A   1      40.508  35.738  42.556  1.00  0.00     0.124 S 
ATOM     67  O   UNL A   1      41.845  36.326  42.550  1.00  0.00    -0.237 OA
ATOM     68  O   UNL A   1      39.402  36.686  42.445  1.00  0.00    -0.237 OA
ATOM     69  O   UNL A   1      40.304  34.664  43.526  1.00  0.00    -0.744 OA
ENDBRANCH  65  66
ENDBRANCH  39  60
ENDBRANCH  13  14
ENDBRANCH   6   8
ENDBRANCH   3   4
ENDBRANCH   2   3
ENDBRANCH   1   2
BRANCH   1  70
ATOM     70  C   UNL A   1      38.209  21.953  26.231  1.00  0.00     0.116 C 
BRANCH  70  71
ATOM     71  N   UNL A   1      37.768  22.236  24.873  1.00  0.00    -0.352 N 
ATOM     72  C   UNL A   1      36.470  22.163  24.395  1.00  0.00     0.251 C 
ATOM     73  H   UNL A   1      38.462  22.507  24.230  1.00  0.00     0.163 HD
ATOM     74  O   UNL A   1      36.107  22.863  23.451  1.00  0.00    -0.269 OA
BRANCH  72  75
ATOM     75  C   UNL A   1      35.510  21.148  24.893  1.00  0.00     0.046 A 
ATOM     76  C   UNL A   1      35.743  19.874  24.339  1.00  0.00     0.014 A 
ATOM     77  C   UNL A   1      34.317  21.401  25.623  1.00  0.00    -0.001 A 
ATOM     78  C   UNL A   1      34.828  18.839  24.512  1.00  0.00     0.001 A 
ATOM     79  C   UNL A   1      33.419  20.318  25.793  1.00  0.00     0.007 A 
ATOM     80  C   UNL A   1      33.670  19.059  25.244  1.00  0.00     0.000 A 
BRANCH  77  81
ATOM     81  C   UNL A   1      33.869  22.728  26.241  1.00  0.00     0.197 C 
ATOM     82  S   UNL A   1      33.122  22.538  27.870  1.00  0.00    -0.120 SA
ATOM     83  N   UNL A   1      32.946  23.483  25.430  1.00  0.00    -0.236 N 
ATOM     84  C   UNL A   1      31.524  23.166  27.301  1.00  0.00     0.174 C 
ATOM     85  C   UNL A   1      31.620  23.232  25.790  1.00  0.00     0.252 C 
ATOM     86  O   UNL A   1      30.661  23.049  25.058  1.00  0.00    -0.272 OA
BRANCH  83  87
ATOM     87  N   UNL A   1      33.487  23.917  24.197  1.00  0.00    -0.270 N 
ATOM     88  H   UNL A   1      33.892  23.196  23.664  1.00  0.00     0.191 HD
BRANCH  87  89
ATOM     89  C   UNL A   1      33.554  25.135  23.609  1.00  0.00     0.189 C 
ATOM     90  S   UNL A   1      32.861  25.255  22.082  1.00  0.00    -0.039 S 
BRANCH  89  91
ATOM     91  N   UNL A   1      33.960  26.254  24.227  1.00  0.00    -0.331 N 
ATOM     92  H   UNL A   1      34.803  26.631  23.884  1.00  0.00     0.169 HD
BRANCH  91  93
ATOM     93  C   UNL A   1      33.386  26.971  25.275  1.00  0.00     0.040 A 
ATOM     94  C   UNL A   1      32.026  26.775  25.523  1.00  0.00     0.026 A 
ATOM     95  C   UNL A   1      34.106  27.881  26.034  1.00  0.00     0.026 A 
ATOM     96  C   UNL A   1      31.378  27.455  26.547  1.00  0.00     0.002 A 
ATOM     97  C   UNL A   1      33.445  28.608  27.026  1.00  0.00     0.002 A 
ATOM     98  C   UNL A   1      32.087  28.388  27.289  1.00  0.00     0.000 A 
ENDBRANCH  91  93
ENDBRANCH  89  91
ENDBRANCH  87  89
ENDBRANCH  83  87
ENDBRANCH  77  81
ENDBRANCH  72  75
ENDBRANCH  70  71
ENDBRANCH   1  70
TORSDOF 19
ENDMDL
MODEL 3
REMARK VINA RESULT:     -10.9      6.589     11.889
REMARK SMILES O=C(NCCCCNC(=O)c1ccccc1[C@@H]1SCC(=O)N1NC(=S)Nc1ccccc1)c1ccc(-c2c3nc(c(-c4ccc(S(=O)(=O)[O-])cc4)c4ccc([nH]4)c(-c4ccc(S(=O)(=O)[O-])cc4)c4nc(c(-c5ccc(S(=O)(=O)[O-])cc5)c5ccc2[nH]5)C=C4)C=C3)cc1
REMARK SMILES IDX 6 1 5 2 4 3 3 4 1 5 2 6 33 8 34 9 92 10 35 11 91 12 36 13
REMARK SMILES IDX 37 14 38 15 85 16 39 17 90 18 84 19 86 20 40 21 89 22 83 23
REMARK SMILES IDX 82 24 41 26 71 27 52 28 70 29 53 30 56 31 69 32 87 33 54 34
REMARK SMILES IDX 55 35 68 37 88 38 57 39 42 40 43 41 51 42 44 43 50 44 45 45
REMARK SMILES IDX 46 46 47 47 48 48 49 49 72 50 73 51 81 52 74 53 80 54 75 55
REMARK SMILES IDX 76 56 77 57 78 58 79 59 58 60 59 61 67 62 60 63 66 64 61 65
REMARK SMILES IDX 62 66 63 67 64 68 65 69 7 70 8 71 9 72 10 74 11 75 12 76
REMARK SMILES IDX 16 77 13 78 15 79 14 80 17 81 18 82 22 83 19 84 20 85 21 86
REMARK SMILES IDX 23 87 24 89 25 90 26 91 27 93 28 94 32 95 29 96 31 97 30 98
REMARK H PARENT 3 7 86 25 56 36 8 73 23 88 26 92
REMARK Flexibility Score: inf
ROOT
ATOM      1  C   UNL A   1      38.596  31.764  36.707  1.00  0.00     0.023 C 
ENDROOT
BRANCH   1   2
ATOM      2  C   UNL A   1      38.263  33.178  37.216  1.00  0.00     0.023 C 
BRANCH   2   3
ATOM      3  C   UNL A   1      39.083  33.861  38.337  1.00  0.00     0.116 C 
BRANCH   3   4
ATOM      4  N   UNL A   1      39.006  35.301  38.532  1.00  0.00    -0.352 N 
ATOM      5  O   UNL A   1      39.905  37.385  38.381  1.00  0.00    -0.269 OA
ATOM      6  C   UNL A   1      39.846  36.243  37.935  1.00  0.00     0.251 C 
ATOM      7  H   UNL A   1      38.305  35.639  39.134  1.00  0.00     0.163 HD
BRANCH   6   8
ATOM      8  C   UNL A   1      40.675  35.866  36.761  1.00  0.00     0.039 A 
ATOM      9  C   UNL A   1      40.067  35.644  35.531  1.00  0.00     0.014 A 
ATOM     10  C   UNL A   1      42.055  35.713  36.867  1.00  0.00     0.014 A 
ATOM     11  C   UNL A   1      40.761  35.076  34.470  1.00  0.00     0.010 A 
ATOM     12  C   UNL A   1      42.780  35.203  35.777  1.00  0.00     0.010 A 
ATOM     13  C   UNL A   1      42.124  34.810  34.594  1.00  0.00    -0.014 A 
BRANCH  13  14
ATOM     14  C   UNL A   1      42.811  34.009  33.544  1.00  0.00     0.031 A 
ATOM     15  C   UNL A   1      43.286  34.696  32.287  1.00  0.00     0.074 A 
ATOM     16  C   UNL A   1      43.087  32.702  33.730  1.00  0.00     0.049 A 
ATOM     17  N   UNL A   1      43.818  34.178  31.210  1.00  0.00    -0.248 NA
ATOM     18  C   UNL A   1      43.137  36.160  32.234  1.00  0.00     0.031 C 
ATOM     19  C   UNL A   1      42.759  31.927  34.929  1.00  0.00     0.029 A 
ATOM     20  N   UNL A   1      43.717  31.796  32.912  1.00  0.00    -0.354 N 
ATOM     21  C   UNL A   1      44.016  35.242  30.335  1.00  0.00     0.074 A 
ATOM     22  C   UNL A   1      43.542  36.433  31.003  1.00  0.00     0.031 C 
ATOM     23  C   UNL A   1      43.208  30.670  34.775  1.00  0.00     0.029 A 
ATOM     24  C   UNL A   1      43.792  30.531  33.445  1.00  0.00     0.049 A 
ATOM     25  H   UNL A   1      44.080  32.032  32.028  1.00  0.00     0.167 HD
ATOM     26  C   UNL A   1      44.543  35.229  29.087  1.00  0.00     0.031 A 
ATOM     27  C   UNL A   1      44.247  29.379  32.912  1.00  0.00     0.031 A 
ATOM     28  C   UNL A   1      45.047  34.050  28.436  1.00  0.00     0.049 A 
ATOM     29  C   UNL A   1      44.787  29.378  31.509  1.00  0.00     0.074 A 
ATOM     30  C   UNL A   1      45.606  33.936  27.174  1.00  0.00     0.029 A 
ATOM     31  N   UNL A   1      45.067  32.783  28.998  1.00  0.00    -0.354 N 
ATOM     32  N   UNL A   1      44.922  30.385  30.679  1.00  0.00    -0.248 NA
ATOM     33  C   UNL A   1      45.230  28.085  30.968  1.00  0.00     0.031 C 
ATOM     34  C   UNL A   1      45.925  32.591  26.957  1.00  0.00     0.029 A 
ATOM     35  C   UNL A   1      45.612  31.878  28.103  1.00  0.00     0.049 A 
ATOM     36  H   UNL A   1      44.740  32.560  29.899  1.00  0.00     0.167 HD
ATOM     37  C   UNL A   1      45.476  29.849  29.522  1.00  0.00     0.074 A 
ATOM     38  C   UNL A   1      45.669  28.434  29.766  1.00  0.00     0.031 C 
ATOM     39  C   UNL A   1      45.794  30.473  28.361  1.00  0.00     0.031 A 
BRANCH  26  40
ATOM     40  C   UNL A   1      44.558  36.527  28.325  1.00  0.00    -0.014 A 
ATOM     41  C   UNL A   1      43.443  36.960  27.586  1.00  0.00     0.010 A 
ATOM     42  C   UNL A   1      45.702  37.345  28.380  1.00  0.00     0.010 A 
ATOM     43  C   UNL A   1      43.487  38.169  26.884  1.00  0.00     0.020 A 
ATOM     44  C   UNL A   1      45.741  38.565  27.701  1.00  0.00     0.020 A 
ATOM     45  C   UNL A   1      44.638  38.961  26.943  1.00  0.00     0.054 A 
BRANCH  45  46
ATOM     46  S   UNL A   1      44.664  40.534  26.039  1.00  0.00     0.124 S 
ATOM     47  O   UNL A   1      43.297  40.609  25.529  1.00  0.00    -0.237 OA
ATOM     48  O   UNL A   1      44.999  41.500  27.082  1.00  0.00    -0.237 OA
ATOM     49  O   UNL A   1      45.697  40.334  25.025  1.00  0.00    -0.744 OA
ENDBRANCH  45  46
ENDBRANCH  26  40
BRANCH  27  50
ATOM     50  C   UNL A   1      44.166  28.118  33.701  1.00  0.00    -0.014 A 
ATOM     51  C   UNL A   1      43.025  27.302  33.639  1.00  0.00     0.010 A 
ATOM     52  C   UNL A   1      45.252  27.717  34.502  1.00  0.00     0.010 A 
ATOM     53  C   UNL A   1      42.968  26.107  34.363  1.00  0.00     0.020 A 
ATOM     54  C   UNL A   1      45.210  26.510  35.207  1.00  0.00     0.020 A 
ATOM     55  C   UNL A   1      44.065  25.716  35.139  1.00  0.00     0.054 A 
BRANCH  55  56
ATOM     56  S   UNL A   1      44.005  24.124  36.007  1.00  0.00     0.124 S 
ATOM     57  O   UNL A   1      43.976  24.542  37.405  1.00  0.00    -0.237 OA
ATOM     58  O   UNL A   1      42.773  23.529  35.497  1.00  0.00    -0.237 OA
ATOM     59  O   UNL A   1      45.233  23.456  35.577  1.00  0.00    -0.744 OA
ENDBRANCH  55  56
ENDBRANCH  27  50
BRANCH  39  60
ATOM     60  C   UNL A   1      46.413  29.636  27.276  1.00  0.00    -0.014 A 
ATOM     61  C   UNL A   1      47.797  29.392  27.248  1.00  0.00     0.010 A 
ATOM     62  C   UNL A   1      45.590  29.048  26.299  1.00  0.00     0.010 A 
ATOM     63  C   UNL A   1      48.351  28.596  26.241  1.00  0.00     0.020 A 
ATOM     64  C   UNL A   1      46.138  28.234  25.304  1.00  0.00     0.020 A 
ATOM     65  C   UNL A   1      47.518  28.025  25.274  1.00  0.00     0.054 A 
BRANCH  65  66
ATOM     66  S   UNL A   1      48.255  26.967  23.997  1.00  0.00     0.124 S 
ATOM     67  O   UNL A   1      47.496  25.729  24.155  1.00  0.00    -0.237 OA
ATOM     68  O   UNL A   1      47.994  27.714  22.770  1.00  0.00    -0.237 OA
ATOM     69  O   UNL A   1      49.662  26.888  24.384  1.00  0.00    -0.744 OA
ENDBRANCH  65  66
ENDBRANCH  39  60
ENDBRANCH  13  14
ENDBRANCH   6   8
ENDBRANCH   3   4
ENDBRANCH   2   3
ENDBRANCH   1   2
BRANCH   1  70
ATOM     70  C   UNL A   1      38.738  31.644  35.178  1.00  0.00     0.116 C 
BRANCH  70  71
ATOM     71  N   UNL A   1      37.526  31.373  34.419  1.00  0.00    -0.352 N 
ATOM     72  C   UNL A   1      37.396  31.378  33.040  1.00  0.00     0.251 C 
ATOM     73  H   UNL A   1      36.715  31.164  34.938  1.00  0.00     0.163 HD
ATOM     74  O   UNL A   1      36.546  30.685  32.485  1.00  0.00    -0.269 OA
BRANCH  72  75
ATOM     75  C   UNL A   1      38.166  32.317  32.187  1.00  0.00     0.046 A 
ATOM     76  C   UNL A   1      39.398  31.775  31.772  1.00  0.00     0.014 A 
ATOM     77  C   UNL A   1      37.891  33.697  31.991  1.00  0.00    -0.001 A 
ATOM     78  C   UNL A   1      40.356  32.569  31.148  1.00  0.00     0.001 A 
ATOM     79  C   UNL A   1      38.883  34.468  31.335  1.00  0.00     0.007 A 
ATOM     80  C   UNL A   1      40.095  33.914  30.923  1.00  0.00     0.000 A 
BRANCH  77  81
ATOM     81  C   UNL A   1      36.641  34.467  32.426  1.00  0.00     0.197 C 
ATOM     82  S   UNL A   1      36.182  34.168  34.142  1.00  0.00    -0.120 SA
ATOM     83  N   UNL A   1      35.474  34.215  31.617  1.00  0.00    -0.236 N 
ATOM     84  C   UNL A   1      34.602  33.421  33.675  1.00  0.00     0.174 C 
ATOM     85  C   UNL A   1      34.668  33.219  32.174  1.00  0.00     0.252 C 
ATOM     86  O   UNL A   1      34.113  32.292  31.607  1.00  0.00    -0.272 OA
BRANCH  83  87
ATOM     87  N   UNL A   1      35.605  34.631  30.272  1.00  0.00    -0.270 N 
ATOM     88  H   UNL A   1      36.291  35.324  30.136  1.00  0.00     0.191 HD
BRANCH  87  89
ATOM     89  C   UNL A   1      34.969  34.260  29.136  1.00  0.00     0.189 C 
ATOM     90  S   UNL A   1      33.464  34.961  28.872  1.00  0.00    -0.039 S 
BRANCH  89  91
ATOM     91  N   UNL A   1      35.531  33.538  28.154  1.00  0.00    -0.331 N 
ATOM     92  H   UNL A   1      35.584  33.998  27.285  1.00  0.00     0.169 HD
BRANCH  91  93
ATOM     93  C   UNL A   1      36.050  32.245  28.162  1.00  0.00     0.040 A 
ATOM     94  C   UNL A   1      35.228  31.216  27.701  1.00  0.00     0.026 A 
ATOM     95  C   UNL A   1      37.320  31.959  28.639  1.00  0.00     0.026 A 
ATOM     96  C   UNL A   1      35.671  29.899  27.680  1.00  0.00     0.002 A 
ATOM     97  C   UNL A   1      37.747  30.630  28.673  1.00  0.00     0.002 A 
ATOM     98  C   UNL A   1      36.929  29.604  28.185  1.00  0.00     0.000 A 
ENDBRANCH  91  93
ENDBRANCH  89  91
ENDBRANCH  87  89
ENDBRANCH  83  87
ENDBRANCH  77  81
ENDBRANCH  72  75
ENDBRANCH  70  71
ENDBRANCH   1  70
TORSDOF 19
ENDMDL
