MODEL 1
REMARK VINA RESULT:     -12.3      0.000      0.000
REMARK SMILES Cc1cc(C(=O)N[C@@H]2C(=O)N3C(C(=O)NCCCCNC(=O)c4ccc(-c5c6nc(c(-c7ccc(S(=O)(=O)[O-])cc7)c7ccc([nH]7)c(-c7ccc(S(=O)(=O)[O-])cc7)c7nc(c(-c8ccc(S(=O)(=O)[O-])cc8)c8ccc5[nH]8)C=C7)C=C6)cc4)=C(CSc4nnc(C)s4)CS[C@H]23)n(C)n1
REMARK SMILES IDX 17 1 16 2 15 3 13 4 14 5 12 7 8 8 9 9 94 10 10 11 11 12
REMARK SMILES IDX 93 13 92 14 83 15 7 16 5 17 6 18 4 20 1 21 2 22 3 23 97 24
REMARK SMILES IDX 95 25 96 26 84 27 85 28 86 29 87 30 91 31 88 32 89 33 90 34
REMARK SMILES IDX 18 35 19 36 20 37 21 38 22 40 23 41 24 42 82 43 25 44 81 45
REMARK SMILES IDX 26 46 27 47 28 48 75 49 29 50 80 51 74 52 76 53 30 54 79 55
REMARK SMILES IDX 73 56 72 57 31 59 61 60 42 61 60 62 43 63 46 64 59 65 77 66
REMARK SMILES IDX 44 67 45 68 58 70 78 71 47 72 32 73 33 74 41 75 34 76 40 77
REMARK SMILES IDX 35 78 36 79 37 80 38 81 39 82 62 83 63 84 71 85 64 86 70 87
REMARK SMILES IDX 65 88 66 89 67 90 68 91 69 92 48 93 49 94 57 95 50 96 56 97
REMARK SMILES IDX 51 98 52 99 53 100 54 101 55 102
REMARK H PARENT 15 6 7 19 20 39 76 58 46 69
REMARK Flexibility Score: inf
ROOT
ATOM      1  C   UNL A   1      38.647  22.073  25.840  1.00  0.00     0.023 C 
ENDROOT
BRANCH   1   2
ATOM      2  C   UNL A   1      37.834  23.355  25.625  1.00  0.00     0.116 C 
BRANCH   2   3
ATOM      3  N   UNL A   1      37.121  23.305  24.368  1.00  0.00    -0.351 N 
ATOM      4  C   UNL A   1      35.848  23.104  23.952  1.00  0.00     0.268 C 
ATOM      5  O   UNL A   1      35.692  23.372  22.753  1.00  0.00    -0.268 OA
ATOM      6  H   UNL A   1      37.725  23.458  23.606  1.00  0.00     0.163 HD
BRANCH   4   7
ATOM      7  C   UNL A   1      34.613  22.792  24.819  1.00  0.00     0.111 C 
ATOM      8  C   UNL A   1      32.186  25.235  25.006  1.00  0.00     0.206 C 
ATOM      9  C   UNL A   1      33.216  24.692  23.976  1.00  0.00     0.253 C 
ATOM     10  C   UNL A   1      32.640  23.999  25.831  1.00  0.00     0.181 C 
ATOM     11  O   UNL A   1      33.349  24.814  22.775  1.00  0.00    -0.272 OA
ATOM     12  N   UNL A   1      33.784  23.903  24.945  1.00  0.00    -0.290 N 
ATOM     13  S   UNL A   1      31.630  22.490  25.677  1.00  0.00    -0.129 SA
ATOM     14  C   UNL A   1      33.001  21.522  26.306  1.00  0.00     0.106 C 
ATOM     15  C   UNL A   1      34.147  21.602  25.313  1.00  0.00    -0.020 C 
BRANCH   8  16
ATOM     16  N   UNL A   1      30.770  25.369  24.565  1.00  0.00    -0.336 N 
ATOM     17  C   UNL A   1      30.055  26.500  24.216  1.00  0.00     0.270 C 
ATOM     18  O   UNL A   1      28.893  26.350  23.845  1.00  0.00    -0.268 OA
ATOM     19  H   UNL A   1      30.266  24.526  24.515  1.00  0.00     0.164 HD
BRANCH  17  20
ATOM     20  C   UNL A   1      30.674  27.798  24.377  1.00  0.00     0.126 A 
ATOM     21  C   UNL A   1      31.778  30.610  26.403  1.00  0.00     0.069 C 
ATOM     22  C   UNL A   1      31.416  29.659  25.324  1.00  0.00     0.060 A 
ATOM     23  C   UNL A   1      31.602  28.260  25.298  1.00  0.00     0.059 A 
ATOM     24  N   UNL A   1      30.729  30.070  24.258  1.00  0.00    -0.178 NA
ATOM     25  N   UNL A   1      30.363  28.922  23.642  1.00  0.00    -0.263 N 
ATOM     26  C   UNL A   1      29.644  29.035  22.395  1.00  0.00     0.174 C 
ENDBRANCH  17  20
ENDBRANCH   8  16
BRANCH  15  27
ATOM     27  C   UNL A   1      34.384  20.238  24.705  1.00  0.00     0.111 C 
BRANCH  27  28
ATOM     28  S   UNL A   1      32.884  19.795  23.825  1.00  0.00    -0.089 SA
BRANCH  28  29
ATOM     29  C   UNL A   1      32.873  18.076  23.770  1.00  0.00     0.174 A 
ATOM     30  N   UNL A   1      33.287  17.395  22.726  1.00  0.00    -0.132 NA
ATOM     31  S   UNL A   1      32.899  17.193  25.238  1.00  0.00    -0.091 S 
ATOM     32  N   UNL A   1      34.024  16.294  23.134  1.00  0.00    -0.143 NA
ATOM     33  C   UNL A   1      34.071  16.217  24.450  1.00  0.00     0.115 A 
ATOM     34  C   UNL A   1      35.109  15.525  25.246  1.00  0.00     0.081 C 
ENDBRANCH  28  29
ENDBRANCH  27  28
ENDBRANCH  15  27
ENDBRANCH   4   7
ENDBRANCH   2   3
ENDBRANCH   1   2
BRANCH   1  35
ATOM     35  C   UNL A   1      39.758  22.124  26.868  1.00  0.00     0.023 C 
BRANCH  35  36
ATOM     36  C   UNL A   1      40.324  23.503  27.109  1.00  0.00     0.116 C 
BRANCH  36  37
ATOM     37  N   UNL A   1      41.307  23.937  26.122  1.00  0.00    -0.352 N 
ATOM     38  C   UNL A   1      41.861  25.196  26.001  1.00  0.00     0.251 C 
ATOM     39  H   UNL A   1      41.607  23.260  25.473  1.00  0.00     0.163 HD
ATOM     40  O   UNL A   1      42.644  25.460  25.097  1.00  0.00    -0.269 OA
BRANCH  38  41
ATOM     41  C   UNL A   1      41.425  26.227  26.964  1.00  0.00     0.039 A 
ATOM     42  C   UNL A   1      40.303  25.982  27.757  1.00  0.00     0.014 A 
ATOM     43  C   UNL A   1      42.253  27.324  27.212  1.00  0.00     0.014 A 
ATOM     44  C   UNL A   1      40.070  26.792  28.870  1.00  0.00     0.010 A 
ATOM     45  C   UNL A   1      42.090  28.039  28.388  1.00  0.00     0.010 A 
ATOM     46  C   UNL A   1      40.994  27.788  29.228  1.00  0.00    -0.014 A 
BRANCH  46  47
ATOM     47  C   UNL A   1      40.834  28.593  30.467  1.00  0.00     0.031 A 
ATOM     48  C   UNL A   1      39.760  29.646  30.532  1.00  0.00     0.074 A 
ATOM     49  C   UNL A   1      41.692  28.433  31.496  1.00  0.00     0.049 A 
ATOM     50  N   UNL A   1      39.500  30.500  31.488  1.00  0.00    -0.248 NA
ATOM     51  C   UNL A   1      38.888  29.784  29.353  1.00  0.00     0.031 C 
ATOM     52  C   UNL A   1      42.815  27.492  31.534  1.00  0.00     0.029 A 
ATOM     53  N   UNL A   1      41.755  29.066  32.714  1.00  0.00    -0.354 N 
ATOM     54  C   UNL A   1      38.456  31.287  31.012  1.00  0.00     0.074 A 
ATOM     55  C   UNL A   1      38.180  30.860  29.661  1.00  0.00     0.031 C 
ATOM     56  C   UNL A   1      43.424  27.579  32.728  1.00  0.00     0.029 A 
ATOM     57  C   UNL A   1      42.769  28.610  33.525  1.00  0.00     0.049 A 
ATOM     58  H   UNL A   1      41.132  29.779  32.982  1.00  0.00     0.167 HD
ATOM     59  C   UNL A   1      37.765  32.258  31.653  1.00  0.00     0.031 A 
ATOM     60  C   UNL A   1      43.130  28.980  34.770  1.00  0.00     0.031 A 
ATOM     61  C   UNL A   1      38.021  32.660  33.008  1.00  0.00     0.049 A 
ATOM     62  C   UNL A   1      42.341  30.055  35.469  1.00  0.00     0.074 A 
ATOM     63  C   UNL A   1      37.337  33.586  33.774  1.00  0.00     0.029 A 
ATOM     64  N   UNL A   1      39.041  32.155  33.802  1.00  0.00    -0.354 N 
ATOM     65  N   UNL A   1      41.309  30.736  35.028  1.00  0.00    -0.248 NA
ATOM     66  C   UNL A   1      42.753  30.401  36.835  1.00  0.00     0.031 C 
ATOM     67  C   UNL A   1      37.975  33.680  35.015  1.00  0.00     0.029 A 
ATOM     68  C   UNL A   1      39.018  32.766  35.042  1.00  0.00     0.049 A 
ATOM     69  H   UNL A   1      39.686  31.466  33.524  1.00  0.00     0.167 HD
ATOM     70  C   UNL A   1      40.930  31.569  36.075  1.00  0.00     0.074 A 
ATOM     71  C   UNL A   1      41.834  31.296  37.175  1.00  0.00     0.031 C 
ATOM     72  C   UNL A   1      39.924  32.476  36.125  1.00  0.00     0.031 A 
BRANCH  59  73
ATOM     73  C   UNL A   1      36.662  32.943  30.891  1.00  0.00    -0.014 A 
ATOM     74  C   UNL A   1      36.945  33.945  29.945  1.00  0.00     0.010 A 
ATOM     75  C   UNL A   1      35.325  32.562  31.104  1.00  0.00     0.010 A 
ATOM     76  C   UNL A   1      35.910  34.588  29.262  1.00  0.00     0.020 A 
ATOM     77  C   UNL A   1      34.288  33.178  30.397  1.00  0.00     0.020 A 
ATOM     78  C   UNL A   1      34.587  34.201  29.495  1.00  0.00     0.054 A 
BRANCH  78  79
ATOM     79  S   UNL A   1      33.266  35.037  28.576  1.00  0.00     0.124 S 
ATOM     80  O   UNL A   1      32.552  33.909  27.984  1.00  0.00    -0.237 OA
ATOM     81  O   UNL A   1      32.547  35.751  29.629  1.00  0.00    -0.237 OA
ATOM     82  O   UNL A   1      33.985  35.886  27.630  1.00  0.00    -0.744 OA
ENDBRANCH  78  79
ENDBRANCH  59  73
BRANCH  60  83
ATOM     83  C   UNL A   1      44.278  28.312  35.448  1.00  0.00    -0.014 A 
ATOM     84  C   UNL A   1      44.076  27.155  36.221  1.00  0.00     0.010 A 
ATOM     85  C   UNL A   1      45.581  28.823  35.316  1.00  0.00     0.010 A 
ATOM     86  C   UNL A   1      45.150  26.534  36.867  1.00  0.00     0.020 A 
ATOM     87  C   UNL A   1      46.662  28.190  35.936  1.00  0.00     0.020 A 
ATOM     88  C   UNL A   1      46.438  27.055  36.717  1.00  0.00     0.054 A 
BRANCH  88  89
ATOM     89  S   UNL A   1      47.824  26.203  37.521  1.00  0.00     0.124 S 
ATOM     90  O   UNL A   1      47.993  26.984  38.743  1.00  0.00    -0.237 OA
ATOM     91  O   UNL A   1      47.302  24.851  37.700  1.00  0.00    -0.237 OA
ATOM     92  O   UNL A   1      48.907  26.320  36.548  1.00  0.00    -0.744 OA
ENDBRANCH  88  89
ENDBRANCH  60  83
BRANCH  72  93
ATOM     93  C   UNL A   1      39.714  33.213  37.421  1.00  0.00    -0.014 A 
ATOM     94  C   UNL A   1      40.353  34.438  37.678  1.00  0.00     0.010 A 
ATOM     95  C   UNL A   1      38.806  32.700  38.366  1.00  0.00     0.010 A 
ATOM     96  C   UNL A   1      40.110  35.122  38.871  1.00  0.00     0.020 A 
ATOM     97  C   UNL A   1      38.537  33.397  39.546  1.00  0.00     0.020 A 
ATOM     98  C   UNL A   1      39.201  34.598  39.797  1.00  0.00     0.054 A 
BRANCH  98  99
ATOM     99  S   UNL A   1      38.866  35.532  41.314  1.00  0.00     0.124 S 
ATOM    100  O   UNL A   1      38.998  36.912  40.857  1.00  0.00    -0.237 OA
ATOM    101  O   UNL A   1      37.510  35.110  41.657  1.00  0.00    -0.237 OA
ATOM    102  O   UNL A   1      39.905  35.079  42.236  1.00  0.00    -0.744 OA
ENDBRANCH  98  99
ENDBRANCH  72  93
ENDBRANCH  46  47
ENDBRANCH  38  41
ENDBRANCH  36  37
ENDBRANCH  35  36
ENDBRANCH   1  35
TORSDOF 19
ENDMDL
MODEL 2
REMARK VINA RESULT:     -12.3      6.722     13.359
REMARK SMILES Cc1cc(C(=O)N[C@@H]2C(=O)N3C(C(=O)NCCCCNC(=O)c4ccc(-c5c6nc(c(-c7ccc(S(=O)(=O)[O-])cc7)c7ccc([nH]7)c(-c7ccc(S(=O)(=O)[O-])cc7)c7nc(c(-c8ccc(S(=O)(=O)[O-])cc8)c8ccc5[nH]8)C=C7)C=C6)cc4)=C(CSc4nnc(C)s4)CS[C@H]23)n(C)n1
REMARK SMILES IDX 17 1 16 2 15 3 13 4 14 5 12 7 8 8 9 9 94 10 10 11 11 12
REMARK SMILES IDX 93 13 92 14 83 15 7 16 5 17 6 18 4 20 1 21 2 22 3 23 97 24
REMARK SMILES IDX 95 25 96 26 84 27 85 28 86 29 87 30 91 31 88 32 89 33 90 34
REMARK SMILES IDX 18 35 19 36 20 37 21 38 22 40 23 41 24 42 82 43 25 44 81 45
REMARK SMILES IDX 26 46 27 47 28 48 75 49 29 50 80 51 74 52 76 53 30 54 79 55
REMARK SMILES IDX 73 56 72 57 31 59 61 60 42 61 60 62 43 63 46 64 59 65 77 66
REMARK SMILES IDX 44 67 45 68 58 70 78 71 47 72 32 73 33 74 41 75 34 76 40 77
REMARK SMILES IDX 35 78 36 79 37 80 38 81 39 82 62 83 63 84 71 85 64 86 70 87
REMARK SMILES IDX 65 88 66 89 67 90 68 91 69 92 48 93 49 94 57 95 50 96 56 97
REMARK SMILES IDX 51 98 52 99 53 100 54 101 55 102
REMARK H PARENT 15 6 7 19 20 39 76 58 46 69
REMARK Flexibility Score: inf
ROOT
ATOM      1  C   UNL A   1      43.221  34.310  30.875  1.00  0.00     0.023 C 
ENDROOT
BRANCH   1   2
ATOM      2  C   UNL A   1      41.973  33.837  31.628  1.00  0.00     0.116 C 
BRANCH   2   3
ATOM      3  N   UNL A   1      41.651  34.745  32.708  1.00  0.00    -0.351 N 
ATOM      4  C   UNL A   1      40.701  34.857  33.666  1.00  0.00     0.268 C 
ATOM      5  O   UNL A   1      40.979  35.718  34.512  1.00  0.00    -0.268 OA
ATOM      6  H   UNL A   1      42.299  35.483  32.760  1.00  0.00     0.163 HD
BRANCH   4   7
ATOM      7  C   UNL A   1      39.490  33.934  33.903  1.00  0.00     0.111 C 
ATOM      8  C   UNL A   1      36.696  34.506  31.965  1.00  0.00     0.206 C 
ATOM      9  C   UNL A   1      38.241  34.607  31.839  1.00  0.00     0.253 C 
ATOM     10  C   UNL A   1      37.038  33.818  33.316  1.00  0.00     0.181 C 
ATOM     11  O   UNL A   1      39.004  34.713  30.900  1.00  0.00    -0.272 OA
ATOM     12  N   UNL A   1      38.377  34.357  33.182  1.00  0.00    -0.290 N 
ATOM     13  S   UNL A   1      37.117  31.998  33.317  1.00  0.00    -0.129 SA
ATOM     14  C   UNL A   1      38.071  32.052  34.834  1.00  0.00     0.106 C 
ATOM     15  C   UNL A   1      39.400  32.727  34.546  1.00  0.00    -0.020 C 
BRANCH   8  16
ATOM     16  N   UNL A   1      35.961  33.762  30.905  1.00  0.00    -0.336 N 
ATOM     17  C   UNL A   1      34.705  33.988  30.374  1.00  0.00     0.270 C 
ATOM     18  O   UNL A   1      34.326  33.248  29.467  1.00  0.00    -0.268 OA
ATOM     19  H   UNL A   1      36.442  32.992  30.524  1.00  0.00     0.164 HD
BRANCH  17  20
ATOM     20  C   UNL A   1      33.873  35.020  30.954  1.00  0.00     0.126 A 
ATOM     21  C   UNL A   1      31.094  36.131  33.021  1.00  0.00     0.069 C 
ATOM     22  C   UNL A   1      32.247  35.999  32.097  1.00  0.00     0.060 A 
ATOM     23  C   UNL A   1      33.392  35.186  32.244  1.00  0.00     0.059 A 
ATOM     24  N   UNL A   1      32.236  36.599  30.906  1.00  0.00    -0.178 NA
ATOM     25  N   UNL A   1      33.291  36.056  30.256  1.00  0.00    -0.263 N 
ATOM     26  C   UNL A   1      33.589  36.557  28.935  1.00  0.00     0.174 C 
ENDBRANCH  17  20
ENDBRANCH   8  16
BRANCH  15  27
ATOM     27  C   UNL A   1      40.521  31.726  34.709  1.00  0.00     0.111 C 
BRANCH  27  28
ATOM     28  S   UNL A   1      40.693  30.880  33.136  1.00  0.00    -0.089 SA
BRANCH  28  29
ATOM     29  C   UNL A   1      42.330  30.356  33.071  1.00  0.00     0.174 A 
ATOM     30  N   UNL A   1      42.899  29.935  31.964  1.00  0.00    -0.132 NA
ATOM     31  S   UNL A   1      43.433  30.912  34.258  1.00  0.00    -0.091 S 
ATOM     32  N   UNL A   1      44.191  30.429  31.872  1.00  0.00    -0.143 NA
ATOM     33  C   UNL A   1      44.499  31.149  32.935  1.00  0.00     0.115 A 
ATOM     34  C   UNL A   1      45.533  32.206  33.001  1.00  0.00     0.081 C 
ENDBRANCH  28  29
ENDBRANCH  27  28
ENDBRANCH  15  27
ENDBRANCH   4   7
ENDBRANCH   2   3
ENDBRANCH   1   2
BRANCH   1  35
ATOM     35  C   UNL A   1      43.716  35.711  31.171  1.00  0.00     0.023 C 
BRANCH  35  36
ATOM     36  C   UNL A   1      44.024  36.536  29.944  1.00  0.00     0.116 C 
BRANCH  36  37
ATOM     37  N   UNL A   1      45.202  37.389  30.066  1.00  0.00    -0.352 N 
ATOM     38  C   UNL A   1      46.507  37.048  29.771  1.00  0.00     0.251 C 
ATOM     39  H   UNL A   1      45.049  38.305  30.393  1.00  0.00     0.163 HD
ATOM     40  O   UNL A   1      47.426  37.835  29.960  1.00  0.00    -0.269 OA
BRANCH  38  41
ATOM     41  C   UNL A   1      46.758  35.679  29.278  1.00  0.00     0.039 A 
ATOM     42  C   UNL A   1      47.069  34.675  30.195  1.00  0.00     0.014 A 
ATOM     43  C   UNL A   1      46.476  35.371  27.945  1.00  0.00     0.014 A 
ATOM     44  C   UNL A   1      46.997  33.341  29.790  1.00  0.00     0.010 A 
ATOM     45  C   UNL A   1      46.281  34.046  27.585  1.00  0.00     0.010 A 
ATOM     46  C   UNL A   1      46.545  33.015  28.500  1.00  0.00    -0.014 A 
BRANCH  46  47
ATOM     47  C   UNL A   1      46.352  31.604  28.073  1.00  0.00     0.031 A 
ATOM     48  C   UNL A   1      44.976  30.995  28.132  1.00  0.00     0.074 A 
ATOM     49  C   UNL A   1      47.411  30.854  27.707  1.00  0.00     0.049 A 
ATOM     50  N   UNL A   1      44.606  29.767  27.873  1.00  0.00    -0.248 NA
ATOM     51  C   UNL A   1      43.877  31.869  28.578  1.00  0.00     0.031 C 
ATOM     52  C   UNL A   1      48.806  31.306  27.669  1.00  0.00     0.029 A 
ATOM     53  N   UNL A   1      47.482  29.544  27.300  1.00  0.00    -0.354 N 
ATOM     54  C   UNL A   1      43.244  29.720  28.150  1.00  0.00     0.074 A 
ATOM     55  C   UNL A   1      42.868  31.017  28.663  1.00  0.00     0.031 C 
ATOM     56  C   UNL A   1      49.582  30.306  27.219  1.00  0.00     0.029 A 
ATOM     57  C   UNL A   1      48.755  29.129  26.980  1.00  0.00     0.049 A 
ATOM     58  H   UNL A   1      46.694  28.956  27.241  1.00  0.00     0.167 HD
ATOM     59  C   UNL A   1      42.374  28.701  27.962  1.00  0.00     0.031 A 
ATOM     60  C   UNL A   1      49.204  27.935  26.543  1.00  0.00     0.031 A 
ATOM     61  C   UNL A   1      42.746  27.423  27.421  1.00  0.00     0.049 A 
ATOM     62  C   UNL A   1      48.217  26.818  26.332  1.00  0.00     0.074 A 
ATOM     63  C   UNL A   1      41.931  26.344  27.128  1.00  0.00     0.029 A 
ATOM     64  N   UNL A   1      44.040  27.053  27.088  1.00  0.00    -0.354 N 
ATOM     65  N   UNL A   1      46.920  26.818  26.528  1.00  0.00    -0.248 NA
ATOM     66  C   UNL A   1      48.751  25.547  25.825  1.00  0.00     0.031 C 
ATOM     67  C   UNL A   1      42.741  25.302  26.666  1.00  0.00     0.029 A 
ATOM     68  C   UNL A   1      44.051  25.755  26.612  1.00  0.00     0.049 A 
ATOM     69  H   UNL A   1      44.834  27.629  27.177  1.00  0.00     0.167 HD
ATOM     70  C   UNL A   1      46.479  25.557  26.141  1.00  0.00     0.074 A 
ATOM     71  C   UNL A   1      47.645  24.828  25.684  1.00  0.00     0.031 C 
ATOM     72  C   UNL A   1      45.222  25.049  26.157  1.00  0.00     0.031 A 
BRANCH  59  73
ATOM     73  C   UNL A   1      40.936  28.938  28.340  1.00  0.00    -0.014 A 
ATOM     74  C   UNL A   1      39.989  29.343  27.381  1.00  0.00     0.010 A 
ATOM     75  C   UNL A   1      40.518  28.727  29.666  1.00  0.00     0.010 A 
ATOM     76  C   UNL A   1      38.664  29.581  27.750  1.00  0.00     0.020 A 
ATOM     77  C   UNL A   1      39.185  28.931  30.033  1.00  0.00     0.020 A 
ATOM     78  C   UNL A   1      38.270  29.375  29.076  1.00  0.00     0.054 A 
BRANCH  78  79
ATOM     79  S   UNL A   1      36.537  29.669  29.521  1.00  0.00     0.124 S 
ATOM     80  O   UNL A   1      36.437  28.981  30.805  1.00  0.00    -0.237 OA
ATOM     81  O   UNL A   1      36.467  31.127  29.582  1.00  0.00    -0.237 OA
ATOM     82  O   UNL A   1      35.789  29.057  28.425  1.00  0.00    -0.744 OA
ENDBRANCH  78  79
ENDBRANCH  59  73
BRANCH  60  83
ATOM     83  C   UNL A   1      50.653  27.741  26.252  1.00  0.00    -0.014 A 
ATOM     84  C   UNL A   1      51.560  27.468  27.291  1.00  0.00     0.010 A 
ATOM     85  C   UNL A   1      51.133  27.819  24.933  1.00  0.00     0.010 A 
ATOM     86  C   UNL A   1      52.922  27.297  27.021  1.00  0.00     0.020 A 
ATOM     87  C   UNL A   1      52.489  27.620  24.653  1.00  0.00     0.020 A 
ATOM     88  C   UNL A   1      53.376  27.371  25.701  1.00  0.00     0.054 A 
BRANCH  88  89
ATOM     89  S   UNL A   1      55.139  27.094  25.367  1.00  0.00     0.124 S 
ATOM     90  O   UNL A   1      55.110  26.544  24.016  1.00  0.00    -0.237 OA
ATOM     91  O   UNL A   1      55.698  28.439  25.492  1.00  0.00    -0.237 OA
ATOM     92  O   UNL A   1      55.543  26.162  26.416  1.00  0.00    -0.744 OA
ENDBRANCH  88  89
ENDBRANCH  60  83
BRANCH  72  93
ATOM     93  C   UNL A   1      45.028  23.652  25.628  1.00  0.00    -0.014 A 
ATOM     94  C   UNL A   1      44.710  23.418  24.279  1.00  0.00     0.010 A 
ATOM     95  C   UNL A   1      45.237  22.556  26.485  1.00  0.00     0.010 A 
ATOM     96  C   UNL A   1      44.575  22.112  23.804  1.00  0.00     0.020 A 
ATOM     97  C   UNL A   1      45.134  21.248  26.007  1.00  0.00     0.020 A 
ATOM     98  C   UNL A   1      44.790  21.035  24.671  1.00  0.00     0.054 A 
BRANCH  98  99
ATOM     99  S   UNL A   1      44.658  19.349  24.016  1.00  0.00     0.124 S 
ATOM    100  O   UNL A   1      45.916  18.753  24.458  1.00  0.00    -0.237 OA
ATOM    101  O   UNL A   1      43.457  18.843  24.675  1.00  0.00    -0.237 OA
ATOM    102  O   UNL A   1      44.536  19.547  22.574  1.00  0.00    -0.744 OA
ENDBRANCH  98  99
ENDBRANCH  72  93
ENDBRANCH  46  47
ENDBRANCH  38  41
ENDBRANCH  36  37
ENDBRANCH  35  36
ENDBRANCH   1  35
TORSDOF 19
ENDMDL
MODEL 3
REMARK VINA RESULT:     -12.1      0.715      7.777
REMARK SMILES Cc1cc(C(=O)N[C@@H]2C(=O)N3C(C(=O)NCCCCNC(=O)c4ccc(-c5c6nc(c(-c7ccc(S(=O)(=O)[O-])cc7)c7ccc([nH]7)c(-c7ccc(S(=O)(=O)[O-])cc7)c7nc(c(-c8ccc(S(=O)(=O)[O-])cc8)c8ccc5[nH]8)C=C7)C=C6)cc4)=C(CSc4nnc(C)s4)CS[C@H]23)n(C)n1
REMARK SMILES IDX 17 1 16 2 15 3 13 4 14 5 12 7 8 8 9 9 94 10 10 11 11 12
REMARK SMILES IDX 93 13 92 14 83 15 7 16 5 17 6 18 4 20 1 21 2 22 3 23 97 24
REMARK SMILES IDX 95 25 96 26 84 27 85 28 86 29 87 30 91 31 88 32 89 33 90 34
REMARK SMILES IDX 18 35 19 36 20 37 21 38 22 40 23 41 24 42 82 43 25 44 81 45
REMARK SMILES IDX 26 46 27 47 28 48 75 49 29 50 80 51 74 52 76 53 30 54 79 55
REMARK SMILES IDX 73 56 72 57 31 59 61 60 42 61 60 62 43 63 46 64 59 65 77 66
REMARK SMILES IDX 44 67 45 68 58 70 78 71 47 72 32 73 33 74 41 75 34 76 40 77
REMARK SMILES IDX 35 78 36 79 37 80 38 81 39 82 62 83 63 84 71 85 64 86 70 87
REMARK SMILES IDX 65 88 66 89 67 90 68 91 69 92 48 93 49 94 57 95 50 96 56 97
REMARK SMILES IDX 51 98 52 99 53 100 54 101 55 102
REMARK H PARENT 15 6 7 19 20 39 76 58 46 69
REMARK Flexibility Score: inf
ROOT
ATOM      1  C   UNL A   1      38.988  21.873  26.065  1.00  0.00     0.023 C 
ENDROOT
BRANCH   1   2
ATOM      2  C   UNL A   1      38.052  23.064  25.830  1.00  0.00     0.116 C 
BRANCH   2   3
ATOM      3  N   UNL A   1      37.441  22.984  24.521  1.00  0.00    -0.351 N 
ATOM      4  C   UNL A   1      36.192  22.875  24.010  1.00  0.00     0.268 C 
ATOM      5  O   UNL A   1      36.162  23.061  22.785  1.00  0.00    -0.268 OA
ATOM      6  H   UNL A   1      38.117  23.017  23.807  1.00  0.00     0.163 HD
BRANCH   4   7
ATOM      7  C   UNL A   1      34.865  22.754  24.783  1.00  0.00     0.111 C 
ATOM      8  C   UNL A   1      32.712  25.442  24.612  1.00  0.00     0.206 C 
ATOM      9  C   UNL A   1      33.755  24.725  23.710  1.00  0.00     0.253 C 
ATOM     10  C   UNL A   1      32.962  24.226  25.546  1.00  0.00     0.181 C 
ATOM     11  O   UNL A   1      33.996  24.749  22.519  1.00  0.00    -0.272 OA
ATOM     12  N   UNL A   1      34.155  23.951  24.770  1.00  0.00    -0.290 N 
ATOM     13  S   UNL A   1      31.809  22.824  25.397  1.00  0.00    -0.129 SA
ATOM     14  C   UNL A   1      33.011  21.764  26.200  1.00  0.00     0.106 C 
ATOM     15  C   UNL A   1      34.234  21.655  25.307  1.00  0.00    -0.020 C 
BRANCH   8  16
ATOM     16  N   UNL A   1      31.359  25.692  24.043  1.00  0.00    -0.336 N 
ATOM     17  C   UNL A   1      30.672  26.881  23.883  1.00  0.00     0.270 C 
ATOM     18  O   UNL A   1      29.566  26.834  23.346  1.00  0.00    -0.268 OA
ATOM     19  H   UNL A   1      30.881  24.889  23.735  1.00  0.00     0.164 HD
BRANCH  17  20
ATOM     20  C   UNL A   1      31.242  28.098  24.418  1.00  0.00     0.126 A 
ATOM     21  C   UNL A   1      32.515  30.124  27.158  1.00  0.00     0.069 C 
ATOM     22  C   UNL A   1      32.033  29.577  25.866  1.00  0.00     0.060 A 
ATOM     23  C   UNL A   1      32.282  28.303  25.312  1.00  0.00     0.059 A 
ATOM     24  N   UNL A   1      31.163  30.260  25.121  1.00  0.00    -0.178 NA
ATOM     25  N   UNL A   1      30.760  29.369  24.187  1.00  0.00    -0.263 N 
ATOM     26  C   UNL A   1      29.845  29.835  23.173  1.00  0.00     0.174 C 
ENDBRANCH  17  20
ENDBRANCH   8  16
BRANCH  15  27
ATOM     27  C   UNL A   1      34.369  20.236  24.805  1.00  0.00     0.111 C 
BRANCH  27  28
ATOM     28  S   UNL A   1      32.791  19.793  24.073  1.00  0.00    -0.089 SA
BRANCH  28  29
ATOM     29  C   UNL A   1      32.804  18.077  23.955  1.00  0.00     0.174 A 
ATOM     30  N   UNL A   1      33.142  17.442  22.856  1.00  0.00    -0.132 NA
ATOM     31  S   UNL A   1      32.965  17.142  25.382  1.00  0.00    -0.091 S 
ATOM     32  N   UNL A   1      33.928  16.342  23.161  1.00  0.00    -0.143 NA
ATOM     33  C   UNL A   1      34.084  16.218  24.466  1.00  0.00     0.115 A 
ATOM     34  C   UNL A   1      35.195  15.519  25.148  1.00  0.00     0.081 C 
ENDBRANCH  28  29
ENDBRANCH  27  28
ENDBRANCH  15  27
ENDBRANCH   4   7
ENDBRANCH   2   3
ENDBRANCH   1   2
BRANCH   1  35
ATOM     35  C   UNL A   1      40.083  22.049  27.096  1.00  0.00     0.023 C 
BRANCH  35  36
ATOM     36  C   UNL A   1      40.725  23.416  27.100  1.00  0.00     0.116 C 
BRANCH  36  37
ATOM     37  N   UNL A   1      41.649  23.657  25.996  1.00  0.00    -0.352 N 
ATOM     38  C   UNL A   1      42.314  24.833  25.713  1.00  0.00     0.251 C 
ATOM     39  H   UNL A   1      41.815  22.900  25.389  1.00  0.00     0.163 HD
ATOM     40  O   UNL A   1      43.031  24.934  24.725  1.00  0.00    -0.269 OA
BRANCH  38  41
ATOM     41  C   UNL A   1      42.080  25.981  26.612  1.00  0.00     0.039 A 
ATOM     42  C   UNL A   1      40.770  26.390  26.861  1.00  0.00     0.014 A 
ATOM     43  C   UNL A   1      43.146  26.497  27.353  1.00  0.00     0.014 A 
ATOM     44  C   UNL A   1      40.520  27.250  27.931  1.00  0.00     0.010 A 
ATOM     45  C   UNL A   1      42.878  27.244  28.489  1.00  0.00     0.010 A 
ATOM     46  C   UNL A   1      41.563  27.635  28.790  1.00  0.00    -0.014 A 
BRANCH  46  47
ATOM     47  C   UNL A   1      41.315  28.460  30.002  1.00  0.00     0.031 A 
ATOM     48  C   UNL A   1      42.167  28.251  31.226  1.00  0.00     0.074 A 
ATOM     49  C   UNL A   1      40.288  29.334  30.030  1.00  0.00     0.049 A 
ATOM     50  N   UNL A   1      42.070  28.813  32.403  1.00  0.00    -0.248 NA
ATOM     51  C   UNL A   1      43.245  27.251  31.127  1.00  0.00     0.031 C 
ATOM     52  C   UNL A   1      39.348  29.584  28.932  1.00  0.00     0.029 A 
ATOM     53  N   UNL A   1      39.857  30.176  31.026  1.00  0.00    -0.354 N 
ATOM     54  C   UNL A   1      43.053  28.217  33.185  1.00  0.00     0.074 A 
ATOM     55  C   UNL A   1      43.686  27.202  32.374  1.00  0.00     0.031 C 
ATOM     56  C   UNL A   1      38.485  30.544  29.300  1.00  0.00     0.029 A 
ATOM     57  C   UNL A   1      38.774  30.948  30.672  1.00  0.00     0.049 A 
ATOM     58  H   UNL A   1      40.284  30.222  31.912  1.00  0.00     0.167 HD
ATOM     59  C   UNL A   1      43.422  28.508  34.453  1.00  0.00     0.031 A 
ATOM     60  C   UNL A   1      38.093  31.877  31.372  1.00  0.00     0.031 A 
ATOM     61  C   UNL A   1      42.812  29.539  35.246  1.00  0.00     0.049 A 
ATOM     62  C   UNL A   1      38.527  32.193  32.778  1.00  0.00     0.074 A 
ATOM     63  C   UNL A   1      43.154  29.961  36.518  1.00  0.00     0.029 A 
ATOM     64  N   UNL A   1      41.736  30.314  34.840  1.00  0.00    -0.354 N 
ATOM     65  N   UNL A   1      39.509  31.669  33.474  1.00  0.00    -0.248 NA
ATOM     66  C   UNL A   1      37.774  33.234  33.488  1.00  0.00     0.031 C 
ATOM     67  C   UNL A   1      42.250  30.956  36.903  1.00  0.00     0.029 A 
ATOM     68  C   UNL A   1      41.386  31.197  35.845  1.00  0.00     0.049 A 
ATOM     69  H   UNL A   1      41.287  30.246  33.967  1.00  0.00     0.167 HD
ATOM     70  C   UNL A   1      39.509  32.339  34.692  1.00  0.00     0.074 A 
ATOM     71  C   UNL A   1      38.440  33.316  34.633  1.00  0.00     0.031 C 
ATOM     72  C   UNL A   1      40.322  32.166  35.763  1.00  0.00     0.031 A 
BRANCH  59  73
ATOM     73  C   UNL A   1      44.544  27.701  35.053  1.00  0.00    -0.014 A 
ATOM     74  C   UNL A   1      44.288  26.504  35.747  1.00  0.00     0.010 A 
ATOM     75  C   UNL A   1      45.873  28.131  34.899  1.00  0.00     0.010 A 
ATOM     76  C   UNL A   1      45.335  25.778  36.318  1.00  0.00     0.020 A 
ATOM     77  C   UNL A   1      46.928  27.389  35.439  1.00  0.00     0.020 A 
ATOM     78  C   UNL A   1      46.650  26.227  36.161  1.00  0.00     0.054 A 
BRANCH  78  79
ATOM     79  S   UNL A   1      47.992  25.251  36.893  1.00  0.00     0.124 S 
ATOM     80  O   UNL A   1      47.527  23.886  36.667  1.00  0.00    -0.237 OA
ATOM     81  O   UNL A   1      49.151  25.659  36.102  1.00  0.00    -0.237 OA
ATOM     82  O   UNL A   1      48.011  25.681  38.289  1.00  0.00    -0.744 OA
ENDBRANCH  78  79
ENDBRANCH  59  73
BRANCH  60  83
ATOM     83  C   UNL A   1      36.946  32.594  30.747  1.00  0.00    -0.014 A 
ATOM     84  C   UNL A   1      37.168  33.621  29.812  1.00  0.00     0.010 A 
ATOM     85  C   UNL A   1      35.623  32.248  31.075  1.00  0.00     0.010 A 
ATOM     86  C   UNL A   1      36.093  34.303  29.234  1.00  0.00     0.020 A 
ATOM     87  C   UNL A   1      34.544  32.907  30.477  1.00  0.00     0.020 A 
ATOM     88  C   UNL A   1      34.786  33.938  29.569  1.00  0.00     0.054 A 
BRANCH  88  89
ATOM     89  S   UNL A   1      33.405  34.800  28.767  1.00  0.00     0.124 S 
ATOM     90  O   UNL A   1      32.946  33.808  27.800  1.00  0.00    -0.237 OA
ATOM     91  O   UNL A   1      32.502  35.059  29.886  1.00  0.00    -0.237 OA
ATOM     92  O   UNL A   1      34.031  35.990  28.196  1.00  0.00    -0.744 OA
ENDBRANCH  88  89
ENDBRANCH  60  83
BRANCH  72  93
ATOM     93  C   UNL A   1      40.121  33.076  36.946  1.00  0.00    -0.014 A 
ATOM     94  C   UNL A   1      39.174  32.781  37.943  1.00  0.00     0.010 A 
ATOM     95  C   UNL A   1      40.943  34.207  37.093  1.00  0.00     0.010 A 
ATOM     96  C   UNL A   1      39.034  33.620  39.050  1.00  0.00     0.020 A 
ATOM     97  C   UNL A   1      40.828  35.031  38.214  1.00  0.00     0.020 A 
ATOM     98  C   UNL A   1      39.864  34.739  39.180  1.00  0.00     0.054 A 
BRANCH  98  99
ATOM     99  S   UNL A   1      39.697  35.783  40.653  1.00  0.00     0.124 S 
ATOM    100  O   UNL A   1      38.420  35.333  41.200  1.00  0.00    -0.237 OA
ATOM    101  O   UNL A   1      40.877  35.424  41.436  1.00  0.00    -0.237 OA
ATOM    102  O   UNL A   1      39.701  37.142  40.117  1.00  0.00    -0.744 OA
ENDBRANCH  98  99
ENDBRANCH  72  93
ENDBRANCH  46  47
ENDBRANCH  38  41
ENDBRANCH  36  37
ENDBRANCH  35  36
ENDBRANCH   1  35
TORSDOF 19
ENDMDL
