MODEL 1
REMARK VINA RESULT:     -11.6      0.000      0.000
REMARK SMILES O=C(COc1ccccc1/C=C1\C(=O)Nc2ccccc21)NCCCCNC(=O)c1ccc(-c2c3nc(c(-c4ccc(S(=O)(=O)[O-])cc4)c4ccc([nH]4)c(-c4ccc(S(=O)(=O)[O-])cc4)c4nc(c(-c5ccc(S(=O)(=O)[O-])cc5)c5ccc2[nH]5)C=C4)C=C3)cc1
REMARK SMILES IDX 24 1 23 2 22 3 1 4 2 5 3 7 4 8 5 9 6 10 10 11 7 12 9 13 8 14
REMARK SMILES IDX 11 15 12 16 13 17 21 18 14 19 15 20 16 21 20 22 17 24 19 25
REMARK SMILES IDX 18 26 25 27 26 28 27 29 28 30 29 32 30 33 31 34 89 35 32 36
REMARK SMILES IDX 88 37 33 38 34 39 35 40 82 41 36 42 87 43 81 44 83 45 37 46
REMARK SMILES IDX 86 47 80 48 79 49 38 51 68 52 49 53 67 54 50 55 53 56 66 57
REMARK SMILES IDX 84 58 51 59 52 60 65 62 85 63 54 64 39 65 40 66 48 67 41 68
REMARK SMILES IDX 47 69 42 70 43 71 44 72 45 73 46 74 69 75 70 76 78 77 71 78
REMARK SMILES IDX 77 79 72 80 73 81 74 82 75 83 76 84 55 85 56 86 64 87 57 88
REMARK SMILES IDX 63 89 58 90 59 91 60 92 61 93 62 94
REMARK H PARENT 22 6 15 23 27 31 83 50 53 61
REMARK Flexibility Score: inf
ROOT
ATOM      1  C   UNL A   1      33.513  28.936  24.665  1.00  0.00     0.023 C 
ENDROOT
BRANCH   1   2
ATOM      2  C   UNL A   1      33.919  28.346  23.328  1.00  0.00     0.116 C 
BRANCH   2   3
ATOM      3  N   UNL A   1      32.876  27.740  22.543  1.00  0.00    -0.353 N 
ATOM      4  O   UNL A   1      34.045  25.835  21.951  1.00  0.00    -0.271 OA
ATOM      5  C   UNL A   1      32.979  26.410  22.150  1.00  0.00     0.257 C 
ATOM      6  H   UNL A   1      32.087  28.268  22.284  1.00  0.00     0.163 HD
BRANCH   5   7
ATOM      7  C   UNL A   1      31.631  25.706  22.054  1.00  0.00     0.329 C 
BRANCH   7   8
ATOM      8  O   UNL A   1      31.815  24.485  22.782  1.00  0.00    -0.483 OA
BRANCH   8   9
ATOM      9  C   UNL A   1      31.110  24.411  23.956  1.00  0.00     0.127 A 
ATOM     10  C   UNL A   1      30.582  25.612  24.452  1.00  0.00     0.047 A 
ATOM     11  C   UNL A   1      31.138  23.233  24.738  1.00  0.00     0.017 A 
ATOM     12  C   UNL A   1      30.122  25.676  25.764  1.00  0.00     0.004 A 
ATOM     13  C   UNL A   1      30.784  23.372  26.084  1.00  0.00     0.012 A 
ATOM     14  C   UNL A   1      30.259  24.567  26.589  1.00  0.00     0.001 A 
BRANCH  11  15
ATOM     15  C   UNL A   1      31.573  21.920  24.182  1.00  0.00     0.026 C 
ATOM     16  C   UNL A   1      32.622  21.135  24.519  1.00  0.00     0.050 C 
ATOM     17  C   UNL A   1      33.701  21.387  25.557  1.00  0.00     0.256 C 
ATOM     18  C   UNL A   1      32.920  19.789  23.967  1.00  0.00     0.011 A 
ATOM     19  O   UNL A   1      33.861  22.333  26.309  1.00  0.00    -0.269 OA
ATOM     20  N   UNL A   1      34.527  20.280  25.517  1.00  0.00    -0.321 N 
ATOM     21  C   UNL A   1      34.066  19.330  24.620  1.00  0.00     0.049 A 
ATOM     22  C   UNL A   1      32.319  18.959  23.039  1.00  0.00     0.011 A 
ATOM     23  H   UNL A   1      35.342  20.178  26.058  1.00  0.00     0.170 HD
ATOM     24  C   UNL A   1      34.622  18.081  24.404  1.00  0.00     0.027 A 
ATOM     25  C   UNL A   1      32.841  17.677  22.814  1.00  0.00     0.001 A 
ATOM     26  C   UNL A   1      33.985  17.240  23.495  1.00  0.00     0.002 A 
ENDBRANCH  11  15
ENDBRANCH   8   9
ENDBRANCH   7   8
ENDBRANCH   5   7
ENDBRANCH   2   3
ENDBRANCH   1   2
BRANCH   1  27
ATOM     27  C   UNL A   1      33.129  27.921  25.741  1.00  0.00     0.023 C 
BRANCH  27  28
ATOM     28  C   UNL A   1      33.585  28.233  27.166  1.00  0.00     0.116 C 
BRANCH  28  29
ATOM     29  N   UNL A   1      33.506  29.646  27.508  1.00  0.00    -0.352 N 
ATOM     30  C   UNL A   1      34.457  30.477  28.059  1.00  0.00     0.251 C 
ATOM     31  H   UNL A   1      32.641  30.075  27.315  1.00  0.00     0.163 HD
ATOM     32  O   UNL A   1      34.145  31.616  28.396  1.00  0.00    -0.269 OA
BRANCH  30  33
ATOM     33  C   UNL A   1      35.840  29.995  28.283  1.00  0.00     0.039 A 
ATOM     34  C   UNL A   1      36.751  30.036  27.223  1.00  0.00     0.014 A 
ATOM     35  C   UNL A   1      36.244  29.508  29.529  1.00  0.00     0.014 A 
ATOM     36  C   UNL A   1      38.087  29.681  27.439  1.00  0.00     0.010 A 
ATOM     37  C   UNL A   1      37.591  29.232  29.763  1.00  0.00     0.010 A 
ATOM     38  C   UNL A   1      38.530  29.323  28.723  1.00  0.00    -0.014 A 
BRANCH  38  39
ATOM     39  C   UNL A   1      39.969  29.063  29.003  1.00  0.00     0.031 A 
ATOM     40  C   UNL A   1      40.587  27.731  28.664  1.00  0.00     0.074 A 
ATOM     41  C   UNL A   1      40.708  30.001  29.630  1.00  0.00     0.049 A 
ATOM     42  N   UNL A   1      41.804  27.304  28.890  1.00  0.00    -0.248 NA
ATOM     43  C   UNL A   1      39.716  26.742  28.009  1.00  0.00     0.031 C 
ATOM     44  C   UNL A   1      40.225  31.319  30.052  1.00  0.00     0.029 A 
ATOM     45  N   UNL A   1      42.023  29.989  30.030  1.00  0.00    -0.354 N 
ATOM     46  C   UNL A   1      41.840  25.995  28.423  1.00  0.00     0.074 A 
ATOM     47  C   UNL A   1      40.511  25.682  27.945  1.00  0.00     0.031 C 
ATOM     48  C   UNL A   1      41.235  31.997  30.621  1.00  0.00     0.029 A 
ATOM     49  C   UNL A   1      42.424  31.151  30.650  1.00  0.00     0.049 A 
ATOM     50  H   UNL A   1      42.622  29.222  29.886  1.00  0.00     0.167 HD
ATOM     51  C   UNL A   1      42.887  25.136  28.377  1.00  0.00     0.031 A 
ATOM     52  C   UNL A   1      43.610  31.497  31.189  1.00  0.00     0.031 A 
ATOM     53  C   UNL A   1      44.212  25.451  28.845  1.00  0.00     0.049 A 
ATOM     54  C   UNL A   1      44.753  30.521  31.140  1.00  0.00     0.074 A 
ATOM     55  C   UNL A   1      45.352  24.668  28.785  1.00  0.00     0.029 A 
ATOM     56  N   UNL A   1      44.575  26.639  29.460  1.00  0.00    -0.354 N 
ATOM     57  N   UNL A   1      44.784  29.314  30.631  1.00  0.00    -0.248 NA
ATOM     58  C   UNL A   1      46.026  30.960  31.731  1.00  0.00     0.031 C 
ATOM     59  C   UNL A   1      46.390  25.359  29.418  1.00  0.00     0.029 A 
ATOM     60  C   UNL A   1      45.914  26.599  29.812  1.00  0.00     0.049 A 
ATOM     61  H   UNL A   1      43.970  27.399  29.624  1.00  0.00     0.167 HD
ATOM     62  C   UNL A   1      46.087  28.859  30.813  1.00  0.00     0.074 A 
ATOM     63  C   UNL A   1      46.815  29.928  31.467  1.00  0.00     0.031 C 
ATOM     64  C   UNL A   1      46.630  27.666  30.466  1.00  0.00     0.031 A 
BRANCH  51  65
ATOM     65  C   UNL A   1      42.637  23.762  27.809  1.00  0.00    -0.014 A 
ATOM     66  C   UNL A   1      42.814  23.497  26.439  1.00  0.00     0.010 A 
ATOM     67  C   UNL A   1      42.258  22.711  28.664  1.00  0.00     0.010 A 
ATOM     68  C   UNL A   1      42.570  22.220  25.927  1.00  0.00     0.020 A 
ATOM     69  C   UNL A   1      42.043  21.425  28.161  1.00  0.00     0.020 A 
ATOM     70  C   UNL A   1      42.182  21.192  26.792  1.00  0.00     0.054 A 
BRANCH  70  71
ATOM     71  S   UNL A   1      41.887  19.540  26.101  1.00  0.00     0.124 S 
ATOM     72  O   UNL A   1      42.767  19.542  24.935  1.00  0.00    -0.237 OA
ATOM     73  O   UNL A   1      42.295  18.660  27.193  1.00  0.00    -0.237 OA
ATOM     74  O   UNL A   1      40.458  19.538  25.804  1.00  0.00    -0.744 OA
ENDBRANCH  70  71
ENDBRANCH  51  65
BRANCH  52  75
ATOM     75  C   UNL A   1      43.781  32.842  31.807  1.00  0.00    -0.014 A 
ATOM     76  C   UNL A   1      43.429  33.060  33.151  1.00  0.00     0.010 A 
ATOM     77  C   UNL A   1      44.310  33.910  31.058  1.00  0.00     0.010 A 
ATOM     78  C   UNL A   1      43.588  34.321  33.730  1.00  0.00     0.020 A 
ATOM     79  C   UNL A   1      44.497  35.166  31.643  1.00  0.00     0.020 A 
ATOM     80  C   UNL A   1      44.125  35.366  32.974  1.00  0.00     0.054 A 
BRANCH  80  81
ATOM     81  S   UNL A   1      44.375  36.980  33.764  1.00  0.00     0.124 S 
ATOM     82  O   UNL A   1      43.839  37.895  32.763  1.00  0.00    -0.237 OA
ATOM     83  O   UNL A   1      43.593  36.854  34.992  1.00  0.00    -0.237 OA
ATOM     84  O   UNL A   1      45.822  37.044  33.961  1.00  0.00    -0.744 OA
ENDBRANCH  80  81
ENDBRANCH  52  75
BRANCH  64  85
ATOM     85  C   UNL A   1      48.094  27.458  30.753  1.00  0.00    -0.014 A 
ATOM     86  C   UNL A   1      48.528  26.830  31.933  1.00  0.00     0.010 A 
ATOM     87  C   UNL A   1      49.049  27.851  29.795  1.00  0.00     0.010 A 
ATOM     88  C   UNL A   1      49.890  26.625  32.165  1.00  0.00     0.020 A 
ATOM     89  C   UNL A   1      50.410  27.622  30.011  1.00  0.00     0.020 A 
ATOM     90  C   UNL A   1      50.824  27.022  31.201  1.00  0.00     0.054 A 
BRANCH  90  91
ATOM     91  S   UNL A   1      52.584  26.704  31.506  1.00  0.00     0.124 S 
ATOM     92  O   UNL A   1      53.072  26.389  30.165  1.00  0.00    -0.237 OA
ATOM     93  O   UNL A   1      53.047  27.974  32.060  1.00  0.00    -0.237 OA
ATOM     94  O   UNL A   1      52.577  25.586  32.446  1.00  0.00    -0.744 OA
ENDBRANCH  90  91
ENDBRANCH  64  85
ENDBRANCH  38  39
ENDBRANCH  30  33
ENDBRANCH  28  29
ENDBRANCH  27  28
ENDBRANCH   1  27
TORSDOF 17
ENDMDL
MODEL 2
REMARK VINA RESULT:     -11.6      4.434      9.379
REMARK SMILES O=C(COc1ccccc1/C=C1\C(=O)Nc2ccccc21)NCCCCNC(=O)c1ccc(-c2c3nc(c(-c4ccc(S(=O)(=O)[O-])cc4)c4ccc([nH]4)c(-c4ccc(S(=O)(=O)[O-])cc4)c4nc(c(-c5ccc(S(=O)(=O)[O-])cc5)c5ccc2[nH]5)C=C4)C=C3)cc1
REMARK SMILES IDX 24 1 23 2 22 3 1 4 2 5 3 7 4 8 5 9 6 10 10 11 7 12 9 13 8 14
REMARK SMILES IDX 11 15 12 16 13 17 21 18 14 19 15 20 16 21 20 22 17 24 19 25
REMARK SMILES IDX 18 26 25 27 26 28 27 29 28 30 29 32 30 33 31 34 89 35 32 36
REMARK SMILES IDX 88 37 33 38 34 39 35 40 82 41 36 42 87 43 81 44 83 45 37 46
REMARK SMILES IDX 86 47 80 48 79 49 38 51 68 52 49 53 67 54 50 55 53 56 66 57
REMARK SMILES IDX 84 58 51 59 52 60 65 62 85 63 54 64 39 65 40 66 48 67 41 68
REMARK SMILES IDX 47 69 42 70 43 71 44 72 45 73 46 74 69 75 70 76 78 77 71 78
REMARK SMILES IDX 77 79 72 80 73 81 74 82 75 83 76 84 55 85 56 86 64 87 57 88
REMARK SMILES IDX 63 89 58 90 59 91 60 92 61 93 62 94
REMARK H PARENT 22 6 15 23 27 31 83 50 53 61
REMARK Flexibility Score: inf
ROOT
ATOM      1  C   UNL A   1      40.193  21.873  26.350  1.00  0.00     0.023 C 
ENDROOT
BRANCH   1   2
ATOM      2  C   UNL A   1      38.692  22.072  26.236  1.00  0.00     0.116 C 
BRANCH   2   3
ATOM      3  N   UNL A   1      38.193  22.527  24.965  1.00  0.00    -0.353 N 
ATOM      4  O   UNL A   1      36.668  20.820  24.638  1.00  0.00    -0.271 OA
ATOM      5  C   UNL A   1      37.037  21.972  24.427  1.00  0.00     0.257 C 
ATOM      6  H   UNL A   1      38.671  23.234  24.475  1.00  0.00     0.163 HD
BRANCH   5   7
ATOM      7  C   UNL A   1      36.225  22.960  23.599  1.00  0.00     0.329 C 
BRANCH   7   8
ATOM      8  O   UNL A   1      35.057  23.211  24.389  1.00  0.00    -0.483 OA
BRANCH   8   9
ATOM      9  C   UNL A   1      33.977  23.671  23.679  1.00  0.00     0.127 A 
ATOM     10  C   UNL A   1      33.847  25.062  23.557  1.00  0.00     0.047 A 
ATOM     11  C   UNL A   1      32.932  22.792  23.312  1.00  0.00     0.017 A 
ATOM     12  C   UNL A   1      32.644  25.609  23.121  1.00  0.00     0.004 A 
ATOM     13  C   UNL A   1      31.703  23.384  23.000  1.00  0.00     0.012 A 
ATOM     14  C   UNL A   1      31.562  24.771  22.879  1.00  0.00     0.001 A 
BRANCH  11  15
ATOM     15  C   UNL A   1      33.102  21.312  23.310  1.00  0.00     0.026 C 
ATOM     16  C   UNL A   1      33.077  20.430  24.335  1.00  0.00     0.050 C 
ATOM     17  C   UNL A   1      32.902  20.703  25.819  1.00  0.00     0.256 C 
ATOM     18  C   UNL A   1      33.163  18.951  24.220  1.00  0.00     0.011 A 
ATOM     19  O   UNL A   1      32.743  21.757  26.409  1.00  0.00    -0.269 OA
ATOM     20  N   UNL A   1      32.941  19.467  26.436  1.00  0.00    -0.321 N 
ATOM     21  C   UNL A   1      33.060  18.439  25.515  1.00  0.00     0.049 A 
ATOM     22  C   UNL A   1      33.280  18.059  23.171  1.00  0.00     0.011 A 
ATOM     23  H   UNL A   1      32.891  19.333  27.409  1.00  0.00     0.170 HD
ATOM     24  C   UNL A   1      33.050  17.085  25.805  1.00  0.00     0.027 A 
ATOM     25  C   UNL A   1      33.247  16.680  23.425  1.00  0.00     0.001 A 
ATOM     26  C   UNL A   1      33.130  16.196  24.735  1.00  0.00     0.002 A 
ENDBRANCH  11  15
ENDBRANCH   8   9
ENDBRANCH   7   8
ENDBRANCH   5   7
ENDBRANCH   2   3
ENDBRANCH   1   2
BRANCH   1  27
ATOM     27  C   UNL A   1      40.782  22.106  27.740  1.00  0.00     0.023 C 
BRANCH  27  28
ATOM     28  C   UNL A   1      41.911  23.130  27.838  1.00  0.00     0.116 C 
BRANCH  28  29
ATOM     29  N   UNL A   1      42.216  23.786  26.574  1.00  0.00    -0.352 N 
ATOM     30  C   UNL A   1      42.119  25.114  26.222  1.00  0.00     0.251 C 
ATOM     31  H   UNL A   1      42.542  23.189  25.862  1.00  0.00     0.163 HD
ATOM     32  O   UNL A   1      42.301  25.446  25.053  1.00  0.00    -0.269 OA
BRANCH  30  33
ATOM     33  C   UNL A   1      41.764  26.138  27.232  1.00  0.00     0.039 A 
ATOM     34  C   UNL A   1      40.700  25.888  28.104  1.00  0.00     0.014 A 
ATOM     35  C   UNL A   1      42.475  27.337  27.329  1.00  0.00     0.014 A 
ATOM     36  C   UNL A   1      40.412  26.795  29.130  1.00  0.00     0.010 A 
ATOM     37  C   UNL A   1      42.239  28.199  28.398  1.00  0.00     0.010 A 
ATOM     38  C   UNL A   1      41.211  27.936  29.316  1.00  0.00    -0.014 A 
BRANCH  38  39
ATOM     39  C   UNL A   1      41.002  28.848  30.474  1.00  0.00     0.031 A 
ATOM     40  C   UNL A   1      41.843  28.713  31.717  1.00  0.00     0.074 A 
ATOM     41  C   UNL A   1      40.004  29.755  30.438  1.00  0.00     0.049 A 
ATOM     42  N   UNL A   1      41.763  29.376  32.843  1.00  0.00    -0.248 NA
ATOM     43  C   UNL A   1      42.894  27.684  31.700  1.00  0.00     0.031 C 
ATOM     44  C   UNL A   1      39.088  29.964  29.314  1.00  0.00     0.029 A 
ATOM     45  N   UNL A   1      39.586  30.668  31.377  1.00  0.00    -0.354 N 
ATOM     46  C   UNL A   1      42.737  28.832  33.673  1.00  0.00     0.074 A 
ATOM     47  C   UNL A   1      43.362  27.755  32.939  1.00  0.00     0.031 C 
ATOM     48  C   UNL A   1      38.239  30.960  29.616  1.00  0.00     0.029 A 
ATOM     49  C   UNL A   1      38.516  31.432  30.969  1.00  0.00     0.049 A 
ATOM     50  H   UNL A   1      40.013  30.767  32.258  1.00  0.00     0.167 HD
ATOM     51  C   UNL A   1      43.093  29.206  34.927  1.00  0.00     0.031 A 
ATOM     52  C   UNL A   1      37.828  32.396  31.611  1.00  0.00     0.031 A 
ATOM     53  C   UNL A   1      42.476  30.285  35.655  1.00  0.00     0.049 A 
ATOM     54  C   UNL A   1      38.231  32.784  33.007  1.00  0.00     0.074 A 
ATOM     55  C   UNL A   1      42.808  30.777  36.904  1.00  0.00     0.029 A 
ATOM     56  N   UNL A   1      41.400  31.034  35.203  1.00  0.00    -0.354 N 
ATOM     57  N   UNL A   1      39.201  32.304  33.747  1.00  0.00    -0.248 NA
ATOM     58  C   UNL A   1      37.453  33.852  33.651  1.00  0.00     0.031 C 
ATOM     59  C   UNL A   1      41.896  31.785  37.234  1.00  0.00     0.029 A 
ATOM     60  C   UNL A   1      41.037  31.965  36.162  1.00  0.00     0.049 A 
ATOM     61  H   UNL A   1      40.959  30.920  34.330  1.00  0.00     0.167 HD
ATOM     62  C   UNL A   1      39.168  33.032  34.933  1.00  0.00     0.074 A 
ATOM     63  C   UNL A   1      38.092  33.993  34.805  1.00  0.00     0.031 C 
ATOM     64  C   UNL A   1      39.962  32.916  36.026  1.00  0.00     0.031 A 
BRANCH  51  65
ATOM     65  C   UNL A   1      44.199  28.432  35.597  1.00  0.00    -0.014 A 
ATOM     66  C   UNL A   1      45.545  28.817  35.460  1.00  0.00     0.010 A 
ATOM     67  C   UNL A   1      43.885  27.326  36.408  1.00  0.00     0.010 A 
ATOM     68  C   UNL A   1      46.559  28.084  36.082  1.00  0.00     0.020 A 
ATOM     69  C   UNL A   1      44.894  26.608  37.057  1.00  0.00     0.020 A 
ATOM     70  C   UNL A   1      46.226  26.980  36.874  1.00  0.00     0.054 A 
BRANCH  70  71
ATOM     71  S   UNL A   1      47.563  26.056  37.681  1.00  0.00     0.124 S 
ATOM     72  O   UNL A   1      47.140  24.673  37.471  1.00  0.00    -0.237 OA
ATOM     73  O   UNL A   1      48.741  26.473  36.926  1.00  0.00    -0.237 OA
ATOM     74  O   UNL A   1      47.517  26.518  39.066  1.00  0.00    -0.744 OA
ENDBRANCH  70  71
ENDBRANCH  51  65
BRANCH  52  75
ATOM     75  C   UNL A   1      36.692  33.078  30.929  1.00  0.00    -0.014 A 
ATOM     76  C   UNL A   1      35.383  32.955  31.426  1.00  0.00     0.010 A 
ATOM     77  C   UNL A   1      36.917  33.867  29.785  1.00  0.00     0.010 A 
ATOM     78  C   UNL A   1      34.317  33.592  30.784  1.00  0.00     0.020 A 
ATOM     79  C   UNL A   1      35.857  34.530  29.158  1.00  0.00     0.020 A 
ATOM     80  C   UNL A   1      34.562  34.380  29.656  1.00  0.00     0.054 A 
BRANCH  80  81
ATOM     81  S   UNL A   1      33.171  35.244  28.875  1.00  0.00     0.124 S 
ATOM     82  O   UNL A   1      33.845  36.327  28.167  1.00  0.00    -0.237 OA
ATOM     83  O   UNL A   1      32.586  34.203  28.033  1.00  0.00    -0.237 OA
ATOM     84  O   UNL A   1      32.345  35.656  30.008  1.00  0.00    -0.744 OA
ENDBRANCH  80  81
ENDBRANCH  52  75
BRANCH  64  85
ATOM     85  C   UNL A   1      39.723  33.874  37.164  1.00  0.00    -0.014 A 
ATOM     86  C   UNL A   1      38.880  33.541  38.238  1.00  0.00     0.010 A 
ATOM     87  C   UNL A   1      40.400  35.108  37.183  1.00  0.00     0.010 A 
ATOM     88  C   UNL A   1      38.693  34.436  39.295  1.00  0.00     0.020 A 
ATOM     89  C   UNL A   1      40.240  35.993  38.252  1.00  0.00     0.020 A 
ATOM     90  C   UNL A   1      39.376  35.657  39.295  1.00  0.00     0.054 A 
BRANCH  90  91
ATOM     91  S   UNL A   1      39.153  36.783  40.701  1.00  0.00     0.124 S 
ATOM     92  O   UNL A   1      40.533  37.120  41.041  1.00  0.00    -0.237 OA
ATOM     93  O   UNL A   1      38.366  37.868  40.120  1.00  0.00    -0.237 OA
ATOM     94  O   UNL A   1      38.448  35.969  41.688  1.00  0.00    -0.744 OA
ENDBRANCH  90  91
ENDBRANCH  64  85
ENDBRANCH  38  39
ENDBRANCH  30  33
ENDBRANCH  28  29
ENDBRANCH  27  28
ENDBRANCH   1  27
TORSDOF 17
ENDMDL
MODEL 3
REMARK VINA RESULT:     -11.3      2.386      8.118
REMARK SMILES O=C(COc1ccccc1/C=C1\C(=O)Nc2ccccc21)NCCCCNC(=O)c1ccc(-c2c3nc(c(-c4ccc(S(=O)(=O)[O-])cc4)c4ccc([nH]4)c(-c4ccc(S(=O)(=O)[O-])cc4)c4nc(c(-c5ccc(S(=O)(=O)[O-])cc5)c5ccc2[nH]5)C=C4)C=C3)cc1
REMARK SMILES IDX 24 1 23 2 22 3 1 4 2 5 3 7 4 8 5 9 6 10 10 11 7 12 9 13 8 14
REMARK SMILES IDX 11 15 12 16 13 17 21 18 14 19 15 20 16 21 20 22 17 24 19 25
REMARK SMILES IDX 18 26 25 27 26 28 27 29 28 30 29 32 30 33 31 34 89 35 32 36
REMARK SMILES IDX 88 37 33 38 34 39 35 40 82 41 36 42 87 43 81 44 83 45 37 46
REMARK SMILES IDX 86 47 80 48 79 49 38 51 68 52 49 53 67 54 50 55 53 56 66 57
REMARK SMILES IDX 84 58 51 59 52 60 65 62 85 63 54 64 39 65 40 66 48 67 41 68
REMARK SMILES IDX 47 69 42 70 43 71 44 72 45 73 46 74 69 75 70 76 78 77 71 78
REMARK SMILES IDX 77 79 72 80 73 81 74 82 75 83 76 84 55 85 56 86 64 87 57 88
REMARK SMILES IDX 63 89 58 90 59 91 60 92 61 93 62 94
REMARK H PARENT 22 6 15 23 27 31 83 50 53 61
REMARK Flexibility Score: inf
ROOT
ATOM      1  C   UNL A   1      32.568  29.064  24.166  1.00  0.00     0.023 C 
ENDROOT
BRANCH   1   2
ATOM      2  C   UNL A   1      32.919  28.569  22.775  1.00  0.00     0.116 C 
BRANCH   2   3
ATOM      3  N   UNL A   1      32.124  27.488  22.252  1.00  0.00    -0.353 N 
ATOM      4  O   UNL A   1      33.881  26.084  21.716  1.00  0.00    -0.271 OA
ATOM      5  C   UNL A   1      32.701  26.246  22.015  1.00  0.00     0.257 C 
ATOM      6  H   UNL A   1      31.169  27.630  22.063  1.00  0.00     0.163 HD
BRANCH   5   7
ATOM      7  C   UNL A   1      31.737  25.085  22.228  1.00  0.00     0.329 C 
BRANCH   7   8
ATOM      8  O   UNL A   1      32.225  24.430  23.406  1.00  0.00    -0.483 OA
BRANCH   8   9
ATOM      9  C   UNL A   1      31.289  24.268  24.396  1.00  0.00     0.127 A 
ATOM     10  C   UNL A   1      30.740  25.436  24.944  1.00  0.00     0.047 A 
ATOM     11  C   UNL A   1      31.086  23.001  24.991  1.00  0.00     0.017 A 
ATOM     12  C   UNL A   1      30.023  25.371  26.135  1.00  0.00     0.004 A 
ATOM     13  C   UNL A   1      30.469  22.997  26.247  1.00  0.00     0.012 A 
ATOM     14  C   UNL A   1      29.921  24.158  26.804  1.00  0.00     0.001 A 
BRANCH  11  15
ATOM     15  C   UNL A   1      31.549  21.738  24.350  1.00  0.00     0.026 C 
ATOM     16  C   UNL A   1      32.608  20.950  24.642  1.00  0.00     0.050 C 
ATOM     17  C   UNL A   1      33.675  21.147  25.706  1.00  0.00     0.256 C 
ATOM     18  C   UNL A   1      32.936  19.650  24.001  1.00  0.00     0.011 A 
ATOM     19  O   UNL A   1      33.811  22.042  26.523  1.00  0.00    -0.269 OA
ATOM     20  N   UNL A   1      34.520  20.060  25.597  1.00  0.00    -0.321 N 
ATOM     21  C   UNL A   1      34.084  19.167  24.632  1.00  0.00     0.049 A 
ATOM     22  C   UNL A   1      32.357  18.877  23.012  1.00  0.00     0.011 A 
ATOM     23  H   UNL A   1      35.333  19.935  26.138  1.00  0.00     0.170 HD
ATOM     24  C   UNL A   1      34.664  17.946  24.336  1.00  0.00     0.027 A 
ATOM     25  C   UNL A   1      32.904  17.622  22.704  1.00  0.00     0.001 A 
ATOM     26  C   UNL A   1      34.050  17.159  23.364  1.00  0.00     0.002 A 
ENDBRANCH  11  15
ENDBRANCH   8   9
ENDBRANCH   7   8
ENDBRANCH   5   7
ENDBRANCH   2   3
ENDBRANCH   1   2
BRANCH   1  27
ATOM     27  C   UNL A   1      32.800  28.064  25.297  1.00  0.00     0.023 C 
BRANCH  27  28
ATOM     28  C   UNL A   1      33.680  28.536  26.454  1.00  0.00     0.116 C 
BRANCH  28  29
ATOM     29  N   UNL A   1      33.657  29.978  26.654  1.00  0.00    -0.352 N 
ATOM     30  C   UNL A   1      34.505  30.782  27.383  1.00  0.00     0.251 C 
ATOM     31  H   UNL A   1      32.923  30.451  26.199  1.00  0.00     0.163 HD
ATOM     32  O   UNL A   1      34.233  31.971  27.534  1.00  0.00    -0.269 OA
BRANCH  30  33
ATOM     33  C   UNL A   1      35.721  30.219  28.014  1.00  0.00     0.039 A 
ATOM     34  C   UNL A   1      36.915  30.197  27.285  1.00  0.00     0.014 A 
ATOM     35  C   UNL A   1      35.694  29.718  29.318  1.00  0.00     0.014 A 
ATOM     36  C   UNL A   1      38.096  29.763  27.896  1.00  0.00     0.010 A 
ATOM     37  C   UNL A   1      36.885  29.362  29.950  1.00  0.00     0.010 A 
ATOM     38  C   UNL A   1      38.101  29.387  29.250  1.00  0.00    -0.014 A 
BRANCH  38  39
ATOM     39  C   UNL A   1      39.367  29.042  29.954  1.00  0.00     0.031 A 
ATOM     40  C   UNL A   1      39.794  29.807  31.180  1.00  0.00     0.074 A 
ATOM     41  C   UNL A   1      40.173  28.085  29.449  1.00  0.00     0.049 A 
ATOM     42  N   UNL A   1      40.890  29.688  31.886  1.00  0.00    -0.248 NA
ATOM     43  C   UNL A   1      38.883  30.858  31.659  1.00  0.00     0.031 C 
ATOM     44  C   UNL A   1      39.900  27.295  28.246  1.00  0.00     0.029 A 
ATOM     45  N   UNL A   1      41.391  27.617  29.881  1.00  0.00    -0.354 N 
ATOM     46  C   UNL A   1      40.810  30.658  32.878  1.00  0.00     0.074 A 
ATOM     47  C   UNL A   1      39.580  31.388  32.655  1.00  0.00     0.031 C 
ATOM     48  C   UNL A   1      40.904  26.423  28.055  1.00  0.00     0.029 A 
ATOM     49  C   UNL A   1      41.913  26.620  29.090  1.00  0.00     0.049 A 
ATOM     50  H   UNL A   1      41.847  27.964  30.682  1.00  0.00     0.167 HD
ATOM     51  C   UNL A   1      41.669  30.909  33.896  1.00  0.00     0.031 A 
ATOM     52  C   UNL A   1      43.075  25.943  29.179  1.00  0.00     0.031 A 
ATOM     53  C   UNL A   1      42.888  30.177  34.123  1.00  0.00     0.049 A 
ATOM     54  C   UNL A   1      44.021  26.249  30.308  1.00  0.00     0.074 A 
ATOM     55  C   UNL A   1      43.793  30.318  35.161  1.00  0.00     0.029 A 
ATOM     56  N   UNL A   1      43.376  29.173  33.302  1.00  0.00    -0.354 N 
ATOM     57  N   UNL A   1      43.891  27.123  31.276  1.00  0.00    -0.248 NA
ATOM     58  C   UNL A   1      45.266  25.469  30.361  1.00  0.00     0.031 C 
ATOM     59  C   UNL A   1      44.857  29.440  34.936  1.00  0.00     0.029 A 
ATOM     60  C   UNL A   1      44.584  28.705  33.793  1.00  0.00     0.049 A 
ATOM     61  H   UNL A   1      42.931  28.841  32.489  1.00  0.00     0.167 HD
ATOM     62  C   UNL A   1      45.024  26.978  32.071  1.00  0.00     0.074 A 
ATOM     63  C   UNL A   1      45.820  25.923  31.478  1.00  0.00     0.031 C 
ATOM     64  C   UNL A   1      45.370  27.656  33.194  1.00  0.00     0.031 A 
BRANCH  51  65
ATOM     65  C   UNL A   1      41.325  32.034  34.838  1.00  0.00    -0.014 A 
ATOM     66  C   UNL A   1      40.660  31.789  36.054  1.00  0.00     0.010 A 
ATOM     67  C   UNL A   1      41.704  33.352  34.521  1.00  0.00     0.010 A 
ATOM     68  C   UNL A   1      40.342  32.845  36.912  1.00  0.00     0.020 A 
ATOM     69  C   UNL A   1      41.414  34.407  35.392  1.00  0.00     0.020 A 
ATOM     70  C   UNL A   1      40.717  34.149  36.573  1.00  0.00     0.054 A 
BRANCH  70  71
ATOM     71  S   UNL A   1      40.303  35.497  37.714  1.00  0.00     0.124 S 
ATOM     72  O   UNL A   1      40.023  36.595  36.791  1.00  0.00    -0.237 OA
ATOM     73  O   UNL A   1      39.144  34.967  38.428  1.00  0.00    -0.237 OA
ATOM     74  O   UNL A   1      41.510  35.653  38.520  1.00  0.00    -0.744 OA
ENDBRANCH  70  71
ENDBRANCH  51  65
BRANCH  52  75
ATOM     75  C   UNL A   1      43.402  24.891  28.175  1.00  0.00    -0.014 A 
ATOM     76  C   UNL A   1      44.126  25.213  27.014  1.00  0.00     0.010 A 
ATOM     77  C   UNL A   1      43.002  23.558  28.383  1.00  0.00     0.010 A 
ATOM     78  C   UNL A   1      44.430  24.228  26.071  1.00  0.00     0.020 A 
ATOM     79  C   UNL A   1      43.330  22.564  27.456  1.00  0.00     0.020 A 
ATOM     80  C   UNL A   1      44.034  22.907  26.301  1.00  0.00     0.054 A 
BRANCH  80  81
ATOM     81  S   UNL A   1      44.490  21.635  25.091  1.00  0.00     0.124 S 
ATOM     82  O   UNL A   1      44.336  22.347  23.827  1.00  0.00    -0.237 OA
ATOM     83  O   UNL A   1      45.863  21.313  25.475  1.00  0.00    -0.237 OA
ATOM     84  O   UNL A   1      43.519  20.569  25.332  1.00  0.00    -0.744 OA
ENDBRANCH  80  81
ENDBRANCH  52  75
BRANCH  64  85
ATOM     85  C   UNL A   1      46.650  27.257  33.881  1.00  0.00    -0.014 A 
ATOM     86  C   UNL A   1      47.870  27.889  33.582  1.00  0.00     0.010 A 
ATOM     87  C   UNL A   1      46.619  26.269  34.883  1.00  0.00     0.010 A 
ATOM     88  C   UNL A   1      49.040  27.519  34.250  1.00  0.00     0.020 A 
ATOM     89  C   UNL A   1      47.781  25.917  35.574  1.00  0.00     0.020 A 
ATOM     90  C   UNL A   1      48.988  26.536  35.243  1.00  0.00     0.054 A 
BRANCH  90  91
ATOM     91  S   UNL A   1      50.513  26.106  36.128  1.00  0.00     0.124 S 
ATOM     92  O   UNL A   1      51.539  26.681  35.261  1.00  0.00    -0.237 OA
ATOM     93  O   UNL A   1      50.333  26.772  37.416  1.00  0.00    -0.237 OA
ATOM     94  O   UNL A   1      50.485  24.646  36.178  1.00  0.00    -0.744 OA
ENDBRANCH  90  91
ENDBRANCH  64  85
ENDBRANCH  38  39
ENDBRANCH  30  33
ENDBRANCH  28  29
ENDBRANCH  27  28
ENDBRANCH   1  27
TORSDOF 17
ENDMDL
