MODEL 1
REMARK VINA RESULT:     -11.3      0.000      0.000
REMARK SMILES CC1=C(C)C[C@@H](C(=O)NCCCCNC(=O)c2ccc(-c3c4nc(c(-c5ccc(S(=O)(=O)[O-])cc5)c5ccc([nH]5)c(-c5ccc(S(=O)(=O)[O-])cc5)c5nc(c(-c6ccc(S(=O)(=O)[O-])cc6)c6ccc3[nH]6)C=C5)C=C4)cc2)[C@@H](C(=O)NCC[NH+]2CCOCC2)C1
REMARK SMILES IDX 11 1 10 2 9 3 7 4 8 5 6 7 1 8 2 9 3 10 89 11 4 12 5 13 77 14
REMARK SMILES IDX 78 15 79 16 80 17 81 19 82 20 83 21 84 22 88 23 85 25 87 26
REMARK SMILES IDX 86 27 12 28 13 29 14 30 15 31 16 33 17 34 18 35 76 36 19 37
REMARK SMILES IDX 75 38 20 39 21 40 22 41 69 42 23 43 74 44 68 45 70 46 24 47
REMARK SMILES IDX 73 48 67 49 66 50 25 52 55 53 36 54 54 55 37 56 40 57 53 58
REMARK SMILES IDX 71 59 38 60 39 61 52 63 72 64 41 65 26 66 27 67 35 68 28 69
REMARK SMILES IDX 34 70 29 71 30 72 31 73 32 74 33 75 56 76 57 77 65 78 58 79
REMARK SMILES IDX 64 80 59 81 60 82 61 83 62 84 63 85 42 86 43 87 51 88 44 89
REMARK SMILES IDX 50 90 45 91 46 92 47 93 48 94 49 95
REMARK H PARENT 9 6 80 18 83 24 14 32 70 51 40 62
REMARK Flexibility Score: inf
ROOT
ATOM      1  C   UNL A   1      32.922  28.145  24.795  1.00  0.00     0.023 C 
ENDROOT
BRANCH   1   2
ATOM      2  C   UNL A   1      32.375  26.795  24.350  1.00  0.00     0.116 C 
BRANCH   2   3
ATOM      3  N   UNL A   1      33.283  26.087  23.483  1.00  0.00    -0.356 N 
ATOM      4  C   UNL A   1      33.982  24.938  23.661  1.00  0.00     0.224 C 
ATOM      5  O   UNL A   1      34.448  24.424  22.636  1.00  0.00    -0.275 OA
ATOM      6  H   UNL A   1      33.419  26.513  22.607  1.00  0.00     0.163 HD
BRANCH   4   7
ATOM      7  C   UNL A   1      34.150  24.225  25.012  1.00  0.00     0.095 C 
ATOM      8  C   UNL A   1      37.108  20.926  25.305  1.00  0.00     0.039 C 
ATOM      9  C   UNL A   1      36.148  22.088  25.370  1.00  0.00    -0.074 C 
ATOM     10  C   UNL A   1      36.520  23.362  25.614  1.00  0.00    -0.074 C 
ATOM     11  C   UNL A   1      34.721  21.704  25.042  1.00  0.00     0.045 C 
ATOM     12  C   UNL A   1      37.945  23.823  25.805  1.00  0.00     0.039 C 
ATOM     13  C   UNL A   1      35.525  24.499  25.627  1.00  0.00     0.045 C 
ATOM     14  C   UNL A   1      33.634  22.773  25.161  1.00  0.00     0.095 C 
BRANCH  14  15
ATOM     15  C   UNL A   1      32.345  22.577  24.346  1.00  0.00     0.224 C 
ATOM     16  O   UNL A   1      31.475  23.455  24.336  1.00  0.00    -0.275 OA
ATOM     17  N   UNL A   1      31.986  21.442  23.703  1.00  0.00    -0.350 N 
ATOM     18  H   UNL A   1      31.095  21.504  23.291  1.00  0.00     0.163 HD
BRANCH  17  19
ATOM     19  C   UNL A   1      32.621  20.154  23.486  1.00  0.00     0.177 C 
BRANCH  19  20
ATOM     20  C   UNL A   1      32.278  19.120  24.583  1.00  0.00     0.283 C 
BRANCH  20  21
ATOM     21  N   UNL A   1      33.306  18.249  25.156  1.00  0.00    -0.330 N 
ATOM     22  C   UNL A   1      34.439  17.915  24.282  1.00  0.00     0.291 C 
ATOM     23  C   UNL A   1      32.873  17.075  25.923  1.00  0.00     0.291 C 
ATOM     24  H   UNL A   1      33.646  18.905  25.859  1.00  0.00     0.348 HD
ATOM     25  C   UNL A   1      34.292  16.599  23.506  1.00  0.00     0.221 C 
ATOM     26  C   UNL A   1      32.761  15.780  25.102  1.00  0.00     0.221 C 
ATOM     27  O   UNL A   1      33.963  15.511  24.374  1.00  0.00    -0.370 OA
ENDBRANCH  20  21
ENDBRANCH  19  20
ENDBRANCH  17  19
ENDBRANCH  14  15
ENDBRANCH   4   7
ENDBRANCH   2   3
ENDBRANCH   1   2
BRANCH   1  28
ATOM     28  C   UNL A   1      33.983  28.081  25.889  1.00  0.00     0.023 C 
BRANCH  28  29
ATOM     29  C   UNL A   1      33.486  28.410  27.287  1.00  0.00     0.116 C 
BRANCH  29  30
ATOM     30  N   UNL A   1      33.419  29.839  27.558  1.00  0.00    -0.352 N 
ATOM     31  C   UNL A   1      34.414  30.654  28.050  1.00  0.00     0.251 C 
ATOM     32  H   UNL A   1      32.558  30.276  27.366  1.00  0.00     0.163 HD
ATOM     33  O   UNL A   1      34.185  31.819  28.328  1.00  0.00    -0.269 OA
BRANCH  31  34
ATOM     34  C   UNL A   1      35.754  30.068  28.272  1.00  0.00     0.039 A 
ATOM     35  C   UNL A   1      36.699  30.136  27.248  1.00  0.00     0.014 A 
ATOM     36  C   UNL A   1      36.089  29.530  29.517  1.00  0.00     0.014 A 
ATOM     37  C   UNL A   1      38.011  29.729  27.499  1.00  0.00     0.010 A 
ATOM     38  C   UNL A   1      37.411  29.197  29.787  1.00  0.00     0.010 A 
ATOM     39  C   UNL A   1      38.384  29.294  28.781  1.00  0.00    -0.014 A 
BRANCH  39  40
ATOM     40  C   UNL A   1      39.787  28.932  29.097  1.00  0.00     0.031 A 
ATOM     41  C   UNL A   1      40.698  29.948  29.730  1.00  0.00     0.074 A 
ATOM     42  C   UNL A   1      40.261  27.719  28.747  1.00  0.00     0.049 A 
ATOM     43  N   UNL A   1      41.971  29.853  30.012  1.00  0.00    -0.248 NA
ATOM     44  C   UNL A   1      40.104  31.254  30.066  1.00  0.00     0.031 C 
ATOM     45  C   UNL A   1      39.490  26.665  28.083  1.00  0.00     0.029 A 
ATOM     46  N   UNL A   1      41.511  27.171  28.895  1.00  0.00    -0.354 N 
ATOM     47  C   UNL A   1      42.334  31.086  30.538  1.00  0.00     0.074 A 
ATOM     48  C   UNL A   1      41.161  31.931  30.489  1.00  0.00     0.031 C 
ATOM     49  C   UNL A   1      40.276  25.589  27.908  1.00  0.00     0.029 A 
ATOM     50  C   UNL A   1      41.612  25.889  28.410  1.00  0.00     0.049 A 
ATOM     51  H   UNL A   1      42.263  27.652  29.310  1.00  0.00     0.167 HD
ATOM     52  C   UNL A   1      43.529  31.476  31.041  1.00  0.00     0.031 A 
ATOM     53  C   UNL A   1      42.666  25.050  28.371  1.00  0.00     0.031 A 
ATOM     54  C   UNL A   1      44.689  30.630  31.104  1.00  0.00     0.049 A 
ATOM     55  C   UNL A   1      43.984  25.505  28.939  1.00  0.00     0.074 A 
ATOM     56  C   UNL A   1      45.934  30.913  31.636  1.00  0.00     0.029 A 
ATOM     57  N   UNL A   1      44.745  29.329  30.623  1.00  0.00    -0.354 N 
ATOM     58  N   UNL A   1      44.292  26.658  29.483  1.00  0.00    -0.248 NA
ATOM     59  C   UNL A   1      45.092  24.541  28.896  1.00  0.00     0.031 C 
ATOM     60  C   UNL A   1      46.755  29.796  31.446  1.00  0.00     0.029 A 
ATOM     61  C   UNL A   1      46.006  28.800  30.837  1.00  0.00     0.049 A 
ATOM     62  H   UNL A   1      43.998  28.854  30.194  1.00  0.00     0.167 HD
ATOM     63  C   UNL A   1      45.622  26.547  29.873  1.00  0.00     0.074 A 
ATOM     64  C   UNL A   1      46.054  25.212  29.515  1.00  0.00     0.031 C 
ATOM     65  C   UNL A   1      46.414  27.467  30.477  1.00  0.00     0.031 A 
BRANCH  52  66
ATOM     66  C   UNL A   1      43.631  32.883  31.568  1.00  0.00    -0.014 A 
ATOM     67  C   UNL A   1      43.962  33.951  30.714  1.00  0.00     0.010 A 
ATOM     68  C   UNL A   1      43.375  33.145  32.925  1.00  0.00     0.010 A 
ATOM     69  C   UNL A   1      44.080  35.248  31.217  1.00  0.00     0.020 A 
ATOM     70  C   UNL A   1      43.466  34.446  33.427  1.00  0.00     0.020 A 
ATOM     71  C   UNL A   1      43.837  35.487  32.573  1.00  0.00     0.054 A 
BRANCH  71  72
ATOM     72  S   UNL A   1      43.986  37.183  33.196  1.00  0.00     0.124 S 
ATOM     73  O   UNL A   1      45.216  37.108  33.980  1.00  0.00    -0.237 OA
ATOM     74  O   UNL A   1      44.073  37.971  31.969  1.00  0.00    -0.237 OA
ATOM     75  O   UNL A   1      42.763  37.376  33.971  1.00  0.00    -0.744 OA
ENDBRANCH  71  72
ENDBRANCH  52  66
BRANCH  53  76
ATOM     76  C   UNL A   1      42.515  23.687  27.794  1.00  0.00    -0.014 A 
ATOM     77  C   UNL A   1      42.008  22.637  28.580  1.00  0.00     0.010 A 
ATOM     78  C   UNL A   1      42.872  23.431  26.459  1.00  0.00     0.010 A 
ATOM     79  C   UNL A   1      41.884  21.350  28.049  1.00  0.00     0.020 A 
ATOM     80  C   UNL A   1      42.726  22.152  25.916  1.00  0.00     0.020 A 
ATOM     81  C   UNL A   1      42.246  21.115  26.720  1.00  0.00     0.054 A 
BRANCH  81  82
ATOM     82  S   UNL A   1      42.039  19.446  26.037  1.00  0.00     0.124 S 
ATOM     83  O   UNL A   1      42.853  19.510  24.828  1.00  0.00    -0.237 OA
ATOM     84  O   UNL A   1      42.560  18.599  27.107  1.00  0.00    -0.237 OA
ATOM     85  O   UNL A   1      40.598  19.343  25.819  1.00  0.00    -0.744 OA
ENDBRANCH  81  82
ENDBRANCH  53  76
BRANCH  65  86
ATOM     86  C   UNL A   1      47.818  27.051  30.819  1.00  0.00    -0.014 A 
ATOM     87  C   UNL A   1      48.888  27.307  29.945  1.00  0.00     0.010 A 
ATOM     88  C   UNL A   1      48.075  26.444  32.062  1.00  0.00     0.010 A 
ATOM     89  C   UNL A   1      50.189  26.938  30.295  1.00  0.00     0.020 A 
ATOM     90  C   UNL A   1      49.378  26.096  32.426  1.00  0.00     0.020 A 
ATOM     91  C   UNL A   1      50.426  26.332  31.534  1.00  0.00     0.054 A 
BRANCH  91  92
ATOM     92  S   UNL A   1      52.128  25.905  31.988  1.00  0.00     0.124 S 
ATOM     93  O   UNL A   1      51.991  24.512  32.402  1.00  0.00    -0.237 OA
ATOM     94  O   UNL A   1      52.858  26.119  30.740  1.00  0.00    -0.237 OA
ATOM     95  O   UNL A   1      52.448  26.846  33.058  1.00  0.00    -0.744 OA
ENDBRANCH  91  92
ENDBRANCH  65  86
ENDBRANCH  39  40
ENDBRANCH  31  34
ENDBRANCH  29  30
ENDBRANCH  28  29
ENDBRANCH   1  28
TORSDOF 18
ENDMDL
MODEL 2
REMARK VINA RESULT:     -11.2      3.083      9.970
REMARK SMILES CC1=C(C)C[C@@H](C(=O)NCCCCNC(=O)c2ccc(-c3c4nc(c(-c5ccc(S(=O)(=O)[O-])cc5)c5ccc([nH]5)c(-c5ccc(S(=O)(=O)[O-])cc5)c5nc(c(-c6ccc(S(=O)(=O)[O-])cc6)c6ccc3[nH]6)C=C5)C=C4)cc2)[C@@H](C(=O)NCC[NH+]2CCOCC2)C1
REMARK SMILES IDX 11 1 10 2 9 3 7 4 8 5 6 7 1 8 2 9 3 10 89 11 4 12 5 13 77 14
REMARK SMILES IDX 78 15 79 16 80 17 81 19 82 20 83 21 84 22 88 23 85 25 87 26
REMARK SMILES IDX 86 27 12 28 13 29 14 30 15 31 16 33 17 34 18 35 76 36 19 37
REMARK SMILES IDX 75 38 20 39 21 40 22 41 69 42 23 43 74 44 68 45 70 46 24 47
REMARK SMILES IDX 73 48 67 49 66 50 25 52 55 53 36 54 54 55 37 56 40 57 53 58
REMARK SMILES IDX 71 59 38 60 39 61 52 63 72 64 41 65 26 66 27 67 35 68 28 69
REMARK SMILES IDX 34 70 29 71 30 72 31 73 32 74 33 75 56 76 57 77 65 78 58 79
REMARK SMILES IDX 64 80 59 81 60 82 61 83 62 84 63 85 42 86 43 87 51 88 44 89
REMARK SMILES IDX 50 90 45 91 46 92 47 93 48 94 49 95
REMARK H PARENT 9 6 80 18 83 24 14 32 70 51 40 62
REMARK Flexibility Score: inf
ROOT
ATOM      1  C   UNL A   1      34.881  22.937  23.770  1.00  0.00     0.023 C 
ENDROOT
BRANCH   1   2
ATOM      2  C   UNL A   1      34.040  24.080  23.218  1.00  0.00     0.116 C 
BRANCH   2   3
ATOM      3  N   UNL A   1      33.011  24.506  24.132  1.00  0.00    -0.356 N 
ATOM      4  C   UNL A   1      32.711  25.726  24.642  1.00  0.00     0.224 C 
ATOM      5  O   UNL A   1      31.597  25.834  25.170  1.00  0.00    -0.275 OA
ATOM      6  H   UNL A   1      32.422  23.781  24.443  1.00  0.00     0.163 HD
BRANCH   4   7
ATOM      7  C   UNL A   1      33.620  26.961  24.527  1.00  0.00     0.095 C 
ATOM      8  C   UNL A   1      32.151  30.822  26.158  1.00  0.00     0.039 C 
ATOM      9  C   UNL A   1      32.809  29.560  25.656  1.00  0.00    -0.074 C 
ATOM     10  C   UNL A   1      33.500  28.706  26.441  1.00  0.00    -0.074 C 
ATOM     11  C   UNL A   1      32.544  29.288  24.191  1.00  0.00     0.045 C 
ATOM     12  C   UNL A   1      33.673  28.854  27.934  1.00  0.00     0.039 C 
ATOM     13  C   UNL A   1      34.106  27.432  25.900  1.00  0.00     0.045 C 
ATOM     14  C   UNL A   1      33.230  28.087  23.539  1.00  0.00     0.095 C 
BRANCH  14  15
ATOM     15  C   UNL A   1      32.584  27.492  22.277  1.00  0.00     0.224 C 
ATOM     16  O   UNL A   1      33.285  26.955  21.413  1.00  0.00    -0.275 OA
ATOM     17  N   UNL A   1      31.280  27.604  21.934  1.00  0.00    -0.350 N 
ATOM     18  H   UNL A   1      31.081  27.204  21.057  1.00  0.00     0.163 HD
BRANCH  17  19
ATOM     19  C   UNL A   1      30.109  28.182  22.569  1.00  0.00     0.177 C 
BRANCH  19  20
ATOM     20  C   UNL A   1      29.950  29.692  22.279  1.00  0.00     0.283 C 
BRANCH  20  21
ATOM     21  N   UNL A   1      28.660  30.366  22.433  1.00  0.00    -0.330 N 
ATOM     22  C   UNL A   1      27.924  30.658  21.195  1.00  0.00     0.291 C 
ATOM     23  C   UNL A   1      28.570  31.491  23.371  1.00  0.00     0.291 C 
ATOM     24  H   UNL A   1      28.175  29.601  22.902  1.00  0.00     0.348 HD
ATOM     25  C   UNL A   1      28.161  32.060  20.616  1.00  0.00     0.221 C 
ATOM     26  C   UNL A   1      28.796  32.874  22.736  1.00  0.00     0.221 C 
ATOM     27  O   UNL A   1      27.951  33.076  21.599  1.00  0.00    -0.370 OA
ENDBRANCH  20  21
ENDBRANCH  19  20
ENDBRANCH  17  19
ENDBRANCH  14  15
ENDBRANCH   4   7
ENDBRANCH   2   3
ENDBRANCH   1   2
BRANCH   1  28
ATOM     28  C   UNL A   1      35.573  23.229  25.097  1.00  0.00     0.023 C 
BRANCH  28  29
ATOM     29  C   UNL A   1      37.013  23.703  24.981  1.00  0.00     0.116 C 
BRANCH  29  30
ATOM     30  N   UNL A   1      37.989  22.694  25.364  1.00  0.00    -0.352 N 
ATOM     31  C   UNL A   1      39.106  22.855  26.154  1.00  0.00     0.251 C 
ATOM     32  H   UNL A   1      37.832  21.786  25.017  1.00  0.00     0.163 HD
ATOM     33  O   UNL A   1      39.898  21.940  26.307  1.00  0.00    -0.269 OA
BRANCH  31  34
ATOM     34  C   UNL A   1      39.341  24.177  26.774  1.00  0.00     0.039 A 
ATOM     35  C   UNL A   1      38.891  24.402  28.076  1.00  0.00     0.014 A 
ATOM     36  C   UNL A   1      40.073  25.153  26.094  1.00  0.00     0.014 A 
ATOM     37  C   UNL A   1      39.242  25.587  28.726  1.00  0.00     0.010 A 
ATOM     38  C   UNL A   1      40.486  26.295  26.769  1.00  0.00     0.010 A 
ATOM     39  C   UNL A   1      40.076  26.523  28.091  1.00  0.00    -0.014 A 
BRANCH  39  40
ATOM     40  C   UNL A   1      40.530  27.751  28.788  1.00  0.00     0.031 A 
ATOM     41  C   UNL A   1      41.901  27.797  29.403  1.00  0.00     0.074 A 
ATOM     42  C   UNL A   1      39.685  28.791  28.930  1.00  0.00     0.049 A 
ATOM     43  N   UNL A   1      42.453  28.744  30.117  1.00  0.00    -0.248 NA
ATOM     44  C   UNL A   1      42.754  26.611  29.214  1.00  0.00     0.031 C 
ATOM     45  C   UNL A   1      38.312  28.848  28.419  1.00  0.00     0.029 A 
ATOM     46  N   UNL A   1      39.855  30.002  29.554  1.00  0.00    -0.354 N 
ATOM     47  C   UNL A   1      43.706  28.263  30.477  1.00  0.00     0.074 A 
ATOM     48  C   UNL A   1      43.813  26.920  29.949  1.00  0.00     0.031 C 
ATOM     49  C   UNL A   1      37.778  30.042  28.727  1.00  0.00     0.029 A 
ATOM     50  C   UNL A   1      38.751  30.818  29.487  1.00  0.00     0.049 A 
ATOM     51  H   UNL A   1      40.690  30.260  30.007  1.00  0.00     0.167 HD
ATOM     52  C   UNL A   1      44.690  28.887  31.166  1.00  0.00     0.031 A 
ATOM     53  C   UNL A   1      38.546  32.053  29.985  1.00  0.00     0.031 A 
ATOM     54  C   UNL A   1      44.587  30.228  31.676  1.00  0.00     0.049 A 
ATOM     55  C   UNL A   1      39.656  32.730  30.744  1.00  0.00     0.074 A 
ATOM     56  C   UNL A   1      45.543  30.970  32.346  1.00  0.00     0.029 A 
ATOM     57  N   UNL A   1      43.460  31.030  31.567  1.00  0.00    -0.354 N 
ATOM     58  N   UNL A   1      40.854  32.278  31.026  1.00  0.00    -0.248 NA
ATOM     59  C   UNL A   1      39.388  34.086  31.241  1.00  0.00     0.031 C 
ATOM     60  C   UNL A   1      44.983  32.209  32.673  1.00  0.00     0.029 A 
ATOM     61  C   UNL A   1      43.694  32.255  32.166  1.00  0.00     0.049 A 
ATOM     62  H   UNL A   1      42.620  30.766  31.128  1.00  0.00     0.167 HD
ATOM     63  C   UNL A   1      41.493  33.307  31.710  1.00  0.00     0.074 A 
ATOM     64  C   UNL A   1      40.554  34.406  31.786  1.00  0.00     0.031 C 
ATOM     65  C   UNL A   1      42.746  33.338  32.227  1.00  0.00     0.031 A 
BRANCH  52  66
ATOM     66  C   UNL A   1      45.965  28.122  31.396  1.00  0.00    -0.014 A 
ATOM     67  C   UNL A   1      46.146  27.356  32.562  1.00  0.00     0.010 A 
ATOM     68  C   UNL A   1      46.986  28.151  30.430  1.00  0.00     0.010 A 
ATOM     69  C   UNL A   1      47.343  26.671  32.780  1.00  0.00     0.020 A 
ATOM     70  C   UNL A   1      48.176  27.444  30.632  1.00  0.00     0.020 A 
ATOM     71  C   UNL A   1      48.354  26.724  31.816  1.00  0.00     0.054 A 
BRANCH  71  72
ATOM     72  S   UNL A   1      49.893  25.815  32.119  1.00  0.00     0.124 S 
ATOM     73  O   UNL A   1      50.183  25.267  30.796  1.00  0.00    -0.237 OA
ATOM     74  O   UNL A   1      50.802  26.863  32.576  1.00  0.00    -0.237 OA
ATOM     75  O   UNL A   1      49.520  24.831  33.133  1.00  0.00    -0.744 OA
ENDBRANCH  71  72
ENDBRANCH  52  66
BRANCH  53  76
ATOM     76  C   UNL A   1      37.245  32.741  29.764  1.00  0.00    -0.014 A 
ATOM     77  C   UNL A   1      37.044  33.526  28.615  1.00  0.00     0.010 A 
ATOM     78  C   UNL A   1      36.200  32.613  30.696  1.00  0.00     0.010 A 
ATOM     79  C   UNL A   1      35.831  34.191  28.413  1.00  0.00     0.020 A 
ATOM     80  C   UNL A   1      34.976  33.256  30.486  1.00  0.00     0.020 A 
ATOM     81  C   UNL A   1      34.805  34.053  29.352  1.00  0.00     0.054 A 
BRANCH  81  82
ATOM     82  S   UNL A   1      33.223  34.892  29.051  1.00  0.00     0.124 S 
ATOM     83  O   UNL A   1      33.661  36.202  28.581  1.00  0.00    -0.237 OA
ATOM     84  O   UNL A   1      32.596  34.036  28.048  1.00  0.00    -0.237 OA
ATOM     85  O   UNL A   1      32.577  34.878  30.361  1.00  0.00    -0.744 OA
ENDBRANCH  81  82
ENDBRANCH  53  76
BRANCH  65  86
ATOM     86  C   UNL A   1      43.187  34.615  32.889  1.00  0.00    -0.014 A 
ATOM     87  C   UNL A   1      43.797  35.645  32.152  1.00  0.00     0.010 A 
ATOM     88  C   UNL A   1      42.935  34.806  34.260  1.00  0.00     0.010 A 
ATOM     89  C   UNL A   1      44.173  36.834  32.781  1.00  0.00     0.020 A 
ATOM     90  C   UNL A   1      43.287  36.003  34.886  1.00  0.00     0.020 A 
ATOM     91  C   UNL A   1      43.917  37.005  34.145  1.00  0.00     0.054 A 
BRANCH  91  92
ATOM     92  S   UNL A   1      44.371  38.576  34.930  1.00  0.00     0.124 S 
ATOM     93  O   UNL A   1      43.461  39.515  34.279  1.00  0.00    -0.237 OA
ATOM     94  O   UNL A   1      44.103  38.319  36.343  1.00  0.00    -0.237 OA
ATOM     95  O   UNL A   1      45.783  38.738  34.590  1.00  0.00    -0.744 OA
ENDBRANCH  91  92
ENDBRANCH  65  86
ENDBRANCH  39  40
ENDBRANCH  31  34
ENDBRANCH  29  30
ENDBRANCH  28  29
ENDBRANCH   1  28
TORSDOF 18
ENDMDL
MODEL 3
REMARK VINA RESULT:     -10.9      4.284      9.895
REMARK SMILES CC1=C(C)C[C@@H](C(=O)NCCCCNC(=O)c2ccc(-c3c4nc(c(-c5ccc(S(=O)(=O)[O-])cc5)c5ccc([nH]5)c(-c5ccc(S(=O)(=O)[O-])cc5)c5nc(c(-c6ccc(S(=O)(=O)[O-])cc6)c6ccc3[nH]6)C=C5)C=C4)cc2)[C@@H](C(=O)NCC[NH+]2CCOCC2)C1
REMARK SMILES IDX 11 1 10 2 9 3 7 4 8 5 6 7 1 8 2 9 3 10 89 11 4 12 5 13 77 14
REMARK SMILES IDX 78 15 79 16 80 17 81 19 82 20 83 21 84 22 88 23 85 25 87 26
REMARK SMILES IDX 86 27 12 28 13 29 14 30 15 31 16 33 17 34 18 35 76 36 19 37
REMARK SMILES IDX 75 38 20 39 21 40 22 41 69 42 23 43 74 44 68 45 70 46 24 47
REMARK SMILES IDX 73 48 67 49 66 50 25 52 55 53 36 54 54 55 37 56 40 57 53 58
REMARK SMILES IDX 71 59 38 60 39 61 52 63 72 64 41 65 26 66 27 67 35 68 28 69
REMARK SMILES IDX 34 70 29 71 30 72 31 73 32 74 33 75 56 76 57 77 65 78 58 79
REMARK SMILES IDX 64 80 59 81 60 82 61 83 62 84 63 85 42 86 43 87 51 88 44 89
REMARK SMILES IDX 50 90 45 91 46 92 47 93 48 94 49 95
REMARK H PARENT 9 6 80 18 83 24 14 32 70 51 40 62
REMARK Flexibility Score: inf
ROOT
ATOM      1  C   UNL A   1      37.007  22.634  25.263  1.00  0.00     0.023 C 
ENDROOT
BRANCH   1   2
ATOM      2  C   UNL A   1      35.549  22.405  25.638  1.00  0.00     0.116 C 
BRANCH   2   3
ATOM      3  N   UNL A   1      34.907  23.599  26.126  1.00  0.00    -0.356 N 
ATOM      4  C   UNL A   1      33.857  24.314  25.650  1.00  0.00     0.224 C 
ATOM      5  O   UNL A   1      33.349  25.120  26.439  1.00  0.00    -0.275 OA
ATOM      6  H   UNL A   1      35.301  23.960  26.953  1.00  0.00     0.163 HD
BRANCH   4   7
ATOM      7  C   UNL A   1      33.238  24.120  24.257  1.00  0.00     0.095 C 
ATOM      8  C   UNL A   1      30.355  27.163  22.788  1.00  0.00     0.039 C 
ATOM      9  C   UNL A   1      31.389  26.115  23.121  1.00  0.00    -0.074 C 
ATOM     10  C   UNL A   1      32.710  26.256  22.885  1.00  0.00    -0.074 C 
ATOM     11  C   UNL A   1      30.813  24.913  23.838  1.00  0.00     0.045 C 
ATOM     12  C   UNL A   1      33.356  27.491  22.305  1.00  0.00     0.039 C 
ATOM     13  C   UNL A   1      33.712  25.195  23.275  1.00  0.00     0.045 C 
ATOM     14  C   UNL A   1      31.742  23.739  24.150  1.00  0.00     0.095 C 
BRANCH  14  15
ATOM     15  C   UNL A   1      31.345  22.800  25.302  1.00  0.00     0.224 C 
ATOM     16  O   UNL A   1      30.731  23.240  26.280  1.00  0.00    -0.275 OA
ATOM     17  N   UNL A   1      31.718  21.505  25.425  1.00  0.00    -0.350 N 
ATOM     18  H   UNL A   1      31.408  21.098  26.266  1.00  0.00     0.163 HD
BRANCH  17  19
ATOM     19  C   UNL A   1      32.473  20.582  24.596  1.00  0.00     0.177 C 
BRANCH  19  20
ATOM     20  C   UNL A   1      32.837  19.272  25.331  1.00  0.00     0.283 C 
BRANCH  20  21
ATOM     21  N   UNL A   1      32.428  17.967  24.809  1.00  0.00    -0.330 N 
ATOM     22  C   UNL A   1      32.764  16.799  25.635  1.00  0.00     0.291 C 
ATOM     23  C   UNL A   1      32.656  17.684  23.387  1.00  0.00     0.291 C 
ATOM     24  H   UNL A   1      31.422  18.113  24.884  1.00  0.00     0.348 HD
ATOM     25  C   UNL A   1      34.087  16.109  25.272  1.00  0.00     0.221 C 
ATOM     26  C   UNL A   1      33.985  16.974  23.080  1.00  0.00     0.221 C 
ATOM     27  O   UNL A   1      34.151  15.798  23.878  1.00  0.00    -0.370 OA
ENDBRANCH  20  21
ENDBRANCH  19  20
ENDBRANCH  17  19
ENDBRANCH  14  15
ENDBRANCH   4   7
ENDBRANCH   2   3
ENDBRANCH   1   2
BRANCH   1  28
ATOM     28  C   UNL A   1      37.938  22.916  26.437  1.00  0.00     0.023 C 
BRANCH  28  29
ATOM     29  C   UNL A   1      38.728  24.211  26.335  1.00  0.00     0.116 C 
BRANCH  29  30
ATOM     30  N   UNL A   1      40.148  24.008  26.091  1.00  0.00    -0.352 N 
ATOM     31  C   UNL A   1      41.204  24.748  26.575  1.00  0.00     0.251 C 
ATOM     32  H   UNL A   1      40.383  23.249  25.510  1.00  0.00     0.163 HD
ATOM     33  O   UNL A   1      42.344  24.526  26.202  1.00  0.00    -0.269 OA
BRANCH  31  34
ATOM     34  C   UNL A   1      40.913  25.845  27.524  1.00  0.00     0.039 A 
ATOM     35  C   UNL A   1      39.945  25.647  28.509  1.00  0.00     0.014 A 
ATOM     36  C   UNL A   1      41.656  27.027  27.482  1.00  0.00     0.014 A 
ATOM     37  C   UNL A   1      39.773  26.612  29.504  1.00  0.00     0.010 A 
ATOM     38  C   UNL A   1      41.537  27.949  28.514  1.00  0.00     0.010 A 
ATOM     39  C   UNL A   1      40.596  27.750  29.535  1.00  0.00    -0.014 A 
BRANCH  39  40
ATOM     40  C   UNL A   1      40.489  28.751  30.625  1.00  0.00     0.031 A 
ATOM     41  C   UNL A   1      41.372  28.633  31.837  1.00  0.00     0.074 A 
ATOM     42  C   UNL A   1      39.551  29.716  30.558  1.00  0.00     0.049 A 
ATOM     43  N   UNL A   1      41.379  29.357  32.926  1.00  0.00    -0.248 NA
ATOM     44  C   UNL A   1      42.359  27.540  31.836  1.00  0.00     0.031 C 
ATOM     45  C   UNL A   1      38.603  29.906  29.457  1.00  0.00     0.029 A 
ATOM     46  N   UNL A   1      39.236  30.719  31.441  1.00  0.00    -0.354 N 
ATOM     47  C   UNL A   1      42.353  28.799  33.744  1.00  0.00     0.074 A 
ATOM     48  C   UNL A   1      42.880  27.644  33.050  1.00  0.00     0.031 C 
ATOM     49  C   UNL A   1      37.833  30.975  29.719  1.00  0.00     0.029 A 
ATOM     50  C   UNL A   1      38.205  31.524  31.018  1.00  0.00     0.049 A 
ATOM     51  H   UNL A   1      39.705  30.849  32.297  1.00  0.00     0.167 HD
ATOM     52  C   UNL A   1      42.789  29.220  34.954  1.00  0.00     0.031 A 
ATOM     53  C   UNL A   1      37.623  32.583  31.614  1.00  0.00     0.031 A 
ATOM     54  C   UNL A   1      42.276  30.377  35.635  1.00  0.00     0.049 A 
ATOM     55  C   UNL A   1      38.126  33.035  32.958  1.00  0.00     0.074 A 
ATOM     56  C   UNL A   1      42.681  30.916  36.843  1.00  0.00     0.029 A 
ATOM     57  N   UNL A   1      41.247  31.180  35.163  1.00  0.00    -0.354 N 
ATOM     58  N   UNL A   1      39.087  32.525  33.691  1.00  0.00    -0.248 NA
ATOM     59  C   UNL A   1      37.474  34.212  33.548  1.00  0.00     0.031 C 
ATOM     60  C   UNL A   1      41.873  32.025  37.119  1.00  0.00     0.029 A 
ATOM     61  C   UNL A   1      40.997  32.203  36.060  1.00  0.00     0.049 A 
ATOM     62  H   UNL A   1      40.767  31.041  34.315  1.00  0.00     0.167 HD
ATOM     63  C   UNL A   1      39.173  33.337  34.817  1.00  0.00     0.074 A 
ATOM     64  C   UNL A   1      38.177  34.377  34.661  1.00  0.00     0.031 C 
ATOM     65  C   UNL A   1      40.003  33.231  35.883  1.00  0.00     0.031 A 
BRANCH  52  66
ATOM     66  C   UNL A   1      43.883  28.421  35.611  1.00  0.00    -0.014 A 
ATOM     67  C   UNL A   1      45.236  28.716  35.367  1.00  0.00     0.010 A 
ATOM     68  C   UNL A   1      43.557  27.380  36.497  1.00  0.00     0.010 A 
ATOM     69  C   UNL A   1      46.245  27.953  35.960  1.00  0.00     0.020 A 
ATOM     70  C   UNL A   1      44.564  26.631  37.115  1.00  0.00     0.020 A 
ATOM     71  C   UNL A   1      45.902  26.911  36.827  1.00  0.00     0.054 A 
BRANCH  71  72
ATOM     72  S   UNL A   1      47.231  25.945  37.593  1.00  0.00     0.124 S 
ATOM     73  O   UNL A   1      47.991  26.979  38.290  1.00  0.00    -0.237 OA
ATOM     74  O   UNL A   1      46.501  25.017  38.453  1.00  0.00    -0.237 OA
ATOM     75  O   UNL A   1      47.913  25.330  36.456  1.00  0.00    -0.744 OA
ENDBRANCH  71  72
ENDBRANCH  52  66
BRANCH  53  76
ATOM     76  C   UNL A   1      36.512  33.304  30.934  1.00  0.00    -0.014 A 
ATOM     77  C   UNL A   1      35.226  33.322  31.502  1.00  0.00     0.010 A 
ATOM     78  C   UNL A   1      36.733  33.978  29.720  1.00  0.00     0.010 A 
ATOM     79  C   UNL A   1      34.175  33.980  30.856  1.00  0.00     0.020 A 
ATOM     80  C   UNL A   1      35.691  34.658  29.083  1.00  0.00     0.020 A 
ATOM     81  C   UNL A   1      34.415  34.643  29.650  1.00  0.00     0.054 A 
BRANCH  81  82
ATOM     82  S   UNL A   1      33.045  35.526  28.848  1.00  0.00     0.124 S 
ATOM     83  O   UNL A   1      33.753  36.527  28.057  1.00  0.00    -0.237 OA
ATOM     84  O   UNL A   1      32.388  34.466  28.087  1.00  0.00    -0.237 OA
ATOM     85  O   UNL A   1      32.271  36.045  29.972  1.00  0.00    -0.744 OA
ENDBRANCH  81  82
ENDBRANCH  53  76
BRANCH  65  86
ATOM     86  C   UNL A   1      39.896  34.288  36.949  1.00  0.00    -0.014 A 
ATOM     87  C   UNL A   1      40.540  35.529  36.811  1.00  0.00     0.010 A 
ATOM     88  C   UNL A   1      39.090  34.051  38.078  1.00  0.00     0.010 A 
ATOM     89  C   UNL A   1      40.403  36.507  37.799  1.00  0.00     0.020 A 
ATOM     90  C   UNL A   1      38.931  35.036  39.055  1.00  0.00     0.020 A 
ATOM     91  C   UNL A   1      39.601  36.254  38.917  1.00  0.00     0.054 A 
BRANCH  91  92
ATOM     92  S   UNL A   1      39.400  37.555  40.163  1.00  0.00     0.124 S 
ATOM     93  O   UNL A   1      40.723  38.173  40.174  1.00  0.00    -0.237 OA
ATOM     94  O   UNL A   1      38.329  38.376  39.602  1.00  0.00    -0.237 OA
ATOM     95  O   UNL A   1      39.044  36.822  41.376  1.00  0.00    -0.744 OA
ENDBRANCH  91  92
ENDBRANCH  65  86
ENDBRANCH  39  40
ENDBRANCH  31  34
ENDBRANCH  29  30
ENDBRANCH  28  29
ENDBRANCH   1  28
TORSDOF 18
ENDMDL
