MODEL 1
REMARK VINA RESULT:     -11.5      0.000      0.000
REMARK SMILES O=C(NCCCCNC(=O)[C@H]1CCC(=O)N(C2CCCCC2)[C@H]1c1ccccc1)c1ccc(-c2c3nc(c(-c4ccc(S(=O)(=O)[O-])cc4)c4ccc([nH]4)c(-c4ccc(S(=O)(=O)[O-])cc4)c4nc(c(-c5ccc(S(=O)(=O)[O-])cc5)c5ccc2[nH]5)C=C4)C=C3)cc1
REMARK SMILES IDX 4 1 3 2 1 3 2 4 30 6 31 7 89 8 32 9 88 10 33 11 34 12 35 13
REMARK SMILES IDX 82 14 36 15 87 16 81 17 83 18 37 19 86 20 80 21 79 22 38 24
REMARK SMILES IDX 68 25 49 26 67 27 50 28 53 29 66 30 84 31 51 32 52 33 65 35
REMARK SMILES IDX 85 36 54 37 39 38 40 39 48 40 41 41 47 42 42 43 43 44 44 45
REMARK SMILES IDX 45 46 46 47 69 48 70 49 78 50 71 51 77 52 72 53 73 54 74 55
REMARK SMILES IDX 75 56 76 57 55 58 56 59 64 60 57 61 63 62 58 63 59 64 60 65
REMARK SMILES IDX 61 66 62 67 5 68 6 69 7 70 8 71 9 72 10 74 11 75 12 76 23 77
REMARK SMILES IDX 13 78 16 79 14 80 15 81 24 82 25 83 29 84 26 85 28 86 27 87
REMARK SMILES IDX 17 88 18 89 22 90 19 91 21 92 20 93
REMARK H PARENT 3 5 83 23 53 34 8 73
REMARK Flexibility Score: inf
ROOT
ATOM      1  C   UNL A   1      33.601  28.353  26.907  1.00  0.00     0.116 C 
ENDROOT
BRANCH   1   2
ATOM      2  N   UNL A   1      33.475  29.731  27.362  1.00  0.00    -0.352 N 
ATOM      3  O   UNL A   1      34.085  31.607  28.463  1.00  0.00    -0.269 OA
ATOM      4  C   UNL A   1      34.401  30.506  28.021  1.00  0.00     0.251 C 
ATOM      5  H   UNL A   1      32.613  30.165  27.172  1.00  0.00     0.163 HD
BRANCH   4   6
ATOM      6  C   UNL A   1      35.763  29.976  28.219  1.00  0.00     0.039 A 
ATOM      7  C   UNL A   1      36.124  29.418  29.447  1.00  0.00     0.014 A 
ATOM      8  C   UNL A   1      36.702  30.099  27.193  1.00  0.00     0.014 A 
ATOM      9  C   UNL A   1      37.462  29.154  29.711  1.00  0.00     0.010 A 
ATOM     10  C   UNL A   1      38.030  29.732  27.429  1.00  0.00     0.010 A 
ATOM     11  C   UNL A   1      38.429  29.302  28.704  1.00  0.00    -0.014 A 
BRANCH  11  12
ATOM     12  C   UNL A   1      39.845  28.965  29.003  1.00  0.00     0.031 A 
ATOM     13  C   UNL A   1      40.742  29.934  29.726  1.00  0.00     0.074 A 
ATOM     14  C   UNL A   1      40.310  27.752  28.644  1.00  0.00     0.049 A 
ATOM     15  N   UNL A   1      41.989  29.782  30.094  1.00  0.00    -0.248 NA
ATOM     16  C   UNL A   1      40.173  31.246  30.074  1.00  0.00     0.031 C 
ATOM     17  C   UNL A   1      39.532  26.725  27.944  1.00  0.00     0.029 A 
ATOM     18  N   UNL A   1      41.533  27.166  28.838  1.00  0.00    -0.354 N 
ATOM     19  C   UNL A   1      42.365  30.983  30.686  1.00  0.00     0.074 A 
ATOM     20  C   UNL A   1      41.218  31.863  30.608  1.00  0.00     0.031 C 
ATOM     21  C   UNL A   1      40.274  25.616  27.825  1.00  0.00     0.029 A 
ATOM     22  C   UNL A   1      41.602  25.875  28.369  1.00  0.00     0.049 A 
ATOM     23  H   UNL A   1      42.289  27.624  29.272  1.00  0.00     0.167 HD
ATOM     24  C   UNL A   1      43.554  31.321  31.242  1.00  0.00     0.031 A 
ATOM     25  C   UNL A   1      42.622  24.998  28.362  1.00  0.00     0.031 A 
ATOM     26  C   UNL A   1      44.691  30.437  31.314  1.00  0.00     0.049 A 
ATOM     27  C   UNL A   1      43.938  25.408  28.956  1.00  0.00     0.074 A 
ATOM     28  C   UNL A   1      45.928  30.671  31.890  1.00  0.00     0.029 A 
ATOM     29  N   UNL A   1      44.735  29.155  30.784  1.00  0.00    -0.354 N 
ATOM     30  N   UNL A   1      44.263  26.537  29.537  1.00  0.00    -0.248 NA
ATOM     31  C   UNL A   1      45.024  24.421  28.894  1.00  0.00     0.031 C 
ATOM     32  C   UNL A   1      46.739  29.556  31.654  1.00  0.00     0.029 A 
ATOM     33  C   UNL A   1      45.986  28.596  30.996  1.00  0.00     0.049 A 
ATOM     34  H   UNL A   1      43.988  28.707  30.327  1.00  0.00     0.167 HD
ATOM     35  C   UNL A   1      45.583  26.386  29.944  1.00  0.00     0.074 A 
ATOM     36  C   UNL A   1      45.990  25.052  29.548  1.00  0.00     0.031 C 
ATOM     37  C   UNL A   1      46.381  27.270  30.593  1.00  0.00     0.031 A 
BRANCH  24  38
ATOM     38  C   UNL A   1      43.703  32.724  31.777  1.00  0.00    -0.014 A 
ATOM     39  C   UNL A   1      43.504  33.022  33.138  1.00  0.00     0.010 A 
ATOM     40  C   UNL A   1      44.075  33.762  30.902  1.00  0.00     0.010 A 
ATOM     41  C   UNL A   1      43.617  34.337  33.600  1.00  0.00     0.020 A 
ATOM     42  C   UNL A   1      44.221  35.073  31.366  1.00  0.00     0.020 A 
ATOM     43  C   UNL A   1      43.968  35.356  32.708  1.00  0.00     0.054 A 
BRANCH  43  44
ATOM     44  S   UNL A   1      44.097  37.055  33.333  1.00  0.00     0.124 S 
ATOM     45  O   UNL A   1      44.406  37.800  32.116  1.00  0.00    -0.237 OA
ATOM     46  O   UNL A   1      42.769  37.292  33.895  1.00  0.00    -0.237 OA
ATOM     47  O   UNL A   1      45.181  36.983  34.311  1.00  0.00    -0.744 OA
ENDBRANCH  43  44
ENDBRANCH  24  38
BRANCH  25  48
ATOM     48  C   UNL A   1      42.422  23.644  27.780  1.00  0.00    -0.014 A 
ATOM     49  C   UNL A   1      42.762  23.386  26.442  1.00  0.00     0.010 A 
ATOM     50  C   UNL A   1      41.930  22.593  28.578  1.00  0.00     0.010 A 
ATOM     51  C   UNL A   1      42.606  22.104  25.908  1.00  0.00     0.020 A 
ATOM     52  C   UNL A   1      41.802  21.304  28.056  1.00  0.00     0.020 A 
ATOM     53  C   UNL A   1      42.132  21.070  26.721  1.00  0.00     0.054 A 
BRANCH  53  54
ATOM     54  S   UNL A   1      42.000  19.402  26.021  1.00  0.00     0.124 S 
ATOM     55  O   UNL A   1      42.870  19.494  24.853  1.00  0.00    -0.237 OA
ATOM     56  O   UNL A   1      42.488  18.563  27.112  1.00  0.00    -0.237 OA
ATOM     57  O   UNL A   1      40.574  19.265  25.730  1.00  0.00    -0.744 OA
ENDBRANCH  53  54
ENDBRANCH  25  48
BRANCH  37  58
ATOM     58  C   UNL A   1      47.764  26.802  30.963  1.00  0.00    -0.014 A 
ATOM     59  C   UNL A   1      48.880  27.084  30.155  1.00  0.00     0.010 A 
ATOM     60  C   UNL A   1      47.950  26.092  32.164  1.00  0.00     0.010 A 
ATOM     61  C   UNL A   1      50.150  26.626  30.520  1.00  0.00     0.020 A 
ATOM     62  C   UNL A   1      49.222  25.661  32.548  1.00  0.00     0.020 A 
ATOM     63  C   UNL A   1      50.312  25.916  31.713  1.00  0.00     0.054 A 
BRANCH  63  64
ATOM     64  S   UNL A   1      51.973  25.358  32.181  1.00  0.00     0.124 S 
ATOM     65  O   UNL A   1      52.213  26.114  33.407  1.00  0.00    -0.237 OA
ATOM     66  O   UNL A   1      51.791  23.919  32.355  1.00  0.00    -0.237 OA
ATOM     67  O   UNL A   1      52.801  25.741  31.040  1.00  0.00    -0.744 OA
ENDBRANCH  63  64
ENDBRANCH  37  58
ENDBRANCH  11  12
ENDBRANCH   4   6
ENDBRANCH   1   2
BRANCH   1  68
ATOM     68  C   UNL A   1      32.288  27.584  26.971  1.00  0.00     0.023 C 
BRANCH  68  69
ATOM     69  C   UNL A   1      31.389  27.754  25.750  1.00  0.00     0.023 C 
BRANCH  69  70
ATOM     70  C   UNL A   1      31.915  27.073  24.491  1.00  0.00     0.116 C 
BRANCH  70  71
ATOM     71  N   UNL A   1      30.975  26.083  23.987  1.00  0.00    -0.356 N 
ATOM     72  C   UNL A   1      31.018  24.718  24.096  1.00  0.00     0.225 C 
ATOM     73  H   UNL A   1      30.199  26.446  23.501  1.00  0.00     0.163 HD
ATOM     74  O   UNL A   1      30.218  24.065  23.436  1.00  0.00    -0.275 OA
BRANCH  72  75
ATOM     75  C   UNL A   1      32.069  24.124  25.018  1.00  0.00     0.106 C 
ATOM     76  C   UNL A   1      31.427  23.340  26.158  1.00  0.00     0.026 C 
ATOM     77  C   UNL A   1      33.210  23.269  24.431  1.00  0.00     0.128 C 
ATOM     78  C   UNL A   1      32.433  23.262  27.281  1.00  0.00     0.101 C 
ATOM     79  N   UNL A   1      34.215  23.031  25.521  1.00  0.00    -0.332 N 
ATOM     80  C   UNL A   1      33.860  22.949  26.870  1.00  0.00     0.223 C 
ATOM     81  O   UNL A   1      34.671  22.704  27.767  1.00  0.00    -0.275 OA
BRANCH  77  82
ATOM     82  C   UNL A   1      32.807  21.963  23.738  1.00  0.00    -0.025 A 
ATOM     83  C   UNL A   1      32.434  21.904  22.384  1.00  0.00     0.006 A 
ATOM     84  C   UNL A   1      32.791  20.758  24.461  1.00  0.00     0.006 A 
ATOM     85  C   UNL A   1      32.056  20.700  21.785  1.00  0.00     0.000 A 
ATOM     86  C   UNL A   1      32.456  19.545  23.854  1.00  0.00     0.000 A 
ATOM     87  C   UNL A   1      32.079  19.517  22.516  1.00  0.00     0.000 A 
ENDBRANCH  77  82
BRANCH  79  88
ATOM     88  C   UNL A   1      35.631  22.816  25.130  1.00  0.00     0.085 C 
ATOM     89  C   UNL A   1      36.552  23.859  25.797  1.00  0.00     0.025 C 
ATOM     90  C   UNL A   1      36.084  21.358  25.360  1.00  0.00     0.025 C 
ATOM     91  C   UNL A   1      38.036  23.571  25.588  1.00  0.00     0.002 C 
ATOM     92  C   UNL A   1      37.583  21.148  25.182  1.00  0.00     0.002 C 
ATOM     93  C   UNL A   1      38.387  22.147  25.999  1.00  0.00     0.000 C 
ENDBRANCH  79  88
ENDBRANCH  72  75
ENDBRANCH  70  71
ENDBRANCH  69  70
ENDBRANCH  68  69
ENDBRANCH   1  68
TORSDOF 16
ENDMDL
MODEL 2
REMARK VINA RESULT:     -11.4      2.565      9.254
REMARK SMILES O=C(NCCCCNC(=O)[C@H]1CCC(=O)N(C2CCCCC2)[C@H]1c1ccccc1)c1ccc(-c2c3nc(c(-c4ccc(S(=O)(=O)[O-])cc4)c4ccc([nH]4)c(-c4ccc(S(=O)(=O)[O-])cc4)c4nc(c(-c5ccc(S(=O)(=O)[O-])cc5)c5ccc2[nH]5)C=C4)C=C3)cc1
REMARK SMILES IDX 4 1 3 2 1 3 2 4 30 6 31 7 89 8 32 9 88 10 33 11 34 12 35 13
REMARK SMILES IDX 82 14 36 15 87 16 81 17 83 18 37 19 86 20 80 21 79 22 38 24
REMARK SMILES IDX 68 25 49 26 67 27 50 28 53 29 66 30 84 31 51 32 52 33 65 35
REMARK SMILES IDX 85 36 54 37 39 38 40 39 48 40 41 41 47 42 42 43 43 44 44 45
REMARK SMILES IDX 45 46 46 47 69 48 70 49 78 50 71 51 77 52 72 53 73 54 74 55
REMARK SMILES IDX 75 56 76 57 55 58 56 59 64 60 57 61 63 62 58 63 59 64 60 65
REMARK SMILES IDX 61 66 62 67 5 68 6 69 7 70 8 71 9 72 10 74 11 75 12 76 23 77
REMARK SMILES IDX 13 78 16 79 14 80 15 81 24 82 25 83 29 84 26 85 28 86 27 87
REMARK SMILES IDX 17 88 18 89 22 90 19 91 21 92 20 93
REMARK H PARENT 3 5 83 23 53 34 8 73
REMARK Flexibility Score: inf
ROOT
ATOM      1  C   UNL A   1      36.880  23.764  24.964  1.00  0.00     0.116 C 
ENDROOT
BRANCH   1   2
ATOM      2  N   UNL A   1      37.870  22.763  25.336  1.00  0.00    -0.352 N 
ATOM      3  O   UNL A   1      39.821  22.003  26.185  1.00  0.00    -0.269 OA
ATOM      4  C   UNL A   1      39.014  22.922  26.083  1.00  0.00     0.251 C 
ATOM      5  H   UNL A   1      37.699  21.851  25.009  1.00  0.00     0.163 HD
BRANCH   4   6
ATOM      6  C   UNL A   1      39.271  24.226  26.725  1.00  0.00     0.039 A 
ATOM      7  C   UNL A   1      40.000  25.206  26.049  1.00  0.00     0.014 A 
ATOM      8  C   UNL A   1      38.838  24.442  28.034  1.00  0.00     0.014 A 
ATOM      9  C   UNL A   1      40.451  26.321  26.741  1.00  0.00     0.010 A 
ATOM     10  C   UNL A   1      39.206  25.617  28.695  1.00  0.00     0.010 A 
ATOM     11  C   UNL A   1      40.054  26.544  28.070  1.00  0.00    -0.014 A 
BRANCH  11  12
ATOM     12  C   UNL A   1      40.515  27.771  28.769  1.00  0.00     0.031 A 
ATOM     13  C   UNL A   1      41.928  27.900  29.274  1.00  0.00     0.074 A 
ATOM     14  C   UNL A   1      39.649  28.794  28.916  1.00  0.00     0.049 A 
ATOM     15  N   UNL A   1      42.497  28.915  29.872  1.00  0.00    -0.248 NA
ATOM     16  C   UNL A   1      42.814  26.739  29.093  1.00  0.00     0.031 C 
ATOM     17  C   UNL A   1      38.255  28.789  28.462  1.00  0.00     0.029 A 
ATOM     18  N   UNL A   1      39.815  30.040  29.461  1.00  0.00    -0.354 N 
ATOM     19  C   UNL A   1      43.794  28.509  30.167  1.00  0.00     0.074 A 
ATOM     20  C   UNL A   1      43.920  27.144  29.702  1.00  0.00     0.031 C 
ATOM     21  C   UNL A   1      37.714  29.994  28.689  1.00  0.00     0.029 A 
ATOM     22  C   UNL A   1      38.694  30.830  29.372  1.00  0.00     0.049 A 
ATOM     23  H   UNL A   1      40.656  30.340  29.876  1.00  0.00     0.167 HD
ATOM     24  C   UNL A   1      44.787  29.208  30.771  1.00  0.00     0.031 A 
ATOM     25  C   UNL A   1      38.468  32.084  29.803  1.00  0.00     0.031 A 
ATOM     26  C   UNL A   1      44.651  30.567  31.233  1.00  0.00     0.049 A 
ATOM     27  C   UNL A   1      39.574  32.825  30.497  1.00  0.00     0.074 A 
ATOM     28  C   UNL A   1      45.608  31.375  31.823  1.00  0.00     0.029 A 
ATOM     29  N   UNL A   1      43.484  31.315  31.167  1.00  0.00    -0.354 N 
ATOM     30  N   UNL A   1      40.801  32.433  30.739  1.00  0.00    -0.248 NA
ATOM     31  C   UNL A   1      39.263  34.179  30.971  1.00  0.00     0.031 C 
ATOM     32  C   UNL A   1      45.003  32.587  32.170  1.00  0.00     0.029 A 
ATOM     33  C   UNL A   1      43.689  32.565  31.730  1.00  0.00     0.049 A 
ATOM     34  H   UNL A   1      42.636  31.004  30.776  1.00  0.00     0.167 HD
ATOM     35  C   UNL A   1      41.423  33.507  31.365  1.00  0.00     0.074 A 
ATOM     36  C   UNL A   1      40.436  34.565  31.454  1.00  0.00     0.031 C 
ATOM     37  C   UNL A   1      42.698  33.608  31.818  1.00  0.00     0.031 A 
BRANCH  24  38
ATOM     38  C   UNL A   1      46.097  28.498  31.011  1.00  0.00    -0.014 A 
ATOM     39  C   UNL A   1      47.141  28.535  30.068  1.00  0.00     0.010 A 
ATOM     40  C   UNL A   1      46.294  27.798  32.217  1.00  0.00     0.010 A 
ATOM     41  C   UNL A   1      48.333  27.841  30.303  1.00  0.00     0.020 A 
ATOM     42  C   UNL A   1      47.496  27.130  32.469  1.00  0.00     0.020 A 
ATOM     43  C   UNL A   1      48.499  27.136  31.499  1.00  0.00     0.054 A 
BRANCH  43  44
ATOM     44  S   UNL A   1      50.051  26.236  31.772  1.00  0.00     0.124 S 
ATOM     45  O   UNL A   1      50.827  26.612  30.593  1.00  0.00    -0.237 OA
ATOM     46  O   UNL A   1      50.525  26.789  33.038  1.00  0.00    -0.237 OA
ATOM     47  O   UNL A   1      49.636  24.835  31.824  1.00  0.00    -0.744 OA
ENDBRANCH  43  44
ENDBRANCH  24  38
BRANCH  25  48
ATOM     48  C   UNL A   1      37.140  32.712  29.573  1.00  0.00    -0.014 A 
ATOM     49  C   UNL A   1      36.157  32.690  30.577  1.00  0.00     0.010 A 
ATOM     50  C   UNL A   1      36.867  33.376  28.361  1.00  0.00     0.010 A 
ATOM     51  C   UNL A   1      34.922  33.310  30.371  1.00  0.00     0.020 A 
ATOM     52  C   UNL A   1      35.645  34.024  28.165  1.00  0.00     0.020 A 
ATOM     53  C   UNL A   1      34.677  33.979  29.168  1.00  0.00     0.054 A 
BRANCH  53  54
ATOM     54  S   UNL A   1      33.091  34.831  28.953  1.00  0.00     0.124 S 
ATOM     55  O   UNL A   1      32.432  33.997  27.953  1.00  0.00    -0.237 OA
ATOM     56  O   UNL A   1      32.521  34.781  30.297  1.00  0.00    -0.237 OA
ATOM     57  O   UNL A   1      33.478  36.165  28.499  1.00  0.00    -0.744 OA
ENDBRANCH  53  54
ENDBRANCH  25  48
BRANCH  37  58
ATOM     58  C   UNL A   1      43.115  34.931  32.405  1.00  0.00    -0.014 A 
ATOM     59  C   UNL A   1      43.820  35.884  31.650  1.00  0.00     0.010 A 
ATOM     60  C   UNL A   1      42.765  35.232  33.735  1.00  0.00     0.010 A 
ATOM     61  C   UNL A   1      44.203  37.099  32.228  1.00  0.00     0.020 A 
ATOM     62  C   UNL A   1      43.118  36.457  34.305  1.00  0.00     0.020 A 
ATOM     63  C   UNL A   1      43.852  37.376  33.553  1.00  0.00     0.054 A 
BRANCH  63  64
ATOM     64  S   UNL A   1      44.335  38.969  34.271  1.00  0.00     0.124 S 
ATOM     65  O   UNL A   1      44.215  38.705  35.703  1.00  0.00    -0.237 OA
ATOM     66  O   UNL A   1      45.697  39.145  33.775  1.00  0.00    -0.237 OA
ATOM     67  O   UNL A   1      43.354  39.906  33.728  1.00  0.00    -0.744 OA
ENDBRANCH  63  64
ENDBRANCH  37  58
ENDBRANCH  11  12
ENDBRANCH   4   6
ENDBRANCH   1   2
BRANCH   1  68
ATOM     68  C   UNL A   1      35.835  23.232  23.992  1.00  0.00     0.023 C 
BRANCH  68  69
ATOM     69  C   UNL A   1      34.854  22.231  24.595  1.00  0.00     0.023 C 
BRANCH  69  70
ATOM     70  C   UNL A   1      33.608  22.869  25.200  1.00  0.00     0.116 C 
BRANCH  70  71
ATOM     71  N   UNL A   1      32.481  22.817  24.281  1.00  0.00    -0.356 N 
ATOM     72  C   UNL A   1      31.852  23.844  23.628  1.00  0.00     0.225 C 
ATOM     73  H   UNL A   1      32.122  21.918  24.103  1.00  0.00     0.163 HD
ATOM     74  O   UNL A   1      30.803  23.595  23.044  1.00  0.00    -0.275 OA
BRANCH  72  75
ATOM     75  C   UNL A   1      32.500  25.216  23.697  1.00  0.00     0.106 C 
ATOM     76  C   UNL A   1      32.747  25.782  22.302  1.00  0.00     0.026 C 
ATOM     77  C   UNL A   1      31.862  26.324  24.558  1.00  0.00     0.128 C 
ATOM     78  C   UNL A   1      33.837  26.821  22.418  1.00  0.00     0.101 C 
ATOM     79  N   UNL A   1      32.832  27.467  24.632  1.00  0.00    -0.332 N 
ATOM     80  C   UNL A   1      33.726  27.767  23.600  1.00  0.00     0.223 C 
ATOM     81  O   UNL A   1      34.492  28.733  23.631  1.00  0.00    -0.275 OA
BRANCH  77  82
ATOM     82  C   UNL A   1      30.462  26.797  24.149  1.00  0.00    -0.025 A 
ATOM     83  C   UNL A   1      29.289  26.136  24.549  1.00  0.00     0.006 A 
ATOM     84  C   UNL A   1      30.313  27.930  23.330  1.00  0.00     0.006 A 
ATOM     85  C   UNL A   1      28.027  26.582  24.146  1.00  0.00     0.000 A 
ATOM     86  C   UNL A   1      29.052  28.404  22.962  1.00  0.00     0.000 A 
ATOM     87  C   UNL A   1      27.907  27.725  23.362  1.00  0.00     0.000 A 
ENDBRANCH  77  82
BRANCH  79  88
ATOM     88  C   UNL A   1      32.791  28.342  25.830  1.00  0.00     0.085 C 
ATOM     89  C   UNL A   1      34.150  28.343  26.561  1.00  0.00     0.025 C 
ATOM     90  C   UNL A   1      32.269  29.757  25.501  1.00  0.00     0.025 C 
ATOM     91  C   UNL A   1      34.227  29.371  27.686  1.00  0.00     0.002 C 
ATOM     92  C   UNL A   1      32.418  30.748  26.650  1.00  0.00     0.002 C 
ATOM     93  C   UNL A   1      33.837  30.759  27.195  1.00  0.00     0.000 C 
ENDBRANCH  79  88
ENDBRANCH  72  75
ENDBRANCH  70  71
ENDBRANCH  69  70
ENDBRANCH  68  69
ENDBRANCH   1  68
TORSDOF 16
ENDMDL
MODEL 3
REMARK VINA RESULT:     -11.1      0.574      8.071
REMARK SMILES O=C(NCCCCNC(=O)[C@H]1CCC(=O)N(C2CCCCC2)[C@H]1c1ccccc1)c1ccc(-c2c3nc(c(-c4ccc(S(=O)(=O)[O-])cc4)c4ccc([nH]4)c(-c4ccc(S(=O)(=O)[O-])cc4)c4nc(c(-c5ccc(S(=O)(=O)[O-])cc5)c5ccc2[nH]5)C=C4)C=C3)cc1
REMARK SMILES IDX 4 1 3 2 1 3 2 4 30 6 31 7 89 8 32 9 88 10 33 11 34 12 35 13
REMARK SMILES IDX 82 14 36 15 87 16 81 17 83 18 37 19 86 20 80 21 79 22 38 24
REMARK SMILES IDX 68 25 49 26 67 27 50 28 53 29 66 30 84 31 51 32 52 33 65 35
REMARK SMILES IDX 85 36 54 37 39 38 40 39 48 40 41 41 47 42 42 43 43 44 44 45
REMARK SMILES IDX 45 46 46 47 69 48 70 49 78 50 71 51 77 52 72 53 73 54 74 55
REMARK SMILES IDX 75 56 76 57 55 58 56 59 64 60 57 61 63 62 58 63 59 64 60 65
REMARK SMILES IDX 61 66 62 67 5 68 6 69 7 70 8 71 9 72 10 74 11 75 12 76 23 77
REMARK SMILES IDX 13 78 16 79 14 80 15 81 24 82 25 83 29 84 26 85 28 86 27 87
REMARK SMILES IDX 17 88 18 89 22 90 19 91 21 92 20 93
REMARK H PARENT 3 5 83 23 53 34 8 73
REMARK Flexibility Score: inf
ROOT
ATOM      1  C   UNL A   1      33.588  28.258  27.013  1.00  0.00     0.116 C 
ENDROOT
BRANCH   1   2
ATOM      2  N   UNL A   1      33.437  29.656  27.394  1.00  0.00    -0.352 N 
ATOM      3  O   UNL A   1      34.010  31.596  28.400  1.00  0.00    -0.269 OA
ATOM      4  C   UNL A   1      34.346  30.479  28.019  1.00  0.00     0.251 C 
ATOM      5  H   UNL A   1      32.570  30.067  27.176  1.00  0.00     0.163 HD
BRANCH   4   6
ATOM      6  C   UNL A   1      35.715  29.982  28.253  1.00  0.00     0.039 A 
ATOM      7  C   UNL A   1      36.077  29.501  29.513  1.00  0.00     0.014 A 
ATOM      8  C   UNL A   1      36.658  30.061  27.227  1.00  0.00     0.014 A 
ATOM      9  C   UNL A   1      37.416  29.273  29.798  1.00  0.00     0.010 A 
ATOM     10  C   UNL A   1      37.990  29.728  27.490  1.00  0.00     0.010 A 
ATOM     11  C   UNL A   1      38.388  29.377  28.789  1.00  0.00    -0.014 A 
BRANCH  11  12
ATOM     12  C   UNL A   1      39.806  29.079  29.115  1.00  0.00     0.031 A 
ATOM     13  C   UNL A   1      40.435  27.763  28.740  1.00  0.00     0.074 A 
ATOM     14  C   UNL A   1      40.541  30.029  29.728  1.00  0.00     0.049 A 
ATOM     15  N   UNL A   1      41.667  27.360  28.920  1.00  0.00    -0.248 NA
ATOM     16  C   UNL A   1      39.570  26.768  28.088  1.00  0.00     0.031 C 
ATOM     17  C   UNL A   1      40.043  31.347  30.134  1.00  0.00     0.029 A 
ATOM     18  N   UNL A   1      41.862  30.047  30.092  1.00  0.00    -0.354 N 
ATOM     19  C   UNL A   1      41.720  26.058  28.435  1.00  0.00     0.074 A 
ATOM     20  C   UNL A   1      40.389  25.731  27.972  1.00  0.00     0.031 C 
ATOM     21  C   UNL A   1      41.059  32.066  30.632  1.00  0.00     0.029 A 
ATOM     22  C   UNL A   1      42.259  31.239  30.651  1.00  0.00     0.049 A 
ATOM     23  H   UNL A   1      42.468  29.281  29.964  1.00  0.00     0.167 HD
ATOM     24  C   UNL A   1      42.780  25.214  28.381  1.00  0.00     0.031 A 
ATOM     25  C   UNL A   1      43.452  31.623  31.140  1.00  0.00     0.031 A 
ATOM     26  C   UNL A   1      44.103  25.550  28.846  1.00  0.00     0.049 A 
ATOM     27  C   UNL A   1      44.601  30.659  31.097  1.00  0.00     0.074 A 
ATOM     28  C   UNL A   1      45.252  24.779  28.800  1.00  0.00     0.029 A 
ATOM     29  N   UNL A   1      44.452  26.750  29.450  1.00  0.00    -0.354 N 
ATOM     30  N   UNL A   1      44.637  29.443  30.607  1.00  0.00    -0.248 NA
ATOM     31  C   UNL A   1      45.871  31.122  31.671  1.00  0.00     0.031 C 
ATOM     32  C   UNL A   1      46.279  25.487  29.433  1.00  0.00     0.029 A 
ATOM     33  C   UNL A   1      45.791  26.730  29.807  1.00  0.00     0.049 A 
ATOM     34  H   UNL A   1      43.839  27.504  29.601  1.00  0.00     0.167 HD
ATOM     35  C   UNL A   1      45.945  29.006  30.781  1.00  0.00     0.074 A 
ATOM     36  C   UNL A   1      46.666  30.093  31.414  1.00  0.00     0.031 C 
ATOM     37  C   UNL A   1      46.498  27.815  30.441  1.00  0.00     0.031 A 
BRANCH  24  38
ATOM     38  C   UNL A   1      42.542  23.825  27.840  1.00  0.00    -0.014 A 
ATOM     39  C   UNL A   1      42.149  22.764  28.676  1.00  0.00     0.010 A 
ATOM     40  C   UNL A   1      42.692  23.585  26.461  1.00  0.00     0.010 A 
ATOM     41  C   UNL A   1      41.967  21.479  28.152  1.00  0.00     0.020 A 
ATOM     42  C   UNL A   1      42.479  22.310  25.928  1.00  0.00     0.020 A 
ATOM     43  C   UNL A   1      42.141  21.260  26.782  1.00  0.00     0.054 A 
BRANCH  43  44
ATOM     44  S   UNL A   1      41.909  19.581  26.133  1.00  0.00     0.124 S 
ATOM     45  O   UNL A   1      42.757  19.599  24.944  1.00  0.00    -0.237 OA
ATOM     46  O   UNL A   1      42.384  18.743  27.231  1.00  0.00    -0.237 OA
ATOM     47  O   UNL A   1      40.472  19.506  25.872  1.00  0.00    -0.744 OA
ENDBRANCH  43  44
ENDBRANCH  24  38
BRANCH  25  48
ATOM     48  C   UNL A   1      43.610  32.992  31.699  1.00  0.00    -0.014 A 
ATOM     49  C   UNL A   1      43.894  34.078  30.855  1.00  0.00     0.010 A 
ATOM     50  C   UNL A   1      43.432  33.223  33.077  1.00  0.00     0.010 A 
ATOM     51  C   UNL A   1      44.008  35.369  31.378  1.00  0.00     0.020 A 
ATOM     52  C   UNL A   1      43.515  34.516  33.598  1.00  0.00     0.020 A 
ATOM     53  C   UNL A   1      43.811  35.580  32.745  1.00  0.00     0.054 A 
BRANCH  53  54
ATOM     54  S   UNL A   1      43.900  37.274  33.388  1.00  0.00     0.124 S 
ATOM     55  O   UNL A   1      42.661  37.375  34.150  1.00  0.00    -0.237 OA
ATOM     56  O   UNL A   1      45.130  37.247  34.175  1.00  0.00    -0.237 OA
ATOM     57  O   UNL A   1      43.961  38.095  32.180  1.00  0.00    -0.744 OA
ENDBRANCH  53  54
ENDBRANCH  25  48
BRANCH  37  58
ATOM     58  C   UNL A   1      47.971  27.643  30.699  1.00  0.00    -0.014 A 
ATOM     59  C   UNL A   1      48.451  27.089  31.899  1.00  0.00     0.010 A 
ATOM     60  C   UNL A   1      48.891  28.018  29.702  1.00  0.00     0.010 A 
ATOM     61  C   UNL A   1      49.825  26.952  32.114  1.00  0.00     0.020 A 
ATOM     62  C   UNL A   1      50.264  27.853  29.901  1.00  0.00     0.020 A 
ATOM     63  C   UNL A   1      50.723  27.338  31.114  1.00  0.00     0.054 A 
BRANCH  63  64
ATOM     64  S   UNL A   1      52.501  27.124  31.403  1.00  0.00     0.124 S 
ATOM     65  O   UNL A   1      53.066  28.251  30.665  1.00  0.00    -0.237 OA
ATOM     66  O   UNL A   1      52.602  27.212  32.858  1.00  0.00    -0.237 OA
ATOM     67  O   UNL A   1      52.788  25.806  30.843  1.00  0.00    -0.744 OA
ENDBRANCH  63  64
ENDBRANCH  37  58
ENDBRANCH  11  12
ENDBRANCH   4   6
ENDBRANCH   1   2
BRANCH   1  68
ATOM     68  C   UNL A   1      32.405  27.730  26.214  1.00  0.00     0.023 C 
BRANCH  68  69
ATOM     69  C   UNL A   1      32.388  28.150  24.747  1.00  0.00     0.023 C 
BRANCH  69  70
ATOM     70  C   UNL A   1      32.584  26.998  23.768  1.00  0.00     0.116 C 
BRANCH  70  71
ATOM     71  N   UNL A   1      31.368  26.212  23.618  1.00  0.00    -0.356 N 
ATOM     72  C   UNL A   1      31.104  24.939  24.050  1.00  0.00     0.225 C 
ATOM     73  H   UNL A   1      30.633  26.658  23.140  1.00  0.00     0.163 HD
ATOM     74  O   UNL A   1      30.078  24.400  23.653  1.00  0.00    -0.275 OA
BRANCH  72  75
ATOM     75  C   UNL A   1      32.119  24.292  24.977  1.00  0.00     0.106 C 
ATOM     76  C   UNL A   1      31.432  23.489  26.077  1.00  0.00     0.026 C 
ATOM     77  C   UNL A   1      33.254  23.429  24.390  1.00  0.00     0.128 C 
ATOM     78  C   UNL A   1      32.409  23.351  27.220  1.00  0.00     0.101 C 
ATOM     79  N   UNL A   1      34.227  23.134  25.495  1.00  0.00    -0.332 N 
ATOM     80  C   UNL A   1      33.838  23.018  26.832  1.00  0.00     0.223 C 
ATOM     81  O   UNL A   1      34.622  22.726  27.739  1.00  0.00    -0.275 OA
BRANCH  77  82
ATOM     82  C   UNL A   1      32.839  22.155  23.647  1.00  0.00    -0.025 A 
ATOM     83  C   UNL A   1      32.407  22.161  22.309  1.00  0.00     0.006 A 
ATOM     84  C   UNL A   1      32.869  20.913  24.306  1.00  0.00     0.006 A 
ATOM     85  C   UNL A   1      32.019  20.984  21.664  1.00  0.00     0.000 A 
ATOM     86  C   UNL A   1      32.524  19.729  23.650  1.00  0.00     0.000 A 
ATOM     87  C   UNL A   1      32.090  19.765  22.329  1.00  0.00     0.000 A 
ENDBRANCH  77  82
BRANCH  79  88
ATOM     88  C   UNL A   1      35.646  22.897  25.131  1.00  0.00     0.085 C 
ATOM     89  C   UNL A   1      36.567  23.950  25.784  1.00  0.00     0.025 C 
ATOM     90  C   UNL A   1      36.085  21.443  25.405  1.00  0.00     0.025 C 
ATOM     91  C   UNL A   1      38.051  23.646  25.604  1.00  0.00     0.002 C 
ATOM     92  C   UNL A   1      37.584  21.216  25.255  1.00  0.00     0.002 C 
ATOM     93  C   UNL A   1      38.384  22.231  26.057  1.00  0.00     0.000 C 
ENDBRANCH  79  88
ENDBRANCH  72  75
ENDBRANCH  70  71
ENDBRANCH  69  70
ENDBRANCH  68  69
ENDBRANCH   1  68
TORSDOF 16
ENDMDL
