MODEL 1
REMARK VINA RESULT:     -11.7      0.000      0.000
REMARK SMILES Cc1c[nH]c(C[N@@H+](C)[C@@H](C(=O)NCCCCNC(=O)c2ccc(-c3c4nc(c(-c5ccc(S(=O)(=O)[O-])cc5)c5ccc([nH]5)c(-c5ccc(S(=O)(=O)[O-])cc5)c5nc(c(-c6ccc(S(=O)(=O)[O-])cc6)c6ccc3[nH]6)C=C5)C=C4)cc2)c2ccc(NC(=O)N3CCCC3)cc2)n1
REMARK SMILES IDX 14 1 13 2 12 3 10 4 11 5 9 7 7 8 8 9 6 11 5 12 1 13 2 14
REMARK SMILES IDX 3 15 94 16 4 17 80 19 81 20 93 21 82 22 92 23 83 24 84 25
REMARK SMILES IDX 85 26 86 28 87 29 88 30 91 31 89 32 90 33 15 34 16 35 17 36
REMARK SMILES IDX 18 37 19 39 20 40 21 41 79 42 22 43 78 44 23 45 24 46 25 47
REMARK SMILES IDX 72 48 26 49 77 50 71 51 73 52 27 53 76 54 70 55 69 56 28 58
REMARK SMILES IDX 58 59 39 60 57 61 40 62 43 63 56 64 74 65 41 66 42 67 55 69
REMARK SMILES IDX 75 70 44 71 29 72 30 73 38 74 31 75 37 76 32 77 33 78 34 79
REMARK SMILES IDX 35 80 36 81 59 82 60 83 68 84 61 85 67 86 62 87 63 88 64 89
REMARK SMILES IDX 65 90 66 91 45 92 46 93 54 94 47 95 53 96 48 97 49 98 50 99
REMARK SMILES IDX 51 100 52 101
REMARK H PARENT 12 6 7 10 4 18 84 27 17 38 73 57 43 68
REMARK Flexibility Score: inf
ROOT
ATOM      1  C   UNL A   1      33.062  29.539  26.432  1.00  0.00     0.023 C 
ENDROOT
BRANCH   1   2
ATOM      2  C   UNL A   1      33.271  28.896  25.060  1.00  0.00     0.116 C 
BRANCH   2   3
ATOM      3  N   UNL A   1      34.058  27.691  25.197  1.00  0.00    -0.351 N 
ATOM      4  C   UNL A   1      33.658  26.394  25.020  1.00  0.00     0.283 C 
ATOM      5  O   UNL A   1      34.335  25.524  25.583  1.00  0.00    -0.268 OA
ATOM      6  H   UNL A   1      35.000  27.818  25.451  1.00  0.00     0.163 HD
BRANCH   4   7
ATOM      7  C   UNL A   1      32.418  26.060  24.123  1.00  0.00     0.305 C 
BRANCH   7   8
ATOM      8  N   UNL A   1      31.195  26.755  24.605  1.00  0.00    -0.317 N 
ATOM      9  C   UNL A   1      30.807  26.499  25.975  1.00  0.00     0.334 C 
ATOM     10  H   UNL A   1      31.563  27.707  24.602  1.00  0.00     0.349 HD
BRANCH   8  11
ATOM     11  C   UNL A   1      30.046  26.843  23.692  1.00  0.00     0.339 C 
BRANCH  11  12
ATOM     12  C   UNL A   1      29.759  28.243  23.251  1.00  0.00     0.161 A 
ATOM     13  C   UNL A   1      28.390  30.725  21.109  1.00  0.00     0.068 C 
ATOM     14  C   UNL A   1      29.091  29.986  22.179  1.00  0.00     0.056 A 
ATOM     15  C   UNL A   1      29.618  30.451  23.363  1.00  0.00     0.107 A 
ATOM     16  N   UNL A   1      29.250  28.625  22.093  1.00  0.00    -0.233 NA
ATOM     17  N   UNL A   1      30.005  29.332  24.050  1.00  0.00    -0.344 N 
ATOM     18  H   UNL A   1      30.392  29.312  24.956  1.00  0.00     0.167 HD
ENDBRANCH  11  12
ENDBRANCH   8  11
ENDBRANCH   7   8
BRANCH   7  19
ATOM     19  C   UNL A   1      32.192  24.543  23.987  1.00  0.00     0.019 A 
ATOM     20  C   UNL A   1      32.708  23.804  22.915  1.00  0.00     0.012 A 
ATOM     21  C   UNL A   1      31.468  23.840  24.963  1.00  0.00     0.012 A 
ATOM     22  C   UNL A   1      32.747  22.411  22.973  1.00  0.00     0.027 A 
ATOM     23  C   UNL A   1      31.525  22.447  25.030  1.00  0.00     0.027 A 
ATOM     24  C   UNL A   1      32.291  21.743  24.106  1.00  0.00     0.042 A 
BRANCH  24  25
ATOM     25  N   UNL A   1      32.594  20.401  24.385  1.00  0.00    -0.308 N 
ATOM     26  C   UNL A   1      33.788  19.785  24.608  1.00  0.00     0.321 C 
ATOM     27  H   UNL A   1      31.812  19.805  24.427  1.00  0.00     0.171 HD
ATOM     28  O   UNL A   1      33.872  18.574  24.385  1.00  0.00    -0.248 OA
ATOM     29  N   UNL A   1      34.852  20.496  25.086  1.00  0.00    -0.325 N 
ATOM     30  C   UNL A   1      34.844  21.528  26.108  1.00  0.00     0.121 C 
ATOM     31  C   UNL A   1      36.206  20.036  24.883  1.00  0.00     0.121 C 
ATOM     32  C   UNL A   1      36.140  22.272  25.852  1.00  0.00     0.023 C 
ATOM     33  C   UNL A   1      37.096  21.186  25.354  1.00  0.00     0.023 C 
ENDBRANCH  24  25
ENDBRANCH   7  19
ENDBRANCH   4   7
ENDBRANCH   2   3
ENDBRANCH   1   2
BRANCH   1  34
ATOM     34  C   UNL A   1      34.222  30.407  26.913  1.00  0.00     0.023 C 
BRANCH  34  35
ATOM     35  C   UNL A   1      35.125  29.751  27.946  1.00  0.00     0.116 C 
BRANCH  35  36
ATOM     36  N   UNL A   1      35.226  30.514  29.181  1.00  0.00    -0.352 N 
ATOM     37  C   UNL A   1      36.309  30.643  30.018  1.00  0.00     0.251 C 
ATOM     38  H   UNL A   1      34.415  31.002  29.453  1.00  0.00     0.163 HD
ATOM     39  O   UNL A   1      36.197  31.225  31.092  1.00  0.00    -0.269 OA
BRANCH  37  40
ATOM     40  C   UNL A   1      37.594  30.036  29.619  1.00  0.00     0.039 A 
ATOM     41  C   UNL A   1      37.975  30.072  28.276  1.00  0.00     0.014 A 
ATOM     42  C   UNL A   1      38.447  29.496  30.586  1.00  0.00     0.014 A 
ATOM     43  C   UNL A   1      39.248  29.630  27.914  1.00  0.00     0.010 A 
ATOM     44  C   UNL A   1      39.742  29.141  30.236  1.00  0.00     0.010 A 
ATOM     45  C   UNL A   1      40.155  29.199  28.896  1.00  0.00    -0.014 A 
BRANCH  45  46
ATOM     46  C   UNL A   1      41.539  28.793  28.548  1.00  0.00     0.031 A 
ATOM     47  C   UNL A   1      42.637  29.821  28.527  1.00  0.00     0.074 A 
ATOM     48  C   UNL A   1      41.792  27.522  28.178  1.00  0.00     0.049 A 
ATOM     49  N   UNL A   1      43.890  29.683  28.181  1.00  0.00    -0.248 NA
ATOM     50  C   UNL A   1      42.268  31.194  28.911  1.00  0.00     0.031 C 
ATOM     51  C   UNL A   1      40.802  26.444  28.108  1.00  0.00     0.029 A 
ATOM     52  N   UNL A   1      42.962  26.923  27.784  1.00  0.00    -0.354 N 
ATOM     53  C   UNL A   1      44.451  30.951  28.281  1.00  0.00     0.074 A 
ATOM     54  C   UNL A   1      43.388  31.854  28.665  1.00  0.00     0.031 C 
ATOM     55  C   UNL A   1      41.413  25.310  27.730  1.00  0.00     0.029 A 
ATOM     56  C   UNL A   1      42.826  25.586  27.493  1.00  0.00     0.049 A 
ATOM     57  H   UNL A   1      43.818  27.405  27.716  1.00  0.00     0.167 HD
ATOM     58  C   UNL A   1      45.737  31.327  28.093  1.00  0.00     0.031 A 
ATOM     59  C   UNL A   1      43.738  24.683  27.081  1.00  0.00     0.031 A 
ATOM     60  C   UNL A   1      46.794  30.422  27.734  1.00  0.00     0.049 A 
ATOM     61  C   UNL A   1      45.165  25.119  26.894  1.00  0.00     0.074 A 
ATOM     62  C   UNL A   1      48.143  30.688  27.585  1.00  0.00     0.029 A 
ATOM     63  N   UNL A   1      46.620  29.071  27.469  1.00  0.00    -0.354 N 
ATOM     64  N   UNL A   1      45.689  26.310  27.059  1.00  0.00    -0.248 NA
ATOM     65  C   UNL A   1      46.123  24.087  26.477  1.00  0.00     0.031 C 
ATOM     66  C   UNL A   1      48.778  29.506  27.186  1.00  0.00     0.029 A 
ATOM     67  C   UNL A   1      47.833  28.494  27.137  1.00  0.00     0.049 A 
ATOM     68  H   UNL A   1      45.759  28.594  27.510  1.00  0.00     0.167 HD
ATOM     69  C   UNL A   1      47.046  26.166  26.788  1.00  0.00     0.074 A 
ATOM     70  C   UNL A   1      47.261  24.769  26.462  1.00  0.00     0.031 C 
ATOM     71  C   UNL A   1      48.025  27.103  26.811  1.00  0.00     0.031 A 
BRANCH  58  72
ATOM     72  C   UNL A   1      46.060  32.788  28.269  1.00  0.00    -0.014 A 
ATOM     73  C   UNL A   1      46.450  33.301  29.520  1.00  0.00     0.010 A 
ATOM     74  C   UNL A   1      45.974  33.660  27.169  1.00  0.00     0.010 A 
ATOM     75  C   UNL A   1      46.687  34.668  29.683  1.00  0.00     0.020 A 
ATOM     76  C   UNL A   1      46.241  35.025  27.321  1.00  0.00     0.020 A 
ATOM     77  C   UNL A   1      46.573  35.523  28.583  1.00  0.00     0.054 A 
BRANCH  77  78
ATOM     78  S   UNL A   1      46.880  37.294  28.821  1.00  0.00     0.124 S 
ATOM     79  O   UNL A   1      48.038  37.515  27.959  1.00  0.00    -0.237 OA
ATOM     80  O   UNL A   1      45.633  37.901  28.365  1.00  0.00    -0.237 OA
ATOM     81  O   UNL A   1      47.139  37.410  30.254  1.00  0.00    -0.744 OA
ENDBRANCH  77  78
ENDBRANCH  58  72
BRANCH  59  82
ATOM     82  C   UNL A   1      43.330  23.271  26.857  1.00  0.00    -0.014 A 
ATOM     83  C   UNL A   1      43.262  22.752  25.551  1.00  0.00     0.010 A 
ATOM     84  C   UNL A   1      43.039  22.427  27.945  1.00  0.00     0.010 A 
ATOM     85  C   UNL A   1      42.905  21.418  25.337  1.00  0.00     0.020 A 
ATOM     86  C   UNL A   1      42.705  21.086  27.735  1.00  0.00     0.020 A 
ATOM     87  C   UNL A   1      42.634  20.591  26.432  1.00  0.00     0.054 A 
BRANCH  87  88
ATOM     88  S   UNL A   1      42.244  18.843  26.133  1.00  0.00     0.124 S 
ATOM     89  O   UNL A   1      43.186  18.500  25.072  1.00  0.00    -0.237 OA
ATOM     90  O   UNL A   1      42.506  18.235  27.434  1.00  0.00    -0.237 OA
ATOM     91  O   UNL A   1      40.837  18.872  25.738  1.00  0.00    -0.744 OA
ENDBRANCH  87  88
ENDBRANCH  59  82
BRANCH  71  92
ATOM     92  C   UNL A   1      49.424  26.647  26.501  1.00  0.00    -0.014 A 
ATOM     93  C   UNL A   1      50.234  26.062  27.490  1.00  0.00     0.010 A 
ATOM     94  C   UNL A   1      49.912  26.753  25.186  1.00  0.00     0.010 A 
ATOM     95  C   UNL A   1      51.520  25.616  27.174  1.00  0.00     0.020 A 
ATOM     96  C   UNL A   1      51.188  26.284  24.861  1.00  0.00     0.020 A 
ATOM     97  C   UNL A   1      51.988  25.729  25.861  1.00  0.00     0.054 A 
BRANCH  97  98
ATOM     98  S   UNL A   1      53.642  25.099  25.465  1.00  0.00     0.124 S 
ATOM     99  O   UNL A   1      54.408  25.499  26.642  1.00  0.00    -0.237 OA
ATOM    100  O   UNL A   1      53.414  23.664  25.322  1.00  0.00    -0.237 OA
ATOM    101  O   UNL A   1      53.991  25.795  24.228  1.00  0.00    -0.744 OA
ENDBRANCH  97  98
ENDBRANCH  71  92
ENDBRANCH  45  46
ENDBRANCH  37  40
ENDBRANCH  35  36
ENDBRANCH  34  35
ENDBRANCH   1  34
TORSDOF 19
ENDMDL
MODEL 2
REMARK VINA RESULT:     -11.6      2.208      9.221
REMARK SMILES Cc1c[nH]c(C[N@@H+](C)[C@@H](C(=O)NCCCCNC(=O)c2ccc(-c3c4nc(c(-c5ccc(S(=O)(=O)[O-])cc5)c5ccc([nH]5)c(-c5ccc(S(=O)(=O)[O-])cc5)c5nc(c(-c6ccc(S(=O)(=O)[O-])cc6)c6ccc3[nH]6)C=C5)C=C4)cc2)c2ccc(NC(=O)N3CCCC3)cc2)n1
REMARK SMILES IDX 14 1 13 2 12 3 10 4 11 5 9 7 7 8 8 9 6 11 5 12 1 13 2 14
REMARK SMILES IDX 3 15 94 16 4 17 80 19 81 20 93 21 82 22 92 23 83 24 84 25
REMARK SMILES IDX 85 26 86 28 87 29 88 30 91 31 89 32 90 33 15 34 16 35 17 36
REMARK SMILES IDX 18 37 19 39 20 40 21 41 79 42 22 43 78 44 23 45 24 46 25 47
REMARK SMILES IDX 72 48 26 49 77 50 71 51 73 52 27 53 76 54 70 55 69 56 28 58
REMARK SMILES IDX 58 59 39 60 57 61 40 62 43 63 56 64 74 65 41 66 42 67 55 69
REMARK SMILES IDX 75 70 44 71 29 72 30 73 38 74 31 75 37 76 32 77 33 78 34 79
REMARK SMILES IDX 35 80 36 81 59 82 60 83 68 84 61 85 67 86 62 87 63 88 64 89
REMARK SMILES IDX 65 90 66 91 45 92 46 93 54 94 47 95 53 96 48 97 49 98 50 99
REMARK SMILES IDX 51 100 52 101
REMARK H PARENT 12 6 7 10 4 18 84 27 17 38 73 57 43 68
REMARK Flexibility Score: inf
ROOT
ATOM      1  C   UNL A   1      39.334  23.317  26.415  1.00  0.00     0.023 C 
ENDROOT
BRANCH   1   2
ATOM      2  C   UNL A   1      37.881  23.787  26.325  1.00  0.00     0.116 C 
BRANCH   2   3
ATOM      3  N   UNL A   1      37.455  23.803  24.944  1.00  0.00    -0.351 N 
ATOM      4  C   UNL A   1      36.313  23.276  24.403  1.00  0.00     0.283 C 
ATOM      5  O   UNL A   1      36.339  23.022  23.192  1.00  0.00    -0.268 OA
ATOM      6  H   UNL A   1      38.063  24.248  24.310  1.00  0.00     0.163 HD
BRANCH   4   7
ATOM      7  C   UNL A   1      35.048  23.042  25.296  1.00  0.00     0.305 C 
BRANCH   7   8
ATOM      8  N   UNL A   1      34.699  21.598  25.379  1.00  0.00    -0.317 N 
ATOM      9  C   UNL A   1      35.806  20.667  25.358  1.00  0.00     0.334 C 
ATOM     10  H   UNL A   1      34.358  21.591  26.340  1.00  0.00     0.349 HD
BRANCH   8  11
ATOM     11  C   UNL A   1      33.537  21.124  24.614  1.00  0.00     0.339 C 
BRANCH  11  12
ATOM     12  C   UNL A   1      33.280  19.661  24.791  1.00  0.00     0.161 A 
ATOM     13  C   UNL A   1      33.379  16.239  23.843  1.00  0.00     0.068 C 
ATOM     14  C   UNL A   1      33.156  17.529  24.528  1.00  0.00     0.056 A 
ATOM     15  C   UNL A   1      32.732  17.775  25.814  1.00  0.00     0.107 A 
ATOM     16  N   UNL A   1      33.423  18.712  23.884  1.00  0.00    -0.233 NA
ATOM     17  N   UNL A   1      32.851  19.129  25.982  1.00  0.00    -0.344 N 
ATOM     18  H   UNL A   1      32.661  19.630  26.807  1.00  0.00     0.167 HD
ENDBRANCH  11  12
ENDBRANCH   8  11
ENDBRANCH   7   8
BRANCH   7  19
ATOM     19  C   UNL A   1      33.847  23.889  24.834  1.00  0.00     0.019 A 
ATOM     20  C   UNL A   1      33.450  23.953  23.493  1.00  0.00     0.012 A 
ATOM     21  C   UNL A   1      33.088  24.615  25.765  1.00  0.00     0.012 A 
ATOM     22  C   UNL A   1      32.202  24.473  23.151  1.00  0.00     0.027 A 
ATOM     23  C   UNL A   1      31.830  25.117  25.425  1.00  0.00     0.027 A 
ATOM     24  C   UNL A   1      31.330  24.914  24.143  1.00  0.00     0.042 A 
BRANCH  24  25
ATOM     25  N   UNL A   1      29.960  25.133  23.926  1.00  0.00    -0.308 N 
ATOM     26  C   UNL A   1      29.256  26.289  23.779  1.00  0.00     0.321 C 
ATOM     27  H   UNL A   1      29.419  24.313  23.870  1.00  0.00     0.171 HD
ATOM     28  O   UNL A   1      28.052  26.278  24.048  1.00  0.00    -0.248 OA
ATOM     29  N   UNL A   1      29.873  27.419  23.323  1.00  0.00    -0.325 N 
ATOM     30  C   UNL A   1      30.862  27.527  22.265  1.00  0.00     0.121 C 
ATOM     31  C   UNL A   1      29.329  28.728  23.603  1.00  0.00     0.121 C 
ATOM     32  C   UNL A   1      31.525  28.861  22.551  1.00  0.00     0.023 C 
ATOM     33  C   UNL A   1      30.396  29.716  23.131  1.00  0.00     0.023 C 
ENDBRANCH  24  25
ENDBRANCH   7  19
ENDBRANCH   4   7
ENDBRANCH   2   3
ENDBRANCH   1   2
BRANCH   1  34
ATOM     34  C   UNL A   1      39.510  21.875  26.886  1.00  0.00     0.023 C 
BRANCH  34  35
ATOM     35  C   UNL A   1      39.462  20.832  25.782  1.00  0.00     0.116 C 
BRANCH  35  36
ATOM     36  N   UNL A   1      40.332  19.693  26.035  1.00  0.00    -0.352 N 
ATOM     37  C   UNL A   1      41.671  19.694  26.342  1.00  0.00     0.251 C 
ATOM     38  H   UNL A   1      39.905  18.806  25.982  1.00  0.00     0.163 HD
ATOM     39  O   UNL A   1      42.294  18.638  26.405  1.00  0.00    -0.269 OA
BRANCH  37  40
ATOM     40  C   UNL A   1      42.353  20.985  26.553  1.00  0.00     0.039 A 
ATOM     41  C   UNL A   1      42.644  21.789  25.449  1.00  0.00     0.014 A 
ATOM     42  C   UNL A   1      42.639  21.426  27.849  1.00  0.00     0.014 A 
ATOM     43  C   UNL A   1      43.156  23.072  25.651  1.00  0.00     0.010 A 
ATOM     44  C   UNL A   1      43.065  22.732  28.049  1.00  0.00     0.010 A 
ATOM     45  C   UNL A   1      43.334  23.566  26.954  1.00  0.00    -0.014 A 
BRANCH  45  46
ATOM     46  C   UNL A   1      43.808  24.951  27.199  1.00  0.00     0.031 A 
ATOM     47  C   UNL A   1      45.251  25.300  26.959  1.00  0.00     0.074 A 
ATOM     48  C   UNL A   1      42.963  25.868  27.710  1.00  0.00     0.049 A 
ATOM     49  N   UNL A   1      45.874  26.428  27.180  1.00  0.00    -0.248 NA
ATOM     50  C   UNL A   1      46.115  24.230  26.433  1.00  0.00     0.031 C 
ATOM     51  C   UNL A   1      41.553  25.636  28.036  1.00  0.00     0.029 A 
ATOM     52  N   UNL A   1      43.170  27.180  28.052  1.00  0.00    -0.354 N 
ATOM     53  C   UNL A   1      47.204  26.196  26.846  1.00  0.00     0.074 A 
ATOM     54  C   UNL A   1      47.306  24.806  26.461  1.00  0.00     0.031 C 
ATOM     55  C   UNL A   1      41.015  26.777  28.496  1.00  0.00     0.029 A 
ATOM     56  C   UNL A   1      42.047  27.808  28.536  1.00  0.00     0.049 A 
ATOM     57  H   UNL A   1      44.041  27.630  27.958  1.00  0.00     0.167 HD
ATOM     58  C   UNL A   1      48.241  27.066  26.839  1.00  0.00     0.031 A 
ATOM     59  C   UNL A   1      41.868  29.074  28.965  1.00  0.00     0.031 A 
ATOM     60  C   UNL A   1      48.129  28.453  27.200  1.00  0.00     0.049 A 
ATOM     61  C   UNL A   1      43.029  30.027  28.933  1.00  0.00     0.074 A 
ATOM     62  C   UNL A   1      49.102  29.434  27.162  1.00  0.00     0.029 A 
ATOM     63  N   UNL A   1      46.969  29.055  27.665  1.00  0.00    -0.354 N 
ATOM     64  N   UNL A   1      44.265  29.806  28.550  1.00  0.00    -0.248 NA
ATOM     65  C   UNL A   1      42.770  31.402  29.380  1.00  0.00     0.031 C 
ATOM     66  C   UNL A   1      48.542  30.621  27.647  1.00  0.00     0.029 A 
ATOM     67  C   UNL A   1      47.206  30.391  27.937  1.00  0.00     0.049 A 
ATOM     68  H   UNL A   1      46.105  28.599  27.784  1.00  0.00     0.167 HD
ATOM     69  C   UNL A   1      44.926  31.022  28.687  1.00  0.00     0.074 A 
ATOM     70  C   UNL A   1      43.949  31.976  29.175  1.00  0.00     0.031 C 
ATOM     71  C   UNL A   1      46.222  31.323  28.428  1.00  0.00     0.031 A 
BRANCH  58  72
ATOM     72  C   UNL A   1      49.587  26.528  26.430  1.00  0.00    -0.014 A 
ATOM     73  C   UNL A   1      50.409  25.849  27.348  1.00  0.00     0.010 A 
ATOM     74  C   UNL A   1      50.037  26.703  25.109  1.00  0.00     0.010 A 
ATOM     75  C   UNL A   1      51.680  25.409  26.971  1.00  0.00     0.020 A 
ATOM     76  C   UNL A   1      51.297  26.237  24.719  1.00  0.00     0.020 A 
ATOM     77  C   UNL A   1      52.119  25.614  25.660  1.00  0.00     0.054 A 
BRANCH  77  78
ATOM     78  S   UNL A   1      53.776  25.040  25.198  1.00  0.00     0.124 S 
ATOM     79  O   UNL A   1      53.612  23.589  25.241  1.00  0.00    -0.237 OA
ATOM     80  O   UNL A   1      53.955  25.612  23.866  1.00  0.00    -0.237 OA
ATOM     81  O   UNL A   1      54.639  25.601  26.235  1.00  0.00    -0.744 OA
ENDBRANCH  77  78
ENDBRANCH  58  72
BRANCH  59  82
ATOM     82  C   UNL A   1      40.524  29.514  29.425  1.00  0.00    -0.014 A 
ATOM     83  C   UNL A   1      40.234  29.588  30.799  1.00  0.00     0.010 A 
ATOM     84  C   UNL A   1      39.538  29.894  28.496  1.00  0.00     0.010 A 
ATOM     85  C   UNL A   1      38.982  30.027  31.236  1.00  0.00     0.020 A 
ATOM     86  C   UNL A   1      38.292  30.357  28.930  1.00  0.00     0.020 A 
ATOM     87  C   UNL A   1      38.019  30.414  30.298  1.00  0.00     0.054 A 
BRANCH  87  88
ATOM     88  S   UNL A   1      36.426  31.051  30.891  1.00  0.00     0.124 S 
ATOM     89  O   UNL A   1      35.654  31.136  29.655  1.00  0.00    -0.237 OA
ATOM     90  O   UNL A   1      36.004  30.018  31.832  1.00  0.00    -0.237 OA
ATOM     91  O   UNL A   1      36.778  32.332  31.500  1.00  0.00    -0.744 OA
ENDBRANCH  87  88
ENDBRANCH  59  82
BRANCH  71  92
ATOM     92  C   UNL A   1      46.656  32.747  28.642  1.00  0.00    -0.014 A 
ATOM     93  C   UNL A   1      46.537  33.704  27.620  1.00  0.00     0.010 A 
ATOM     94  C   UNL A   1      47.135  33.143  29.904  1.00  0.00     0.010 A 
ATOM     95  C   UNL A   1      46.917  35.030  27.849  1.00  0.00     0.020 A 
ATOM     96  C   UNL A   1      47.491  34.473  30.144  1.00  0.00     0.020 A 
ATOM     97  C   UNL A   1      47.391  35.405  29.110  1.00  0.00     0.054 A 
BRANCH  97  98
ATOM     98  S   UNL A   1      47.831  37.141  29.397  1.00  0.00     0.124 S 
ATOM     99  O   UNL A   1      47.997  37.176  30.847  1.00  0.00    -0.237 OA
ATOM    100  O   UNL A   1      49.058  37.294  28.620  1.00  0.00    -0.237 OA
ATOM    101  O   UNL A   1      46.679  37.879  28.883  1.00  0.00    -0.744 OA
ENDBRANCH  97  98
ENDBRANCH  71  92
ENDBRANCH  45  46
ENDBRANCH  37  40
ENDBRANCH  35  36
ENDBRANCH  34  35
ENDBRANCH   1  34
TORSDOF 19
ENDMDL
MODEL 3
REMARK VINA RESULT:     -11.6      2.232      8.638
REMARK SMILES Cc1c[nH]c(C[N@@H+](C)[C@@H](C(=O)NCCCCNC(=O)c2ccc(-c3c4nc(c(-c5ccc(S(=O)(=O)[O-])cc5)c5ccc([nH]5)c(-c5ccc(S(=O)(=O)[O-])cc5)c5nc(c(-c6ccc(S(=O)(=O)[O-])cc6)c6ccc3[nH]6)C=C5)C=C4)cc2)c2ccc(NC(=O)N3CCCC3)cc2)n1
REMARK SMILES IDX 14 1 13 2 12 3 10 4 11 5 9 7 7 8 8 9 6 11 5 12 1 13 2 14
REMARK SMILES IDX 3 15 94 16 4 17 80 19 81 20 93 21 82 22 92 23 83 24 84 25
REMARK SMILES IDX 85 26 86 28 87 29 88 30 91 31 89 32 90 33 15 34 16 35 17 36
REMARK SMILES IDX 18 37 19 39 20 40 21 41 79 42 22 43 78 44 23 45 24 46 25 47
REMARK SMILES IDX 72 48 26 49 77 50 71 51 73 52 27 53 76 54 70 55 69 56 28 58
REMARK SMILES IDX 58 59 39 60 57 61 40 62 43 63 56 64 74 65 41 66 42 67 55 69
REMARK SMILES IDX 75 70 44 71 29 72 30 73 38 74 31 75 37 76 32 77 33 78 34 79
REMARK SMILES IDX 35 80 36 81 59 82 60 83 68 84 61 85 67 86 62 87 63 88 64 89
REMARK SMILES IDX 65 90 66 91 45 92 46 93 54 94 47 95 53 96 48 97 49 98 50 99
REMARK SMILES IDX 51 100 52 101
REMARK H PARENT 12 6 7 10 4 18 84 27 17 38 73 57 43 68
REMARK Flexibility Score: inf
ROOT
ATOM      1  C   UNL A   1      39.014  22.935  26.257  1.00  0.00     0.023 C 
ENDROOT
BRANCH   1   2
ATOM      2  C   UNL A   1      37.714  23.697  25.993  1.00  0.00     0.116 C 
BRANCH   2   3
ATOM      3  N   UNL A   1      37.330  23.547  24.607  1.00  0.00    -0.351 N 
ATOM      4  C   UNL A   1      36.075  23.366  24.091  1.00  0.00     0.283 C 
ATOM      5  O   UNL A   1      36.008  22.847  22.969  1.00  0.00    -0.268 OA
ATOM      6  H   UNL A   1      38.063  23.578  23.951  1.00  0.00     0.163 HD
BRANCH   4   7
ATOM      7  C   UNL A   1      34.813  23.827  24.893  1.00  0.00     0.305 C 
BRANCH   7   8
ATOM      8  N   UNL A   1      34.285  22.734  25.753  1.00  0.00    -0.317 N 
ATOM      9  C   UNL A   1      33.945  23.092  27.113  1.00  0.00     0.334 C 
ATOM     10  H   UNL A   1      33.392  22.599  25.278  1.00  0.00     0.349 HD
BRANCH   8  11
ATOM     11  C   UNL A   1      34.916  21.410  25.651  1.00  0.00     0.339 C 
BRANCH  11  12
ATOM     12  C   UNL A   1      33.960  20.342  25.222  1.00  0.00     0.161 A 
ATOM     13  C   UNL A   1      32.320  18.248  22.867  1.00  0.00     0.068 C 
ATOM     14  C   UNL A   1      32.780  18.948  24.085  1.00  0.00     0.056 A 
ATOM     15  C   UNL A   1      32.546  18.647  25.407  1.00  0.00     0.107 A 
ATOM     16  N   UNL A   1      33.600  20.044  23.986  1.00  0.00    -0.233 NA
ATOM     17  N   UNL A   1      33.330  19.515  26.119  1.00  0.00    -0.344 N 
ATOM     18  H   UNL A   1      33.425  19.542  27.099  1.00  0.00     0.167 HD
ENDBRANCH  11  12
ENDBRANCH   8  11
ENDBRANCH   7   8
BRANCH   7  19
ATOM     19  C   UNL A   1      33.719  24.404  23.974  1.00  0.00     0.019 A 
ATOM     20  C   UNL A   1      32.386  24.527  24.387  1.00  0.00     0.012 A 
ATOM     21  C   UNL A   1      34.037  24.852  22.683  1.00  0.00     0.012 A 
ATOM     22  C   UNL A   1      31.494  25.316  23.661  1.00  0.00     0.027 A 
ATOM     23  C   UNL A   1      33.150  25.659  21.968  1.00  0.00     0.027 A 
ATOM     24  C   UNL A   1      31.927  26.007  22.532  1.00  0.00     0.042 A 
BRANCH  24  25
ATOM     25  N   UNL A   1      31.207  27.063  21.950  1.00  0.00    -0.308 N 
ATOM     26  C   UNL A   1      30.777  28.243  22.475  1.00  0.00     0.321 C 
ATOM     27  H   UNL A   1      30.976  26.928  21.003  1.00  0.00     0.171 HD
ATOM     28  O   UNL A   1      29.808  28.798  21.951  1.00  0.00    -0.248 OA
ATOM     29  N   UNL A   1      31.424  28.799  23.543  1.00  0.00    -0.325 N 
ATOM     30  C   UNL A   1      32.855  28.862  23.781  1.00  0.00     0.121 C 
ATOM     31  C   UNL A   1      30.754  29.741  24.410  1.00  0.00     0.121 C 
ATOM     32  C   UNL A   1      32.943  29.103  25.276  1.00  0.00     0.023 C 
ATOM     33  C   UNL A   1      31.711  29.956  25.583  1.00  0.00     0.023 C 
ENDBRANCH  24  25
ENDBRANCH   7  19
ENDBRANCH   4   7
ENDBRANCH   2   3
ENDBRANCH   1   2
BRANCH   1  34
ATOM     34  C   UNL A   1      38.843  21.429  26.440  1.00  0.00     0.023 C 
BRANCH  34  35
ATOM     35  C   UNL A   1      39.564  20.574  25.410  1.00  0.00     0.116 C 
BRANCH  35  36
ATOM     36  N   UNL A   1      40.481  19.614  26.006  1.00  0.00    -0.352 N 
ATOM     37  C   UNL A   1      41.673  19.856  26.644  1.00  0.00     0.251 C 
ATOM     38  H   UNL A   1      40.212  18.668  25.945  1.00  0.00     0.163 HD
ATOM     39  O   UNL A   1      42.395  18.924  26.985  1.00  0.00    -0.269 OA
BRANCH  37  40
ATOM     40  C   UNL A   1      42.086  21.253  26.877  1.00  0.00     0.039 A 
ATOM     41  C   UNL A   1      42.186  21.724  28.188  1.00  0.00     0.014 A 
ATOM     42  C   UNL A   1      42.440  22.071  25.799  1.00  0.00     0.014 A 
ATOM     43  C   UNL A   1      42.713  22.995  28.421  1.00  0.00     0.010 A 
ATOM     44  C   UNL A   1      43.044  23.298  26.040  1.00  0.00     0.010 A 
ATOM     45  C   UNL A   1      43.182  23.775  27.352  1.00  0.00    -0.014 A 
BRANCH  45  46
ATOM     46  C   UNL A   1      43.813  25.099  27.576  1.00  0.00     0.031 A 
ATOM     47  C   UNL A   1      42.988  26.241  28.104  1.00  0.00     0.074 A 
ATOM     48  C   UNL A   1      45.101  25.294  27.233  1.00  0.00     0.049 A 
ATOM     49  N   UNL A   1      43.333  27.487  28.299  1.00  0.00    -0.248 NA
ATOM     50  C   UNL A   1      41.579  25.951  28.420  1.00  0.00     0.031 C 
ATOM     51  C   UNL A   1      45.992  24.280  26.663  1.00  0.00     0.029 A 
ATOM     52  N   UNL A   1      45.885  26.418  27.309  1.00  0.00    -0.354 N 
ATOM     53  C   UNL A   1      42.182  28.133  28.735  1.00  0.00     0.074 A 
ATOM     54  C   UNL A   1      41.117  27.154  28.722  1.00  0.00     0.031 C 
ATOM     55  C   UNL A   1      47.208  24.819  26.473  1.00  0.00     0.029 A 
ATOM     56  C   UNL A   1      47.173  26.222  26.870  1.00  0.00     0.049 A 
ATOM     57  H   UNL A   1      45.556  27.282  27.646  1.00  0.00     0.167 HD
ATOM     58  C   UNL A   1      42.029  29.418  29.132  1.00  0.00     0.031 A 
ATOM     59  C   UNL A   1      48.213  27.078  26.796  1.00  0.00     0.031 A 
ATOM     60  C   UNL A   1      43.096  30.380  29.166  1.00  0.00     0.049 A 
ATOM     61  C   UNL A   1      48.025  28.496  27.257  1.00  0.00     0.074 A 
ATOM     62  C   UNL A   1      43.062  31.688  29.615  1.00  0.00     0.029 A 
ATOM     63  N   UNL A   1      44.392  30.137  28.734  1.00  0.00    -0.354 N 
ATOM     64  N   UNL A   1      46.944  29.071  27.730  1.00  0.00    -0.248 NA
ATOM     65  C   UNL A   1      49.198  29.376  27.187  1.00  0.00     0.031 C 
ATOM     66  C   UNL A   1      44.328  32.250  29.412  1.00  0.00     0.029 A 
ATOM     67  C   UNL A   1      45.162  31.276  28.886  1.00  0.00     0.049 A 
ATOM     68  H   UNL A   1      44.714  29.281  28.371  1.00  0.00     0.167 HD
ATOM     69  C   UNL A   1      47.314  30.376  28.036  1.00  0.00     0.074 A 
ATOM     70  C   UNL A   1      48.721  30.500  27.707  1.00  0.00     0.031 C 
ATOM     71  C   UNL A   1      46.560  31.380  28.547  1.00  0.00     0.031 A 
BRANCH  58  72
ATOM     72  C   UNL A   1      40.648  29.848  29.556  1.00  0.00    -0.014 A 
ATOM     73  C   UNL A   1      39.620  30.025  28.611  1.00  0.00     0.010 A 
ATOM     74  C   UNL A   1      40.375  30.077  30.916  1.00  0.00     0.010 A 
ATOM     75  C   UNL A   1      38.363  30.483  29.011  1.00  0.00     0.020 A 
ATOM     76  C   UNL A   1      39.108  30.506  31.324  1.00  0.00     0.020 A 
ATOM     77  C   UNL A   1      38.117  30.728  30.365  1.00  0.00     0.054 A 
BRANCH  77  78
ATOM     78  S   UNL A   1      36.478  31.328  30.858  1.00  0.00     0.124 S 
ATOM     79  O   UNL A   1      35.829  31.521  29.563  1.00  0.00    -0.237 OA
ATOM     80  O   UNL A   1      35.960  30.225  31.662  1.00  0.00    -0.237 OA
ATOM     81  O   UNL A   1      36.766  32.554  31.599  1.00  0.00    -0.744 OA
ENDBRANCH  77  78
ENDBRANCH  58  72
BRANCH  59  82
ATOM     82  C   UNL A   1      49.529  26.599  26.298  1.00  0.00    -0.014 A 
ATOM     83  C   UNL A   1      49.921  26.858  24.972  1.00  0.00     0.010 A 
ATOM     84  C   UNL A   1      50.412  25.914  27.152  1.00  0.00     0.010 A 
ATOM     85  C   UNL A   1      51.169  26.434  24.507  1.00  0.00     0.020 A 
ATOM     86  C   UNL A   1      51.671  25.510  26.697  1.00  0.00     0.020 A 
ATOM     87  C   UNL A   1      52.039  25.766  25.375  1.00  0.00     0.054 A 
BRANCH  87  88
ATOM     88  S   UNL A   1      53.683  25.290  24.770  1.00  0.00     0.124 S 
ATOM     89  O   UNL A   1      53.624  23.834  24.845  1.00  0.00    -0.237 OA
ATOM     90  O   UNL A   1      53.700  25.855  23.424  1.00  0.00    -0.237 OA
ATOM     91  O   UNL A   1      54.592  25.931  25.718  1.00  0.00    -0.744 OA
ENDBRANCH  87  88
ENDBRANCH  59  82
BRANCH  71  92
ATOM     92  C   UNL A   1      47.243  32.694  28.807  1.00  0.00    -0.014 A 
ATOM     93  C   UNL A   1      47.906  32.941  30.022  1.00  0.00     0.010 A 
ATOM     94  C   UNL A   1      47.273  33.673  27.796  1.00  0.00     0.010 A 
ATOM     95  C   UNL A   1      48.562  34.157  30.232  1.00  0.00     0.020 A 
ATOM     96  C   UNL A   1      47.950  34.878  27.993  1.00  0.00     0.020 A 
ATOM     97  C   UNL A   1      48.581  35.118  29.215  1.00  0.00     0.054 A 
BRANCH  97  98
ATOM     98  S   UNL A   1      49.480  36.668  29.494  1.00  0.00     0.124 S 
ATOM     99  O   UNL A   1      50.626  36.517  28.601  1.00  0.00    -0.237 OA
ATOM    100  O   UNL A   1      48.505  37.681  29.100  1.00  0.00    -0.237 OA
ATOM    101  O   UNL A   1      49.794  36.634  30.921  1.00  0.00    -0.744 OA
ENDBRANCH  97  98
ENDBRANCH  71  92
ENDBRANCH  45  46
ENDBRANCH  37  40
ENDBRANCH  35  36
ENDBRANCH  34  35
ENDBRANCH   1  34
TORSDOF 19
ENDMDL
