MODEL 1
REMARK VINA RESULT:     -11.0      0.000      0.000
REMARK SMILES O=C(Cc1ccc(NC(=O)Cc2ccc(Br)cc2)cc1)NCCCCNC(=O)c1ccc(-c2c3nc(c(-c4ccc(S(=O)(=O)[O-])cc4)c4ccc([nH]4)c(-c4ccc(S(=O)(=O)[O-])cc4)c4nc(c(-c5ccc(S(=O)(=O)[O-])cc5)c5ccc2[nH]5)C=C4)C=C3)cc1
REMARK SMILES IDX 23 1 22 2 21 3 1 4 2 5 3 7 4 8 5 9 20 10 6 11 19 12 7 13
REMARK SMILES IDX 8 14 9 15 10 17 11 18 12 19 13 20 18 21 14 22 17 23 15 24
REMARK SMILES IDX 16 25 24 26 25 27 26 28 27 29 28 31 29 32 30 33 88 34 31 35
REMARK SMILES IDX 87 36 32 37 33 38 34 39 81 40 35 41 86 42 80 43 82 44 36 45
REMARK SMILES IDX 85 46 79 47 78 48 37 50 67 51 48 52 66 53 49 54 52 55 65 56
REMARK SMILES IDX 83 57 50 58 51 59 64 61 84 62 53 63 38 64 39 65 47 66 40 67
REMARK SMILES IDX 46 68 41 69 42 70 43 71 44 72 45 73 68 74 69 75 77 76 70 77
REMARK SMILES IDX 76 78 71 79 72 80 73 81 74 82 75 83 54 84 55 85 63 86 56 87
REMARK SMILES IDX 62 88 57 89 58 90 59 91 60 92 61 93
REMARK H PARENT 21 6 8 16 26 30 82 49 52 60
REMARK Flexibility Score: inf
ROOT
ATOM      1  C   UNL A   1      31.478  29.326  25.502  1.00  0.00     0.023 C 
ENDROOT
BRANCH   1   2
ATOM      2  C   UNL A   1      30.829  28.817  24.216  1.00  0.00     0.116 C 
BRANCH   2   3
ATOM      3  N   UNL A   1      30.933  27.378  24.074  1.00  0.00    -0.356 N 
ATOM      4  O   UNL A   1      31.273  27.384  21.800  1.00  0.00    -0.275 OA
ATOM      5  C   UNL A   1      31.171  26.768  22.858  1.00  0.00     0.224 C 
ATOM      6  H   UNL A   1      30.832  26.813  24.875  1.00  0.00     0.163 HD
BRANCH   5   7
ATOM      7  C   UNL A   1      31.247  25.250  22.907  1.00  0.00     0.135 C 
BRANCH   7   8
ATOM      8  C   UNL A   1      32.633  24.704  23.150  1.00  0.00    -0.039 A 
ATOM      9  C   UNL A   1      33.143  23.696  22.328  1.00  0.00     0.006 A 
ATOM     10  C   UNL A   1      33.452  25.216  24.162  1.00  0.00     0.006 A 
ATOM     11  C   UNL A   1      34.412  23.154  22.565  1.00  0.00     0.026 A 
ATOM     12  C   UNL A   1      34.708  24.651  24.409  1.00  0.00     0.026 A 
ATOM     13  C   UNL A   1      35.175  23.571  23.648  1.00  0.00     0.041 A 
BRANCH  13  14
ATOM     14  N   UNL A   1      36.392  22.999  24.049  1.00  0.00    -0.326 N 
ATOM     15  C   UNL A   1      36.732  21.891  24.767  1.00  0.00     0.228 C 
ATOM     16  H   UNL A   1      37.174  23.512  23.745  1.00  0.00     0.169 HD
ATOM     17  O   UNL A   1      37.944  21.670  24.890  1.00  0.00    -0.274 OA
BRANCH  15  18
ATOM     18  C   UNL A   1      35.733  20.935  25.388  1.00  0.00     0.135 C 
BRANCH  18  19
ATOM     19  C   UNL A   1      34.382  21.502  25.766  1.00  0.00    -0.039 A 
ATOM     20  C   UNL A   1      34.201  22.326  26.887  1.00  0.00     0.005 A 
ATOM     21  C   UNL A   1      33.255  21.129  25.014  1.00  0.00     0.005 A 
ATOM     22  C   UNL A   1      32.924  22.794  27.223  1.00  0.00     0.016 A 
ATOM     23  C   UNL A   1      31.989  21.607  25.336  1.00  0.00     0.016 A 
ATOM     24  C   UNL A   1      31.826  22.430  26.443  1.00  0.00     0.017 A 
ATOM     25  Br  UNL A   1      30.081  22.999  26.873  1.00  0.00    -0.051 Br
ENDBRANCH  18  19
ENDBRANCH  15  18
ENDBRANCH  13  14
ENDBRANCH   7   8
ENDBRANCH   5   7
ENDBRANCH   2   3
ENDBRANCH   1   2
BRANCH   1  26
ATOM     26  C   UNL A   1      32.090  28.242  26.396  1.00  0.00     0.023 C 
BRANCH  26  27
ATOM     27  C   UNL A   1      33.316  28.664  27.203  1.00  0.00     0.116 C 
BRANCH  27  28
ATOM     28  N   UNL A   1      33.325  30.078  27.545  1.00  0.00    -0.352 N 
ATOM     29  C   UNL A   1      34.324  30.829  28.123  1.00  0.00     0.251 C 
ATOM     30  H   UNL A   1      32.498  30.567  27.334  1.00  0.00     0.163 HD
ATOM     31  O   UNL A   1      34.093  31.988  28.461  1.00  0.00    -0.269 OA
BRANCH  29  32
ATOM     32  C   UNL A   1      35.663  30.244  28.369  1.00  0.00     0.039 A 
ATOM     33  C   UNL A   1      36.612  30.265  27.342  1.00  0.00     0.014 A 
ATOM     34  C   UNL A   1      35.992  29.674  29.600  1.00  0.00     0.014 A 
ATOM     35  C   UNL A   1      37.911  29.797  27.579  1.00  0.00     0.010 A 
ATOM     36  C   UNL A   1      37.306  29.270  29.851  1.00  0.00     0.010 A 
ATOM     37  C   UNL A   1      38.292  29.345  28.854  1.00  0.00    -0.014 A 
BRANCH  37  38
ATOM     38  C   UNL A   1      39.710  28.983  29.165  1.00  0.00     0.031 A 
ATOM     39  C   UNL A   1      40.640  29.985  29.806  1.00  0.00     0.074 A 
ATOM     40  C   UNL A   1      40.195  27.771  28.816  1.00  0.00     0.049 A 
ATOM     41  N   UNL A   1      41.913  29.864  30.095  1.00  0.00    -0.248 NA
ATOM     42  C   UNL A   1      40.078  31.304  30.135  1.00  0.00     0.031 C 
ATOM     43  C   UNL A   1      39.439  26.715  28.137  1.00  0.00     0.029 A 
ATOM     44  N   UNL A   1      41.446  27.220  28.980  1.00  0.00    -0.354 N 
ATOM     45  C   UNL A   1      42.304  31.092  30.617  1.00  0.00     0.074 A 
ATOM     46  C   UNL A   1      41.152  31.963  30.547  1.00  0.00     0.031 C 
ATOM     47  C   UNL A   1      40.224  25.636  27.983  1.00  0.00     0.029 A 
ATOM     48  C   UNL A   1      41.556  25.933  28.502  1.00  0.00     0.049 A 
ATOM     49  H   UNL A   1      42.194  27.702  29.400  1.00  0.00     0.167 HD
ATOM     50  C   UNL A   1      43.502  31.461  31.134  1.00  0.00     0.031 A 
ATOM     51  C   UNL A   1      42.603  25.084  28.474  1.00  0.00     0.031 A 
ATOM     52  C   UNL A   1      44.649  30.597  31.228  1.00  0.00     0.049 A 
ATOM     53  C   UNL A   1      43.926  25.516  29.049  1.00  0.00     0.074 A 
ATOM     54  C   UNL A   1      45.884  30.867  31.796  1.00  0.00     0.029 A 
ATOM     55  N   UNL A   1      44.709  29.300  30.743  1.00  0.00    -0.354 N 
ATOM     56  N   UNL A   1      44.248  26.659  29.605  1.00  0.00    -0.248 NA
ATOM     57  C   UNL A   1      45.024  24.539  29.002  1.00  0.00     0.031 C 
ATOM     58  C   UNL A   1      46.708  29.754  31.602  1.00  0.00     0.029 A 
ATOM     59  C   UNL A   1      45.967  28.766  30.977  1.00  0.00     0.049 A 
ATOM     60  H   UNL A   1      43.968  28.828  30.299  1.00  0.00     0.167 HD
ATOM     61  C   UNL A   1      45.576  26.525  30.002  1.00  0.00     0.074 A 
ATOM     62  C   UNL A   1      45.991  25.187  29.636  1.00  0.00     0.031 C 
ATOM     63  C   UNL A   1      46.377  27.432  30.615  1.00  0.00     0.031 A 
BRANCH  50  64
ATOM     64  C   UNL A   1      43.633  32.874  31.649  1.00  0.00    -0.014 A 
ATOM     65  C   UNL A   1      44.007  33.927  30.794  1.00  0.00     0.010 A 
ATOM     66  C   UNL A   1      43.338  33.160  32.994  1.00  0.00     0.010 A 
ATOM     67  C   UNL A   1      44.135  35.228  31.286  1.00  0.00     0.020 A 
ATOM     68  C   UNL A   1      43.430  34.468  33.483  1.00  0.00     0.020 A 
ATOM     69  C   UNL A   1      43.848  35.491  32.628  1.00  0.00     0.054 A 
BRANCH  69  70
ATOM     70  S   UNL A   1      44.007  37.193  33.232  1.00  0.00     0.124 S 
ATOM     71  O   UNL A   1      44.092  37.948  31.984  1.00  0.00    -0.237 OA
ATOM     72  O   UNL A   1      42.775  37.378  33.994  1.00  0.00    -0.237 OA
ATOM     73  O   UNL A   1      45.231  37.167  34.028  1.00  0.00    -0.744 OA
ENDBRANCH  69  70
ENDBRANCH  50  64
BRANCH  51  74
ATOM     74  C   UNL A   1      42.445  23.721  27.888  1.00  0.00    -0.014 A 
ATOM     75  C   UNL A   1      42.564  23.519  26.501  1.00  0.00     0.010 A 
ATOM     76  C   UNL A   1      42.167  22.616  28.715  1.00  0.00     0.010 A 
ATOM     77  C   UNL A   1      42.388  22.245  25.950  1.00  0.00     0.020 A 
ATOM     78  C   UNL A   1      42.024  21.336  28.172  1.00  0.00     0.020 A 
ATOM     79  C   UNL A   1      42.122  21.161  26.790  1.00  0.00     0.054 A 
BRANCH  79  80
ATOM     80  S   UNL A   1      41.946  19.509  26.059  1.00  0.00     0.124 S 
ATOM     81  O   UNL A   1      42.422  18.647  27.136  1.00  0.00    -0.237 OA
ATOM     82  O   UNL A   1      40.514  19.440  25.779  1.00  0.00    -0.237 OA
ATOM     83  O   UNL A   1      42.803  19.565  24.876  1.00  0.00    -0.744 OA
ENDBRANCH  79  80
ENDBRANCH  51  74
BRANCH  63  84
ATOM     84  C   UNL A   1      47.777  27.003  30.975  1.00  0.00    -0.014 A 
ATOM     85  C   UNL A   1      48.066  26.405  32.214  1.00  0.00     0.010 A 
ATOM     86  C   UNL A   1      48.809  27.146  30.028  1.00  0.00     0.010 A 
ATOM     87  C   UNL A   1      49.368  25.987  32.511  1.00  0.00     0.020 A 
ATOM     88  C   UNL A   1      50.103  26.702  30.309  1.00  0.00     0.020 A 
ATOM     89  C   UNL A   1      50.378  26.136  31.555  1.00  0.00     0.054 A 
BRANCH  89  90
ATOM     90  S   UNL A   1      52.047  25.541  31.948  1.00  0.00     0.124 S 
ATOM     91  O   UNL A   1      51.829  24.106  32.103  1.00  0.00    -0.237 OA
ATOM     92  O   UNL A   1      52.813  25.938  30.769  1.00  0.00    -0.237 OA
ATOM     93  O   UNL A   1      52.390  26.256  33.176  1.00  0.00    -0.744 OA
ENDBRANCH  89  90
ENDBRANCH  63  84
ENDBRANCH  37  38
ENDBRANCH  29  32
ENDBRANCH  27  28
ENDBRANCH  26  27
ENDBRANCH   1  26
TORSDOF 18
ENDMDL
MODEL 2
REMARK VINA RESULT:     -10.8      4.318     10.185
REMARK SMILES O=C(Cc1ccc(NC(=O)Cc2ccc(Br)cc2)cc1)NCCCCNC(=O)c1ccc(-c2c3nc(c(-c4ccc(S(=O)(=O)[O-])cc4)c4ccc([nH]4)c(-c4ccc(S(=O)(=O)[O-])cc4)c4nc(c(-c5ccc(S(=O)(=O)[O-])cc5)c5ccc2[nH]5)C=C4)C=C3)cc1
REMARK SMILES IDX 23 1 22 2 21 3 1 4 2 5 3 7 4 8 5 9 20 10 6 11 19 12 7 13
REMARK SMILES IDX 8 14 9 15 10 17 11 18 12 19 13 20 18 21 14 22 17 23 15 24
REMARK SMILES IDX 16 25 24 26 25 27 26 28 27 29 28 31 29 32 30 33 88 34 31 35
REMARK SMILES IDX 87 36 32 37 33 38 34 39 81 40 35 41 86 42 80 43 82 44 36 45
REMARK SMILES IDX 85 46 79 47 78 48 37 50 67 51 48 52 66 53 49 54 52 55 65 56
REMARK SMILES IDX 83 57 50 58 51 59 64 61 84 62 53 63 38 64 39 65 47 66 40 67
REMARK SMILES IDX 46 68 41 69 42 70 43 71 44 72 45 73 68 74 69 75 77 76 70 77
REMARK SMILES IDX 76 78 71 79 72 80 73 81 74 82 75 83 54 84 55 85 63 86 56 87
REMARK SMILES IDX 62 88 57 89 58 90 59 91 60 92 61 93
REMARK H PARENT 21 6 8 16 26 30 82 49 52 60
REMARK Flexibility Score: inf
ROOT
ATOM      1  C   UNL A   1      39.973  22.594  26.829  1.00  0.00     0.023 C 
ENDROOT
BRANCH   1   2
ATOM      2  C   UNL A   1      39.201  21.618  25.943  1.00  0.00     0.116 C 
BRANCH   2   3
ATOM      3  N   UNL A   1      38.194  22.278  25.136  1.00  0.00    -0.356 N 
ATOM      4  O   UNL A   1      36.806  20.455  24.943  1.00  0.00    -0.275 OA
ATOM      5  C   UNL A   1      37.048  21.637  24.710  1.00  0.00     0.224 C 
ATOM      6  H   UNL A   1      38.331  23.220  24.883  1.00  0.00     0.163 HD
BRANCH   5   7
ATOM      7  C   UNL A   1      36.109  22.492  23.874  1.00  0.00     0.135 C 
BRANCH   7   8
ATOM      8  C   UNL A   1      34.769  22.759  24.518  1.00  0.00    -0.039 A 
ATOM      9  C   UNL A   1      33.594  22.338  23.892  1.00  0.00     0.006 A 
ATOM     10  C   UNL A   1      34.672  23.387  25.764  1.00  0.00     0.006 A 
ATOM     11  C   UNL A   1      32.344  22.612  24.459  1.00  0.00     0.026 A 
ATOM     12  C   UNL A   1      33.418  23.680  26.312  1.00  0.00     0.026 A 
ATOM     13  C   UNL A   1      32.239  23.348  25.632  1.00  0.00     0.041 A 
BRANCH  13  14
ATOM     14  N   UNL A   1      31.037  23.790  26.205  1.00  0.00    -0.326 N 
ATOM     15  C   UNL A   1      30.324  24.950  26.146  1.00  0.00     0.228 C 
ATOM     16  H   UNL A   1      30.614  23.111  26.779  1.00  0.00     0.169 HD
ATOM     17  O   UNL A   1      29.253  24.966  26.768  1.00  0.00    -0.274 OA
BRANCH  15  18
ATOM     18  C   UNL A   1      30.753  26.178  25.368  1.00  0.00     0.135 C 
BRANCH  18  19
ATOM     19  C   UNL A   1      31.831  27.041  25.986  1.00  0.00    -0.039 A 
ATOM     20  C   UNL A   1      31.600  27.834  27.121  1.00  0.00     0.005 A 
ATOM     21  C   UNL A   1      33.087  27.112  25.359  1.00  0.00     0.005 A 
ATOM     22  C   UNL A   1      32.616  28.650  27.633  1.00  0.00     0.016 A 
ATOM     23  C   UNL A   1      34.103  27.908  25.878  1.00  0.00     0.016 A 
ATOM     24  C   UNL A   1      33.862  28.680  27.007  1.00  0.00     0.017 A 
ATOM     25  Br  UNL A   1      35.252  29.790  27.631  1.00  0.00    -0.051 Br
ENDBRANCH  18  19
ENDBRANCH  15  18
ENDBRANCH  13  14
ENDBRANCH   7   8
ENDBRANCH   5   7
ENDBRANCH   2   3
ENDBRANCH   1   2
BRANCH   1  26
ATOM     26  C   UNL A   1      39.441  24.030  26.833  1.00  0.00     0.023 C 
BRANCH  26  27
ATOM     27  C   UNL A   1      40.214  25.024  25.968  1.00  0.00     0.116 C 
BRANCH  27  28
ATOM     28  N   UNL A   1      41.608  24.659  25.773  1.00  0.00    -0.352 N 
ATOM     29  C   UNL A   1      42.728  25.106  26.439  1.00  0.00     0.251 C 
ATOM     30  H   UNL A   1      41.776  23.999  25.063  1.00  0.00     0.163 HD
ATOM     31  O   UNL A   1      43.843  24.779  26.038  1.00  0.00    -0.269 OA
BRANCH  29  32
ATOM     32  C   UNL A   1      42.602  25.999  27.615  1.00  0.00     0.039 A 
ATOM     33  C   UNL A   1      43.099  27.303  27.534  1.00  0.00     0.014 A 
ATOM     34  C   UNL A   1      41.999  25.563  28.797  1.00  0.00     0.014 A 
ATOM     35  C   UNL A   1      42.912  28.192  28.600  1.00  0.00     0.010 A 
ATOM     36  C   UNL A   1      41.758  26.471  29.831  1.00  0.00     0.010 A 
ATOM     37  C   UNL A   1      42.190  27.805  29.742  1.00  0.00    -0.014 A 
BRANCH  37  38
ATOM     38  C   UNL A   1      41.852  28.782  30.823  1.00  0.00     0.031 A 
ATOM     39  C   UNL A   1      42.662  28.835  32.096  1.00  0.00     0.074 A 
ATOM     40  C   UNL A   1      40.774  29.587  30.701  1.00  0.00     0.049 A 
ATOM     41  N   UNL A   1      42.480  29.577  33.162  1.00  0.00    -0.248 NA
ATOM     42  C   UNL A   1      43.805  27.914  32.201  1.00  0.00     0.031 C 
ATOM     43  C   UNL A   1      39.857  29.613  29.558  1.00  0.00     0.029 A 
ATOM     44  N   UNL A   1      40.260  30.541  31.551  1.00  0.00    -0.354 N 
ATOM     45  C   UNL A   1      43.467  29.198  34.065  1.00  0.00     0.074 A 
ATOM     46  C   UNL A   1      44.206  28.118  33.448  1.00  0.00     0.031 C 
ATOM     47  C   UNL A   1      38.925  30.559  29.758  1.00  0.00     0.029 A 
ATOM     48  C   UNL A   1      39.140  31.177  31.064  1.00  0.00     0.049 A 
ATOM     49  H   UNL A   1      40.657  30.749  32.426  1.00  0.00     0.167 HD
ATOM     50  C   UNL A   1      43.757  29.714  35.285  1.00  0.00     0.031 A 
ATOM     51  C   UNL A   1      38.364  32.141  31.599  1.00  0.00     0.031 A 
ATOM     52  C   UNL A   1      43.042  30.801  35.900  1.00  0.00     0.049 A 
ATOM     53  C   UNL A   1      38.701  32.696  32.958  1.00  0.00     0.074 A 
ATOM     54  C   UNL A   1      43.306  31.431  37.105  1.00  0.00     0.029 A 
ATOM     55  N   UNL A   1      41.924  31.421  35.364  1.00  0.00    -0.354 N 
ATOM     56  N   UNL A   1      39.686  32.371  33.760  1.00  0.00    -0.248 NA
ATOM     57  C   UNL A   1      37.825  33.756  33.480  1.00  0.00     0.031 C 
ATOM     58  C   UNL A   1      42.314  32.391  37.325  1.00  0.00     0.029 A 
ATOM     59  C   UNL A   1      41.473  32.409  36.225  1.00  0.00     0.049 A 
ATOM     60  H   UNL A   1      41.512  31.194  34.499  1.00  0.00     0.167 HD
ATOM     61  C   UNL A   1      39.566  33.208  34.865  1.00  0.00     0.074 A 
ATOM     62  C   UNL A   1      38.424  34.064  34.622  1.00  0.00     0.031 C 
ATOM     63  C   UNL A   1      40.337  33.262  35.980  1.00  0.00     0.031 A 
BRANCH  50  64
ATOM     64  C   UNL A   1      44.911  29.104  36.043  1.00  0.00    -0.014 A 
ATOM     65  C   UNL A   1      44.714  28.021  36.920  1.00  0.00     0.010 A 
ATOM     66  C   UNL A   1      46.216  29.593  35.845  1.00  0.00     0.010 A 
ATOM     67  C   UNL A   1      45.789  27.473  37.622  1.00  0.00     0.020 A 
ATOM     68  C   UNL A   1      47.300  29.024  36.521  1.00  0.00     0.020 A 
ATOM     69  C   UNL A   1      47.076  27.980  37.421  1.00  0.00     0.054 A 
BRANCH  69  70
ATOM     70  S   UNL A   1      48.453  27.236  38.336  1.00  0.00     0.124 S 
ATOM     71  O   UNL A   1      49.595  27.574  37.488  1.00  0.00    -0.237 OA
ATOM     72  O   UNL A   1      48.398  27.931  39.618  1.00  0.00    -0.237 OA
ATOM     73  O   UNL A   1      48.113  25.816  38.384  1.00  0.00    -0.744 OA
ENDBRANCH  69  70
ENDBRANCH  50  64
BRANCH  51  74
ATOM     74  C   UNL A   1      37.189  32.662  30.842  1.00  0.00    -0.014 A 
ATOM     75  C   UNL A   1      35.927  32.052  30.968  1.00  0.00     0.010 A 
ATOM     76  C   UNL A   1      37.327  33.768  29.983  1.00  0.00     0.010 A 
ATOM     77  C   UNL A   1      34.833  32.525  30.236  1.00  0.00     0.020 A 
ATOM     78  C   UNL A   1      36.228  34.264  29.275  1.00  0.00     0.020 A 
ATOM     79  C   UNL A   1      34.989  33.630  29.397  1.00  0.00     0.054 A 
BRANCH  79  80
ATOM     80  S   UNL A   1      33.545  34.256  28.495  1.00  0.00     0.124 S 
ATOM     81  O   UNL A   1      32.713  34.777  29.575  1.00  0.00    -0.237 OA
ATOM     82  O   UNL A   1      34.136  35.259  27.612  1.00  0.00    -0.237 OA
ATOM     83  O   UNL A   1      33.023  33.071  27.818  1.00  0.00    -0.744 OA
ENDBRANCH  79  80
ENDBRANCH  51  74
BRANCH  63  84
ATOM     84  C   UNL A   1      40.005  34.309  37.014  1.00  0.00    -0.014 A 
ATOM     85  C   UNL A   1      39.221  34.005  38.140  1.00  0.00     0.010 A 
ATOM     86  C   UNL A   1      40.542  35.603  36.883  1.00  0.00     0.010 A 
ATOM     87  C   UNL A   1      38.954  34.987  39.102  1.00  0.00     0.020 A 
ATOM     88  C   UNL A   1      40.303  36.577  37.856  1.00  0.00     0.020 A 
ATOM     89  C   UNL A   1      39.499  36.266  38.954  1.00  0.00     0.054 A 
BRANCH  89  90
ATOM     90  S   UNL A   1      39.177  37.505  40.240  1.00  0.00     0.124 S 
ATOM     91  O   UNL A   1      38.606  36.692  41.310  1.00  0.00    -0.237 OA
ATOM     92  O   UNL A   1      40.509  38.047  40.502  1.00  0.00    -0.237 OA
ATOM     93  O   UNL A   1      38.248  38.435  39.600  1.00  0.00    -0.744 OA
ENDBRANCH  89  90
ENDBRANCH  63  84
ENDBRANCH  37  38
ENDBRANCH  29  32
ENDBRANCH  27  28
ENDBRANCH  26  27
ENDBRANCH   1  26
TORSDOF 18
ENDMDL
MODEL 3
REMARK VINA RESULT:     -10.7      3.199      4.273
REMARK SMILES O=C(Cc1ccc(NC(=O)Cc2ccc(Br)cc2)cc1)NCCCCNC(=O)c1ccc(-c2c3nc(c(-c4ccc(S(=O)(=O)[O-])cc4)c4ccc([nH]4)c(-c4ccc(S(=O)(=O)[O-])cc4)c4nc(c(-c5ccc(S(=O)(=O)[O-])cc5)c5ccc2[nH]5)C=C4)C=C3)cc1
REMARK SMILES IDX 23 1 22 2 21 3 1 4 2 5 3 7 4 8 5 9 20 10 6 11 19 12 7 13
REMARK SMILES IDX 8 14 9 15 10 17 11 18 12 19 13 20 18 21 14 22 17 23 15 24
REMARK SMILES IDX 16 25 24 26 25 27 26 28 27 29 28 31 29 32 30 33 88 34 31 35
REMARK SMILES IDX 87 36 32 37 33 38 34 39 81 40 35 41 86 42 80 43 82 44 36 45
REMARK SMILES IDX 85 46 79 47 78 48 37 50 67 51 48 52 66 53 49 54 52 55 65 56
REMARK SMILES IDX 83 57 50 58 51 59 64 61 84 62 53 63 38 64 39 65 47 66 40 67
REMARK SMILES IDX 46 68 41 69 42 70 43 71 44 72 45 73 68 74 69 75 77 76 70 77
REMARK SMILES IDX 76 78 71 79 72 80 73 81 74 82 75 83 54 84 55 85 63 86 56 87
REMARK SMILES IDX 62 88 57 89 58 90 59 91 60 92 61 93
REMARK H PARENT 21 6 8 16 26 30 82 49 52 60
REMARK Flexibility Score: inf
ROOT
ATOM      1  C   UNL A   1      35.378  31.823  27.630  1.00  0.00     0.023 C 
ENDROOT
BRANCH   1   2
ATOM      2  C   UNL A   1      33.850  31.821  27.669  1.00  0.00     0.116 C 
BRANCH   2   3
ATOM      3  N   UNL A   1      33.301  30.486  27.799  1.00  0.00    -0.356 N 
ATOM      4  O   UNL A   1      31.768  30.689  26.098  1.00  0.00    -0.275 OA
ATOM      5  C   UNL A   1      32.299  30.013  26.975  1.00  0.00     0.224 C 
ATOM      6  H   UNL A   1      33.656  29.893  28.501  1.00  0.00     0.163 HD
BRANCH   5   7
ATOM      7  C   UNL A   1      31.852  28.589  27.264  1.00  0.00     0.135 C 
BRANCH   7   8
ATOM      8  C   UNL A   1      32.279  27.579  26.225  1.00  0.00    -0.039 A 
ATOM      9  C   UNL A   1      33.593  27.104  26.210  1.00  0.00     0.006 A 
ATOM     10  C   UNL A   1      31.374  27.065  25.291  1.00  0.00     0.006 A 
ATOM     11  C   UNL A   1      34.013  26.197  25.229  1.00  0.00     0.026 A 
ATOM     12  C   UNL A   1      31.808  26.179  24.299  1.00  0.00     0.026 A 
ATOM     13  C   UNL A   1      33.149  25.783  24.223  1.00  0.00     0.041 A 
BRANCH  13  14
ATOM     14  N   UNL A   1      33.509  24.989  23.124  1.00  0.00    -0.326 N 
ATOM     15  C   UNL A   1      33.163  23.742  22.697  1.00  0.00     0.228 C 
ATOM     16  H   UNL A   1      34.157  25.431  22.529  1.00  0.00     0.169 HD
ATOM     17  O   UNL A   1      33.664  23.372  21.626  1.00  0.00    -0.274 OA
BRANCH  15  18
ATOM     18  C   UNL A   1      32.214  22.818  23.434  1.00  0.00     0.135 C 
BRANCH  18  19
ATOM     19  C   UNL A   1      32.722  21.433  23.767  1.00  0.00    -0.039 A 
ATOM     20  C   UNL A   1      33.795  21.218  24.644  1.00  0.00     0.005 A 
ATOM     21  C   UNL A   1      32.149  20.326  23.118  1.00  0.00     0.005 A 
ATOM     22  C   UNL A   1      34.259  19.919  24.890  1.00  0.00     0.016 A 
ATOM     23  C   UNL A   1      32.596  19.034  23.376  1.00  0.00     0.016 A 
ATOM     24  C   UNL A   1      33.654  18.836  24.253  1.00  0.00     0.017 A 
ATOM     25  Br  UNL A   1      34.264  17.072  24.518  1.00  0.00    -0.051 Br
ENDBRANCH  18  19
ENDBRANCH  15  18
ENDBRANCH  13  14
ENDBRANCH   7   8
ENDBRANCH   5   7
ENDBRANCH   2   3
ENDBRANCH   1   2
BRANCH   1  26
ATOM     26  C   UNL A   1      36.039  33.124  28.097  1.00  0.00     0.023 C 
BRANCH  26  27
ATOM     27  C   UNL A   1      36.889  33.018  29.361  1.00  0.00     0.116 C 
BRANCH  27  28
ATOM     28  N   UNL A   1      36.286  32.196  30.397  1.00  0.00    -0.352 N 
ATOM     29  C   UNL A   1      36.679  30.965  30.873  1.00  0.00     0.251 C 
ATOM     30  H   UNL A   1      35.480  32.573  30.818  1.00  0.00     0.163 HD
ATOM     31  O   UNL A   1      35.957  30.362  31.665  1.00  0.00    -0.269 OA
BRANCH  29  32
ATOM     32  C   UNL A   1      37.947  30.348  30.418  1.00  0.00     0.039 A 
ATOM     33  C   UNL A   1      38.141  30.126  29.051  1.00  0.00     0.014 A 
ATOM     34  C   UNL A   1      38.945  29.986  31.324  1.00  0.00     0.014 A 
ATOM     35  C   UNL A   1      39.366  29.626  28.590  1.00  0.00     0.010 A 
ATOM     36  C   UNL A   1      40.187  29.550  30.854  1.00  0.00     0.010 A 
ATOM     37  C   UNL A   1      40.426  29.383  29.480  1.00  0.00    -0.014 A 
BRANCH  37  38
ATOM     38  C   UNL A   1      41.785  28.993  28.992  1.00  0.00     0.031 A 
ATOM     39  C   UNL A   1      42.896  30.011  28.904  1.00  0.00     0.074 A 
ATOM     40  C   UNL A   1      42.017  27.734  28.560  1.00  0.00     0.049 A 
ATOM     41  N   UNL A   1      44.119  29.865  28.453  1.00  0.00    -0.248 NA
ATOM     42  C   UNL A   1      42.587  31.379  29.350  1.00  0.00     0.031 C 
ATOM     43  C   UNL A   1      41.030  26.650  28.526  1.00  0.00     0.029 A 
ATOM     44  N   UNL A   1      43.159  27.148  28.062  1.00  0.00    -0.354 N 
ATOM     45  C   UNL A   1      44.712  31.119  28.541  1.00  0.00     0.074 A 
ATOM     46  C   UNL A   1      43.698  32.028  29.030  1.00  0.00     0.031 C 
ATOM     47  C   UNL A   1      41.618  25.530  28.076  1.00  0.00     0.029 A 
ATOM     48  C   UNL A   1      43.009  25.818  27.739  1.00  0.00     0.049 A 
ATOM     49  H   UNL A   1      44.006  27.636  27.947  1.00  0.00     0.167 HD
ATOM     50  C   UNL A   1      45.989  31.485  28.270  1.00  0.00     0.031 A 
ATOM     51  C   UNL A   1      43.880  24.925  27.226  1.00  0.00     0.031 A 
ATOM     52  C   UNL A   1      47.011  30.586  27.803  1.00  0.00     0.049 A 
ATOM     53  C   UNL A   1      45.292  25.354  26.926  1.00  0.00     0.074 A 
ATOM     54  C   UNL A   1      48.348  30.856  27.563  1.00  0.00     0.029 A 
ATOM     55  N   UNL A   1      46.815  29.247  27.503  1.00  0.00    -0.354 N 
ATOM     56  N   UNL A   1      45.848  26.530  27.090  1.00  0.00    -0.248 NA
ATOM     57  C   UNL A   1      46.197  24.331  26.382  1.00  0.00     0.031 C 
ATOM     58  C   UNL A   1      48.947  29.695  27.063  1.00  0.00     0.029 A 
ATOM     59  C   UNL A   1      48.001  28.684  27.057  1.00  0.00     0.049 A 
ATOM     60  H   UNL A   1      45.961  28.766  27.594  1.00  0.00     0.167 HD
ATOM     61  C   UNL A   1      47.176  26.379  26.698  1.00  0.00     0.074 A 
ATOM     62  C   UNL A   1      47.343  24.996  26.305  1.00  0.00     0.031 C 
ATOM     63  C   UNL A   1      48.166  27.305  26.669  1.00  0.00     0.031 A 
BRANCH  50  64
ATOM     64  C   UNL A   1      46.357  32.934  28.477  1.00  0.00    -0.014 A 
ATOM     65  C   UNL A   1      46.208  33.877  27.443  1.00  0.00     0.010 A 
ATOM     66  C   UNL A   1      46.820  33.367  29.733  1.00  0.00     0.010 A 
ATOM     67  C   UNL A   1      46.563  35.212  27.645  1.00  0.00     0.020 A 
ATOM     68  C   UNL A   1      47.144  34.710  29.950  1.00  0.00     0.020 A 
ATOM     69  C   UNL A   1      47.032  35.621  28.897  1.00  0.00     0.054 A 
BRANCH  69  70
ATOM     70  S   UNL A   1      47.468  37.364  29.132  1.00  0.00     0.124 S 
ATOM     71  O   UNL A   1      48.191  37.663  27.897  1.00  0.00    -0.237 OA
ATOM     72  O   UNL A   1      46.163  38.006  29.266  1.00  0.00    -0.237 OA
ATOM     73  O   UNL A   1      48.284  37.358  30.344  1.00  0.00    -0.744 OA
ENDBRANCH  69  70
ENDBRANCH  50  64
BRANCH  51  74
ATOM     74  C   UNL A   1      43.448  23.521  26.969  1.00  0.00    -0.014 A 
ATOM     75  C   UNL A   1      43.420  22.578  28.013  1.00  0.00     0.010 A 
ATOM     76  C   UNL A   1      43.068  23.116  25.676  1.00  0.00     0.010 A 
ATOM     77  C   UNL A   1      43.041  21.254  27.765  1.00  0.00     0.020 A 
ATOM     78  C   UNL A   1      42.656  21.802  25.431  1.00  0.00     0.020 A 
ATOM     79  C   UNL A   1      42.658  20.876  26.477  1.00  0.00     0.054 A 
BRANCH  79  80
ATOM     80  S   UNL A   1      42.122  19.166  26.188  1.00  0.00     0.124 S 
ATOM     81  O   UNL A   1      43.054  18.725  25.155  1.00  0.00    -0.237 OA
ATOM     82  O   UNL A   1      42.300  18.555  27.503  1.00  0.00    -0.237 OA
ATOM     83  O   UNL A   1      40.733  19.310  25.759  1.00  0.00    -0.744 OA
ENDBRANCH  79  80
ENDBRANCH  51  74
BRANCH  63  84
ATOM     84  C   UNL A   1      49.539  26.853  26.238  1.00  0.00    -0.014 A 
ATOM     85  C   UNL A   1      50.430  26.249  27.142  1.00  0.00     0.010 A 
ATOM     86  C   UNL A   1      49.916  26.982  24.888  1.00  0.00     0.010 A 
ATOM     87  C   UNL A   1      51.686  25.809  26.709  1.00  0.00     0.020 A 
ATOM     88  C   UNL A   1      51.157  26.516  24.446  1.00  0.00     0.020 A 
ATOM     89  C   UNL A   1      52.040  25.944  25.363  1.00  0.00     0.054 A 
BRANCH  89  90
ATOM     90  S   UNL A   1      53.656  25.322  24.819  1.00  0.00     0.124 S 
ATOM     91  O   UNL A   1      53.398  23.892  24.672  1.00  0.00    -0.237 OA
ATOM     92  O   UNL A   1      53.876  26.053  23.573  1.00  0.00    -0.237 OA
ATOM     93  O   UNL A   1      54.554  25.685  25.913  1.00  0.00    -0.744 OA
ENDBRANCH  89  90
ENDBRANCH  63  84
ENDBRANCH  37  38
ENDBRANCH  29  32
ENDBRANCH  27  28
ENDBRANCH  26  27
ENDBRANCH   1  26
TORSDOF 18
ENDMDL
