MODEL 1
REMARK VINA RESULT:     -12.0      0.000      0.000
REMARK SMILES C[C@H](NC(=O)c1ccc(C(C)(C)C)cc1)C(=O)N[C@@H](C(=O)NCCCCNC(=O)c1ccc(-c2c3nc(c(-c4ccc(S(=O)(=O)[O-])cc4)c4ccc([nH]4)c(-c4ccc(S(=O)(=O)[O-])cc4)c4nc(c(-c5ccc(S(=O)(=O)[O-])cc5)c5ccc2[nH]5)C=C4)C=C3)cc1)[C@H](C)O
REMARK SMILES IDX 23 1 22 2 20 3 21 4 19 6 18 7 16 8 17 9 2 11 1 12 3 13 4 14
REMARK SMILES IDX 5 16 6 17 7 18 15 19 8 20 14 21 9 22 10 23 11 24 12 25 13 26
REMARK SMILES IDX 90 27 91 28 92 29 24 31 25 32 26 33 27 34 28 35 29 37 30 38
REMARK SMILES IDX 31 39 89 40 32 41 88 42 33 43 34 44 35 45 82 46 36 47 87 48
REMARK SMILES IDX 81 49 83 50 37 51 86 52 80 53 79 54 38 56 68 57 49 58 67 59
REMARK SMILES IDX 50 60 53 61 66 62 84 63 51 64 52 65 65 67 85 68 54 69 39 70
REMARK SMILES IDX 40 71 48 72 41 73 47 74 42 75 43 76 44 77 45 78 46 79 69 80
REMARK SMILES IDX 70 81 78 82 71 83 77 84 72 85 73 86 74 87 75 88 76 89 55 90
REMARK SMILES IDX 56 91 64 92 57 93 63 94 58 95 59 96 60 97 61 98 62 99
REMARK H PARENT 22 5 18 10 3 15 92 30 27 36 83 55 53 66
REMARK Flexibility Score: inf
ROOT
ATOM      1  C   UNL A   1      35.796  24.001  25.277  1.00  0.00     0.116 C 
ENDROOT
BRANCH   1   2
ATOM      2  N   UNL A   1      35.309  23.414  26.512  1.00  0.00    -0.354 N 
ATOM      3  C   UNL A   1      34.081  22.993  26.922  1.00  0.00     0.245 C 
ATOM      4  O   UNL A   1      34.038  22.449  28.034  1.00  0.00    -0.273 OA
ATOM      5  H   UNL A   1      36.012  23.296  27.192  1.00  0.00     0.163 HD
BRANCH   3   6
ATOM      6  C   UNL A   1      32.815  23.007  26.022  1.00  0.00     0.200 C 
BRANCH   6   7
ATOM      7  N   UNL A   1      31.642  23.636  26.624  1.00  0.00    -0.340 N 
ATOM      8  C   UNL A   1      30.716  24.483  26.093  1.00  0.00     0.243 C 
ATOM      9  O   UNL A   1      29.690  24.679  26.752  1.00  0.00    -0.273 OA
ATOM     10  H   UNL A   1      31.498  23.411  27.571  1.00  0.00     0.164 HD
BRANCH   8  11
ATOM     11  C   UNL A   1      30.868  25.119  24.687  1.00  0.00     0.168 C 
ATOM     12  C   UNL A   1      30.601  24.103  23.585  1.00  0.00     0.041 C 
BRANCH  11  13
ATOM     13  N   UNL A   1      32.147  25.813  24.499  1.00  0.00    -0.341 N 
ATOM     14  C   UNL A   1      32.422  27.114  24.169  1.00  0.00     0.251 C 
ATOM     15  H   UNL A   1      32.942  25.249  24.634  1.00  0.00     0.164 HD
ATOM     16  O   UNL A   1      33.586  27.473  24.045  1.00  0.00    -0.269 OA
BRANCH  14  17
ATOM     17  C   UNL A   1      31.321  28.041  23.860  1.00  0.00     0.039 A 
ATOM     18  C   UNL A   1      31.203  29.185  24.645  1.00  0.00     0.014 A 
ATOM     19  C   UNL A   1      30.444  27.822  22.801  1.00  0.00     0.014 A 
ATOM     20  C   UNL A   1      30.279  30.167  24.296  1.00  0.00     0.005 A 
ATOM     21  C   UNL A   1      29.531  28.818  22.445  1.00  0.00     0.005 A 
ATOM     22  C   UNL A   1      29.464  30.031  23.153  1.00  0.00    -0.043 A 
BRANCH  22  23
ATOM     23  C   UNL A   1      28.554  31.192  22.719  1.00  0.00    -0.013 C 
ATOM     24  C   UNL A   1      28.057  30.943  21.284  1.00  0.00     0.016 C 
ATOM     25  C   UNL A   1      27.341  31.292  23.674  1.00  0.00     0.016 C 
ATOM     26  C   UNL A   1      29.254  32.569  22.751  1.00  0.00     0.016 C 
ENDBRANCH  22  23
ENDBRANCH  14  17
ENDBRANCH  11  13
ENDBRANCH   8  11
ENDBRANCH   6   7
BRANCH   6  27
ATOM     27  C   UNL A   1      32.497  21.544  25.578  1.00  0.00     0.143 C 
ATOM     28  C   UNL A   1      32.772  21.266  24.103  1.00  0.00     0.041 C 
BRANCH  27  29
ATOM     29  O   UNL A   1      31.115  21.225  25.787  1.00  0.00    -0.391 OA
ATOM     30  H   UNL A   1      30.597  22.044  25.839  1.00  0.00     0.211 HD
ENDBRANCH  27  29
ENDBRANCH   6  27
ENDBRANCH   3   6
ENDBRANCH   1   2
BRANCH   1  31
ATOM     31  C   UNL A   1      37.106  23.394  24.794  1.00  0.00     0.023 C 
BRANCH  31  32
ATOM     32  C   UNL A   1      38.042  22.913  25.898  1.00  0.00     0.023 C 
BRANCH  32  33
ATOM     33  C   UNL A   1      38.857  23.998  26.599  1.00  0.00     0.116 C 
BRANCH  33  34
ATOM     34  N   UNL A   1      40.238  24.086  26.147  1.00  0.00    -0.352 N 
ATOM     35  C   UNL A   1      41.198  25.014  26.478  1.00  0.00     0.251 C 
ATOM     36  H   UNL A   1      40.523  23.386  25.517  1.00  0.00     0.163 HD
ATOM     37  O   UNL A   1      42.302  24.976  25.946  1.00  0.00    -0.269 OA
BRANCH  35  38
ATOM     38  C   UNL A   1      40.869  26.089  27.438  1.00  0.00     0.039 A 
ATOM     39  C   UNL A   1      39.965  25.813  28.466  1.00  0.00     0.014 A 
ATOM     40  C   UNL A   1      41.495  27.336  27.362  1.00  0.00     0.014 A 
ATOM     41  C   UNL A   1      39.759  26.757  29.473  1.00  0.00     0.010 A 
ATOM     42  C   UNL A   1      41.342  28.247  28.404  1.00  0.00     0.010 A 
ATOM     43  C   UNL A   1      40.484  27.961  29.475  1.00  0.00    -0.014 A 
BRANCH  43  44
ATOM     44  C   UNL A   1      40.381  28.910  30.612  1.00  0.00     0.031 A 
ATOM     45  C   UNL A   1      41.266  28.754  31.816  1.00  0.00     0.074 A 
ATOM     46  C   UNL A   1      39.437  29.872  30.587  1.00  0.00     0.049 A 
ATOM     47  N   UNL A   1      41.294  29.467  32.913  1.00  0.00    -0.248 NA
ATOM     48  C   UNL A   1      42.226  27.639  31.798  1.00  0.00     0.031 C 
ATOM     49  C   UNL A   1      38.472  30.088  29.505  1.00  0.00     0.029 A 
ATOM     50  N   UNL A   1      39.132  30.849  31.502  1.00  0.00    -0.354 N 
ATOM     51  C   UNL A   1      42.256  28.875  33.723  1.00  0.00     0.074 A 
ATOM     52  C   UNL A   1      42.759  27.721  33.009  1.00  0.00     0.031 C 
ATOM     53  C   UNL A   1      37.704  31.148  29.805  1.00  0.00     0.029 A 
ATOM     54  C   UNL A   1      38.101  31.670  31.109  1.00  0.00     0.049 A 
ATOM     55  H   UNL A   1      39.605  30.952  32.359  1.00  0.00     0.167 HD
ATOM     56  C   UNL A   1      42.695  29.266  34.944  1.00  0.00     0.031 A 
ATOM     57  C   UNL A   1      37.543  32.729  31.724  1.00  0.00     0.031 A 
ATOM     58  C   UNL A   1      42.212  30.425  35.644  1.00  0.00     0.049 A 
ATOM     59  C   UNL A   1      38.074  33.170  33.058  1.00  0.00     0.074 A 
ATOM     60  C   UNL A   1      42.641  30.940  36.854  1.00  0.00     0.029 A 
ATOM     61  N   UNL A   1      41.194  31.252  35.195  1.00  0.00    -0.354 N 
ATOM     62  N   UNL A   1      39.035  32.638  33.775  1.00  0.00    -0.248 NA
ATOM     63  C   UNL A   1      37.458  34.361  33.657  1.00  0.00     0.031 C 
ATOM     64  C   UNL A   1      41.861  32.065  37.152  1.00  0.00     0.029 A 
ATOM     65  C   UNL A   1      40.972  32.268  36.108  1.00  0.00     0.049 A 
ATOM     66  H   UNL A   1      40.701  31.134  34.351  1.00  0.00     0.167 HD
ATOM     67  C   UNL A   1      39.151  33.442  34.902  1.00  0.00     0.074 A 
ATOM     68  C   UNL A   1      38.173  34.502  34.765  1.00  0.00     0.031 C 
ATOM     69  C   UNL A   1      39.993  33.314  35.957  1.00  0.00     0.031 A 
BRANCH  56  70
ATOM     70  C   UNL A   1      43.759  28.424  35.592  1.00  0.00    -0.014 A 
ATOM     71  C   UNL A   1      43.417  27.368  36.456  1.00  0.00     0.010 A 
ATOM     72  C   UNL A   1      45.116  28.678  35.323  1.00  0.00     0.010 A 
ATOM     73  C   UNL A   1      44.414  26.611  37.077  1.00  0.00     0.020 A 
ATOM     74  C   UNL A   1      46.115  27.908  35.925  1.00  0.00     0.020 A 
ATOM     75  C   UNL A   1      45.757  26.893  36.814  1.00  0.00     0.054 A 
BRANCH  75  76
ATOM     76  S   UNL A   1      47.034  25.893  37.625  1.00  0.00     0.124 S 
ATOM     77  O   UNL A   1      47.127  24.742  36.731  1.00  0.00    -0.237 OA
ATOM     78  O   UNL A   1      48.193  26.782  37.626  1.00  0.00    -0.237 OA
ATOM     79  O   UNL A   1      46.468  25.614  38.944  1.00  0.00    -0.744 OA
ENDBRANCH  75  76
ENDBRANCH  56  70
BRANCH  57  80
ATOM     80  C   UNL A   1      36.437  33.470  31.061  1.00  0.00    -0.014 A 
ATOM     81  C   UNL A   1      36.574  33.908  29.732  1.00  0.00     0.010 A 
ATOM     82  C   UNL A   1      35.234  33.717  31.745  1.00  0.00     0.010 A 
ATOM     83  C   UNL A   1      35.532  34.592  29.102  1.00  0.00     0.020 A 
ATOM     84  C   UNL A   1      34.182  34.384  31.111  1.00  0.00     0.020 A 
ATOM     85  C   UNL A   1      34.341  34.826  29.796  1.00  0.00     0.054 A 
BRANCH  85  86
ATOM     86  S   UNL A   1      32.974  35.659  28.940  1.00  0.00     0.124 S 
ATOM     87  O   UNL A   1      32.418  34.577  28.132  1.00  0.00    -0.237 OA
ATOM     88  O   UNL A   1      32.136  36.119  30.045  1.00  0.00    -0.237 OA
ATOM     89  O   UNL A   1      33.642  36.723  28.193  1.00  0.00    -0.744 OA
ENDBRANCH  85  86
ENDBRANCH  57  80
BRANCH  69  90
ATOM     90  C   UNL A   1      39.907  34.357  37.034  1.00  0.00    -0.014 A 
ATOM     91  C   UNL A   1      40.642  35.552  36.945  1.00  0.00     0.010 A 
ATOM     92  C   UNL A   1      39.045  34.159  38.128  1.00  0.00     0.010 A 
ATOM     93  C   UNL A   1      40.540  36.521  37.946  1.00  0.00     0.020 A 
ATOM     94  C   UNL A   1      38.924  35.133  39.121  1.00  0.00     0.020 A 
ATOM     95  C   UNL A   1      39.684  36.302  39.032  1.00  0.00     0.054 A 
BRANCH  95  96
ATOM     96  S   UNL A   1      39.533  37.589  40.301  1.00  0.00     0.124 S 
ATOM     97  O   UNL A   1      38.649  38.553  39.653  1.00  0.00    -0.237 OA
ATOM     98  O   UNL A   1      38.954  36.866  41.431  1.00  0.00    -0.237 OA
ATOM     99  O   UNL A   1      40.910  38.039  40.499  1.00  0.00    -0.744 OA
ENDBRANCH  95  96
ENDBRANCH  69  90
ENDBRANCH  43  44
ENDBRANCH  35  38
ENDBRANCH  33  34
ENDBRANCH  32  33
ENDBRANCH  31  32
ENDBRANCH   1  31
TORSDOF 21
ENDMDL
MODEL 2
REMARK VINA RESULT:     -11.8      5.863      7.755
REMARK SMILES C[C@H](NC(=O)c1ccc(C(C)(C)C)cc1)C(=O)N[C@@H](C(=O)NCCCCNC(=O)c1ccc(-c2c3nc(c(-c4ccc(S(=O)(=O)[O-])cc4)c4ccc([nH]4)c(-c4ccc(S(=O)(=O)[O-])cc4)c4nc(c(-c5ccc(S(=O)(=O)[O-])cc5)c5ccc2[nH]5)C=C4)C=C3)cc1)[C@H](C)O
REMARK SMILES IDX 23 1 22 2 20 3 21 4 19 6 18 7 16 8 17 9 2 11 1 12 3 13 4 14
REMARK SMILES IDX 5 16 6 17 7 18 15 19 8 20 14 21 9 22 10 23 11 24 12 25 13 26
REMARK SMILES IDX 90 27 91 28 92 29 24 31 25 32 26 33 27 34 28 35 29 37 30 38
REMARK SMILES IDX 31 39 89 40 32 41 88 42 33 43 34 44 35 45 82 46 36 47 87 48
REMARK SMILES IDX 81 49 83 50 37 51 86 52 80 53 79 54 38 56 68 57 49 58 67 59
REMARK SMILES IDX 50 60 53 61 66 62 84 63 51 64 52 65 65 67 85 68 54 69 39 70
REMARK SMILES IDX 40 71 48 72 41 73 47 74 42 75 43 76 44 77 45 78 46 79 69 80
REMARK SMILES IDX 70 81 78 82 71 83 77 84 72 85 73 86 74 87 75 88 76 89 55 90
REMARK SMILES IDX 56 91 64 92 57 93 63 94 58 95 59 96 60 97 61 98 62 99
REMARK H PARENT 22 5 18 10 3 15 92 30 27 36 83 55 53 66
REMARK Flexibility Score: inf
ROOT
ATOM      1  C   UNL A   1      36.253  23.563  25.188  1.00  0.00     0.116 C 
ENDROOT
BRANCH   1   2
ATOM      2  N   UNL A   1      35.705  23.181  26.476  1.00  0.00    -0.354 N 
ATOM      3  C   UNL A   1      34.441  22.921  26.909  1.00  0.00     0.245 C 
ATOM      4  O   UNL A   1      34.339  22.529  28.080  1.00  0.00    -0.273 OA
ATOM      5  H   UNL A   1      36.387  23.093  27.181  1.00  0.00     0.163 HD
BRANCH   3   6
ATOM      6  C   UNL A   1      33.190  22.924  25.988  1.00  0.00     0.200 C 
BRANCH   6   7
ATOM      7  N   UNL A   1      31.971  23.432  26.612  1.00  0.00    -0.340 N 
ATOM      8  C   UNL A   1      30.960  24.191  26.103  1.00  0.00     0.243 C 
ATOM      9  O   UNL A   1      29.929  24.282  26.778  1.00  0.00    -0.273 OA
ATOM     10  H   UNL A   1      31.862  23.185  27.558  1.00  0.00     0.164 HD
BRANCH   8  11
ATOM     11  C   UNL A   1      31.030  24.852  24.702  1.00  0.00     0.168 C 
ATOM     12  C   UNL A   1      30.676  23.861  23.601  1.00  0.00     0.041 C 
BRANCH  11  13
ATOM     13  N   UNL A   1      32.306  25.531  24.443  1.00  0.00    -0.341 N 
ATOM     14  C   UNL A   1      32.579  26.832  24.114  1.00  0.00     0.251 C 
ATOM     15  H   UNL A   1      33.099  24.953  24.520  1.00  0.00     0.164 HD
ATOM     16  O   UNL A   1      33.738  27.175  23.922  1.00  0.00    -0.269 OA
BRANCH  14  17
ATOM     17  C   UNL A   1      31.475  27.778  23.887  1.00  0.00     0.039 A 
ATOM     18  C   UNL A   1      31.477  28.958  24.628  1.00  0.00     0.014 A 
ATOM     19  C   UNL A   1      30.479  27.542  22.944  1.00  0.00     0.014 A 
ATOM     20  C   UNL A   1      30.546  29.953  24.339  1.00  0.00     0.005 A 
ATOM     21  C   UNL A   1      29.558  28.550  22.647  1.00  0.00     0.005 A 
ATOM     22  C   UNL A   1      29.603  29.794  23.302  1.00  0.00    -0.043 A 
BRANCH  22  23
ATOM     23  C   UNL A   1      28.682  30.964  22.919  1.00  0.00    -0.013 C 
ATOM     24  C   UNL A   1      28.566  31.042  21.386  1.00  0.00     0.016 C 
ATOM     25  C   UNL A   1      27.277  30.746  23.530  1.00  0.00     0.016 C 
ATOM     26  C   UNL A   1      29.178  32.334  23.432  1.00  0.00     0.016 C 
ENDBRANCH  22  23
ENDBRANCH  14  17
ENDBRANCH  11  13
ENDBRANCH   8  11
ENDBRANCH   6   7
BRANCH   6  27
ATOM     27  C   UNL A   1      32.971  21.483  25.429  1.00  0.00     0.143 C 
ATOM     28  C   UNL A   1      33.186  21.358  23.923  1.00  0.00     0.041 C 
BRANCH  27  29
ATOM     29  O   UNL A   1      31.635  21.025  25.675  1.00  0.00    -0.391 OA
ATOM     30  H   UNL A   1      31.316  20.529  24.905  1.00  0.00     0.211 HD
ENDBRANCH  27  29
ENDBRANCH   6  27
ENDBRANCH   3   6
ENDBRANCH   1   2
BRANCH   1  31
ATOM     31  C   UNL A   1      36.912  22.408  24.445  1.00  0.00     0.023 C 
BRANCH  31  32
ATOM     32  C   UNL A   1      37.494  21.315  25.336  1.00  0.00     0.023 C 
BRANCH  32  33
ATOM     33  C   UNL A   1      38.925  21.539  25.815  1.00  0.00     0.116 C 
BRANCH  33  34
ATOM     34  N   UNL A   1      39.715  20.320  25.914  1.00  0.00    -0.352 N 
ATOM     35  C   UNL A   1      41.053  20.177  26.197  1.00  0.00     0.251 C 
ATOM     36  H   UNL A   1      39.222  19.482  25.757  1.00  0.00     0.163 HD
ATOM     37  O   UNL A   1      41.574  19.067  26.173  1.00  0.00    -0.269 OA
BRANCH  35  38
ATOM     38  C   UNL A   1      41.869  21.378  26.473  1.00  0.00     0.039 A 
ATOM     39  C   UNL A   1      42.245  22.192  25.403  1.00  0.00     0.014 A 
ATOM     40  C   UNL A   1      42.204  21.732  27.783  1.00  0.00     0.014 A 
ATOM     41  C   UNL A   1      42.877  23.411  25.653  1.00  0.00     0.010 A 
ATOM     42  C   UNL A   1      42.771  22.979  28.035  1.00  0.00     0.010 A 
ATOM     43  C   UNL A   1      43.100  23.835  26.975  1.00  0.00    -0.014 A 
BRANCH  43  44
ATOM     44  C   UNL A   1      43.641  25.188  27.259  1.00  0.00     0.031 A 
ATOM     45  C   UNL A   1      45.098  25.486  27.045  1.00  0.00     0.074 A 
ATOM     46  C   UNL A   1      42.829  26.129  27.780  1.00  0.00     0.049 A 
ATOM     47  N   UNL A   1      45.751  26.597  27.269  1.00  0.00    -0.248 NA
ATOM     48  C   UNL A   1      45.936  24.387  26.537  1.00  0.00     0.031 C 
ATOM     49  C   UNL A   1      41.408  25.945  28.096  1.00  0.00     0.029 A 
ATOM     50  N   UNL A   1      43.081  27.429  28.138  1.00  0.00    -0.354 N 
ATOM     51  C   UNL A   1      47.077  26.326  26.952  1.00  0.00     0.074 A 
ATOM     52  C   UNL A   1      47.143  24.935  26.558  1.00  0.00     0.031 C 
ATOM     53  C   UNL A   1      40.911  27.098  28.572  1.00  0.00     0.029 A 
ATOM     54  C   UNL A   1      41.978  28.093  28.621  1.00  0.00     0.049 A 
ATOM     55  H   UNL A   1      43.968  27.848  28.057  1.00  0.00     0.167 HD
ATOM     56  C   UNL A   1      48.142  27.164  26.968  1.00  0.00     0.031 A 
ATOM     57  C   UNL A   1      41.837  29.362  29.048  1.00  0.00     0.031 A 
ATOM     58  C   UNL A   1      48.074  28.552  27.336  1.00  0.00     0.049 A 
ATOM     59  C   UNL A   1      43.022  30.284  29.017  1.00  0.00     0.074 A 
ATOM     60  C   UNL A   1      49.084  29.498  27.320  1.00  0.00     0.029 A 
ATOM     61  N   UNL A   1      46.930  29.196  27.784  1.00  0.00    -0.354 N 
ATOM     62  N   UNL A   1      44.253  30.027  28.645  1.00  0.00    -0.248 NA
ATOM     63  C   UNL A   1      42.795  31.670  29.449  1.00  0.00     0.031 C 
ATOM     64  C   UNL A   1      48.556  30.708  27.787  1.00  0.00     0.029 A 
ATOM     65  C   UNL A   1      47.210  30.523  28.058  1.00  0.00     0.049 A 
ATOM     66  H   UNL A   1      46.048  28.770  27.891  1.00  0.00     0.167 HD
ATOM     67  C   UNL A   1      44.944  31.225  28.780  1.00  0.00     0.074 A 
ATOM     68  C   UNL A   1      43.992  32.209  29.253  1.00  0.00     0.031 C 
ATOM     69  C   UNL A   1      46.251  31.487  28.531  1.00  0.00     0.031 A 
BRANCH  56  70
ATOM     70  C   UNL A   1      49.473  26.590  26.569  1.00  0.00    -0.014 A 
ATOM     71  C   UNL A   1      49.859  26.535  25.217  1.00  0.00     0.010 A 
ATOM     72  C   UNL A   1      50.356  26.115  27.555  1.00  0.00     0.010 A 
ATOM     73  C   UNL A   1      51.086  25.972  24.854  1.00  0.00     0.020 A 
ATOM     74  C   UNL A   1      51.594  25.573  27.197  1.00  0.00     0.020 A 
ATOM     75  C   UNL A   1      51.941  25.486  25.848  1.00  0.00     0.054 A 
BRANCH  75  76
ATOM     76  S   UNL A   1      53.531  24.767  25.354  1.00  0.00     0.124 S 
ATOM     77  O   UNL A   1      53.154  23.391  25.041  1.00  0.00    -0.237 OA
ATOM     78  O   UNL A   1      53.918  25.588  24.208  1.00  0.00    -0.237 OA
ATOM     79  O   UNL A   1      54.368  24.930  26.541  1.00  0.00    -0.744 OA
ENDBRANCH  75  76
ENDBRANCH  56  70
BRANCH  57  80
ATOM     80  C   UNL A   1      40.507  29.844  29.507  1.00  0.00    -0.014 A 
ATOM     81  C   UNL A   1      39.565  30.314  28.576  1.00  0.00     0.010 A 
ATOM     82  C   UNL A   1      40.168  29.810  30.871  1.00  0.00     0.010 A 
ATOM     83  C   UNL A   1      38.309  30.755  29.002  1.00  0.00     0.020 A 
ATOM     84  C   UNL A   1      38.906  30.232  31.298  1.00  0.00     0.020 A 
ATOM     85  C   UNL A   1      37.987  30.711  30.362  1.00  0.00     0.054 A 
BRANCH  85  86
ATOM     86  S   UNL A   1      36.329  31.226  30.889  1.00  0.00     0.124 S 
ATOM     87  O   UNL A   1      35.906  30.095  31.709  1.00  0.00    -0.237 OA
ATOM     88  O   UNL A   1      36.594  32.468  31.612  1.00  0.00    -0.237 OA
ATOM     89  O   UNL A   1      35.610  31.393  29.628  1.00  0.00    -0.744 OA
ENDBRANCH  85  86
ENDBRANCH  57  80
BRANCH  69  90
ATOM     90  C   UNL A   1      46.721  32.898  28.749  1.00  0.00    -0.014 A 
ATOM     91  C   UNL A   1      47.265  33.297  29.982  1.00  0.00     0.010 A 
ATOM     92  C   UNL A   1      46.658  33.822  27.691  1.00  0.00     0.010 A 
ATOM     93  C   UNL A   1      47.712  34.608  30.164  1.00  0.00     0.020 A 
ATOM     94  C   UNL A   1      47.123  35.128  27.862  1.00  0.00     0.020 A 
ATOM     95  C   UNL A   1      47.634  35.517  29.103  1.00  0.00     0.054 A 
BRANCH  95  96
ATOM     96  S   UNL A   1      48.258  37.203  29.346  1.00  0.00     0.124 S 
ATOM     97  O   UNL A   1      47.022  37.980  29.387  1.00  0.00    -0.237 OA
ATOM     98  O   UNL A   1      48.981  37.104  30.611  1.00  0.00    -0.237 OA
ATOM     99  O   UNL A   1      49.098  37.431  28.171  1.00  0.00    -0.744 OA
ENDBRANCH  95  96
ENDBRANCH  69  90
ENDBRANCH  43  44
ENDBRANCH  35  38
ENDBRANCH  33  34
ENDBRANCH  32  33
ENDBRANCH  31  32
ENDBRANCH   1  31
TORSDOF 21
ENDMDL
MODEL 3
REMARK VINA RESULT:     -11.8      2.251      9.115
REMARK SMILES C[C@H](NC(=O)c1ccc(C(C)(C)C)cc1)C(=O)N[C@@H](C(=O)NCCCCNC(=O)c1ccc(-c2c3nc(c(-c4ccc(S(=O)(=O)[O-])cc4)c4ccc([nH]4)c(-c4ccc(S(=O)(=O)[O-])cc4)c4nc(c(-c5ccc(S(=O)(=O)[O-])cc5)c5ccc2[nH]5)C=C4)C=C3)cc1)[C@H](C)O
REMARK SMILES IDX 23 1 22 2 20 3 21 4 19 6 18 7 16 8 17 9 2 11 1 12 3 13 4 14
REMARK SMILES IDX 5 16 6 17 7 18 15 19 8 20 14 21 9 22 10 23 11 24 12 25 13 26
REMARK SMILES IDX 90 27 91 28 92 29 24 31 25 32 26 33 27 34 28 35 29 37 30 38
REMARK SMILES IDX 31 39 89 40 32 41 88 42 33 43 34 44 35 45 82 46 36 47 87 48
REMARK SMILES IDX 81 49 83 50 37 51 86 52 80 53 79 54 38 56 68 57 49 58 67 59
REMARK SMILES IDX 50 60 53 61 66 62 84 63 51 64 52 65 65 67 85 68 54 69 39 70
REMARK SMILES IDX 40 71 48 72 41 73 47 74 42 75 43 76 44 77 45 78 46 79 69 80
REMARK SMILES IDX 70 81 78 82 71 83 77 84 72 85 73 86 74 87 75 88 76 89 55 90
REMARK SMILES IDX 56 91 64 92 57 93 63 94 58 95 59 96 60 97 61 98 62 99
REMARK H PARENT 22 5 18 10 3 15 92 30 27 36 83 55 53 66
REMARK Flexibility Score: inf
ROOT
ATOM      1  C   UNL A   1      32.161  29.582  24.960  1.00  0.00     0.116 C 
ENDROOT
BRANCH   1   2
ATOM      2  N   UNL A   1      31.079  30.520  24.727  1.00  0.00    -0.354 N 
ATOM      3  C   UNL A   1      29.904  30.435  24.044  1.00  0.00     0.245 C 
ATOM      4  O   UNL A   1      29.158  31.421  24.124  1.00  0.00    -0.273 OA
ATOM      5  H   UNL A   1      31.225  31.398  25.148  1.00  0.00     0.163 HD
BRANCH   3   6
ATOM      6  C   UNL A   1      29.400  29.145  23.343  1.00  0.00     0.200 C 
BRANCH   6   7
ATOM      7  N   UNL A   1      30.449  28.320  22.748  1.00  0.00    -0.340 N 
ATOM      8  C   UNL A   1      30.755  27.004  22.926  1.00  0.00     0.243 C 
ATOM      9  O   UNL A   1      31.543  26.496  22.122  1.00  0.00    -0.273 OA
ATOM     10  H   UNL A   1      31.033  28.795  22.114  1.00  0.00     0.164 HD
BRANCH   8  11
ATOM     11  C   UNL A   1      30.094  26.129  24.022  1.00  0.00     0.168 C 
ATOM     12  C   UNL A   1      28.600  25.967  23.778  1.00  0.00     0.041 C 
BRANCH  11  13
ATOM     13  N   UNL A   1      30.383  26.589  25.385  1.00  0.00    -0.341 N 
ATOM     14  C   UNL A   1      31.448  26.340  26.210  1.00  0.00     0.251 C 
ATOM     15  H   UNL A   1      29.696  27.178  25.772  1.00  0.00     0.164 HD
ATOM     16  O   UNL A   1      31.468  26.823  27.334  1.00  0.00    -0.269 OA
BRANCH  14  17
ATOM     17  C   UNL A   1      32.504  25.408  25.782  1.00  0.00     0.039 A 
ATOM     18  C   UNL A   1      33.557  25.928  25.033  1.00  0.00     0.014 A 
ATOM     19  C   UNL A   1      32.491  24.062  26.136  1.00  0.00     0.014 A 
ATOM     20  C   UNL A   1      34.655  25.123  24.739  1.00  0.00     0.005 A 
ATOM     21  C   UNL A   1      33.603  23.264  25.852  1.00  0.00     0.005 A 
ATOM     22  C   UNL A   1      34.728  23.790  25.193  1.00  0.00    -0.043 A 
BRANCH  22  23
ATOM     23  C   UNL A   1      36.012  22.975  24.969  1.00  0.00    -0.013 C 
ATOM     24  C   UNL A   1      37.143  23.554  25.838  1.00  0.00     0.016 C 
ATOM     25  C   UNL A   1      35.769  21.497  25.360  1.00  0.00     0.016 C 
ATOM     26  C   UNL A   1      36.492  22.969  23.501  1.00  0.00     0.016 C 
ENDBRANCH  22  23
ENDBRANCH  14  17
ENDBRANCH  11  13
ENDBRANCH   8  11
ENDBRANCH   6   7
BRANCH   6  27
ATOM     27  C   UNL A   1      28.328  29.536  22.277  1.00  0.00     0.143 C 
ATOM     28  C   UNL A   1      28.790  30.603  21.289  1.00  0.00     0.041 C 
BRANCH  27  29
ATOM     29  O   UNL A   1      27.144  30.058  22.895  1.00  0.00    -0.391 OA
ATOM     30  H   UNL A   1      27.174  31.027  22.885  1.00  0.00     0.211 HD
ENDBRANCH  27  29
ENDBRANCH   6  27
ENDBRANCH   3   6
ENDBRANCH   1   2
BRANCH   1  31
ATOM     31  C   UNL A   1      32.880  29.804  26.283  1.00  0.00     0.023 C 
BRANCH  31  32
ATOM     32  C   UNL A   1      32.415  31.022  27.075  1.00  0.00     0.023 C 
BRANCH  32  33
ATOM     33  C   UNL A   1      33.474  32.089  27.338  1.00  0.00     0.116 C 
BRANCH  33  34
ATOM     34  N   UNL A   1      32.928  33.398  27.667  1.00  0.00    -0.352 N 
ATOM     35  C   UNL A   1      33.326  34.281  28.644  1.00  0.00     0.251 C 
ATOM     36  H   UNL A   1      32.169  33.692  27.114  1.00  0.00     0.163 HD
ATOM     37  O   UNL A   1      32.703  35.321  28.827  1.00  0.00    -0.269 OA
BRANCH  35  38
ATOM     38  C   UNL A   1      34.476  33.937  29.508  1.00  0.00     0.039 A 
ATOM     39  C   UNL A   1      34.249  33.156  30.643  1.00  0.00     0.014 A 
ATOM     40  C   UNL A   1      35.773  34.327  29.165  1.00  0.00     0.014 A 
ATOM     41  C   UNL A   1      35.335  32.688  31.385  1.00  0.00     0.010 A 
ATOM     42  C   UNL A   1      36.857  33.802  29.863  1.00  0.00     0.010 A 
ATOM     43  C   UNL A   1      36.649  32.967  30.971  1.00  0.00    -0.014 A 
BRANCH  43  44
ATOM     44  C   UNL A   1      37.812  32.360  31.666  1.00  0.00     0.031 A 
ATOM     45  C   UNL A   1      38.272  32.896  32.992  1.00  0.00     0.074 A 
ATOM     46  C   UNL A   1      38.497  31.367  31.063  1.00  0.00     0.049 A 
ATOM     47  N   UNL A   1      39.284  32.513  33.726  1.00  0.00    -0.248 NA
ATOM     48  C   UNL A   1      37.513  34.025  33.554  1.00  0.00     0.031 C 
ATOM     49  C   UNL A   1      38.192  30.801  29.745  1.00  0.00     0.029 A 
ATOM     50  N   UNL A   1      39.596  30.659  31.480  1.00  0.00    -0.354 N 
ATOM     51  C   UNL A   1      39.297  33.365  34.824  1.00  0.00     0.074 A 
ATOM     52  C   UNL A   1      38.218  34.310  34.639  1.00  0.00     0.031 C 
ATOM     53  C   UNL A   1      39.063  29.816  29.478  1.00  0.00     0.029 A 
ATOM     54  C   UNL A   1      40.003  29.696  30.587  1.00  0.00     0.049 A 
ATOM     55  H   UNL A   1      40.051  30.825  32.337  1.00  0.00     0.167 HD
ATOM     56  C   UNL A   1      40.122  33.351  35.899  1.00  0.00     0.031 A 
ATOM     57  C   UNL A   1      41.014  28.810  30.656  1.00  0.00     0.031 A 
ATOM     58  C   UNL A   1      41.181  32.398  36.095  1.00  0.00     0.049 A 
ATOM     59  C   UNL A   1      41.890  28.786  31.876  1.00  0.00     0.074 A 
ATOM     60  C   UNL A   1      42.026  32.261  37.182  1.00  0.00     0.029 A 
ATOM     61  N   UNL A   1      41.537  31.414  35.184  1.00  0.00    -0.354 N 
ATOM     62  N   UNL A   1      41.840  29.555  32.937  1.00  0.00    -0.248 NA
ATOM     63  C   UNL A   1      42.946  27.765  31.916  1.00  0.00     0.031 C 
ATOM     64  C   UNL A   1      42.914  31.212  36.915  1.00  0.00     0.029 A 
ATOM     65  C   UNL A   1      42.596  30.674  35.678  1.00  0.00     0.049 A 
ATOM     66  H   UNL A   1      41.100  31.266  34.315  1.00  0.00     0.167 HD
ATOM     67  C   UNL A   1      42.847  29.099  33.780  1.00  0.00     0.074 A 
ATOM     68  C   UNL A   1      43.478  27.979  33.112  1.00  0.00     0.031 C 
ATOM     69  C   UNL A   1      43.214  29.565  34.999  1.00  0.00     0.031 A 
BRANCH  56  70
ATOM     70  C   UNL A   1      39.900  34.406  36.948  1.00  0.00    -0.014 A 
ATOM     71  C   UNL A   1      40.510  35.669  36.841  1.00  0.00     0.010 A 
ATOM     72  C   UNL A   1      39.060  34.140  38.043  1.00  0.00     0.010 A 
ATOM     73  C   UNL A   1      40.321  36.632  37.836  1.00  0.00     0.020 A 
ATOM     74  C   UNL A   1      38.850  35.109  39.029  1.00  0.00     0.020 A 
ATOM     75  C   UNL A   1      39.499  36.341  38.929  1.00  0.00     0.054 A 
BRANCH  75  76
ATOM     76  S   UNL A   1      39.263  37.608  40.204  1.00  0.00     0.124 S 
ATOM     77  O   UNL A   1      38.189  38.415  39.630  1.00  0.00    -0.237 OA
ATOM     78  O   UNL A   1      38.896  36.822  41.380  1.00  0.00    -0.237 OA
ATOM     79  O   UNL A   1      40.565  38.267  40.282  1.00  0.00    -0.744 OA
ENDBRANCH  75  76
ENDBRANCH  56  70
BRANCH  57  80
ATOM     80  C   UNL A   1      41.229  27.845  29.545  1.00  0.00    -0.014 A 
ATOM     81  C   UNL A   1      42.227  28.085  28.583  1.00  0.00     0.010 A 
ATOM     82  C   UNL A   1      40.459  26.673  29.458  1.00  0.00     0.010 A 
ATOM     83  C   UNL A   1      42.441  27.174  27.546  1.00  0.00     0.020 A 
ATOM     84  C   UNL A   1      40.684  25.750  28.433  1.00  0.00     0.020 A 
ATOM     85  C   UNL A   1      41.668  26.011  27.477  1.00  0.00     0.054 A 
BRANCH  85  86
ATOM     86  S   UNL A   1      42.005  24.808  26.160  1.00  0.00     0.124 S 
ATOM     87  O   UNL A   1      42.138  25.669  24.990  1.00  0.00    -0.237 OA
ATOM     88  O   UNL A   1      43.235  24.167  26.619  1.00  0.00    -0.237 OA
ATOM     89  O   UNL A   1      40.823  23.948  26.178  1.00  0.00    -0.744 OA
ENDBRANCH  85  86
ENDBRANCH  57  80
BRANCH  69  90
ATOM     90  C   UNL A   1      44.337  28.851  35.696  1.00  0.00    -0.014 A 
ATOM     91  C   UNL A   1      45.671  29.260  35.526  1.00  0.00     0.010 A 
ATOM     92  C   UNL A   1      44.049  27.785  36.568  1.00  0.00     0.010 A 
ATOM     93  C   UNL A   1      46.704  28.596  36.193  1.00  0.00     0.020 A 
ATOM     94  C   UNL A   1      45.076  27.132  37.253  1.00  0.00     0.020 A 
ATOM     95  C   UNL A   1      46.399  27.532  37.050  1.00  0.00     0.054 A 
BRANCH  95  96
ATOM     96  S   UNL A   1      47.749  26.710  37.939  1.00  0.00     0.124 S 
ATOM     97  O   UNL A   1      48.467  26.046  36.854  1.00  0.00    -0.237 OA
ATOM     98  O   UNL A   1      48.453  27.824  38.568  1.00  0.00    -0.237 OA
ATOM     99  O   UNL A   1      47.056  25.817  38.866  1.00  0.00    -0.744 OA
ENDBRANCH  95  96
ENDBRANCH  69  90
ENDBRANCH  43  44
ENDBRANCH  35  38
ENDBRANCH  33  34
ENDBRANCH  32  33
ENDBRANCH  31  32
ENDBRANCH   1  31
TORSDOF 21
ENDMDL
