MODEL 1
REMARK VINA RESULT:     -10.6      0.000      0.000
REMARK SMILES CC(C)C[C@H](CNC(=O)c1cc(F)ccc1Br)C(=O)NCCCCNC(=O)c1ccc(-c2c3nc(c(-c4ccc(S(=O)(=O)[O-])cc4)c4ccc([nH]4)c(-c4ccc(S(=O)(=O)[O-])cc4)c4nc(c(-c5ccc(S(=O)(=O)[O-])cc5)c5ccc2[nH]5)C=C4)C=C3)cc1
REMARK SMILES IDX 22 1 21 2 20 3 18 4 19 5 5 7 4 8 2 9 1 10 3 11 6 12 7 13
REMARK SMILES IDX 8 14 9 16 10 17 11 18 16 19 12 20 15 21 17 22 13 23 14 24
REMARK SMILES IDX 23 25 24 26 25 27 26 28 27 30 28 31 29 32 87 33 30 34 86 35
REMARK SMILES IDX 31 36 32 37 33 38 80 39 34 40 85 41 79 42 81 43 35 44 84 45
REMARK SMILES IDX 78 46 77 47 36 49 66 50 47 51 65 52 48 53 51 54 64 55 82 56
REMARK SMILES IDX 49 57 50 58 63 60 83 61 52 62 37 63 38 64 46 65 39 66 45 67
REMARK SMILES IDX 40 68 41 69 42 70 43 71 44 72 67 73 68 74 76 75 69 76 75 77
REMARK SMILES IDX 70 78 71 79 72 80 73 81 74 82 53 83 54 84 62 85 55 86 61 87
REMARK SMILES IDX 56 88 57 89 58 90 59 91 60 92
REMARK H PARENT 20 6 7 15 25 29 81 48 51 59
REMARK Flexibility Score: inf
ROOT
ATOM      1  C   UNL A   1      31.710  27.809  27.012  1.00  0.00     0.023 C 
ENDROOT
BRANCH   1   2
ATOM      2  C   UNL A   1      31.122  26.671  26.189  1.00  0.00     0.116 C 
BRANCH   2   3
ATOM      3  N   UNL A   1      31.251  25.413  26.888  1.00  0.00    -0.356 N 
ATOM      4  C   UNL A   1      31.923  24.288  26.542  1.00  0.00     0.224 C 
ATOM      5  O   UNL A   1      31.813  23.304  27.277  1.00  0.00    -0.275 OA
ATOM      6  H   UNL A   1      30.778  25.367  27.750  1.00  0.00     0.163 HD
BRANCH   4   7
ATOM      7  C   UNL A   1      32.771  24.206  25.277  1.00  0.00     0.098 C 
BRANCH   7   8
ATOM      8  C   UNL A   1      34.076  25.030  25.261  1.00  0.00     0.018 C 
BRANCH   8   9
ATOM      9  C   UNL A   1      35.380  24.213  25.396  1.00  0.00    -0.017 C 
ATOM     10  C   UNL A   1      35.289  23.134  26.472  1.00  0.00     0.007 C 
ATOM     11  C   UNL A   1      35.752  23.585  24.051  1.00  0.00     0.007 C 
ENDBRANCH   8   9
ENDBRANCH   7   8
BRANCH   7  12
ATOM     12  C   UNL A   1      31.876  24.310  24.026  1.00  0.00     0.129 C 
BRANCH  12  13
ATOM     13  N   UNL A   1      32.545  24.647  22.772  1.00  0.00    -0.351 N 
ATOM     14  C   UNL A   1      32.490  25.798  22.031  1.00  0.00     0.252 C 
ATOM     15  H   UNL A   1      33.124  23.941  22.405  1.00  0.00     0.163 HD
ATOM     16  O   UNL A   1      33.102  25.889  20.972  1.00  0.00    -0.269 OA
BRANCH  14  17
ATOM     17  C   UNL A   1      31.731  26.947  22.544  1.00  0.00     0.056 A 
ATOM     18  C   UNL A   1      30.339  26.811  22.643  1.00  0.00     0.054 A 
ATOM     19  C   UNL A   1      32.356  28.137  22.935  1.00  0.00     0.030 A 
ATOM     20  C   UNL A   1      29.581  27.889  23.073  1.00  0.00     0.124 A 
ATOM     21  C   UNL A   1      31.576  29.207  23.386  1.00  0.00     0.019 A 
ATOM     22  Br  UNL A   1      34.233  28.398  22.832  1.00  0.00    -0.050 Br
ATOM     23  F   UNL A   1      28.249  27.778  23.118  1.00  0.00    -0.207 F 
ATOM     24  C   UNL A   1      30.185  29.085  23.443  1.00  0.00     0.040 A 
ENDBRANCH  14  17
ENDBRANCH  12  13
ENDBRANCH   7  12
ENDBRANCH   4   7
ENDBRANCH   2   3
ENDBRANCH   1   2
BRANCH   1  25
ATOM     25  C   UNL A   1      33.237  27.825  27.024  1.00  0.00     0.023 C 
BRANCH  25  26
ATOM     26  C   UNL A   1      33.857  29.038  26.343  1.00  0.00     0.116 C 
BRANCH  26  27
ATOM     27  N   UNL A   1      33.637  30.276  27.078  1.00  0.00    -0.352 N 
ATOM     28  C   UNL A   1      34.462  30.861  28.008  1.00  0.00     0.251 C 
ATOM     29  H   UNL A   1      32.798  30.751  26.885  1.00  0.00     0.163 HD
ATOM     30  O   UNL A   1      34.087  31.832  28.655  1.00  0.00    -0.269 OA
BRANCH  28  31
ATOM     31  C   UNL A   1      35.794  30.268  28.236  1.00  0.00     0.039 A 
ATOM     32  C   UNL A   1      36.775  30.413  27.255  1.00  0.00     0.014 A 
ATOM     33  C   UNL A   1      36.083  29.646  29.453  1.00  0.00     0.014 A 
ATOM     34  C   UNL A   1      38.075  29.985  27.524  1.00  0.00     0.010 A 
ATOM     35  C   UNL A   1      37.394  29.297  29.748  1.00  0.00     0.010 A 
ATOM     36  C   UNL A   1      38.403  29.458  28.787  1.00  0.00    -0.014 A 
BRANCH  36  37
ATOM     37  C   UNL A   1      39.795  29.071  29.120  1.00  0.00     0.031 A 
ATOM     38  C   UNL A   1      40.714  30.065  29.778  1.00  0.00     0.074 A 
ATOM     39  C   UNL A   1      40.250  27.850  28.776  1.00  0.00     0.049 A 
ATOM     40  N   UNL A   1      41.972  29.930  30.108  1.00  0.00    -0.248 NA
ATOM     41  C   UNL A   1      40.153  31.393  30.080  1.00  0.00     0.031 C 
ATOM     42  C   UNL A   1      39.468  26.814  28.095  1.00  0.00     0.029 A 
ATOM     43  N   UNL A   1      41.481  27.271  28.950  1.00  0.00    -0.354 N 
ATOM     44  C   UNL A   1      42.357  31.156  30.639  1.00  0.00     0.074 A 
ATOM     45  C   UNL A   1      41.216  32.039  30.535  1.00  0.00     0.031 C 
ATOM     46  C   UNL A   1      40.228  25.718  27.943  1.00  0.00     0.029 A 
ATOM     47  C   UNL A   1      41.562  25.985  28.471  1.00  0.00     0.049 A 
ATOM     48  H   UNL A   1      42.238  27.734  29.377  1.00  0.00     0.167 HD
ATOM     49  C   UNL A   1      43.546  31.508  31.183  1.00  0.00     0.031 A 
ATOM     50  C   UNL A   1      42.594  25.118  28.455  1.00  0.00     0.031 A 
ATOM     51  C   UNL A   1      44.673  30.622  31.291  1.00  0.00     0.049 A 
ATOM     52  C   UNL A   1      43.909  25.539  29.052  1.00  0.00     0.074 A 
ATOM     53  C   UNL A   1      45.901  30.863  31.880  1.00  0.00     0.029 A 
ATOM     54  N   UNL A   1      44.713  29.327  30.795  1.00  0.00    -0.354 N 
ATOM     55  N   UNL A   1      44.232  26.678  29.617  1.00  0.00    -0.248 NA
ATOM     56  C   UNL A   1      44.997  24.552  29.020  1.00  0.00     0.031 C 
ATOM     57  C   UNL A   1      46.706  29.736  31.684  1.00  0.00     0.029 A 
ATOM     58  C   UNL A   1      45.956  28.767  31.036  1.00  0.00     0.049 A 
ATOM     59  H   UNL A   1      43.968  28.873  30.338  1.00  0.00     0.167 HD
ATOM     60  C   UNL A   1      45.550  26.535  30.034  1.00  0.00     0.074 A 
ATOM     61  C   UNL A   1      45.959  25.192  29.670  1.00  0.00     0.031 C 
ATOM     62  C   UNL A   1      46.349  27.430  30.665  1.00  0.00     0.031 A 
BRANCH  49  63
ATOM     63  C   UNL A   1      43.687  32.919  31.692  1.00  0.00    -0.014 A 
ATOM     64  C   UNL A   1      43.438  33.238  33.041  1.00  0.00     0.010 A 
ATOM     65  C   UNL A   1      44.109  33.937  30.818  1.00  0.00     0.010 A 
ATOM     66  C   UNL A   1      43.564  34.554  33.493  1.00  0.00     0.020 A 
ATOM     67  C   UNL A   1      44.268  35.249  31.274  1.00  0.00     0.020 A 
ATOM     68  C   UNL A   1      43.976  35.551  32.605  1.00  0.00     0.054 A 
BRANCH  68  69
ATOM     69  S   UNL A   1      44.150  37.247  33.226  1.00  0.00     0.124 S 
ATOM     70  O   UNL A   1      44.190  38.019  31.987  1.00  0.00    -0.237 OA
ATOM     71  O   UNL A   1      42.944  37.416  34.033  1.00  0.00    -0.237 OA
ATOM     72  O   UNL A   1      45.401  37.215  33.980  1.00  0.00    -0.744 OA
ENDBRANCH  68  69
ENDBRANCH  49  63
BRANCH  50  73
ATOM     73  C   UNL A   1      42.416  23.759  27.871  1.00  0.00    -0.014 A 
ATOM     74  C   UNL A   1      42.763  23.505  26.534  1.00  0.00     0.010 A 
ATOM     75  C   UNL A   1      41.910  22.707  28.657  1.00  0.00     0.010 A 
ATOM     76  C   UNL A   1      42.592  22.231  25.986  1.00  0.00     0.020 A 
ATOM     77  C   UNL A   1      41.766  21.424  28.122  1.00  0.00     0.020 A 
ATOM     78  C   UNL A   1      42.098  21.197  26.786  1.00  0.00     0.054 A 
BRANCH  78  79
ATOM     79  S   UNL A   1      41.934  19.538  26.066  1.00  0.00     0.124 S 
ATOM     80  O   UNL A   1      42.793  19.632  24.889  1.00  0.00    -0.237 OA
ATOM     81  O   UNL A   1      42.423  18.680  27.141  1.00  0.00    -0.237 OA
ATOM     82  O   UNL A   1      40.503  19.426  25.790  1.00  0.00    -0.744 OA
ENDBRANCH  78  79
ENDBRANCH  50  73
BRANCH  62  83
ATOM     83  C   UNL A   1      47.737  26.981  31.038  1.00  0.00    -0.014 A 
ATOM     84  C   UNL A   1      47.975  26.221  32.197  1.00  0.00     0.010 A 
ATOM     85  C   UNL A   1      48.813  27.277  30.180  1.00  0.00     0.010 A 
ATOM     86  C   UNL A   1      49.269  25.793  32.507  1.00  0.00     0.020 A 
ATOM     87  C   UNL A   1      50.102  26.824  30.469  1.00  0.00     0.020 A 
ATOM     88  C   UNL A   1      50.324  26.096  31.640  1.00  0.00     0.054 A 
BRANCH  88  89
ATOM     89  S   UNL A   1      51.985  25.489  32.043  1.00  0.00     0.124 S 
ATOM     90  O   UNL A   1      51.730  24.086  32.352  1.00  0.00    -0.237 OA
ATOM     91  O   UNL A   1      52.724  25.737  30.807  1.00  0.00    -0.237 OA
ATOM     92  O   UNL A   1      52.389  26.315  33.179  1.00  0.00    -0.744 OA
ENDBRANCH  88  89
ENDBRANCH  62  83
ENDBRANCH  36  37
ENDBRANCH  28  31
ENDBRANCH  26  27
ENDBRANCH  25  26
ENDBRANCH   1  25
TORSDOF 19
ENDMDL
MODEL 2
REMARK VINA RESULT:     -10.3      3.417      8.992
REMARK SMILES CC(C)C[C@H](CNC(=O)c1cc(F)ccc1Br)C(=O)NCCCCNC(=O)c1ccc(-c2c3nc(c(-c4ccc(S(=O)(=O)[O-])cc4)c4ccc([nH]4)c(-c4ccc(S(=O)(=O)[O-])cc4)c4nc(c(-c5ccc(S(=O)(=O)[O-])cc5)c5ccc2[nH]5)C=C4)C=C3)cc1
REMARK SMILES IDX 22 1 21 2 20 3 18 4 19 5 5 7 4 8 2 9 1 10 3 11 6 12 7 13
REMARK SMILES IDX 8 14 9 16 10 17 11 18 16 19 12 20 15 21 17 22 13 23 14 24
REMARK SMILES IDX 23 25 24 26 25 27 26 28 27 30 28 31 29 32 87 33 30 34 86 35
REMARK SMILES IDX 31 36 32 37 33 38 80 39 34 40 85 41 79 42 81 43 35 44 84 45
REMARK SMILES IDX 78 46 77 47 36 49 66 50 47 51 65 52 48 53 51 54 64 55 82 56
REMARK SMILES IDX 49 57 50 58 63 60 83 61 52 62 37 63 38 64 46 65 39 66 45 67
REMARK SMILES IDX 40 68 41 69 42 70 43 71 44 72 67 73 68 74 76 75 69 76 75 77
REMARK SMILES IDX 70 78 71 79 72 80 73 81 74 82 53 83 54 84 62 85 55 86 61 87
REMARK SMILES IDX 56 88 57 89 58 90 59 91 60 92
REMARK H PARENT 20 6 7 15 25 29 81 48 51 59
REMARK Flexibility Score: inf
ROOT
ATOM      1  C   UNL A   1      34.797  30.376  27.713  1.00  0.00     0.023 C 
ENDROOT
BRANCH   1   2
ATOM      2  C   UNL A   1      33.550  30.198  26.857  1.00  0.00     0.116 C 
BRANCH   2   3
ATOM      3  N   UNL A   1      32.541  29.452  27.573  1.00  0.00    -0.356 N 
ATOM      4  C   UNL A   1      31.909  28.299  27.239  1.00  0.00     0.224 C 
ATOM      5  O   UNL A   1      31.015  27.897  27.987  1.00  0.00    -0.275 OA
ATOM      6  H   UNL A   1      32.271  29.839  28.436  1.00  0.00     0.163 HD
BRANCH   4   7
ATOM      7  C   UNL A   1      32.254  27.521  25.973  1.00  0.00     0.098 C 
BRANCH   7   8
ATOM      8  C   UNL A   1      33.624  26.811  25.947  1.00  0.00     0.018 C 
BRANCH   8   9
ATOM      9  C   UNL A   1      33.602  25.344  25.461  1.00  0.00    -0.017 C 
ATOM     10  C   UNL A   1      34.979  24.686  25.520  1.00  0.00     0.007 C 
ATOM     11  C   UNL A   1      32.594  24.532  26.276  1.00  0.00     0.007 C 
ENDBRANCH   8   9
ENDBRANCH   7   8
BRANCH   7  12
ATOM     12  C   UNL A   1      31.881  28.343  24.723  1.00  0.00     0.129 C 
BRANCH  12  13
ATOM     13  N   UNL A   1      31.905  27.634  23.446  1.00  0.00    -0.351 N 
ATOM     14  C   UNL A   1      30.996  27.645  22.420  1.00  0.00     0.252 C 
ATOM     15  H   UNL A   1      32.694  27.064  23.300  1.00  0.00     0.163 HD
ATOM     16  O   UNL A   1      31.171  26.949  21.425  1.00  0.00    -0.269 OA
BRANCH  14  17
ATOM     17  C   UNL A   1      29.834  28.540  22.500  1.00  0.00     0.056 A 
ATOM     18  C   UNL A   1      29.941  29.795  21.887  1.00  0.00     0.054 A 
ATOM     19  C   UNL A   1      28.651  28.167  23.149  1.00  0.00     0.030 A 
ATOM     20  C   UNL A   1      28.886  30.690  21.983  1.00  0.00     0.124 A 
ATOM     21  C   UNL A   1      27.590  29.076  23.219  1.00  0.00     0.019 A 
ATOM     22  Br  UNL A   1      28.427  26.487  24.002  1.00  0.00    -0.050 Br
ATOM     23  F   UNL A   1      29.007  31.908  21.444  1.00  0.00    -0.207 F 
ATOM     24  C   UNL A   1      27.714  30.344  22.645  1.00  0.00     0.040 A 
ENDBRANCH  14  17
ENDBRANCH  12  13
ENDBRANCH   7  12
ENDBRANCH   4   7
ENDBRANCH   2   3
ENDBRANCH   1   2
BRANCH   1  25
ATOM     25  C   UNL A   1      35.190  31.838  27.916  1.00  0.00     0.023 C 
BRANCH  25  26
ATOM     26  C   UNL A   1      36.114  32.080  29.103  1.00  0.00     0.116 C 
BRANCH  26  27
ATOM     27  N   UNL A   1      35.857  31.177  30.216  1.00  0.00    -0.352 N 
ATOM     28  C   UNL A   1      36.691  30.212  30.728  1.00  0.00     0.251 C 
ATOM     29  H   UNL A   1      34.981  31.268  30.655  1.00  0.00     0.163 HD
ATOM     30  O   UNL A   1      36.291  29.425  31.578  1.00  0.00    -0.269 OA
BRANCH  28  31
ATOM     31  C   UNL A   1      38.066  30.123  30.202  1.00  0.00     0.039 A 
ATOM     32  C   UNL A   1      39.135  30.117  31.099  1.00  0.00     0.014 A 
ATOM     33  C   UNL A   1      38.281  29.964  28.830  1.00  0.00     0.014 A 
ATOM     34  C   UNL A   1      40.424  29.886  30.620  1.00  0.00     0.010 A 
ATOM     35  C   UNL A   1      39.553  29.653  28.368  1.00  0.00     0.010 A 
ATOM     36  C   UNL A   1      40.638  29.614  29.257  1.00  0.00    -0.014 A 
BRANCH  36  37
ATOM     37  C   UNL A   1      41.990  29.288  28.741  1.00  0.00     0.031 A 
ATOM     38  C   UNL A   1      42.299  27.891  28.274  1.00  0.00     0.074 A 
ATOM     39  C   UNL A   1      42.954  30.230  28.749  1.00  0.00     0.049 A 
ATOM     40  N   UNL A   1      43.428  27.402  27.832  1.00  0.00    -0.248 NA
ATOM     41  C   UNL A   1      41.202  26.909  28.339  1.00  0.00     0.031 C 
ATOM     42  C   UNL A   1      42.789  31.609  29.219  1.00  0.00     0.029 A 
ATOM     43  N   UNL A   1      44.266  30.172  28.354  1.00  0.00    -0.354 N 
ATOM     44  C   UNL A   1      43.183  26.056  27.582  1.00  0.00     0.074 A 
ATOM     45  C   UNL A   1      41.817  25.793  27.976  1.00  0.00     0.031 C 
ATOM     46  C   UNL A   1      43.944  32.272  29.049  1.00  0.00     0.029 A 
ATOM     47  C   UNL A   1      44.943  31.359  28.505  1.00  0.00     0.049 A 
ATOM     48  H   UNL A   1      44.685  29.355  27.996  1.00  0.00     0.167 HD
ATOM     49  C   UNL A   1      44.015  25.128  27.053  1.00  0.00     0.031 A 
ATOM     50  C   UNL A   1      46.226  31.676  28.239  1.00  0.00     0.031 A 
ATOM     51  C   UNL A   1      45.371  25.399  26.656  1.00  0.00     0.049 A 
ATOM     52  C   UNL A   1      47.135  30.623  27.666  1.00  0.00     0.074 A 
ATOM     53  C   UNL A   1      46.276  24.543  26.054  1.00  0.00     0.029 A 
ATOM     54  N   UNL A   1      46.018  26.613  26.824  1.00  0.00    -0.354 N 
ATOM     55  N   UNL A   1      46.865  29.375  27.368  1.00  0.00    -0.248 NA
ATOM     56  C   UNL A   1      48.519  31.025  27.383  1.00  0.00     0.031 C 
ATOM     57  C   UNL A   1      47.491  25.221  25.916  1.00  0.00     0.029 A 
ATOM     58  C   UNL A   1      47.321  26.522  26.367  1.00  0.00     0.049 A 
ATOM     59  H   UNL A   1      45.611  27.422  27.212  1.00  0.00     0.167 HD
ATOM     60  C   UNL A   1      48.036  28.850  26.834  1.00  0.00     0.074 A 
ATOM     61  C   UNL A   1      49.012  29.922  26.836  1.00  0.00     0.031 C 
ATOM     62  C   UNL A   1      48.282  27.597  26.379  1.00  0.00     0.031 A 
BRANCH  49  63
ATOM     63  C   UNL A   1      43.481  23.728  26.886  1.00  0.00    -0.014 A 
ATOM     64  C   UNL A   1      43.462  22.820  27.961  1.00  0.00     0.010 A 
ATOM     65  C   UNL A   1      42.960  23.326  25.643  1.00  0.00     0.010 A 
ATOM     66  C   UNL A   1      42.973  21.523  27.785  1.00  0.00     0.020 A 
ATOM     67  C   UNL A   1      42.440  22.040  25.471  1.00  0.00     0.020 A 
ATOM     68  C   UNL A   1      42.467  21.141  26.539  1.00  0.00     0.054 A 
BRANCH  68  69
ATOM     69  S   UNL A   1      41.821  19.457  26.345  1.00  0.00     0.124 S 
ATOM     70  O   UNL A   1      40.399  19.704  26.122  1.00  0.00    -0.237 OA
ATOM     71  O   UNL A   1      42.562  18.963  25.186  1.00  0.00    -0.237 OA
ATOM     72  O   UNL A   1      42.150  18.811  27.613  1.00  0.00    -0.744 OA
ENDBRANCH  68  69
ENDBRANCH  49  63
BRANCH  50  73
ATOM     73  C   UNL A   1      46.719  33.059  28.493  1.00  0.00    -0.014 A 
ATOM     74  C   UNL A   1      46.654  34.037  27.486  1.00  0.00     0.010 A 
ATOM     75  C   UNL A   1      47.245  33.408  29.751  1.00  0.00     0.010 A 
ATOM     76  C   UNL A   1      47.121  35.333  27.724  1.00  0.00     0.020 A 
ATOM     77  C   UNL A   1      47.684  34.711  30.003  1.00  0.00     0.020 A 
ATOM     78  C   UNL A   1      47.630  35.662  28.984  1.00  0.00     0.054 A 
BRANCH  78  79
ATOM     79  S   UNL A   1      48.181  37.365  29.284  1.00  0.00     0.124 S 
ATOM     80  O   UNL A   1      49.280  37.501  28.334  1.00  0.00    -0.237 OA
ATOM     81  O   UNL A   1      46.981  38.141  28.983  1.00  0.00    -0.237 OA
ATOM     82  O   UNL A   1      48.570  37.354  30.693  1.00  0.00    -0.744 OA
ENDBRANCH  78  79
ENDBRANCH  50  73
BRANCH  62  83
ATOM     83  C   UNL A   1      49.649  27.319  25.810  1.00  0.00    -0.014 A 
ATOM     84  C   UNL A   1      50.637  26.662  26.565  1.00  0.00     0.010 A 
ATOM     85  C   UNL A   1      49.927  27.671  24.476  1.00  0.00     0.010 A 
ATOM     86  C   UNL A   1      51.888  26.392  26.006  1.00  0.00     0.020 A 
ATOM     87  C   UNL A   1      51.166  27.374  23.903  1.00  0.00     0.020 A 
ATOM     88  C   UNL A   1      52.144  26.748  24.677  1.00  0.00     0.054 A 
BRANCH  88  89
ATOM     89  S   UNL A   1      53.761  26.344  23.962  1.00  0.00     0.124 S 
ATOM     90  O   UNL A   1      54.531  27.551  24.249  1.00  0.00    -0.237 OA
ATOM     91  O   UNL A   1      54.155  25.154  24.712  1.00  0.00    -0.237 OA
ATOM     92  O   UNL A   1      53.468  26.114  22.549  1.00  0.00    -0.744 OA
ENDBRANCH  88  89
ENDBRANCH  62  83
ENDBRANCH  36  37
ENDBRANCH  28  31
ENDBRANCH  26  27
ENDBRANCH  25  26
ENDBRANCH   1  25
TORSDOF 19
ENDMDL
MODEL 3
REMARK VINA RESULT:     -10.3      2.396      2.864
REMARK SMILES CC(C)C[C@H](CNC(=O)c1cc(F)ccc1Br)C(=O)NCCCCNC(=O)c1ccc(-c2c3nc(c(-c4ccc(S(=O)(=O)[O-])cc4)c4ccc([nH]4)c(-c4ccc(S(=O)(=O)[O-])cc4)c4nc(c(-c5ccc(S(=O)(=O)[O-])cc5)c5ccc2[nH]5)C=C4)C=C3)cc1
REMARK SMILES IDX 22 1 21 2 20 3 18 4 19 5 5 7 4 8 2 9 1 10 3 11 6 12 7 13
REMARK SMILES IDX 8 14 9 16 10 17 11 18 16 19 12 20 15 21 17 22 13 23 14 24
REMARK SMILES IDX 23 25 24 26 25 27 26 28 27 30 28 31 29 32 87 33 30 34 86 35
REMARK SMILES IDX 31 36 32 37 33 38 80 39 34 40 85 41 79 42 81 43 35 44 84 45
REMARK SMILES IDX 78 46 77 47 36 49 66 50 47 51 65 52 48 53 51 54 64 55 82 56
REMARK SMILES IDX 49 57 50 58 63 60 83 61 52 62 37 63 38 64 46 65 39 66 45 67
REMARK SMILES IDX 40 68 41 69 42 70 43 71 44 72 67 73 68 74 76 75 69 76 75 77
REMARK SMILES IDX 70 78 71 79 72 80 73 81 74 82 53 83 54 84 62 85 55 86 61 87
REMARK SMILES IDX 56 88 57 89 58 90 59 91 60 92
REMARK H PARENT 20 6 7 15 25 29 81 48 51 59
REMARK Flexibility Score: inf
ROOT
ATOM      1  C   UNL A   1      31.796  28.086  26.893  1.00  0.00     0.023 C 
ENDROOT
BRANCH   1   2
ATOM      2  C   UNL A   1      31.122  26.937  26.155  1.00  0.00     0.116 C 
BRANCH   2   3
ATOM      3  N   UNL A   1      31.316  25.691  26.860  1.00  0.00    -0.356 N 
ATOM      4  C   UNL A   1      31.862  24.525  26.434  1.00  0.00     0.224 C 
ATOM      5  O   UNL A   1      31.842  23.565  27.209  1.00  0.00    -0.275 OA
ATOM      6  H   UNL A   1      31.006  25.689  27.794  1.00  0.00     0.163 HD
BRANCH   4   7
ATOM      7  C   UNL A   1      32.462  24.370  25.041  1.00  0.00     0.098 C 
BRANCH   7   8
ATOM      8  C   UNL A   1      33.774  25.134  24.762  1.00  0.00     0.018 C 
BRANCH   8   9
ATOM      9  C   UNL A   1      35.042  24.258  24.652  1.00  0.00    -0.017 C 
ATOM     10  C   UNL A   1      35.405  23.581  25.972  1.00  0.00     0.007 C 
ATOM     11  C   UNL A   1      34.865  23.207  23.553  1.00  0.00     0.007 C 
ENDBRANCH   8   9
ENDBRANCH   7   8
BRANCH   7  12
ATOM     12  C   UNL A   1      31.359  24.482  23.969  1.00  0.00     0.129 C 
BRANCH  12  13
ATOM     13  N   UNL A   1      31.805  24.716  22.598  1.00  0.00    -0.351 N 
ATOM     14  C   UNL A   1      31.732  25.851  21.834  1.00  0.00     0.252 C 
ATOM     15  H   UNL A   1      32.222  23.941  22.156  1.00  0.00     0.163 HD
ATOM     16  O   UNL A   1      32.134  25.850  20.675  1.00  0.00    -0.269 OA
BRANCH  14  17
ATOM     17  C   UNL A   1      31.216  27.089  22.434  1.00  0.00     0.056 A 
ATOM     18  C   UNL A   1      29.837  27.166  22.675  1.00  0.00     0.054 A 
ATOM     19  C   UNL A   1      32.054  28.158  22.772  1.00  0.00     0.030 A 
ATOM     20  C   UNL A   1      29.303  28.336  23.192  1.00  0.00     0.124 A 
ATOM     21  C   UNL A   1      31.499  29.323  23.312  1.00  0.00     0.019 A 
ATOM     22  Br  UNL A   1      33.929  28.131  22.479  1.00  0.00    -0.050 Br
ATOM     23  F   UNL A   1      27.981  28.430  23.372  1.00  0.00    -0.207 F 
ATOM     24  C   UNL A   1      30.119  29.415  23.510  1.00  0.00     0.040 A 
ENDBRANCH  14  17
ENDBRANCH  12  13
ENDBRANCH   7  12
ENDBRANCH   4   7
ENDBRANCH   2   3
ENDBRANCH   1   2
BRANCH   1  25
ATOM     25  C   UNL A   1      33.318  27.970  26.936  1.00  0.00     0.023 C 
BRANCH  25  26
ATOM     26  C   UNL A   1      34.053  29.084  26.200  1.00  0.00     0.116 C 
BRANCH  26  27
ATOM     27  N   UNL A   1      33.760  30.407  26.734  1.00  0.00    -0.352 N 
ATOM     28  C   UNL A   1      34.436  31.086  27.719  1.00  0.00     0.251 C 
ATOM     29  H   UNL A   1      32.986  30.870  26.342  1.00  0.00     0.163 HD
ATOM     30  O   UNL A   1      33.995  32.136  28.171  1.00  0.00    -0.269 OA
BRANCH  28  31
ATOM     31  C   UNL A   1      35.685  30.502  28.244  1.00  0.00     0.039 A 
ATOM     32  C   UNL A   1      36.899  30.859  27.657  1.00  0.00     0.014 A 
ATOM     33  C   UNL A   1      35.648  29.668  29.365  1.00  0.00     0.014 A 
ATOM     34  C   UNL A   1      38.090  30.427  28.239  1.00  0.00     0.010 A 
ATOM     35  C   UNL A   1      36.836  29.309  29.989  1.00  0.00     0.010 A 
ATOM     36  C   UNL A   1      38.068  29.681  29.431  1.00  0.00    -0.014 A 
BRANCH  36  37
ATOM     37  C   UNL A   1      39.325  29.279  30.109  1.00  0.00     0.031 A 
ATOM     38  C   UNL A   1      39.786  30.019  31.337  1.00  0.00     0.074 A 
ATOM     39  C   UNL A   1      40.080  28.292  29.587  1.00  0.00     0.049 A 
ATOM     40  N   UNL A   1      40.873  29.845  32.042  1.00  0.00    -0.248 NA
ATOM     41  C   UNL A   1      38.925  31.114  31.817  1.00  0.00     0.031 C 
ATOM     42  C   UNL A   1      39.762  27.529  28.377  1.00  0.00     0.029 A 
ATOM     43  N   UNL A   1      41.274  27.761  30.007  1.00  0.00    -0.354 N 
ATOM     44  C   UNL A   1      40.836  30.817  33.036  1.00  0.00     0.074 A 
ATOM     45  C   UNL A   1      39.649  31.612  32.808  1.00  0.00     0.031 C 
ATOM     46  C   UNL A   1      40.716  26.607  28.174  1.00  0.00     0.029 A 
ATOM     47  C   UNL A   1      41.736  26.741  29.209  1.00  0.00     0.049 A 
ATOM     48  H   UNL A   1      41.755  28.081  30.804  1.00  0.00     0.167 HD
ATOM     49  C   UNL A   1      41.701  31.016  34.059  1.00  0.00     0.031 A 
ATOM     50  C   UNL A   1      42.858  25.999  29.298  1.00  0.00     0.031 A 
ATOM     51  C   UNL A   1      42.874  30.216  34.284  1.00  0.00     0.049 A 
ATOM     52  C   UNL A   1      43.811  26.250  30.435  1.00  0.00     0.074 A 
ATOM     53  C   UNL A   1      43.782  30.298  35.325  1.00  0.00     0.029 A 
ATOM     54  N   UNL A   1      43.307  29.193  33.455  1.00  0.00    -0.354 N 
ATOM     55  N   UNL A   1      43.722  27.125  31.408  1.00  0.00    -0.248 NA
ATOM     56  C   UNL A   1      45.012  25.405  30.491  1.00  0.00     0.031 C 
ATOM     57  C   UNL A   1      44.798  29.366  35.092  1.00  0.00     0.029 A 
ATOM     58  C   UNL A   1      44.485  28.655  33.943  1.00  0.00     0.049 A 
ATOM     59  H   UNL A   1      42.845  28.893  32.639  1.00  0.00     0.167 HD
ATOM     60  C   UNL A   1      44.838  26.916  32.210  1.00  0.00     0.074 A 
ATOM     61  C   UNL A   1      45.579  25.821  31.615  1.00  0.00     0.031 C 
ATOM     62  C   UNL A   1      45.214  27.567  33.338  1.00  0.00     0.031 A 
BRANCH  49  63
ATOM     63  C   UNL A   1      41.412  32.154  35.004  1.00  0.00    -0.014 A 
ATOM     64  C   UNL A   1      40.494  32.010  36.062  1.00  0.00     0.010 A 
ATOM     65  C   UNL A   1      42.093  33.375  34.853  1.00  0.00     0.010 A 
ATOM     66  C   UNL A   1      40.230  33.079  36.922  1.00  0.00     0.020 A 
ATOM     67  C   UNL A   1      41.856  34.437  35.731  1.00  0.00     0.020 A 
ATOM     68  C   UNL A   1      40.912  34.287  36.749  1.00  0.00     0.054 A 
BRANCH  68  69
ATOM     69  S   UNL A   1      40.563  35.650  37.893  1.00  0.00     0.124 S 
ATOM     70  O   UNL A   1      39.840  36.585  37.036  1.00  0.00    -0.237 OA
ATOM     71  O   UNL A   1      39.763  35.001  38.929  1.00  0.00    -0.237 OA
ATOM     72  O   UNL A   1      41.889  36.094  38.319  1.00  0.00    -0.744 OA
ENDBRANCH  68  69
ENDBRANCH  49  63
BRANCH  50  73
ATOM     73  C   UNL A   1      43.128  24.935  28.291  1.00  0.00    -0.014 A 
ATOM     74  C   UNL A   1      43.748  25.248  27.070  1.00  0.00     0.010 A 
ATOM     75  C   UNL A   1      42.778  23.598  28.556  1.00  0.00     0.010 A 
ATOM     76  C   UNL A   1      43.997  24.249  26.124  1.00  0.00     0.020 A 
ATOM     77  C   UNL A   1      43.054  22.591  27.626  1.00  0.00     0.020 A 
ATOM     78  C   UNL A   1      43.651  22.925  26.411  1.00  0.00     0.054 A 
BRANCH  78  79
ATOM     79  S   UNL A   1      44.034  21.639  25.189  1.00  0.00     0.124 S 
ATOM     80  O   UNL A   1      45.383  21.240  25.579  1.00  0.00    -0.237 OA
ATOM     81  O   UNL A   1      42.985  20.653  25.433  1.00  0.00    -0.237 OA
ATOM     82  O   UNL A   1      43.934  22.341  23.911  1.00  0.00    -0.744 OA
ENDBRANCH  78  79
ENDBRANCH  50  73
BRANCH  62  83
ATOM     83  C   UNL A   1      46.465  27.094  34.030  1.00  0.00    -0.014 A 
ATOM     84  C   UNL A   1      47.721  27.656  33.738  1.00  0.00     0.010 A 
ATOM     85  C   UNL A   1      46.371  26.110  35.031  1.00  0.00     0.010 A 
ATOM     86  C   UNL A   1      48.863  27.219  34.413  1.00  0.00     0.020 A 
ATOM     87  C   UNL A   1      47.506  25.693  35.731  1.00  0.00     0.020 A 
ATOM     88  C   UNL A   1      48.748  26.241  35.407  1.00  0.00     0.054 A 
BRANCH  88  89
ATOM     89  S   UNL A   1      50.240  25.724  36.299  1.00  0.00     0.124 S 
ATOM     90  O   UNL A   1      50.650  24.542  35.548  1.00  0.00    -0.237 OA
ATOM     91  O   UNL A   1      51.113  26.888  36.164  1.00  0.00    -0.237 OA
ATOM     92  O   UNL A   1      49.761  25.467  37.656  1.00  0.00    -0.744 OA
ENDBRANCH  88  89
ENDBRANCH  62  83
ENDBRANCH  36  37
ENDBRANCH  28  31
ENDBRANCH  26  27
ENDBRANCH  25  26
ENDBRANCH   1  25
TORSDOF 19
ENDMDL
