MODEL 1
REMARK VINA RESULT:     -11.1      0.000      0.000
REMARK SMILES O=C(NCCCCNC(=O)c1cccc(F)c1N1CCN2C(=O)NC[C@@H]2C1)c1ccc(-c2c3nc(c(-c4ccc(S(=O)(=O)[O-])cc4)c4ccc([nH]4)c(-c4ccc(S(=O)(=O)[O-])cc4)c4nc(c(-c5ccc(S(=O)(=O)[O-])cc5)c5ccc2[nH]5)C=C4)C=C3)cc1
REMARK SMILES IDX 4 1 3 2 1 3 2 4 28 6 29 7 87 8 30 9 86 10 31 11 32 12 33 13
REMARK SMILES IDX 80 14 34 15 85 16 79 17 81 18 35 19 84 20 78 21 77 22 36 24
REMARK SMILES IDX 66 25 47 26 65 27 48 28 51 29 64 30 82 31 49 32 50 33 63 35
REMARK SMILES IDX 83 36 52 37 37 38 38 39 46 40 39 41 45 42 40 43 41 44 42 45
REMARK SMILES IDX 43 46 44 47 67 48 68 49 76 50 69 51 75 52 70 53 71 54 72 55
REMARK SMILES IDX 73 56 74 57 53 58 54 59 62 60 55 61 61 62 56 63 57 64 58 65
REMARK SMILES IDX 59 66 60 67 5 68 6 69 7 70 8 71 9 72 10 74 11 75 12 76 17 77
REMARK SMILES IDX 13 78 15 79 14 80 16 81 18 82 19 83 27 84 20 85 26 86 21 87
REMARK SMILES IDX 25 88 22 89 24 90 23 91
REMARK H PARENT 3 5 81 23 51 34 8 73 24 92
REMARK Flexibility Score: inf
ROOT
ATOM      1  C   UNL A   1      33.760  28.335  26.968  1.00  0.00     0.116 C 
ENDROOT
BRANCH   1   2
ATOM      2  N   UNL A   1      33.611  29.701  27.454  1.00  0.00    -0.352 N 
ATOM      3  O   UNL A   1      34.214  31.592  28.539  1.00  0.00    -0.269 OA
ATOM      4  C   UNL A   1      34.536  30.493  28.101  1.00  0.00     0.251 C 
ATOM      5  H   UNL A   1      32.730  30.113  27.300  1.00  0.00     0.163 HD
BRANCH   4   6
ATOM      6  C   UNL A   1      35.911  29.980  28.292  1.00  0.00     0.039 A 
ATOM      7  C   UNL A   1      36.288  29.465  29.532  1.00  0.00     0.014 A 
ATOM      8  C   UNL A   1      36.845  30.080  27.258  1.00  0.00     0.014 A 
ATOM      9  C   UNL A   1      37.632  29.260  29.802  1.00  0.00     0.010 A 
ATOM     10  C   UNL A   1      38.181  29.735  27.496  1.00  0.00     0.010 A 
ATOM     11  C   UNL A   1      38.595  29.359  28.782  1.00  0.00    -0.014 A 
BRANCH  11  12
ATOM     12  C   UNL A   1      39.994  28.972  29.101  1.00  0.00     0.031 A 
ATOM     13  C   UNL A   1      40.558  27.627  28.732  1.00  0.00     0.074 A 
ATOM     14  C   UNL A   1      40.786  29.904  29.671  1.00  0.00     0.049 A 
ATOM     15  N   UNL A   1      41.786  27.190  28.872  1.00  0.00    -0.248 NA
ATOM     16  C   UNL A   1      39.640  26.642  28.139  1.00  0.00     0.031 C 
ATOM     17  C   UNL A   1      40.343  31.240  30.091  1.00  0.00     0.029 A 
ATOM     18  N   UNL A   1      42.126  29.900  29.955  1.00  0.00    -0.354 N 
ATOM     19  C   UNL A   1      41.788  25.883  28.394  1.00  0.00     0.074 A 
ATOM     20  C   UNL A   1      40.430  25.585  27.991  1.00  0.00     0.031 C 
ATOM     21  C   UNL A   1      41.402  31.950  30.500  1.00  0.00     0.029 A 
ATOM     22  C   UNL A   1      42.581  31.095  30.464  1.00  0.00     0.049 A 
ATOM     23  H   UNL A   1      42.707  29.119  29.810  1.00  0.00     0.167 HD
ATOM     24  C   UNL A   1      42.828  25.019  28.294  1.00  0.00     0.031 A 
ATOM     25  C   UNL A   1      43.804  31.465  30.884  1.00  0.00     0.031 A 
ATOM     26  C   UNL A   1      44.176  25.323  28.710  1.00  0.00     0.049 A 
ATOM     27  C   UNL A   1      44.925  30.473  30.792  1.00  0.00     0.074 A 
ATOM     28  C   UNL A   1      45.299  24.516  28.643  1.00  0.00     0.029 A 
ATOM     29  N   UNL A   1      44.586  26.525  29.268  1.00  0.00    -0.354 N 
ATOM     30  N   UNL A   1      44.906  29.252  30.314  1.00  0.00    -0.248 NA
ATOM     31  C   UNL A   1      46.233  30.910  31.293  1.00  0.00     0.031 C 
ATOM     32  C   UNL A   1      46.374  25.208  29.212  1.00  0.00     0.029 A 
ATOM     33  C   UNL A   1      45.938  26.473  29.570  1.00  0.00     0.049 A 
ATOM     34  H   UNL A   1      44.002  27.303  29.426  1.00  0.00     0.167 HD
ATOM     35  C   UNL A   1      46.204  28.776  30.449  1.00  0.00     0.074 A 
ATOM     36  C   UNL A   1      46.988  29.858  31.013  1.00  0.00     0.031 C 
ATOM     37  C   UNL A   1      46.701  27.552  30.146  1.00  0.00     0.031 A 
BRANCH  24  38
ATOM     38  C   UNL A   1      42.558  23.650  27.721  1.00  0.00    -0.014 A 
ATOM     39  C   UNL A   1      42.788  23.374  26.361  1.00  0.00     0.010 A 
ATOM     40  C   UNL A   1      42.152  22.601  28.569  1.00  0.00     0.010 A 
ATOM     41  C   UNL A   1      42.594  22.084  25.855  1.00  0.00     0.020 A 
ATOM     42  C   UNL A   1      41.984  21.304  28.073  1.00  0.00     0.020 A 
ATOM     43  C   UNL A   1      42.196  21.057  26.716  1.00  0.00     0.054 A 
BRANCH  43  44
ATOM     44  S   UNL A   1      41.998  19.384  26.038  1.00  0.00     0.124 S 
ATOM     45  O   UNL A   1      42.842  19.441  24.847  1.00  0.00    -0.237 OA
ATOM     46  O   UNL A   1      42.497  18.541  27.121  1.00  0.00    -0.237 OA
ATOM     47  O   UNL A   1      40.564  19.280  25.779  1.00  0.00    -0.744 OA
ENDBRANCH  43  44
ENDBRANCH  24  38
BRANCH  25  48
ATOM     48  C   UNL A   1      44.007  32.814  31.477  1.00  0.00    -0.014 A 
ATOM     49  C   UNL A   1      43.729  33.065  32.831  1.00  0.00     0.010 A 
ATOM     50  C   UNL A   1      44.489  33.865  30.672  1.00  0.00     0.010 A 
ATOM     51  C   UNL A   1      43.896  34.349  33.360  1.00  0.00     0.020 A 
ATOM     52  C   UNL A   1      44.697  35.136  31.205  1.00  0.00     0.020 A 
ATOM     53  C   UNL A   1      44.379  35.376  32.542  1.00  0.00     0.054 A 
BRANCH  53  54
ATOM     54  S   UNL A   1      44.608  37.028  33.251  1.00  0.00     0.124 S 
ATOM     55  O   UNL A   1      44.536  37.878  32.066  1.00  0.00    -0.237 OA
ATOM     56  O   UNL A   1      43.484  37.134  34.178  1.00  0.00    -0.237 OA
ATOM     57  O   UNL A   1      45.922  36.948  33.885  1.00  0.00    -0.744 OA
ENDBRANCH  53  54
ENDBRANCH  25  48
BRANCH  37  58
ATOM     58  C   UNL A   1      48.169  27.335  30.400  1.00  0.00    -0.014 A 
ATOM     59  C   UNL A   1      48.631  26.845  31.635  1.00  0.00     0.010 A 
ATOM     60  C   UNL A   1      49.101  27.627  29.388  1.00  0.00     0.010 A 
ATOM     61  C   UNL A   1      50.000  26.705  31.874  1.00  0.00     0.020 A 
ATOM     62  C   UNL A   1      50.470  27.455  29.610  1.00  0.00     0.020 A 
ATOM     63  C   UNL A   1      50.912  27.017  30.859  1.00  0.00     0.054 A 
BRANCH  63  64
ATOM     64  S   UNL A   1      52.683  26.823  31.192  1.00  0.00     0.124 S 
ATOM     65  O   UNL A   1      52.963  27.983  32.033  1.00  0.00    -0.237 OA
ATOM     66  O   UNL A   1      52.742  25.528  31.866  1.00  0.00    -0.237 OA
ATOM     67  O   UNL A   1      53.290  26.855  29.863  1.00  0.00    -0.744 OA
ENDBRANCH  63  64
ENDBRANCH  37  58
ENDBRANCH  11  12
ENDBRANCH   4   6
ENDBRANCH   1   2
BRANCH   1  68
ATOM     68  C   UNL A   1      33.128  28.097  25.606  1.00  0.00     0.023 C 
BRANCH  68  69
ATOM     69  C   UNL A   1      34.108  28.006  24.445  1.00  0.00     0.023 C 
BRANCH  69  70
ATOM     70  C   UNL A   1      33.471  27.846  23.070  1.00  0.00     0.116 C 
BRANCH  70  71
ATOM     71  N   UNL A   1      33.716  26.546  22.463  1.00  0.00    -0.352 N 
ATOM     72  C   UNL A   1      33.116  25.336  22.730  1.00  0.00     0.253 C 
ATOM     73  H   UNL A   1      34.408  26.530  21.763  1.00  0.00     0.163 HD
ATOM     74  O   UNL A   1      33.411  24.347  22.070  1.00  0.00    -0.269 OA
BRANCH  72  75
ATOM     75  C   UNL A   1      32.108  25.264  23.810  1.00  0.00     0.066 A 
ATOM     76  C   UNL A   1      30.888  25.929  23.564  1.00  0.00     0.016 A 
ATOM     77  C   UNL A   1      32.334  24.542  25.000  1.00  0.00     0.086 A 
ATOM     78  C   UNL A   1      29.910  25.995  24.548  1.00  0.00     0.004 A 
ATOM     79  C   UNL A   1      31.308  24.628  25.963  1.00  0.00     0.147 A 
ATOM     80  C   UNL A   1      30.131  25.357  25.759  1.00  0.00     0.041 A 
ATOM     81  F   UNL A   1      31.453  24.017  27.151  1.00  0.00    -0.205 F 
BRANCH  77  82
ATOM     82  N   UNL A   1      33.459  23.763  25.222  1.00  0.00    -0.365 N 
ATOM     83  C   UNL A   1      33.395  22.293  25.051  1.00  0.00     0.138 C 
ATOM     84  C   UNL A   1      34.660  24.285  25.899  1.00  0.00     0.143 C 
ATOM     85  C   UNL A   1      34.699  21.723  24.439  1.00  0.00     0.143 C 
ATOM     86  C   UNL A   1      35.901  23.809  25.139  1.00  0.00     0.125 C 
ATOM     87  N   UNL A   1      35.890  22.367  24.955  1.00  0.00    -0.317 N 
ATOM     88  C   UNL A   1      37.247  24.042  25.812  1.00  0.00     0.144 C 
ATOM     89  C   UNL A   1      37.180  21.870  24.944  1.00  0.00     0.317 C 
ATOM     90  N   UNL A   1      38.011  22.888  25.400  1.00  0.00    -0.336 N 
ATOM     91  O   UNL A   1      37.544  20.758  24.604  1.00  0.00    -0.249 OA
ATOM     92  H   UNL A   1      38.992  22.829  25.436  1.00  0.00     0.165 HD
ENDBRANCH  77  82
ENDBRANCH  72  75
ENDBRANCH  70  71
ENDBRANCH  69  70
ENDBRANCH  68  69
ENDBRANCH   1  68
TORSDOF 15
ENDMDL
MODEL 2
REMARK VINA RESULT:     -11.0      2.877      8.813
REMARK SMILES O=C(NCCCCNC(=O)c1cccc(F)c1N1CCN2C(=O)NC[C@@H]2C1)c1ccc(-c2c3nc(c(-c4ccc(S(=O)(=O)[O-])cc4)c4ccc([nH]4)c(-c4ccc(S(=O)(=O)[O-])cc4)c4nc(c(-c5ccc(S(=O)(=O)[O-])cc5)c5ccc2[nH]5)C=C4)C=C3)cc1
REMARK SMILES IDX 4 1 3 2 1 3 2 4 28 6 29 7 87 8 30 9 86 10 31 11 32 12 33 13
REMARK SMILES IDX 80 14 34 15 85 16 79 17 81 18 35 19 84 20 78 21 77 22 36 24
REMARK SMILES IDX 66 25 47 26 65 27 48 28 51 29 64 30 82 31 49 32 50 33 63 35
REMARK SMILES IDX 83 36 52 37 37 38 38 39 46 40 39 41 45 42 40 43 41 44 42 45
REMARK SMILES IDX 43 46 44 47 67 48 68 49 76 50 69 51 75 52 70 53 71 54 72 55
REMARK SMILES IDX 73 56 74 57 53 58 54 59 62 60 55 61 61 62 56 63 57 64 58 65
REMARK SMILES IDX 59 66 60 67 5 68 6 69 7 70 8 71 9 72 10 74 11 75 12 76 17 77
REMARK SMILES IDX 13 78 15 79 14 80 16 81 18 82 19 83 27 84 20 85 26 86 21 87
REMARK SMILES IDX 25 88 22 89 24 90 23 91
REMARK H PARENT 3 5 81 23 51 34 8 73 24 92
REMARK Flexibility Score: inf
ROOT
ATOM      1  C   UNL A   1      35.515  29.454  27.545  1.00  0.00     0.116 C 
ENDROOT
BRANCH   1   2
ATOM      2  N   UNL A   1      35.329  29.699  28.970  1.00  0.00    -0.352 N 
ATOM      3  O   UNL A   1      35.938  29.846  31.144  1.00  0.00    -0.269 OA
ATOM      4  C   UNL A   1      36.277  29.729  29.971  1.00  0.00     0.251 C 
ATOM      5  H   UNL A   1      34.402  29.863  29.256  1.00  0.00     0.163 HD
BRANCH   4   6
ATOM      6  C   UNL A   1      37.705  29.579  29.612  1.00  0.00     0.039 A 
ATOM      7  C   UNL A   1      38.113  29.811  28.300  1.00  0.00     0.014 A 
ATOM      8  C   UNL A   1      38.623  29.136  30.567  1.00  0.00     0.014 A 
ATOM      9  C   UNL A   1      39.372  29.393  27.895  1.00  0.00     0.010 A 
ATOM     10  C   UNL A   1      39.939  28.849  30.182  1.00  0.00     0.010 A 
ATOM     11  C   UNL A   1      40.315  28.937  28.833  1.00  0.00    -0.014 A 
BRANCH  11  12
ATOM     12  C   UNL A   1      41.695  28.656  28.358  1.00  0.00     0.031 A 
ATOM     13  C   UNL A   1      42.768  29.711  28.342  1.00  0.00     0.074 A 
ATOM     14  C   UNL A   1      41.989  27.387  28.009  1.00  0.00     0.049 A 
ATOM     15  N   UNL A   1      44.035  29.582  28.035  1.00  0.00    -0.248 NA
ATOM     16  C   UNL A   1      42.380  31.084  28.706  1.00  0.00     0.031 C 
ATOM     17  C   UNL A   1      41.023  26.281  27.968  1.00  0.00     0.029 A 
ATOM     18  N   UNL A   1      43.177  26.796  27.668  1.00  0.00    -0.354 N 
ATOM     19  C   UNL A   1      44.594  30.849  28.161  1.00  0.00     0.074 A 
ATOM     20  C   UNL A   1      43.520  31.743  28.539  1.00  0.00     0.031 C 
ATOM     21  C   UNL A   1      41.669  25.139  27.704  1.00  0.00     0.029 A 
ATOM     22  C   UNL A   1      43.073  25.439  27.461  1.00  0.00     0.049 A 
ATOM     23  H   UNL A   1      44.023  27.292  27.580  1.00  0.00     0.167 HD
ATOM     24  C   UNL A   1      45.885  31.227  27.985  1.00  0.00     0.031 A 
ATOM     25  C   UNL A   1      43.995  24.532  27.092  1.00  0.00     0.031 A 
ATOM     26  C   UNL A   1      46.946  30.330  27.596  1.00  0.00     0.049 A 
ATOM     27  C   UNL A   1      45.406  24.990  26.872  1.00  0.00     0.074 A 
ATOM     28  C   UNL A   1      48.286  30.618  27.399  1.00  0.00     0.029 A 
ATOM     29  N   UNL A   1      46.792  28.974  27.346  1.00  0.00    -0.354 N 
ATOM     30  N   UNL A   1      45.914  26.189  27.021  1.00  0.00    -0.248 NA
ATOM     31  C   UNL A   1      46.368  23.971  26.437  1.00  0.00     0.031 C 
ATOM     32  C   UNL A   1      48.929  29.449  26.975  1.00  0.00     0.029 A 
ATOM     33  C   UNL A   1      48.006  28.417  26.975  1.00  0.00     0.049 A 
ATOM     34  H   UNL A   1      45.943  28.479  27.421  1.00  0.00     0.167 HD
ATOM     35  C   UNL A   1      47.261  26.068  26.705  1.00  0.00     0.074 A 
ATOM     36  C   UNL A   1      47.493  24.669  26.400  1.00  0.00     0.031 C 
ATOM     37  C   UNL A   1      48.218  27.027  26.659  1.00  0.00     0.031 A 
BRANCH  24  38
ATOM     38  C   UNL A   1      46.233  32.680  28.200  1.00  0.00    -0.014 A 
ATOM     39  C   UNL A   1      46.143  33.611  27.148  1.00  0.00     0.010 A 
ATOM     40  C   UNL A   1      46.570  33.139  29.487  1.00  0.00     0.010 A 
ATOM     41  C   UNL A   1      46.406  34.965  27.374  1.00  0.00     0.020 A 
ATOM     42  C   UNL A   1      46.808  34.498  29.723  1.00  0.00     0.020 A 
ATOM     43  C   UNL A   1      46.735  35.400  28.662  1.00  0.00     0.054 A 
BRANCH  43  44
ATOM     44  S   UNL A   1      47.026  37.172  28.931  1.00  0.00     0.124 S 
ATOM     45  O   UNL A   1      45.723  37.620  29.415  1.00  0.00    -0.237 OA
ATOM     46  O   UNL A   1      48.097  37.170  29.926  1.00  0.00    -0.237 OA
ATOM     47  O   UNL A   1      47.405  37.668  27.611  1.00  0.00    -0.744 OA
ENDBRANCH  43  44
ENDBRANCH  24  38
BRANCH  25  48
ATOM     48  C   UNL A   1      43.591  23.120  26.856  1.00  0.00    -0.014 A 
ATOM     49  C   UNL A   1      42.899  22.386  27.836  1.00  0.00     0.010 A 
ATOM     50  C   UNL A   1      43.903  22.499  25.631  1.00  0.00     0.010 A 
ATOM     51  C   UNL A   1      42.558  21.050  27.607  1.00  0.00     0.020 A 
ATOM     52  C   UNL A   1      43.527  21.179  25.383  1.00  0.00     0.020 A 
ATOM     53  C   UNL A   1      42.875  20.455  26.381  1.00  0.00     0.054 A 
BRANCH  53  54
ATOM     54  S   UNL A   1      42.406  18.728  26.095  1.00  0.00     0.124 S 
ATOM     55  O   UNL A   1      40.993  18.853  25.750  1.00  0.00    -0.237 OA
ATOM     56  O   UNL A   1      43.294  18.336  25.003  1.00  0.00    -0.237 OA
ATOM     57  O   UNL A   1      42.684  18.083  27.376  1.00  0.00    -0.744 OA
ENDBRANCH  53  54
ENDBRANCH  25  48
BRANCH  37  58
ATOM     58  C   UNL A   1      49.607  26.581  26.287  1.00  0.00    -0.014 A 
ATOM     59  C   UNL A   1      50.086  26.711  24.971  1.00  0.00     0.010 A 
ATOM     60  C   UNL A   1      50.445  26.023  27.269  1.00  0.00     0.010 A 
ATOM     61  C   UNL A   1      51.356  26.238  24.631  1.00  0.00     0.020 A 
ATOM     62  C   UNL A   1      51.730  25.582  26.941  1.00  0.00     0.020 A 
ATOM     63  C   UNL A   1      52.168  25.671  25.619  1.00  0.00     0.054 A 
BRANCH  63  64
ATOM     64  S   UNL A   1      53.814  25.069  25.153  1.00  0.00     0.124 S 
ATOM     65  O   UNL A   1      54.625  25.494  26.290  1.00  0.00    -0.237 OA
ATOM     66  O   UNL A   1      53.604  23.628  25.034  1.00  0.00    -0.237 OA
ATOM     67  O   UNL A   1      54.092  25.760  23.896  1.00  0.00    -0.744 OA
ENDBRANCH  63  64
ENDBRANCH  37  58
ENDBRANCH  11  12
ENDBRANCH   4   6
ENDBRANCH   1   2
BRANCH   1  68
ATOM     68  C   UNL A   1      34.323  28.786  26.878  1.00  0.00     0.023 C 
BRANCH  68  69
ATOM     69  C   UNL A   1      33.001  29.528  27.023  1.00  0.00     0.023 C 
BRANCH  69  70
ATOM     70  C   UNL A   1      32.356  29.963  25.713  1.00  0.00     0.116 C 
BRANCH  70  71
ATOM     71  N   UNL A   1      33.100  29.552  24.532  1.00  0.00    -0.352 N 
ATOM     72  C   UNL A   1      32.640  28.959  23.378  1.00  0.00     0.253 C 
ATOM     73  H   UNL A   1      34.070  29.723  24.562  1.00  0.00     0.163 HD
ATOM     74  O   UNL A   1      33.412  28.735  22.454  1.00  0.00    -0.269 OA
BRANCH  72  75
ATOM     75  C   UNL A   1      31.205  28.616  23.279  1.00  0.00     0.066 A 
ATOM     76  C   UNL A   1      30.366  29.611  22.733  1.00  0.00     0.016 A 
ATOM     77  C   UNL A   1      30.706  27.355  23.668  1.00  0.00     0.086 A 
ATOM     78  C   UNL A   1      28.992  29.421  22.676  1.00  0.00     0.004 A 
ATOM     79  C   UNL A   1      29.307  27.205  23.580  1.00  0.00     0.147 A 
ATOM     80  C   UNL A   1      28.460  28.219  23.120  1.00  0.00     0.041 A 
ATOM     81  F   UNL A   1      28.731  26.059  23.979  1.00  0.00    -0.205 F 
BRANCH  77  82
ATOM     82  N   UNL A   1      31.512  26.305  24.078  1.00  0.00    -0.365 N 
ATOM     83  C   UNL A   1      31.886  26.163  25.504  1.00  0.00     0.138 C 
ATOM     84  C   UNL A   1      32.260  25.464  23.124  1.00  0.00     0.143 C 
ATOM     85  C   UNL A   1      31.928  24.680  25.948  1.00  0.00     0.143 C 
ATOM     86  C   UNL A   1      32.118  23.998  23.542  1.00  0.00     0.125 C 
ATOM     87  N   UNL A   1      32.486  23.806  24.935  1.00  0.00    -0.317 N 
ATOM     88  C   UNL A   1      33.011  22.994  22.827  1.00  0.00     0.144 C 
ATOM     89  C   UNL A   1      33.028  22.548  25.124  1.00  0.00     0.317 C 
ATOM     90  N   UNL A   1      33.291  22.026  23.862  1.00  0.00    -0.336 N 
ATOM     91  O   UNL A   1      33.243  21.983  26.182  1.00  0.00    -0.249 OA
ATOM     92  H   UNL A   1      33.625  21.115  23.696  1.00  0.00     0.165 HD
ENDBRANCH  77  82
ENDBRANCH  72  75
ENDBRANCH  70  71
ENDBRANCH  69  70
ENDBRANCH  68  69
ENDBRANCH   1  68
TORSDOF 15
ENDMDL
MODEL 3
REMARK VINA RESULT:     -10.9      4.659      9.825
REMARK SMILES O=C(NCCCCNC(=O)c1cccc(F)c1N1CCN2C(=O)NC[C@@H]2C1)c1ccc(-c2c3nc(c(-c4ccc(S(=O)(=O)[O-])cc4)c4ccc([nH]4)c(-c4ccc(S(=O)(=O)[O-])cc4)c4nc(c(-c5ccc(S(=O)(=O)[O-])cc5)c5ccc2[nH]5)C=C4)C=C3)cc1
REMARK SMILES IDX 4 1 3 2 1 3 2 4 28 6 29 7 87 8 30 9 86 10 31 11 32 12 33 13
REMARK SMILES IDX 80 14 34 15 85 16 79 17 81 18 35 19 84 20 78 21 77 22 36 24
REMARK SMILES IDX 66 25 47 26 65 27 48 28 51 29 64 30 82 31 49 32 50 33 63 35
REMARK SMILES IDX 83 36 52 37 37 38 38 39 46 40 39 41 45 42 40 43 41 44 42 45
REMARK SMILES IDX 43 46 44 47 67 48 68 49 76 50 69 51 75 52 70 53 71 54 72 55
REMARK SMILES IDX 73 56 74 57 53 58 54 59 62 60 55 61 61 62 56 63 57 64 58 65
REMARK SMILES IDX 59 66 60 67 5 68 6 69 7 70 8 71 9 72 10 74 11 75 12 76 17 77
REMARK SMILES IDX 13 78 15 79 14 80 16 81 18 82 19 83 27 84 20 85 26 86 21 87
REMARK SMILES IDX 25 88 22 89 24 90 23 91
REMARK H PARENT 3 5 81 23 51 34 8 73 24 92
REMARK Flexibility Score: inf
ROOT
ATOM      1  C   UNL A   1      33.549  31.829  27.263  1.00  0.00     0.116 C 
ENDROOT
BRANCH   1   2
ATOM      2  N   UNL A   1      33.074  33.176  27.554  1.00  0.00    -0.352 N 
ATOM      3  O   UNL A   1      32.904  35.107  28.719  1.00  0.00    -0.269 OA
ATOM      4  C   UNL A   1      33.485  34.040  28.547  1.00  0.00     0.251 C 
ATOM      5  H   UNL A   1      32.364  33.514  26.961  1.00  0.00     0.163 HD
BRANCH   4   6
ATOM      6  C   UNL A   1      34.608  33.644  29.424  1.00  0.00     0.039 A 
ATOM      7  C   UNL A   1      35.882  34.157  29.187  1.00  0.00     0.014 A 
ATOM      8  C   UNL A   1      34.406  32.703  30.437  1.00  0.00     0.014 A 
ATOM      9  C   UNL A   1      36.976  33.575  29.806  1.00  0.00     0.010 A 
ATOM     10  C   UNL A   1      35.502  32.218  31.161  1.00  0.00     0.010 A 
ATOM     11  C   UNL A   1      36.803  32.620  30.825  1.00  0.00    -0.014 A 
BRANCH  11  12
ATOM     12  C   UNL A   1      38.009  32.153  31.558  1.00  0.00     0.031 A 
ATOM     13  C   UNL A   1      38.364  32.664  32.927  1.00  0.00     0.074 A 
ATOM     14  C   UNL A   1      38.749  31.180  30.986  1.00  0.00     0.049 A 
ATOM     15  N   UNL A   1      39.338  32.279  33.716  1.00  0.00    -0.248 NA
ATOM     16  C   UNL A   1      37.537  33.745  33.487  1.00  0.00     0.031 C 
ATOM     17  C   UNL A   1      38.510  30.617  29.650  1.00  0.00     0.029 A 
ATOM     18  N   UNL A   1      39.814  30.460  31.458  1.00  0.00    -0.354 N 
ATOM     19  C   UNL A   1      39.247  33.070  34.857  1.00  0.00     0.074 A 
ATOM     20  C   UNL A   1      38.143  33.982  34.645  1.00  0.00     0.031 C 
ATOM     21  C   UNL A   1      39.346  29.592  29.446  1.00  0.00     0.029 A 
ATOM     22  C   UNL A   1      40.242  29.482  30.589  1.00  0.00     0.049 A 
ATOM     23  H   UNL A   1      40.233  30.624  32.334  1.00  0.00     0.167 HD
ATOM     24  C   UNL A   1      40.008  33.030  35.978  1.00  0.00     0.031 A 
ATOM     25  C   UNL A   1      41.259  28.606  30.680  1.00  0.00     0.031 A 
ATOM     26  C   UNL A   1      41.115  32.124  36.174  1.00  0.00     0.049 A 
ATOM     27  C   UNL A   1      42.103  28.612  31.920  1.00  0.00     0.074 A 
ATOM     28  C   UNL A   1      41.942  32.004  37.278  1.00  0.00     0.029 A 
ATOM     29  N   UNL A   1      41.549  31.185  35.250  1.00  0.00    -0.354 N 
ATOM     30  N   UNL A   1      41.981  29.353  32.994  1.00  0.00    -0.248 NA
ATOM     31  C   UNL A   1      43.220  27.662  31.959  1.00  0.00     0.031 C 
ATOM     32  C   UNL A   1      42.910  31.033  36.999  1.00  0.00     0.029 A 
ATOM     33  C   UNL A   1      42.644  30.498  35.749  1.00  0.00     0.049 A 
ATOM     34  H   UNL A   1      41.138  31.028  34.369  1.00  0.00     0.167 HD
ATOM     35  C   UNL A   1      43.004  28.952  33.844  1.00  0.00     0.074 A 
ATOM     36  C   UNL A   1      43.704  27.874  33.173  1.00  0.00     0.031 C 
ATOM     37  C   UNL A   1      43.341  29.438  35.064  1.00  0.00     0.031 A 
BRANCH  24  38
ATOM     38  C   UNL A   1      39.686  34.001  37.087  1.00  0.00    -0.014 A 
ATOM     39  C   UNL A   1      38.965  33.592  38.224  1.00  0.00     0.010 A 
ATOM     40  C   UNL A   1      40.183  35.317  37.035  1.00  0.00     0.010 A 
ATOM     41  C   UNL A   1      38.728  34.484  39.274  1.00  0.00     0.020 A 
ATOM     42  C   UNL A   1      39.971  36.205  38.095  1.00  0.00     0.020 A 
ATOM     43  C   UNL A   1      39.235  35.785  39.204  1.00  0.00     0.054 A 
BRANCH  43  44
ATOM     44  S   UNL A   1      38.949  36.905  40.603  1.00  0.00     0.124 S 
ATOM     45  O   UNL A   1      40.312  37.270  40.980  1.00  0.00    -0.237 OA
ATOM     46  O   UNL A   1      38.157  37.974  39.998  1.00  0.00    -0.237 OA
ATOM     47  O   UNL A   1      38.236  36.077  41.573  1.00  0.00    -0.744 OA
ENDBRANCH  43  44
ENDBRANCH  24  38
BRANCH  25  48
ATOM     48  C   UNL A   1      41.557  27.697  29.542  1.00  0.00    -0.014 A 
ATOM     49  C   UNL A   1      42.588  27.983  28.630  1.00  0.00     0.010 A 
ATOM     50  C   UNL A   1      40.798  26.523  29.367  1.00  0.00     0.010 A 
ATOM     51  C   UNL A   1      42.830  27.132  27.548  1.00  0.00     0.020 A 
ATOM     52  C   UNL A   1      41.063  25.650  28.313  1.00  0.00     0.020 A 
ATOM     53  C   UNL A   1      42.065  25.970  27.397  1.00  0.00     0.054 A 
BRANCH  53  54
ATOM     54  S   UNL A   1      42.408  24.868  25.999  1.00  0.00     0.124 S 
ATOM     55  O   UNL A   1      42.206  25.756  24.859  1.00  0.00    -0.237 OA
ATOM     56  O   UNL A   1      43.788  24.460  26.250  1.00  0.00    -0.237 OA
ATOM     57  O   UNL A   1      41.415  23.806  26.151  1.00  0.00    -0.744 OA
ENDBRANCH  53  54
ENDBRANCH  25  48
BRANCH  37  58
ATOM     58  C   UNL A   1      44.508  28.784  35.754  1.00  0.00    -0.014 A 
ATOM     59  C   UNL A   1      45.830  29.187  35.492  1.00  0.00     0.010 A 
ATOM     60  C   UNL A   1      44.279  27.750  36.680  1.00  0.00     0.010 A 
ATOM     61  C   UNL A   1      46.904  28.530  36.097  1.00  0.00     0.020 A 
ATOM     62  C   UNL A   1      45.348  27.114  37.316  1.00  0.00     0.020 A 
ATOM     63  C   UNL A   1      46.654  27.493  37.003  1.00  0.00     0.054 A 
BRANCH  63  64
ATOM     64  S   UNL A   1      48.064  26.658  37.780  1.00  0.00     0.124 S 
ATOM     65  O   UNL A   1      49.053  27.730  37.846  1.00  0.00    -0.237 OA
ATOM     66  O   UNL A   1      47.513  26.230  39.064  1.00  0.00    -0.237 OA
ATOM     67  O   UNL A   1      48.380  25.575  36.851  1.00  0.00    -0.744 OA
ENDBRANCH  63  64
ENDBRANCH  37  58
ENDBRANCH  11  12
ENDBRANCH   4   6
ENDBRANCH   1   2
BRANCH   1  68
ATOM     68  C   UNL A   1      32.436  30.841  26.952  1.00  0.00     0.023 C 
BRANCH  68  69
ATOM     69  C   UNL A   1      32.784  29.780  25.918  1.00  0.00     0.023 C 
BRANCH  69  70
ATOM     70  C   UNL A   1      33.239  28.443  26.489  1.00  0.00     0.116 C 
BRANCH  70  71
ATOM     71  N   UNL A   1      32.142  27.566  26.866  1.00  0.00    -0.352 N 
ATOM     72  C   UNL A   1      31.836  26.308  26.398  1.00  0.00     0.253 C 
ATOM     73  H   UNL A   1      31.531  27.922  27.552  1.00  0.00     0.163 HD
ATOM     74  O   UNL A   1      30.895  25.686  26.879  1.00  0.00    -0.269 OA
BRANCH  72  75
ATOM     75  C   UNL A   1      32.669  25.725  25.324  1.00  0.00     0.066 A 
ATOM     76  C   UNL A   1      33.797  24.990  25.745  1.00  0.00     0.016 A 
ATOM     77  C   UNL A   1      32.337  25.862  23.960  1.00  0.00     0.086 A 
ATOM     78  C   UNL A   1      34.692  24.476  24.815  1.00  0.00     0.004 A 
ATOM     79  C   UNL A   1      33.268  25.313  23.054  1.00  0.00     0.147 A 
ATOM     80  C   UNL A   1      34.434  24.657  23.464  1.00  0.00     0.041 A 
ATOM     81  F   UNL A   1      33.068  25.439  21.732  1.00  0.00    -0.205 F 
BRANCH  77  82
ATOM     82  N   UNL A   1      31.168  26.456  23.511  1.00  0.00    -0.365 N 
ATOM     83  C   UNL A   1      29.900  25.691  23.497  1.00  0.00     0.138 C 
ATOM     84  C   UNL A   1      31.164  27.733  22.774  1.00  0.00     0.143 C 
ATOM     85  C   UNL A   1      28.685  26.574  23.875  1.00  0.00     0.143 C 
ATOM     86  C   UNL A   1      30.035  28.612  23.317  1.00  0.00     0.125 C 
ATOM     87  N   UNL A   1      28.764  27.908  23.313  1.00  0.00    -0.317 N 
ATOM     88  C   UNL A   1      29.711  29.874  22.530  1.00  0.00     0.144 C 
ATOM     89  C   UNL A   1      27.720  28.792  23.112  1.00  0.00     0.317 C 
ATOM     90  N   UNL A   1      28.282  29.995  22.699  1.00  0.00    -0.336 N 
ATOM     91  O   UNL A   1      26.529  28.581  23.261  1.00  0.00    -0.249 OA
ATOM     92  H   UNL A   1      27.771  30.822  22.542  1.00  0.00     0.165 HD
ENDBRANCH  77  82
ENDBRANCH  72  75
ENDBRANCH  70  71
ENDBRANCH  69  70
ENDBRANCH  68  69
ENDBRANCH   1  68
TORSDOF 15
ENDMDL
