MODEL 1
REMARK VINA RESULT:     -11.0      0.000      0.000
REMARK SMILES O=C(NCCCCNC(=O)c1cc(-c2ccsc2)nc2ccccc12)c1ccc(-c2c3nc(c(-c4ccc(S(=O)(=O)[O-])cc4)c4ccc([nH]4)c(-c4ccc(S(=O)(=O)[O-])cc4)c4nc(c(-c5ccc(S(=O)(=O)[O-])cc5)c5ccc2[nH]5)C=C4)C=C3)cc1
REMARK SMILES IDX 4 1 3 2 1 3 2 4 26 6 27 7 85 8 28 9 84 10 29 11 30 12 31 13
REMARK SMILES IDX 78 14 32 15 83 16 77 17 79 18 33 19 82 20 76 21 75 22 34 24
REMARK SMILES IDX 64 25 45 26 63 27 46 28 49 29 62 30 80 31 47 32 48 33 61 35
REMARK SMILES IDX 81 36 50 37 35 38 36 39 44 40 37 41 43 42 38 43 39 44 40 45
REMARK SMILES IDX 41 46 42 47 65 48 66 49 74 50 67 51 73 52 68 53 69 54 70 55
REMARK SMILES IDX 71 56 72 57 51 58 52 59 60 60 53 61 59 62 54 63 55 64 56 65
REMARK SMILES IDX 57 66 58 67 5 68 6 69 7 70 8 71 9 72 10 74 11 75 12 76 25 77
REMARK SMILES IDX 13 78 20 79 24 80 19 81 21 82 23 83 22 84 14 85 15 86 18 87
REMARK SMILES IDX 16 88 17 89
REMARK H PARENT 3 5 79 23 49 34 8 73
REMARK Flexibility Score: inf
ROOT
ATOM      1  C   UNL A   1      33.764  27.764  26.761  1.00  0.00     0.116 C 
ENDROOT
BRANCH   1   2
ATOM      2  N   UNL A   1      33.389  29.151  26.991  1.00  0.00    -0.352 N 
ATOM      3  O   UNL A   1      33.572  31.242  27.816  1.00  0.00    -0.269 OA
ATOM      4  C   UNL A   1      34.109  30.162  27.586  1.00  0.00     0.251 C 
ATOM      5  H   UNL A   1      32.491  29.403  26.676  1.00  0.00     0.163 HD
BRANCH   4   6
ATOM      6  C   UNL A   1      35.520  29.936  27.974  1.00  0.00     0.039 A 
ATOM      7  C   UNL A   1      36.551  30.130  27.053  1.00  0.00     0.014 A 
ATOM      8  C   UNL A   1      35.815  29.521  29.276  1.00  0.00     0.014 A 
ATOM      9  C   UNL A   1      37.850  29.761  27.383  1.00  0.00     0.010 A 
ATOM     10  C   UNL A   1      37.137  29.234  29.633  1.00  0.00     0.010 A 
ATOM     11  C   UNL A   1      38.162  29.319  28.680  1.00  0.00    -0.014 A 
BRANCH  11  12
ATOM     12  C   UNL A   1      39.577  29.021  29.018  1.00  0.00     0.031 A 
ATOM     13  C   UNL A   1      40.211  27.703  28.660  1.00  0.00     0.074 A 
ATOM     14  C   UNL A   1      40.311  29.984  29.613  1.00  0.00     0.049 A 
ATOM     15  N   UNL A   1      41.450  27.318  28.834  1.00  0.00    -0.248 NA
ATOM     16  C   UNL A   1      39.351  26.688  28.033  1.00  0.00     0.031 C 
ATOM     17  C   UNL A   1      39.802  31.298  30.020  1.00  0.00     0.029 A 
ATOM     18  N   UNL A   1      41.638  30.024  29.951  1.00  0.00    -0.354 N 
ATOM     19  C   UNL A   1      41.517  26.014  28.354  1.00  0.00     0.074 A 
ATOM     20  C   UNL A   1      40.187  25.666  27.900  1.00  0.00     0.031 C 
ATOM     21  C   UNL A   1      40.817  32.034  30.498  1.00  0.00     0.029 A 
ATOM     22  C   UNL A   1      42.031  31.227  30.487  1.00  0.00     0.049 A 
ATOM     23  H   UNL A   1      42.250  29.263  29.824  1.00  0.00     0.167 HD
ATOM     24  C   UNL A   1      42.589  25.187  28.294  1.00  0.00     0.031 A 
ATOM     25  C   UNL A   1      43.233  31.640  30.931  1.00  0.00     0.031 A 
ATOM     26  C   UNL A   1      43.913  25.538  28.743  1.00  0.00     0.049 A 
ATOM     27  C   UNL A   1      44.399  30.698  30.860  1.00  0.00     0.074 A 
ATOM     28  C   UNL A   1      45.066  24.772  28.703  1.00  0.00     0.029 A 
ATOM     29  N   UNL A   1      44.261  26.753  29.312  1.00  0.00    -0.354 N 
ATOM     30  N   UNL A   1      44.441  29.478  30.382  1.00  0.00    -0.248 NA
ATOM     31  C   UNL A   1      45.677  31.190  31.389  1.00  0.00     0.031 C 
ATOM     32  C   UNL A   1      46.103  25.510  29.285  1.00  0.00     0.029 A 
ATOM     33  C   UNL A   1      45.606  26.752  29.646  1.00  0.00     0.049 A 
ATOM     34  H   UNL A   1      43.644  27.506  29.458  1.00  0.00     0.167 HD
ATOM     35  C   UNL A   1      45.752  29.054  30.553  1.00  0.00     0.074 A 
ATOM     36  C   UNL A   1      46.477  30.160  31.146  1.00  0.00     0.031 C 
ATOM     37  C   UNL A   1      46.306  27.855  30.251  1.00  0.00     0.031 A 
BRANCH  24  38
ATOM     38  C   UNL A   1      42.378  23.805  27.735  1.00  0.00    -0.014 A 
ATOM     39  C   UNL A   1      42.606  23.530  26.374  1.00  0.00     0.010 A 
ATOM     40  C   UNL A   1      42.020  22.750  28.595  1.00  0.00     0.010 A 
ATOM     41  C   UNL A   1      42.454  22.231  25.880  1.00  0.00     0.020 A 
ATOM     42  C   UNL A   1      41.886  21.446  28.107  1.00  0.00     0.020 A 
ATOM     43  C   UNL A   1      42.093  21.197  26.749  1.00  0.00     0.054 A 
BRANCH  43  44
ATOM     44  S   UNL A   1      41.938  19.514  26.088  1.00  0.00     0.124 S 
ATOM     45  O   UNL A   1      42.463  18.710  27.187  1.00  0.00    -0.237 OA
ATOM     46  O   UNL A   1      40.502  19.392  25.852  1.00  0.00    -0.237 OA
ATOM     47  O   UNL A   1      42.764  19.537  24.883  1.00  0.00    -0.744 OA
ENDBRANCH  43  44
ENDBRANCH  24  38
BRANCH  25  48
ATOM     48  C   UNL A   1      43.380  33.005  31.500  1.00  0.00    -0.014 A 
ATOM     49  C   UNL A   1      43.208  33.233  32.875  1.00  0.00     0.010 A 
ATOM     50  C   UNL A   1      43.717  34.084  30.661  1.00  0.00     0.010 A 
ATOM     51  C   UNL A   1      43.355  34.520  33.401  1.00  0.00     0.020 A 
ATOM     52  C   UNL A   1      43.892  35.365  31.187  1.00  0.00     0.020 A 
ATOM     53  C   UNL A   1      43.695  35.578  32.552  1.00  0.00     0.054 A 
BRANCH  53  54
ATOM     54  S   UNL A   1      43.935  37.232  33.257  1.00  0.00     0.124 S 
ATOM     55  O   UNL A   1      43.916  38.073  32.065  1.00  0.00    -0.237 OA
ATOM     56  O   UNL A   1      42.786  37.370  34.150  1.00  0.00    -0.237 OA
ATOM     57  O   UNL A   1      45.227  37.128  33.932  1.00  0.00    -0.744 OA
ENDBRANCH  53  54
ENDBRANCH  25  48
BRANCH  37  58
ATOM     58  C   UNL A   1      47.769  27.688  30.556  1.00  0.00    -0.014 A 
ATOM     59  C   UNL A   1      48.749  28.091  29.632  1.00  0.00     0.010 A 
ATOM     60  C   UNL A   1      48.166  27.135  31.787  1.00  0.00     0.010 A 
ATOM     61  C   UNL A   1      50.104  27.904  29.916  1.00  0.00     0.020 A 
ATOM     62  C   UNL A   1      49.521  26.969  32.083  1.00  0.00     0.020 A 
ATOM     63  C   UNL A   1      50.481  27.339  31.138  1.00  0.00     0.054 A 
BRANCH  63  64
ATOM     64  S   UNL A   1      52.246  27.123  31.496  1.00  0.00     0.124 S 
ATOM     65  O   UNL A   1      52.861  27.508  30.229  1.00  0.00    -0.237 OA
ATOM     66  O   UNL A   1      52.466  28.045  32.608  1.00  0.00    -0.237 OA
ATOM     67  O   UNL A   1      52.358  25.706  31.839  1.00  0.00    -0.744 OA
ENDBRANCH  63  64
ENDBRANCH  37  58
ENDBRANCH  11  12
ENDBRANCH   4   6
ENDBRANCH   1   2
BRANCH   1  68
ATOM     68  C   UNL A   1      32.781  27.021  25.865  1.00  0.00     0.023 C 
BRANCH  68  69
ATOM     69  C   UNL A   1      32.256  25.698  26.415  1.00  0.00     0.023 C 
BRANCH  69  70
ATOM     70  C   UNL A   1      32.905  24.442  25.843  1.00  0.00     0.116 C 
BRANCH  70  71
ATOM     71  N   UNL A   1      33.201  24.538  24.421  1.00  0.00    -0.352 N 
ATOM     72  C   UNL A   1      33.946  23.683  23.648  1.00  0.00     0.252 C 
ATOM     73  H   UNL A   1      32.816  25.314  23.954  1.00  0.00     0.163 HD
ATOM     74  O   UNL A   1      34.112  23.891  22.451  1.00  0.00    -0.269 OA
BRANCH  72  75
ATOM     75  C   UNL A   1      34.618  22.537  24.283  1.00  0.00     0.051 A 
ATOM     76  C   UNL A   1      33.947  21.320  24.198  1.00  0.00     0.043 A 
ATOM     77  C   UNL A   1      35.884  22.641  24.898  1.00  0.00     0.013 A 
ATOM     78  C   UNL A   1      34.589  20.205  24.694  1.00  0.00     0.073 A 
ATOM     79  C   UNL A   1      36.464  21.431  25.320  1.00  0.00     0.072 A 
ATOM     80  C   UNL A   1      36.588  23.855  25.094  1.00  0.00     0.011 A 
ATOM     81  N   UNL A   1      35.831  20.247  25.233  1.00  0.00    -0.248 NA
ATOM     82  C   UNL A   1      37.753  21.462  25.835  1.00  0.00     0.029 A 
ATOM     83  C   UNL A   1      37.877  23.859  25.620  1.00  0.00     0.001 A 
ATOM     84  C   UNL A   1      38.469  22.655  25.975  1.00  0.00     0.002 A 
BRANCH  78  85
ATOM     85  C   UNL A   1      33.950  18.899  24.689  1.00  0.00     0.011 A 
ATOM     86  C   UNL A   1      34.257  17.808  23.815  1.00  0.00     0.022 A 
ATOM     87  C   UNL A   1      32.928  18.569  25.560  1.00  0.00     0.075 A 
ATOM     88  C   UNL A   1      33.492  16.692  24.074  1.00  0.00     0.065 A 
ATOM     89  S   UNL A   1      32.379  16.961  25.344  1.00  0.00    -0.152 S 
ENDBRANCH  78  85
ENDBRANCH  72  75
ENDBRANCH  70  71
ENDBRANCH  69  70
ENDBRANCH  68  69
ENDBRANCH   1  68
TORSDOF 15
ENDMDL
MODEL 2
REMARK VINA RESULT:     -10.9      3.566      9.518
REMARK SMILES O=C(NCCCCNC(=O)c1cc(-c2ccsc2)nc2ccccc12)c1ccc(-c2c3nc(c(-c4ccc(S(=O)(=O)[O-])cc4)c4ccc([nH]4)c(-c4ccc(S(=O)(=O)[O-])cc4)c4nc(c(-c5ccc(S(=O)(=O)[O-])cc5)c5ccc2[nH]5)C=C4)C=C3)cc1
REMARK SMILES IDX 4 1 3 2 1 3 2 4 26 6 27 7 85 8 28 9 84 10 29 11 30 12 31 13
REMARK SMILES IDX 78 14 32 15 83 16 77 17 79 18 33 19 82 20 76 21 75 22 34 24
REMARK SMILES IDX 64 25 45 26 63 27 46 28 49 29 62 30 80 31 47 32 48 33 61 35
REMARK SMILES IDX 81 36 50 37 35 38 36 39 44 40 37 41 43 42 38 43 39 44 40 45
REMARK SMILES IDX 41 46 42 47 65 48 66 49 74 50 67 51 73 52 68 53 69 54 70 55
REMARK SMILES IDX 71 56 72 57 51 58 52 59 60 60 53 61 59 62 54 63 55 64 56 65
REMARK SMILES IDX 57 66 58 67 5 68 6 69 7 70 8 71 9 72 10 74 11 75 12 76 25 77
REMARK SMILES IDX 13 78 20 79 24 80 19 81 21 82 23 83 22 84 14 85 15 86 18 87
REMARK SMILES IDX 16 88 17 89
REMARK H PARENT 3 5 79 23 49 34 8 73
REMARK Flexibility Score: inf
ROOT
ATOM      1  C   UNL A   1      35.359  29.403  27.491  1.00  0.00     0.116 C 
ENDROOT
BRANCH   1   2
ATOM      2  N   UNL A   1      35.285  29.818  28.884  1.00  0.00    -0.352 N 
ATOM      3  O   UNL A   1      36.007  30.136  30.996  1.00  0.00    -0.269 OA
ATOM      4  C   UNL A   1      36.286  29.892  29.825  1.00  0.00     0.251 C 
ATOM      5  H   UNL A   1      34.391  30.085  29.198  1.00  0.00     0.163 HD
BRANCH   4   6
ATOM      6  C   UNL A   1      37.692  29.648  29.432  1.00  0.00     0.039 A 
ATOM      7  C   UNL A   1      38.084  29.748  28.095  1.00  0.00     0.014 A 
ATOM      8  C   UNL A   1      38.630  29.311  30.412  1.00  0.00     0.014 A 
ATOM      9  C   UNL A   1      39.366  29.361  27.721  1.00  0.00     0.010 A 
ATOM     10  C   UNL A   1      39.945  29.007  30.043  1.00  0.00     0.010 A 
ATOM     11  C   UNL A   1      40.316  28.996  28.690  1.00  0.00    -0.014 A 
BRANCH  11  12
ATOM     12  C   UNL A   1      41.701  28.677  28.257  1.00  0.00     0.031 A 
ATOM     13  C   UNL A   1      42.790  29.717  28.275  1.00  0.00     0.074 A 
ATOM     14  C   UNL A   1      41.982  27.411  27.892  1.00  0.00     0.049 A 
ATOM     15  N   UNL A   1      44.059  29.577  27.985  1.00  0.00    -0.248 NA
ATOM     16  C   UNL A   1      42.412  31.085  28.662  1.00  0.00     0.031 C 
ATOM     17  C   UNL A   1      41.006  26.318  27.823  1.00  0.00     0.029 A 
ATOM     18  N   UNL A   1      43.167  26.818  27.542  1.00  0.00    -0.354 N 
ATOM     19  C   UNL A   1      44.628  30.836  28.138  1.00  0.00     0.074 A 
ATOM     20  C   UNL A   1      43.562  31.734  28.528  1.00  0.00     0.031 C 
ATOM     21  C   UNL A   1      41.641  25.179  27.511  1.00  0.00     0.029 A 
ATOM     22  C   UNL A   1      43.054  25.469  27.300  1.00  0.00     0.049 A 
ATOM     23  H   UNL A   1      44.016  27.310  27.470  1.00  0.00     0.167 HD
ATOM     24  C   UNL A   1      45.921  31.207  27.974  1.00  0.00     0.031 A 
ATOM     25  C   UNL A   1      43.980  24.561  26.939  1.00  0.00     0.031 A 
ATOM     26  C   UNL A   1      46.982  30.310  27.590  1.00  0.00     0.049 A 
ATOM     27  C   UNL A   1      45.402  25.004  26.755  1.00  0.00     0.074 A 
ATOM     28  C   UNL A   1      48.327  30.592  27.419  1.00  0.00     0.029 A 
ATOM     29  N   UNL A   1      46.820  28.960  27.320  1.00  0.00    -0.354 N 
ATOM     30  N   UNL A   1      45.919  26.197  26.927  1.00  0.00    -0.248 NA
ATOM     31  C   UNL A   1      46.363  23.979  26.329  1.00  0.00     0.031 C 
ATOM     32  C   UNL A   1      48.972  29.420  27.005  1.00  0.00     0.029 A 
ATOM     33  C   UNL A   1      48.036  28.399  26.963  1.00  0.00     0.049 A 
ATOM     34  H   UNL A   1      45.967  28.472  27.372  1.00  0.00     0.167 HD
ATOM     35  C   UNL A   1      47.269  26.065  26.629  1.00  0.00     0.074 A 
ATOM     36  C   UNL A   1      47.493  24.672  26.300  1.00  0.00     0.031 C 
ATOM     37  C   UNL A   1      48.237  27.014  26.623  1.00  0.00     0.031 A 
BRANCH  24  38
ATOM     38  C   UNL A   1      46.269  32.656  28.192  1.00  0.00    -0.014 A 
ATOM     39  C   UNL A   1      46.627  33.132  29.466  1.00  0.00     0.010 A 
ATOM     40  C   UNL A   1      46.311  33.537  27.095  1.00  0.00     0.010 A 
ATOM     41  C   UNL A   1      46.995  34.471  29.643  1.00  0.00     0.020 A 
ATOM     42  C   UNL A   1      46.697  34.871  27.266  1.00  0.00     0.020 A 
ATOM     43  C   UNL A   1      47.026  35.331  28.542  1.00  0.00     0.054 A 
BRANCH  43  44
ATOM     44  S   UNL A   1      47.543  37.053  28.795  1.00  0.00     0.124 S 
ATOM     45  O   UNL A   1      48.210  37.355  27.531  1.00  0.00    -0.237 OA
ATOM     46  O   UNL A   1      46.273  37.741  29.014  1.00  0.00    -0.237 OA
ATOM     47  O   UNL A   1      48.420  36.985  29.962  1.00  0.00    -0.744 OA
ENDBRANCH  43  44
ENDBRANCH  24  38
BRANCH  25  48
ATOM     48  C   UNL A   1      43.579  23.150  26.709  1.00  0.00    -0.014 A 
ATOM     49  C   UNL A   1      43.757  22.547  25.453  1.00  0.00     0.010 A 
ATOM     50  C   UNL A   1      43.033  22.393  27.763  1.00  0.00     0.010 A 
ATOM     51  C   UNL A   1      43.382  21.215  25.249  1.00  0.00     0.020 A 
ATOM     52  C   UNL A   1      42.683  21.055  27.570  1.00  0.00     0.020 A 
ATOM     53  C   UNL A   1      42.846  20.479  26.310  1.00  0.00     0.054 A 
BRANCH  53  54
ATOM     54  S   UNL A   1      42.414  18.737  26.045  1.00  0.00     0.124 S 
ATOM     55  O   UNL A   1      42.705  18.153  27.349  1.00  0.00    -0.237 OA
ATOM     56  O   UNL A   1      40.999  18.809  25.683  1.00  0.00    -0.237 OA
ATOM     57  O   UNL A   1      43.304  18.329  24.960  1.00  0.00    -0.744 OA
ENDBRANCH  53  54
ENDBRANCH  25  48
BRANCH  37  58
ATOM     58  C   UNL A   1      49.624  26.567  26.252  1.00  0.00    -0.014 A 
ATOM     59  C   UNL A   1      50.121  26.764  24.952  1.00  0.00     0.010 A 
ATOM     60  C   UNL A   1      50.442  25.957  27.219  1.00  0.00     0.010 A 
ATOM     61  C   UNL A   1      51.401  26.319  24.613  1.00  0.00     0.020 A 
ATOM     62  C   UNL A   1      51.731  25.532  26.889  1.00  0.00     0.020 A 
ATOM     63  C   UNL A   1      52.196  25.700  25.582  1.00  0.00     0.054 A 
BRANCH  63  64
ATOM     64  S   UNL A   1      53.862  25.147  25.127  1.00  0.00     0.124 S 
ATOM     65  O   UNL A   1      54.086  25.863  23.874  1.00  0.00    -0.237 OA
ATOM     66  O   UNL A   1      54.671  25.591  26.259  1.00  0.00    -0.237 OA
ATOM     67  O   UNL A   1      53.721  23.697  25.000  1.00  0.00    -0.744 OA
ENDBRANCH  63  64
ENDBRANCH  37  58
ENDBRANCH  11  12
ENDBRANCH   4   6
ENDBRANCH   1   2
BRANCH   1  68
ATOM     68  C   UNL A   1      34.075  28.747  26.996  1.00  0.00     0.023 C 
BRANCH  68  69
ATOM     69  C   UNL A   1      32.797  29.556  27.206  1.00  0.00     0.023 C 
BRANCH  69  70
ATOM     70  C   UNL A   1      32.130  30.075  25.937  1.00  0.00     0.116 C 
BRANCH  70  71
ATOM     71  N   UNL A   1      32.926  29.869  24.736  1.00  0.00    -0.352 N 
ATOM     72  C   UNL A   1      32.746  28.936  23.745  1.00  0.00     0.252 C 
ATOM     73  H   UNL A   1      33.691  30.478  24.618  1.00  0.00     0.163 HD
ATOM     74  O   UNL A   1      33.502  28.880  22.781  1.00  0.00    -0.269 OA
BRANCH  72  75
ATOM     75  C   UNL A   1      31.670  27.941  23.880  1.00  0.00     0.051 A 
ATOM     76  C   UNL A   1      32.030  26.740  24.485  1.00  0.00     0.043 A 
ATOM     77  C   UNL A   1      30.342  28.194  23.473  1.00  0.00     0.013 A 
ATOM     78  C   UNL A   1      31.028  25.822  24.718  1.00  0.00     0.073 A 
ATOM     79  C   UNL A   1      29.397  27.209  23.810  1.00  0.00     0.072 A 
ATOM     80  C   UNL A   1      29.919  29.356  22.780  1.00  0.00     0.011 A 
ATOM     81  N   UNL A   1      29.730  26.049  24.405  1.00  0.00    -0.248 NA
ATOM     82  C   UNL A   1      28.059  27.454  23.529  1.00  0.00     0.029 A 
ATOM     83  C   UNL A   1      28.572  29.574  22.504  1.00  0.00     0.001 A 
ATOM     84  C   UNL A   1      27.636  28.627  22.896  1.00  0.00     0.002 A 
BRANCH  78  85
ATOM     85  C   UNL A   1      31.314  24.522  25.305  1.00  0.00     0.011 A 
ATOM     86  C   UNL A   1      31.095  23.247  24.692  1.00  0.00     0.022 A 
ATOM     87  C   UNL A   1      31.842  24.381  26.576  1.00  0.00     0.075 A 
ATOM     88  C   UNL A   1      31.492  22.201  25.494  1.00  0.00     0.065 A 
ATOM     89  S   UNL A   1      32.096  22.741  27.000  1.00  0.00    -0.152 S 
ENDBRANCH  78  85
ENDBRANCH  72  75
ENDBRANCH  70  71
ENDBRANCH  69  70
ENDBRANCH  68  69
ENDBRANCH   1  68
TORSDOF 15
ENDMDL
MODEL 3
REMARK VINA RESULT:     -10.9      3.180      8.590
REMARK SMILES O=C(NCCCCNC(=O)c1cc(-c2ccsc2)nc2ccccc12)c1ccc(-c2c3nc(c(-c4ccc(S(=O)(=O)[O-])cc4)c4ccc([nH]4)c(-c4ccc(S(=O)(=O)[O-])cc4)c4nc(c(-c5ccc(S(=O)(=O)[O-])cc5)c5ccc2[nH]5)C=C4)C=C3)cc1
REMARK SMILES IDX 4 1 3 2 1 3 2 4 26 6 27 7 85 8 28 9 84 10 29 11 30 12 31 13
REMARK SMILES IDX 78 14 32 15 83 16 77 17 79 18 33 19 82 20 76 21 75 22 34 24
REMARK SMILES IDX 64 25 45 26 63 27 46 28 49 29 62 30 80 31 47 32 48 33 61 35
REMARK SMILES IDX 81 36 50 37 35 38 36 39 44 40 37 41 43 42 38 43 39 44 40 45
REMARK SMILES IDX 41 46 42 47 65 48 66 49 74 50 67 51 73 52 68 53 69 54 70 55
REMARK SMILES IDX 71 56 72 57 51 58 52 59 60 60 53 61 59 62 54 63 55 64 56 65
REMARK SMILES IDX 57 66 58 67 5 68 6 69 7 70 8 71 9 72 10 74 11 75 12 76 25 77
REMARK SMILES IDX 13 78 20 79 24 80 19 81 21 82 23 83 22 84 14 85 15 86 18 87
REMARK SMILES IDX 16 88 17 89
REMARK H PARENT 3 5 79 23 49 34 8 73
REMARK Flexibility Score: inf
ROOT
ATOM      1  C   UNL A   1      36.357  24.156  25.135  1.00  0.00     0.116 C 
ENDROOT
BRANCH   1   2
ATOM      2  N   UNL A   1      37.217  22.990  25.262  1.00  0.00    -0.352 N 
ATOM      3  O   UNL A   1      39.093  21.836  25.748  1.00  0.00    -0.269 OA
ATOM      4  C   UNL A   1      38.452  22.878  25.859  1.00  0.00     0.251 C 
ATOM      5  H   UNL A   1      36.864  22.161  24.866  1.00  0.00     0.163 HD
BRANCH   4   6
ATOM      6  C   UNL A   1      39.018  24.023  26.607  1.00  0.00     0.039 A 
ATOM      7  C   UNL A   1      38.759  24.181  27.971  1.00  0.00     0.014 A 
ATOM      8  C   UNL A   1      39.817  24.954  25.936  1.00  0.00     0.014 A 
ATOM      9  C   UNL A   1      39.163  25.341  28.620  1.00  0.00     0.010 A 
ATOM     10  C   UNL A   1      40.297  26.079  26.615  1.00  0.00     0.010 A 
ATOM     11  C   UNL A   1      39.946  26.299  27.955  1.00  0.00    -0.014 A 
BRANCH  11  12
ATOM     12  C   UNL A   1      40.434  27.482  28.710  1.00  0.00     0.031 A 
ATOM     13  C   UNL A   1      41.838  27.545  29.252  1.00  0.00     0.074 A 
ATOM     14  C   UNL A   1      39.604  28.533  28.861  1.00  0.00     0.049 A 
ATOM     15  N   UNL A   1      42.429  28.531  29.878  1.00  0.00    -0.248 NA
ATOM     16  C   UNL A   1      42.685  26.356  29.074  1.00  0.00     0.031 C 
ATOM     17  C   UNL A   1      38.216  28.584  28.390  1.00  0.00     0.029 A 
ATOM     18  N   UNL A   1      39.809  29.768  29.419  1.00  0.00    -0.354 N 
ATOM     19  C   UNL A   1      43.708  28.079  30.183  1.00  0.00     0.074 A 
ATOM     20  C   UNL A   1      43.802  26.722  29.690  1.00  0.00     0.031 C 
ATOM     21  C   UNL A   1      37.715  29.805  28.627  1.00  0.00     0.029 A 
ATOM     22  C   UNL A   1      38.721  30.602  29.317  1.00  0.00     0.049 A 
ATOM     23  H   UNL A   1      40.653  30.031  29.852  1.00  0.00     0.167 HD
ATOM     24  C   UNL A   1      44.712  28.739  30.811  1.00  0.00     0.031 A 
ATOM     25  C   UNL A   1      38.543  31.868  29.739  1.00  0.00     0.031 A 
ATOM     26  C   UNL A   1      44.618  30.092  31.296  1.00  0.00     0.049 A 
ATOM     27  C   UNL A   1      39.670  32.569  30.439  1.00  0.00     0.074 A 
ATOM     28  C   UNL A   1      45.590  30.850  31.927  1.00  0.00     0.029 A 
ATOM     29  N   UNL A   1      43.488  30.890  31.206  1.00  0.00    -0.354 N 
ATOM     30  N   UNL A   1      40.877  32.127  30.696  1.00  0.00    -0.248 NA
ATOM     31  C   UNL A   1      39.408  33.936  30.907  1.00  0.00     0.031 C 
ATOM     32  C   UNL A   1      45.035  32.093  32.255  1.00  0.00     0.029 A 
ATOM     33  C   UNL A   1      43.731  32.124  31.786  1.00  0.00     0.049 A 
ATOM     34  H   UNL A   1      42.637  30.619  30.791  1.00  0.00     0.167 HD
ATOM     35  C   UNL A   1      41.523  33.165  31.357  1.00  0.00     0.074 A 
ATOM     36  C   UNL A   1      40.582  34.265  31.429  1.00  0.00     0.031 C 
ATOM     37  C   UNL A   1      42.779  33.202  31.864  1.00  0.00     0.031 A 
BRANCH  24  38
ATOM     38  C   UNL A   1      46.008  28.001  31.028  1.00  0.00    -0.014 A 
ATOM     39  C   UNL A   1      47.069  28.114  30.113  1.00  0.00     0.010 A 
ATOM     40  C   UNL A   1      46.193  27.246  32.202  1.00  0.00     0.010 A 
ATOM     41  C   UNL A   1      48.283  27.462  30.354  1.00  0.00     0.020 A 
ATOM     42  C   UNL A   1      47.412  26.609  32.455  1.00  0.00     0.020 A 
ATOM     43  C   UNL A   1      48.446  26.713  31.522  1.00  0.00     0.054 A 
BRANCH  43  44
ATOM     44  S   UNL A   1      50.044  25.908  31.827  1.00  0.00     0.124 S 
ATOM     45  O   UNL A   1      49.731  25.034  32.954  1.00  0.00    -0.237 OA
ATOM     46  O   UNL A   1      50.309  25.229  30.562  1.00  0.00    -0.237 OA
ATOM     47  O   UNL A   1      50.941  27.021  32.133  1.00  0.00    -0.744 OA
ENDBRANCH  43  44
ENDBRANCH  24  38
BRANCH  25  48
ATOM     48  C   UNL A   1      37.236  32.541  29.524  1.00  0.00    -0.014 A 
ATOM     49  C   UNL A   1      36.220  32.464  30.491  1.00  0.00     0.010 A 
ATOM     50  C   UNL A   1      37.011  33.282  28.349  1.00  0.00     0.010 A 
ATOM     51  C   UNL A   1      34.996  33.106  30.282  1.00  0.00     0.020 A 
ATOM     52  C   UNL A   1      35.800  33.947  28.149  1.00  0.00     0.020 A 
ATOM     53  C   UNL A   1      34.794  33.842  29.111  1.00  0.00     0.054 A 
BRANCH  53  54
ATOM     54  S   UNL A   1      33.219  34.713  28.877  1.00  0.00     0.124 S 
ATOM     55  O   UNL A   1      32.658  34.688  30.223  1.00  0.00    -0.237 OA
ATOM     56  O   UNL A   1      33.647  36.025  28.393  1.00  0.00    -0.237 OA
ATOM     57  O   UNL A   1      32.522  33.893  27.889  1.00  0.00    -0.744 OA
ENDBRANCH  53  54
ENDBRANCH  25  48
BRANCH  37  58
ATOM     58  C   UNL A   1      43.202  34.479  32.535  1.00  0.00    -0.014 A 
ATOM     59  C   UNL A   1      43.015  34.664  33.916  1.00  0.00     0.010 A 
ATOM     60  C   UNL A   1      43.808  35.497  31.777  1.00  0.00     0.010 A 
ATOM     61  C   UNL A   1      43.388  35.866  34.522  1.00  0.00     0.020 A 
ATOM     62  C   UNL A   1      44.203  36.691  32.386  1.00  0.00     0.020 A 
ATOM     63  C   UNL A   1      43.974  36.875  33.752  1.00  0.00     0.054 A 
BRANCH  63  64
ATOM     64  S   UNL A   1      44.468  38.421  34.561  1.00  0.00     0.124 S 
ATOM     65  O   UNL A   1      45.901  38.463  34.281  1.00  0.00    -0.237 OA
ATOM     66  O   UNL A   1      43.662  39.422  33.867  1.00  0.00    -0.237 OA
ATOM     67  O   UNL A   1      44.112  38.206  35.962  1.00  0.00    -0.744 OA
ENDBRANCH  63  64
ENDBRANCH  37  58
ENDBRANCH  11  12
ENDBRANCH   4   6
ENDBRANCH   1   2
BRANCH   1  68
ATOM     68  C   UNL A   1      34.941  23.808  24.693  1.00  0.00     0.023 C 
BRANCH  68  69
ATOM     69  C   UNL A   1      34.388  24.634  23.534  1.00  0.00     0.023 C 
BRANCH  69  70
ATOM     70  C   UNL A   1      33.409  25.738  23.920  1.00  0.00     0.116 C 
BRANCH  70  71
ATOM     71  N   UNL A   1      32.528  25.374  25.021  1.00  0.00    -0.352 N 
ATOM     72  C   UNL A   1      31.709  26.190  25.761  1.00  0.00     0.252 C 
ATOM     73  H   UNL A   1      32.518  24.420  25.265  1.00  0.00     0.163 HD
ATOM     74  O   UNL A   1      31.016  25.740  26.667  1.00  0.00    -0.269 OA
BRANCH  72  75
ATOM     75  C   UNL A   1      31.721  27.641  25.510  1.00  0.00     0.051 A 
ATOM     76  C   UNL A   1      30.739  28.111  24.642  1.00  0.00     0.043 A 
ATOM     77  C   UNL A   1      32.629  28.516  26.141  1.00  0.00     0.013 A 
ATOM     78  C   UNL A   1      30.655  29.475  24.459  1.00  0.00     0.073 A 
ATOM     79  C   UNL A   1      32.415  29.889  25.921  1.00  0.00     0.072 A 
ATOM     80  C   UNL A   1      33.703  28.105  26.970  1.00  0.00     0.011 A 
ATOM     81  N   UNL A   1      31.463  30.356  25.094  1.00  0.00    -0.248 NA
ATOM     82  C   UNL A   1      33.213  30.799  26.602  1.00  0.00     0.029 A 
ATOM     83  C   UNL A   1      34.493  29.038  27.635  1.00  0.00     0.001 A 
ATOM     84  C   UNL A   1      34.235  30.391  27.464  1.00  0.00     0.002 A 
BRANCH  78  85
ATOM     85  C   UNL A   1      29.690  30.056  23.538  1.00  0.00     0.011 A 
ATOM     86  C   UNL A   1      28.979  31.285  23.719  1.00  0.00     0.022 A 
ATOM     87  C   UNL A   1      29.340  29.447  22.347  1.00  0.00     0.075 A 
ATOM     88  C   UNL A   1      28.153  31.578  22.657  1.00  0.00     0.065 A 
ATOM     89  S   UNL A   1      28.201  30.363  21.454  1.00  0.00    -0.152 S 
ENDBRANCH  78  85
ENDBRANCH  72  75
ENDBRANCH  70  71
ENDBRANCH  69  70
ENDBRANCH  68  69
ENDBRANCH   1  68
TORSDOF 15
ENDMDL
