MODEL 1
REMARK VINA RESULT:     -10.6      0.000      0.000
REMARK SMILES CC[C@@H](C)[C@H](NC(=O)Cn1ccc(C(F)(F)F)n1)C(=O)NCCCCNC(=O)c1ccc(-c2c3nc(c(-c4ccc(S(=O)(=O)[O-])cc4)c4ccc([nH]4)c(-c4ccc(S(=O)(=O)[O-])cc4)c4nc(c(-c5ccc(S(=O)(=O)[O-])cc5)c5ccc2[nH]5)C=C4)C=C3)cc1
REMARK SMILES IDX 23 1 22 2 21 3 19 4 20 5 5 7 3 8 4 9 2 10 1 11 6 12 7 13
REMARK SMILES IDX 8 15 9 16 10 17 11 18 18 19 12 20 13 21 14 22 15 23 16 24
REMARK SMILES IDX 17 25 24 26 25 27 26 28 27 29 28 31 29 32 30 33 88 34 31 35
REMARK SMILES IDX 87 36 32 37 33 38 34 39 81 40 35 41 86 42 80 43 82 44 36 45
REMARK SMILES IDX 85 46 79 47 78 48 37 50 67 51 48 52 66 53 49 54 52 55 65 56
REMARK SMILES IDX 83 57 50 58 51 59 64 61 84 62 53 63 38 64 39 65 47 66 40 67
REMARK SMILES IDX 46 68 41 69 42 70 43 71 44 72 45 73 68 74 69 75 77 76 70 77
REMARK SMILES IDX 76 78 71 79 72 80 73 81 74 82 75 83 54 84 55 85 63 86 56 87
REMARK SMILES IDX 62 88 57 89 58 90 59 91 60 92 61 93
REMARK H PARENT 21 6 6 14 26 30 82 49 52 60
REMARK Flexibility Score: inf
ROOT
ATOM      1  C   UNL A   1      33.750  28.533  25.398  1.00  0.00     0.023 C 
ENDROOT
BRANCH   1   2
ATOM      2  C   UNL A   1      33.998  27.029  25.472  1.00  0.00     0.116 C 
BRANCH   2   3
ATOM      3  N   UNL A   1      32.932  26.193  26.000  1.00  0.00    -0.354 N 
ATOM      4  C   UNL A   1      32.755  24.838  25.951  1.00  0.00     0.242 C 
ATOM      5  O   UNL A   1      31.967  24.354  26.769  1.00  0.00    -0.273 OA
ATOM      6  H   UNL A   1      32.220  26.684  26.472  1.00  0.00     0.163 HD
BRANCH   4   7
ATOM      7  C   UNL A   1      33.546  23.918  24.996  1.00  0.00     0.174 C 
BRANCH   7   8
ATOM      8  C   UNL A   1      32.656  23.487  23.756  1.00  0.00     0.018 C 
ATOM      9  C   UNL A   1      32.325  21.990  23.794  1.00  0.00     0.010 C 
BRANCH   8  10
ATOM     10  C   UNL A   1      33.297  23.874  22.406  1.00  0.00     0.002 C 
ATOM     11  C   UNL A   1      32.941  25.197  21.753  1.00  0.00     0.004 C 
ENDBRANCH   8  10
ENDBRANCH   7   8
BRANCH   7  12
ATOM     12  N   UNL A   1      34.179  22.757  25.650  1.00  0.00    -0.342 N 
ATOM     13  C   UNL A   1      35.381  22.140  25.433  1.00  0.00     0.242 C 
ATOM     14  H   UNL A   1      33.641  22.355  26.372  1.00  0.00     0.164 HD
ATOM     15  O   UNL A   1      35.488  21.001  25.908  1.00  0.00    -0.273 OA
BRANCH  13  16
ATOM     16  C   UNL A   1      36.614  22.837  24.892  1.00  0.00     0.243 C 
BRANCH  16  17
ATOM     17  N   UNL A   1      37.700  23.070  25.815  1.00  0.00    -0.263 N 
ATOM     18  C   UNL A   1      38.775  22.249  26.007  1.00  0.00     0.110 A 
ATOM     19  N   UNL A   1      37.823  24.255  26.425  1.00  0.00    -0.168 NA
ATOM     20  C   UNL A   1      39.575  22.882  26.924  1.00  0.00     0.055 A 
ATOM     21  C   UNL A   1      38.962  24.144  27.140  1.00  0.00     0.166 A 
BRANCH  21  22
ATOM     22  C   UNL A   1      39.481  25.243  28.018  1.00  0.00     0.435 C 
ATOM     23  F   UNL A   1      39.074  26.467  27.591  1.00  0.00    -0.164 F 
ATOM     24  F   UNL A   1      39.039  25.110  29.300  1.00  0.00    -0.164 F 
ATOM     25  F   UNL A   1      40.839  25.282  28.085  1.00  0.00    -0.164 F 
ENDBRANCH  21  22
ENDBRANCH  16  17
ENDBRANCH  13  16
ENDBRANCH   7  12
ENDBRANCH   4   7
ENDBRANCH   2   3
ENDBRANCH   1   2
BRANCH   1  26
ATOM     26  C   UNL A   1      32.897  29.154  26.501  1.00  0.00     0.023 C 
BRANCH  26  27
ATOM     27  C   UNL A   1      33.716  29.791  27.607  1.00  0.00     0.116 C 
BRANCH  27  28
ATOM     28  N   UNL A   1      34.072  31.176  27.298  1.00  0.00    -0.352 N 
ATOM     29  C   UNL A   1      35.200  31.880  27.684  1.00  0.00     0.251 C 
ATOM     30  H   UNL A   1      33.426  31.672  26.745  1.00  0.00     0.163 HD
ATOM     31  O   UNL A   1      35.206  33.096  27.694  1.00  0.00    -0.269 OA
BRANCH  29  32
ATOM     32  C   UNL A   1      36.396  31.106  28.059  1.00  0.00     0.039 A 
ATOM     33  C   UNL A   1      36.649  29.832  27.547  1.00  0.00     0.014 A 
ATOM     34  C   UNL A   1      37.301  31.726  28.916  1.00  0.00     0.014 A 
ATOM     35  C   UNL A   1      37.858  29.222  27.868  1.00  0.00     0.010 A 
ATOM     36  C   UNL A   1      38.566  31.232  29.036  1.00  0.00     0.010 A 
ATOM     37  C   UNL A   1      38.815  29.941  28.605  1.00  0.00    -0.014 A 
BRANCH  37  38
ATOM     38  C   UNL A   1      40.164  29.443  28.821  1.00  0.00     0.031 A 
ATOM     39  C   UNL A   1      40.459  29.230  30.256  1.00  0.00     0.074 A 
ATOM     40  C   UNL A   1      40.952  28.984  27.824  1.00  0.00     0.049 A 
ATOM     41  N   UNL A   1      41.040  30.063  31.053  1.00  0.00    -0.248 NA
ATOM     42  C   UNL A   1      39.808  28.104  30.950  1.00  0.00     0.031 C 
ATOM     43  C   UNL A   1      40.628  28.838  26.398  1.00  0.00     0.029 A 
ATOM     44  N   UNL A   1      42.197  28.445  27.893  1.00  0.00    -0.354 N 
ATOM     45  C   UNL A   1      41.135  29.391  32.261  1.00  0.00     0.074 A 
ATOM     46  C   UNL A   1      40.109  28.380  32.222  1.00  0.00     0.031 C 
ATOM     47  C   UNL A   1      41.549  28.046  25.799  1.00  0.00     0.029 A 
ATOM     48  C   UNL A   1      42.612  27.770  26.746  1.00  0.00     0.049 A 
ATOM     49  H   UNL A   1      42.765  28.526  28.693  1.00  0.00     0.167 HD
ATOM     50  C   UNL A   1      42.288  29.445  32.988  1.00  0.00     0.031 A 
ATOM     51  C   UNL A   1      43.743  27.027  26.599  1.00  0.00     0.031 A 
ATOM     52  C   UNL A   1      43.175  30.470  32.474  1.00  0.00     0.049 A 
ATOM     53  C   UNL A   1      44.681  27.474  27.659  1.00  0.00     0.074 A 
ATOM     54  C   UNL A   1      43.074  31.823  32.220  1.00  0.00     0.029 A 
ATOM     55  N   UNL A   1      44.247  30.023  31.734  1.00  0.00    -0.354 N 
ATOM     56  N   UNL A   1      45.192  28.673  27.695  1.00  0.00    -0.248 NA
ATOM     57  C   UNL A   1      44.657  26.769  28.930  1.00  0.00     0.031 C 
ATOM     58  C   UNL A   1      43.797  32.028  31.006  1.00  0.00     0.029 A 
ATOM     59  C   UNL A   1      44.382  30.818  30.630  1.00  0.00     0.049 A 
ATOM     60  H   UNL A   1      44.821  29.257  31.964  1.00  0.00     0.167 HD
ATOM     61  C   UNL A   1      45.115  29.048  29.029  1.00  0.00     0.074 A 
ATOM     62  C   UNL A   1      44.876  27.798  29.755  1.00  0.00     0.031 C 
ATOM     63  C   UNL A   1      44.952  30.360  29.380  1.00  0.00     0.031 A 
BRANCH  50  64
ATOM     64  C   UNL A   1      42.836  28.269  33.775  1.00  0.00    -0.014 A 
ATOM     65  C   UNL A   1      43.498  27.250  33.057  1.00  0.00     0.010 A 
ATOM     66  C   UNL A   1      42.472  27.974  35.104  1.00  0.00     0.010 A 
ATOM     67  C   UNL A   1      43.668  25.972  33.600  1.00  0.00     0.020 A 
ATOM     68  C   UNL A   1      42.678  26.717  35.671  1.00  0.00     0.020 A 
ATOM     69  C   UNL A   1      43.240  25.711  34.900  1.00  0.00     0.054 A 
BRANCH  69  70
ATOM     70  S   UNL A   1      43.376  24.034  35.556  1.00  0.00     0.124 S 
ATOM     71  O   UNL A   1      44.004  24.273  36.851  1.00  0.00    -0.237 OA
ATOM     72  O   UNL A   1      41.981  23.607  35.592  1.00  0.00    -0.237 OA
ATOM     73  O   UNL A   1      44.207  23.350  34.569  1.00  0.00    -0.744 OA
ENDBRANCH  69  70
ENDBRANCH  50  64
BRANCH  51  74
ATOM     74  C   UNL A   1      43.955  25.772  25.828  1.00  0.00    -0.014 A 
ATOM     75  C   UNL A   1      45.246  25.372  25.423  1.00  0.00     0.010 A 
ATOM     76  C   UNL A   1      42.928  24.809  25.756  1.00  0.00     0.010 A 
ATOM     77  C   UNL A   1      45.513  24.044  25.035  1.00  0.00     0.020 A 
ATOM     78  C   UNL A   1      43.186  23.486  25.366  1.00  0.00     0.020 A 
ATOM     79  C   UNL A   1      44.482  23.102  25.033  1.00  0.00     0.054 A 
BRANCH  79  80
ATOM     80  S   UNL A   1      44.863  21.349  24.717  1.00  0.00     0.124 S 
ATOM     81  O   UNL A   1      44.589  21.222  23.288  1.00  0.00    -0.237 OA
ATOM     82  O   UNL A   1      46.268  21.251  25.101  1.00  0.00    -0.237 OA
ATOM     83  O   UNL A   1      43.935  20.633  25.591  1.00  0.00    -0.744 OA
ENDBRANCH  79  80
ENDBRANCH  51  74
BRANCH  63  84
ATOM     84  C   UNL A   1      45.218  31.420  28.336  1.00  0.00    -0.014 A 
ATOM     85  C   UNL A   1      44.231  32.020  27.529  1.00  0.00     0.010 A 
ATOM     86  C   UNL A   1      46.533  31.912  28.260  1.00  0.00     0.010 A 
ATOM     87  C   UNL A   1      44.565  33.059  26.643  1.00  0.00     0.020 A 
ATOM     88  C   UNL A   1      46.867  32.956  27.397  1.00  0.00     0.020 A 
ATOM     89  C   UNL A   1      45.885  33.515  26.580  1.00  0.00     0.054 A 
BRANCH  89  90
ATOM     90  S   UNL A   1      46.321  34.857  25.439  1.00  0.00     0.124 S 
ATOM     91  O   UNL A   1      45.950  36.050  26.194  1.00  0.00    -0.237 OA
ATOM     92  O   UNL A   1      47.755  34.660  25.237  1.00  0.00    -0.237 OA
ATOM     93  O   UNL A   1      45.497  34.592  24.259  1.00  0.00    -0.744 OA
ENDBRANCH  89  90
ENDBRANCH  63  84
ENDBRANCH  37  38
ENDBRANCH  29  32
ENDBRANCH  27  28
ENDBRANCH  26  27
ENDBRANCH   1  26
TORSDOF 20
ENDMDL
MODEL 2
REMARK VINA RESULT:     -10.5      2.272      3.483
REMARK SMILES CC[C@@H](C)[C@H](NC(=O)Cn1ccc(C(F)(F)F)n1)C(=O)NCCCCNC(=O)c1ccc(-c2c3nc(c(-c4ccc(S(=O)(=O)[O-])cc4)c4ccc([nH]4)c(-c4ccc(S(=O)(=O)[O-])cc4)c4nc(c(-c5ccc(S(=O)(=O)[O-])cc5)c5ccc2[nH]5)C=C4)C=C3)cc1
REMARK SMILES IDX 23 1 22 2 21 3 19 4 20 5 5 7 3 8 4 9 2 10 1 11 6 12 7 13
REMARK SMILES IDX 8 15 9 16 10 17 11 18 18 19 12 20 13 21 14 22 15 23 16 24
REMARK SMILES IDX 17 25 24 26 25 27 26 28 27 29 28 31 29 32 30 33 88 34 31 35
REMARK SMILES IDX 87 36 32 37 33 38 34 39 81 40 35 41 86 42 80 43 82 44 36 45
REMARK SMILES IDX 85 46 79 47 78 48 37 50 67 51 48 52 66 53 49 54 52 55 65 56
REMARK SMILES IDX 83 57 50 58 51 59 64 61 84 62 53 63 38 64 39 65 47 66 40 67
REMARK SMILES IDX 46 68 41 69 42 70 43 71 44 72 45 73 68 74 69 75 77 76 70 77
REMARK SMILES IDX 76 78 71 79 72 80 73 81 74 82 75 83 54 84 55 85 63 86 56 87
REMARK SMILES IDX 62 88 57 89 58 90 59 91 60 92 61 93
REMARK H PARENT 21 6 6 14 26 30 82 49 52 60
REMARK Flexibility Score: inf
ROOT
ATOM      1  C   UNL A   1      32.971  27.372  26.270  1.00  0.00     0.023 C 
ENDROOT
BRANCH   1   2
ATOM      2  C   UNL A   1      33.809  26.164  25.858  1.00  0.00     0.116 C 
BRANCH   2   3
ATOM      3  N   UNL A   1      33.922  25.873  24.438  1.00  0.00    -0.354 N 
ATOM      4  C   UNL A   1      34.259  24.716  23.790  1.00  0.00     0.242 C 
ATOM      5  O   UNL A   1      33.939  24.637  22.600  1.00  0.00    -0.273 OA
ATOM      6  H   UNL A   1      33.723  26.633  23.845  1.00  0.00     0.163 HD
BRANCH   4   7
ATOM      7  C   UNL A   1      34.924  23.516  24.497  1.00  0.00     0.174 C 
BRANCH   7   8
ATOM      8  C   UNL A   1      36.503  23.575  24.351  1.00  0.00     0.018 C 
ATOM      9  C   UNL A   1      36.981  22.826  23.101  1.00  0.00     0.010 C 
BRANCH   8  10
ATOM     10  C   UNL A   1      37.231  23.063  25.612  1.00  0.00     0.002 C 
ATOM     11  C   UNL A   1      38.141  23.997  26.389  1.00  0.00     0.004 C 
ENDBRANCH   8  10
ENDBRANCH   7   8
BRANCH   7  12
ATOM     12  N   UNL A   1      34.384  22.200  24.106  1.00  0.00    -0.342 N 
ATOM     13  C   UNL A   1      33.361  21.452  24.623  1.00  0.00     0.242 C 
ATOM     14  H   UNL A   1      34.839  21.787  23.336  1.00  0.00     0.164 HD
ATOM     15  O   UNL A   1      33.358  20.257  24.299  1.00  0.00    -0.273 OA
BRANCH  13  16
ATOM     16  C   UNL A   1      32.150  22.033  25.328  1.00  0.00     0.243 C 
BRANCH  16  17
ATOM     17  N   UNL A   1      31.453  23.110  24.664  1.00  0.00    -0.263 N 
ATOM     18  C   UNL A   1      30.949  23.074  23.395  1.00  0.00     0.110 A 
ATOM     19  N   UNL A   1      31.071  24.191  25.355  1.00  0.00    -0.168 NA
ATOM     20  C   UNL A   1      30.327  24.280  23.201  1.00  0.00     0.055 A 
ATOM     21  C   UNL A   1      30.399  24.939  24.456  1.00  0.00     0.166 A 
BRANCH  21  22
ATOM     22  C   UNL A   1      29.810  26.277  24.789  1.00  0.00     0.435 C 
ATOM     23  F   UNL A   1      30.455  27.288  24.149  1.00  0.00    -0.164 F 
ATOM     24  F   UNL A   1      28.501  26.354  24.422  1.00  0.00    -0.164 F 
ATOM     25  F   UNL A   1      29.851  26.566  26.118  1.00  0.00    -0.164 F 
ENDBRANCH  21  22
ENDBRANCH  16  17
ENDBRANCH  13  16
ENDBRANCH   7  12
ENDBRANCH   4   7
ENDBRANCH   2   3
ENDBRANCH   1   2
BRANCH   1  26
ATOM     26  C   UNL A   1      33.613  28.748  26.122  1.00  0.00     0.023 C 
BRANCH  26  27
ATOM     27  C   UNL A   1      33.566  29.574  27.393  1.00  0.00     0.116 C 
BRANCH  27  28
ATOM     28  N   UNL A   1      33.873  30.982  27.145  1.00  0.00    -0.352 N 
ATOM     29  C   UNL A   1      34.917  31.736  27.652  1.00  0.00     0.251 C 
ATOM     30  H   UNL A   1      33.257  31.456  26.539  1.00  0.00     0.163 HD
ATOM     31  O   UNL A   1      34.855  32.951  27.683  1.00  0.00    -0.269 OA
BRANCH  29  32
ATOM     32  C   UNL A   1      36.112  31.019  28.130  1.00  0.00     0.039 A 
ATOM     33  C   UNL A   1      36.281  29.646  27.943  1.00  0.00     0.014 A 
ATOM     34  C   UNL A   1      37.103  31.786  28.736  1.00  0.00     0.014 A 
ATOM     35  C   UNL A   1      37.490  29.073  28.325  1.00  0.00     0.010 A 
ATOM     36  C   UNL A   1      38.356  31.272  28.892  1.00  0.00     0.010 A 
ATOM     37  C   UNL A   1      38.526  29.902  28.788  1.00  0.00    -0.014 A 
BRANCH  37  38
ATOM     38  C   UNL A   1      39.870  29.404  29.032  1.00  0.00     0.031 A 
ATOM     39  C   UNL A   1      40.108  29.114  30.464  1.00  0.00     0.074 A 
ATOM     40  C   UNL A   1      40.702  29.008  28.044  1.00  0.00     0.049 A 
ATOM     41  N   UNL A   1      40.648  29.906  31.329  1.00  0.00    -0.248 NA
ATOM     42  C   UNL A   1      39.441  27.946  31.067  1.00  0.00     0.031 C 
ATOM     43  C   UNL A   1      40.438  28.938  26.600  1.00  0.00     0.029 A 
ATOM     44  N   UNL A   1      41.949  28.476  28.134  1.00  0.00    -0.354 N 
ATOM     45  C   UNL A   1      40.700  29.168  32.501  1.00  0.00     0.074 A 
ATOM     46  C   UNL A   1      39.688  28.153  32.364  1.00  0.00     0.031 C 
ATOM     47  C   UNL A   1      41.390  28.189  25.997  1.00  0.00     0.029 A 
ATOM     48  C   UNL A   1      42.417  27.869  26.970  1.00  0.00     0.049 A 
ATOM     49  H   UNL A   1      42.483  28.517  28.960  1.00  0.00     0.167 HD
ATOM     50  C   UNL A   1      41.823  29.191  33.276  1.00  0.00     0.031 A 
ATOM     51  C   UNL A   1      43.561  27.145  26.829  1.00  0.00     0.031 A 
ATOM     52  C   UNL A   1      42.719  30.250  32.857  1.00  0.00     0.049 A 
ATOM     53  C   UNL A   1      44.450  27.540  27.950  1.00  0.00     0.074 A 
ATOM     54  C   UNL A   1      42.615  31.614  32.675  1.00  0.00     0.029 A 
ATOM     55  N   UNL A   1      43.825  29.854  32.138  1.00  0.00    -0.354 N 
ATOM     56  N   UNL A   1      44.947  28.739  28.073  1.00  0.00    -0.248 NA
ATOM     57  C   UNL A   1      44.382  26.764  29.177  1.00  0.00     0.031 C 
ATOM     58  C   UNL A   1      43.385  31.893  31.504  1.00  0.00     0.029 A 
ATOM     59  C   UNL A   1      43.997  30.710  31.086  1.00  0.00     0.049 A 
ATOM     60  H   UNL A   1      44.397  29.081  32.349  1.00  0.00     0.167 HD
ATOM     61  C   UNL A   1      44.812  29.038  29.421  1.00  0.00     0.074 A 
ATOM     62  C   UNL A   1      44.557  27.748  30.067  1.00  0.00     0.031 C 
ATOM     63  C   UNL A   1      44.622  30.327  29.837  1.00  0.00     0.031 A 
BRANCH  50  64
ATOM     64  C   UNL A   1      42.351  27.977  34.019  1.00  0.00    -0.014 A 
ATOM     65  C   UNL A   1      42.356  28.023  35.429  1.00  0.00     0.010 A 
ATOM     66  C   UNL A   1      43.107  26.953  33.415  1.00  0.00     0.010 A 
ATOM     67  C   UNL A   1      43.172  27.171  36.181  1.00  0.00     0.020 A 
ATOM     68  C   UNL A   1      43.889  26.068  34.157  1.00  0.00     0.020 A 
ATOM     69  C   UNL A   1      43.947  26.209  35.535  1.00  0.00     0.054 A 
BRANCH  69  70
ATOM     70  S   UNL A   1      45.069  25.179  36.506  1.00  0.00     0.124 S 
ATOM     71  O   UNL A   1      45.288  26.011  37.684  1.00  0.00    -0.237 OA
ATOM     72  O   UNL A   1      44.272  23.974  36.714  1.00  0.00    -0.237 OA
ATOM     73  O   UNL A   1      46.223  25.014  35.626  1.00  0.00    -0.744 OA
ENDBRANCH  69  70
ENDBRANCH  50  64
BRANCH  51  74
ATOM     74  C   UNL A   1      43.817  25.936  25.999  1.00  0.00    -0.014 A 
ATOM     75  C   UNL A   1      45.116  25.622  25.546  1.00  0.00     0.010 A 
ATOM     76  C   UNL A   1      42.839  24.924  25.910  1.00  0.00     0.010 A 
ATOM     77  C   UNL A   1      45.440  24.327  25.093  1.00  0.00     0.020 A 
ATOM     78  C   UNL A   1      43.155  23.634  25.456  1.00  0.00     0.020 A 
ATOM     79  C   UNL A   1      44.460  23.333  25.076  1.00  0.00     0.054 A 
BRANCH  79  80
ATOM     80  S   UNL A   1      44.922  21.618  24.674  1.00  0.00     0.124 S 
ATOM     81  O   UNL A   1      44.624  21.539  23.247  1.00  0.00    -0.237 OA
ATOM     82  O   UNL A   1      46.339  21.576  25.026  1.00  0.00    -0.237 OA
ATOM     83  O   UNL A   1      44.051  20.818  25.534  1.00  0.00    -0.744 OA
ENDBRANCH  79  80
ENDBRANCH  51  74
BRANCH  63  84
ATOM     84  C   UNL A   1      44.919  31.445  28.865  1.00  0.00    -0.014 A 
ATOM     85  C   UNL A   1      46.053  32.279  28.919  1.00  0.00     0.010 A 
ATOM     86  C   UNL A   1      44.050  31.570  27.766  1.00  0.00     0.010 A 
ATOM     87  C   UNL A   1      46.285  33.238  27.919  1.00  0.00     0.020 A 
ATOM     88  C   UNL A   1      44.285  32.508  26.759  1.00  0.00     0.020 A 
ATOM     89  C   UNL A   1      45.393  33.349  26.847  1.00  0.00     0.054 A 
BRANCH  89  90
ATOM     90  S   UNL A   1      45.689  34.585  25.553  1.00  0.00     0.124 S 
ATOM     91  O   UNL A   1      45.347  35.836  26.222  1.00  0.00    -0.237 OA
ATOM     92  O   UNL A   1      47.107  34.402  25.247  1.00  0.00    -0.237 OA
ATOM     93  O   UNL A   1      44.778  34.190  24.479  1.00  0.00    -0.744 OA
ENDBRANCH  89  90
ENDBRANCH  63  84
ENDBRANCH  37  38
ENDBRANCH  29  32
ENDBRANCH  27  28
ENDBRANCH  26  27
ENDBRANCH   1  26
TORSDOF 20
ENDMDL
MODEL 3
REMARK VINA RESULT:     -10.3      3.099      4.571
REMARK SMILES CC[C@@H](C)[C@H](NC(=O)Cn1ccc(C(F)(F)F)n1)C(=O)NCCCCNC(=O)c1ccc(-c2c3nc(c(-c4ccc(S(=O)(=O)[O-])cc4)c4ccc([nH]4)c(-c4ccc(S(=O)(=O)[O-])cc4)c4nc(c(-c5ccc(S(=O)(=O)[O-])cc5)c5ccc2[nH]5)C=C4)C=C3)cc1
REMARK SMILES IDX 23 1 22 2 21 3 19 4 20 5 5 7 3 8 4 9 2 10 1 11 6 12 7 13
REMARK SMILES IDX 8 15 9 16 10 17 11 18 18 19 12 20 13 21 14 22 15 23 16 24
REMARK SMILES IDX 17 25 24 26 25 27 26 28 27 29 28 31 29 32 30 33 88 34 31 35
REMARK SMILES IDX 87 36 32 37 33 38 34 39 81 40 35 41 86 42 80 43 82 44 36 45
REMARK SMILES IDX 85 46 79 47 78 48 37 50 67 51 48 52 66 53 49 54 52 55 65 56
REMARK SMILES IDX 83 57 50 58 51 59 64 61 84 62 53 63 38 64 39 65 47 66 40 67
REMARK SMILES IDX 46 68 41 69 42 70 43 71 44 72 45 73 68 74 69 75 77 76 70 77
REMARK SMILES IDX 76 78 71 79 72 80 73 81 74 82 75 83 54 84 55 85 63 86 56 87
REMARK SMILES IDX 62 88 57 89 58 90 59 91 60 92 61 93
REMARK H PARENT 21 6 6 14 26 30 82 49 52 60
REMARK Flexibility Score: inf
ROOT
ATOM      1  C   UNL A   1      32.024  28.621  27.242  1.00  0.00     0.023 C 
ENDROOT
BRANCH   1   2
ATOM      2  C   UNL A   1      31.836  27.497  26.227  1.00  0.00     0.116 C 
BRANCH   2   3
ATOM      3  N   UNL A   1      32.987  26.661  25.923  1.00  0.00    -0.354 N 
ATOM      4  C   UNL A   1      33.170  25.716  24.952  1.00  0.00     0.242 C 
ATOM      5  O   UNL A   1      34.337  25.413  24.690  1.00  0.00    -0.273 OA
ATOM      6  H   UNL A   1      33.763  26.799  26.514  1.00  0.00     0.163 HD
BRANCH   4   7
ATOM      7  C   UNL A   1      32.007  25.103  24.142  1.00  0.00     0.174 C 
BRANCH   7   8
ATOM      8  C   UNL A   1      31.854  23.555  24.454  1.00  0.00     0.018 C 
ATOM      9  C   UNL A   1      30.847  22.887  23.507  1.00  0.00     0.010 C 
BRANCH   8  10
ATOM     10  C   UNL A   1      31.486  23.283  25.928  1.00  0.00     0.002 C 
ATOM     11  C   UNL A   1      32.501  22.637  26.852  1.00  0.00     0.004 C 
ENDBRANCH   8  10
ENDBRANCH   7   8
BRANCH   7  12
ATOM     12  N   UNL A   1      32.064  25.370  22.692  1.00  0.00    -0.342 N 
ATOM     13  C   UNL A   1      31.654  26.447  21.955  1.00  0.00     0.242 C 
ATOM     14  H   UNL A   1      32.470  24.645  22.162  1.00  0.00     0.164 HD
ATOM     15  O   UNL A   1      31.531  26.244  20.739  1.00  0.00    -0.273 OA
BRANCH  13  16
ATOM     16  C   UNL A   1      31.590  27.868  22.480  1.00  0.00     0.243 C 
BRANCH  16  17
ATOM     17  N   UNL A   1      30.279  28.427  22.718  1.00  0.00    -0.263 N 
ATOM     18  C   UNL A   1      29.164  27.723  23.076  1.00  0.00     0.110 A 
ATOM     19  N   UNL A   1      30.117  29.753  22.796  1.00  0.00    -0.168 NA
ATOM     20  C   UNL A   1      28.171  28.652  23.250  1.00  0.00     0.055 A 
ATOM     21  C   UNL A   1      28.810  29.910  23.095  1.00  0.00     0.166 A 
BRANCH  21  22
ATOM     22  C   UNL A   1      28.167  31.256  23.248  1.00  0.00     0.435 C 
ATOM     23  F   UNL A   1      27.748  31.755  22.055  1.00  0.00    -0.164 F 
ATOM     24  F   UNL A   1      27.071  31.199  24.054  1.00  0.00    -0.164 F 
ATOM     25  F   UNL A   1      28.995  32.187  23.794  1.00  0.00    -0.164 F 
ENDBRANCH  21  22
ENDBRANCH  16  17
ENDBRANCH  13  16
ENDBRANCH   7  12
ENDBRANCH   4   7
ENDBRANCH   2   3
ENDBRANCH   1   2
BRANCH   1  26
ATOM     26  C   UNL A   1      32.858  29.822  26.805  1.00  0.00     0.023 C 
BRANCH  26  27
ATOM     27  C   UNL A   1      33.227  30.747  27.948  1.00  0.00     0.116 C 
BRANCH  27  28
ATOM     28  N   UNL A   1      33.722  32.038  27.473  1.00  0.00    -0.352 N 
ATOM     29  C   UNL A   1      34.932  32.651  27.753  1.00  0.00     0.251 C 
ATOM     30  H   UNL A   1      33.117  32.538  26.878  1.00  0.00     0.163 HD
ATOM     31  O   UNL A   1      35.072  33.852  27.620  1.00  0.00    -0.269 OA
BRANCH  29  32
ATOM     32  C   UNL A   1      36.048  31.795  28.194  1.00  0.00     0.039 A 
ATOM     33  C   UNL A   1      36.252  30.514  27.679  1.00  0.00     0.014 A 
ATOM     34  C   UNL A   1      36.931  32.345  29.119  1.00  0.00     0.014 A 
ATOM     35  C   UNL A   1      37.395  29.822  28.069  1.00  0.00     0.010 A 
ATOM     36  C   UNL A   1      38.151  31.767  29.314  1.00  0.00     0.010 A 
ATOM     37  C   UNL A   1      38.344  30.467  28.879  1.00  0.00    -0.014 A 
BRANCH  37  38
ATOM     38  C   UNL A   1      39.640  29.880  29.177  1.00  0.00     0.031 A 
ATOM     39  C   UNL A   1      39.883  29.766  30.633  1.00  0.00     0.074 A 
ATOM     40  C   UNL A   1      40.409  29.274  28.245  1.00  0.00     0.049 A 
ATOM     41  N   UNL A   1      40.515  30.613  31.375  1.00  0.00    -0.248 NA
ATOM     42  C   UNL A   1      39.122  28.760  31.398  1.00  0.00     0.031 C 
ATOM     43  C   UNL A   1      40.107  29.035  26.827  1.00  0.00     0.029 A 
ATOM     44  N   UNL A   1      41.602  28.642  28.396  1.00  0.00    -0.354 N 
ATOM     45  C   UNL A   1      40.523  30.039  32.637  1.00  0.00     0.074 A 
ATOM     46  C   UNL A   1      39.417  29.118  32.651  1.00  0.00     0.031 C 
ATOM     47  C   UNL A   1      40.971  28.122  26.324  1.00  0.00     0.029 A 
ATOM     48  C   UNL A   1      41.985  27.840  27.322  1.00  0.00     0.049 A 
ATOM     49  H   UNL A   1      42.156  28.743  29.203  1.00  0.00     0.167 HD
ATOM     50  C   UNL A   1      41.660  30.059  33.391  1.00  0.00     0.031 A 
ATOM     51  C   UNL A   1      43.051  26.996  27.271  1.00  0.00     0.031 A 
ATOM     52  C   UNL A   1      42.642  30.959  32.822  1.00  0.00     0.049 A 
ATOM     53  C   UNL A   1      43.999  27.452  28.319  1.00  0.00     0.074 A 
ATOM     54  C   UNL A   1      42.663  32.290  32.454  1.00  0.00     0.029 A 
ATOM     55  N   UNL A   1      43.689  30.365  32.154  1.00  0.00    -0.354 N 
ATOM     56  N   UNL A   1      44.609  28.603  28.271  1.00  0.00    -0.248 NA
ATOM     57  C   UNL A   1      43.886  26.861  29.642  1.00  0.00     0.031 C 
ATOM     58  C   UNL A   1      43.429  32.331  31.249  1.00  0.00     0.029 A 
ATOM     59  C   UNL A   1      43.918  31.048  30.993  1.00  0.00     0.049 A 
ATOM     60  H   UNL A   1      44.191  29.576  32.463  1.00  0.00     0.167 HD
ATOM     61  C   UNL A   1      44.533  29.094  29.566  1.00  0.00     0.074 A 
ATOM     62  C   UNL A   1      44.172  27.935  30.385  1.00  0.00     0.031 C 
ATOM     63  C   UNL A   1      44.475  30.441  29.803  1.00  0.00     0.031 A 
BRANCH  50  64
ATOM     64  C   UNL A   1      42.088  28.912  34.289  1.00  0.00    -0.014 A 
ATOM     65  C   UNL A   1      42.546  27.730  33.670  1.00  0.00     0.010 A 
ATOM     66  C   UNL A   1      41.777  28.831  35.662  1.00  0.00     0.010 A 
ATOM     67  C   UNL A   1      42.569  26.512  34.358  1.00  0.00     0.020 A 
ATOM     68  C   UNL A   1      41.840  27.630  36.369  1.00  0.00     0.020 A 
ATOM     69  C   UNL A   1      42.199  26.469  35.701  1.00  0.00     0.054 A 
BRANCH  69  70
ATOM     70  S   UNL A   1      42.139  24.878  36.552  1.00  0.00     0.124 S 
ATOM     71  O   UNL A   1      42.064  23.946  35.431  1.00  0.00    -0.237 OA
ATOM     72  O   UNL A   1      43.395  24.883  37.295  1.00  0.00    -0.237 OA
ATOM     73  O   UNL A   1      40.934  24.977  37.372  1.00  0.00    -0.744 OA
ENDBRANCH  69  70
ENDBRANCH  50  64
BRANCH  51  74
ATOM     74  C   UNL A   1      43.173  25.666  26.613  1.00  0.00    -0.014 A 
ATOM     75  C   UNL A   1      43.695  25.542  25.308  1.00  0.00     0.010 A 
ATOM     76  C   UNL A   1      43.065  24.489  27.381  1.00  0.00     0.010 A 
ATOM     77  C   UNL A   1      44.160  24.304  24.820  1.00  0.00     0.020 A 
ATOM     78  C   UNL A   1      43.522  23.253  26.900  1.00  0.00     0.020 A 
ATOM     79  C   UNL A   1      44.092  23.170  25.632  1.00  0.00     0.054 A 
BRANCH  79  80
ATOM     80  S   UNL A   1      44.864  21.616  25.077  1.00  0.00     0.124 S 
ATOM     81  O   UNL A   1      43.967  20.606  25.630  1.00  0.00    -0.237 OA
ATOM     82  O   UNL A   1      44.844  21.750  23.623  1.00  0.00    -0.237 OA
ATOM     83  O   UNL A   1      46.195  21.659  25.681  1.00  0.00    -0.744 OA
ENDBRANCH  79  80
ENDBRANCH  51  74
BRANCH  63  84
ATOM     84  C   UNL A   1      44.854  31.382  28.683  1.00  0.00    -0.014 A 
ATOM     85  C   UNL A   1      44.018  31.724  27.601  1.00  0.00     0.010 A 
ATOM     86  C   UNL A   1      46.088  32.045  28.809  1.00  0.00     0.010 A 
ATOM     87  C   UNL A   1      44.429  32.675  26.652  1.00  0.00     0.020 A 
ATOM     88  C   UNL A   1      46.494  33.005  27.881  1.00  0.00     0.020 A 
ATOM     89  C   UNL A   1      45.670  33.305  26.797  1.00  0.00     0.054 A 
BRANCH  89  90
ATOM     90  S   UNL A   1      46.204  34.536  25.575  1.00  0.00     0.124 S 
ATOM     91  O   UNL A   1      45.362  34.226  24.423  1.00  0.00    -0.237 OA
ATOM     92  O   UNL A   1      45.916  35.803  26.243  1.00  0.00    -0.237 OA
ATOM     93  O   UNL A   1      47.627  34.252  25.394  1.00  0.00    -0.744 OA
ENDBRANCH  89  90
ENDBRANCH  63  84
ENDBRANCH  37  38
ENDBRANCH  29  32
ENDBRANCH  27  28
ENDBRANCH  26  27
ENDBRANCH   1  26
TORSDOF 20
ENDMDL
