MODEL 1
REMARK VINA RESULT:     -12.0      0.000      0.000
REMARK SMILES O=C(CSc1ccc(NC(=O)c2cccc3ccccc23)cc1)NCCCCNC(=O)c1ccc(-c2c3nc(c(-c4ccc(S(=O)(=O)[O-])cc4)c4ccc([nH]4)c(-c4ccc(S(=O)(=O)[O-])cc4)c4nc(c(-c5ccc(S(=O)(=O)[O-])cc5)c5ccc2[nH]5)C=C4)C=C3)cc1
REMARK SMILES IDX 26 1 25 2 24 3 1 4 2 5 3 7 4 8 5 9 6 10 23 11 7 12 22 13
REMARK SMILES IDX 8 14 9 15 10 16 11 18 12 19 13 20 21 21 14 22 16 23 20 24
REMARK SMILES IDX 15 25 17 26 19 27 18 28 27 29 28 30 29 31 30 32 31 34 32 35
REMARK SMILES IDX 33 36 91 37 34 38 90 39 35 40 36 41 37 42 84 43 38 44 89 45
REMARK SMILES IDX 83 46 85 47 39 48 88 49 82 50 81 51 40 53 70 54 51 55 69 56
REMARK SMILES IDX 52 57 55 58 68 59 86 60 53 61 54 62 67 64 87 65 56 66 41 67
REMARK SMILES IDX 42 68 50 69 43 70 49 71 44 72 45 73 46 74 47 75 48 76 71 77
REMARK SMILES IDX 72 78 80 79 73 80 79 81 74 82 75 83 76 84 77 85 78 86 57 87
REMARK SMILES IDX 58 88 66 89 59 90 65 91 60 92 61 93 62 94 63 95 64 96
REMARK H PARENT 24 6 9 17 29 33 85 52 55 63
REMARK Flexibility Score: inf
ROOT
ATOM      1  C   UNL A   1      35.532  32.197  27.992  1.00  0.00     0.023 C 
ENDROOT
BRANCH   1   2
ATOM      2  C   UNL A   1      34.050  32.130  28.347  1.00  0.00     0.116 C 
BRANCH   2   3
ATOM      3  N   UNL A   1      33.401  30.992  27.731  1.00  0.00    -0.355 N 
ATOM      4  O   UNL A   1      31.697  32.186  26.752  1.00  0.00    -0.274 OA
ATOM      5  C   UNL A   1      32.272  31.118  26.946  1.00  0.00     0.230 C 
ATOM      6  H   UNL A   1      33.778  30.094  27.878  1.00  0.00     0.163 HD
BRANCH   5   7
ATOM      7  C   UNL A   1      31.739  29.813  26.378  1.00  0.00     0.174 C 
BRANCH   7   8
ATOM      8  S   UNL A   1      32.159  28.378  27.414  1.00  0.00    -0.116 SA
BRANCH   8   9
ATOM      9  C   UNL A   1      32.474  27.165  26.151  1.00  0.00     0.008 A 
ATOM     10  C   UNL A   1      31.425  26.358  25.707  1.00  0.00     0.017 A 
ATOM     11  C   UNL A   1      33.727  27.053  25.548  1.00  0.00     0.017 A 
ATOM     12  C   UNL A   1      31.598  25.502  24.622  1.00  0.00     0.027 A 
ATOM     13  C   UNL A   1      33.887  26.222  24.436  1.00  0.00     0.027 A 
ATOM     14  C   UNL A   1      32.792  25.523  23.914  1.00  0.00     0.041 A 
BRANCH  14  15
ATOM     15  N   UNL A   1      32.944  24.984  22.631  1.00  0.00    -0.322 N 
ATOM     16  C   UNL A   1      33.304  23.736  22.179  1.00  0.00     0.256 C 
ATOM     17  H   UNL A   1      32.755  25.626  21.908  1.00  0.00     0.170 HD
ATOM     18  O   UNL A   1      33.381  23.576  20.958  1.00  0.00    -0.269 OA
BRANCH  16  19
ATOM     19  C   UNL A   1      33.607  22.562  23.041  1.00  0.00     0.048 A 
ATOM     20  C   UNL A   1      32.527  21.666  23.162  1.00  0.00     0.014 A 
ATOM     21  C   UNL A   1      34.809  22.349  23.785  1.00  0.00    -0.006 A 
ATOM     22  C   UNL A   1      32.601  20.574  24.016  1.00  0.00     0.001 A 
ATOM     23  C   UNL A   1      34.857  21.222  24.650  1.00  0.00    -0.018 A 
ATOM     24  C   UNL A   1      35.982  23.148  23.724  1.00  0.00     0.009 A 
ATOM     25  C   UNL A   1      33.751  20.369  24.769  1.00  0.00     0.009 A 
ATOM     26  C   UNL A   1      36.019  20.931  25.386  1.00  0.00     0.009 A 
ATOM     27  C   UNL A   1      37.163  22.786  24.382  1.00  0.00     0.001 A 
ATOM     28  C   UNL A   1      37.177  21.685  25.224  1.00  0.00     0.001 A 
ENDBRANCH  16  19
ENDBRANCH  14  15
ENDBRANCH   8   9
ENDBRANCH   7   8
ENDBRANCH   5   7
ENDBRANCH   2   3
ENDBRANCH   1   2
BRANCH   1  29
ATOM     29  C   UNL A   1      36.335  33.231  28.787  1.00  0.00     0.023 C 
BRANCH  29  30
ATOM     30  C   UNL A   1      37.115  32.680  29.978  1.00  0.00     0.116 C 
BRANCH  30  31
ATOM     31  N   UNL A   1      36.430  31.586  30.646  1.00  0.00    -0.352 N 
ATOM     32  C   UNL A   1      36.779  30.256  30.734  1.00  0.00     0.251 C 
ATOM     33  H   UNL A   1      35.596  31.832  31.105  1.00  0.00     0.163 HD
ATOM     34  O   UNL A   1      35.993  29.453  31.221  1.00  0.00    -0.269 OA
BRANCH  32  35
ATOM     35  C   UNL A   1      38.085  29.791  30.210  1.00  0.00     0.039 A 
ATOM     36  C   UNL A   1      38.280  29.753  28.827  1.00  0.00     0.014 A 
ATOM     37  C   UNL A   1      39.112  29.394  31.069  1.00  0.00     0.014 A 
ATOM     38  C   UNL A   1      39.528  29.387  28.310  1.00  0.00     0.010 A 
ATOM     39  C   UNL A   1      40.376  29.107  30.557  1.00  0.00     0.010 A 
ATOM     40  C   UNL A   1      40.600  29.102  29.171  1.00  0.00    -0.014 A 
BRANCH  40  41
ATOM     41  C   UNL A   1      41.961  28.814  28.642  1.00  0.00     0.031 A 
ATOM     42  C   UNL A   1      42.316  27.432  28.161  1.00  0.00     0.074 A 
ATOM     43  C   UNL A   1      42.900  29.783  28.652  1.00  0.00     0.049 A 
ATOM     44  N   UNL A   1      43.464  26.983  27.719  1.00  0.00    -0.248 NA
ATOM     45  C   UNL A   1      41.253  26.416  28.203  1.00  0.00     0.031 C 
ATOM     46  C   UNL A   1      42.697  31.156  29.122  1.00  0.00     0.029 A 
ATOM     47  N   UNL A   1      44.216  29.763  28.258  1.00  0.00    -0.354 N 
ATOM     48  C   UNL A   1      43.266  25.634  27.448  1.00  0.00     0.074 A 
ATOM     49  C   UNL A   1      41.902  25.327  27.821  1.00  0.00     0.031 C 
ATOM     50  C   UNL A   1      43.834  31.851  28.960  1.00  0.00     0.029 A 
ATOM     51  C   UNL A   1      44.862  30.966  28.422  1.00  0.00     0.049 A 
ATOM     52  H   UNL A   1      44.656  28.960  27.893  1.00  0.00     0.167 HD
ATOM     53  C   UNL A   1      44.132  24.735  26.921  1.00  0.00     0.031 A 
ATOM     54  C   UNL A   1      46.139  31.319  28.176  1.00  0.00     0.031 A 
ATOM     55  C   UNL A   1      45.487  25.046  26.542  1.00  0.00     0.049 A 
ATOM     56  C   UNL A   1      47.090  30.296  27.616  1.00  0.00     0.074 A 
ATOM     57  C   UNL A   1      46.422  24.219  25.945  1.00  0.00     0.029 A 
ATOM     58  N   UNL A   1      46.102  26.275  26.729  1.00  0.00    -0.354 N 
ATOM     59  N   UNL A   1      46.861  29.043  27.301  1.00  0.00    -0.248 NA
ATOM     60  C   UNL A   1      48.470  30.737  27.367  1.00  0.00     0.031 C 
ATOM     61  C   UNL A   1      47.622  24.925  25.832  1.00  0.00     0.029 A 
ATOM     62  C   UNL A   1      47.414  26.217  26.290  1.00  0.00     0.049 A 
ATOM     63  H   UNL A   1      45.670  27.070  27.116  1.00  0.00     0.167 HD
ATOM     64  C   UNL A   1      48.059  28.558  26.786  1.00  0.00     0.074 A 
ATOM     65  C   UNL A   1      49.004  29.655  26.819  1.00  0.00     0.031 C 
ATOM     66  C   UNL A   1      48.348  27.315  26.326  1.00  0.00     0.031 A 
BRANCH  53  67
ATOM     67  C   UNL A   1      43.648  23.321  26.732  1.00  0.00    -0.014 A 
ATOM     68  C   UNL A   1      43.787  22.658  25.499  1.00  0.00     0.010 A 
ATOM     69  C   UNL A   1      43.092  22.623  27.821  1.00  0.00     0.010 A 
ATOM     70  C   UNL A   1      43.343  21.342  25.347  1.00  0.00     0.020 A 
ATOM     71  C   UNL A   1      42.678  21.295  27.683  1.00  0.00     0.020 A 
ATOM     72  C   UNL A   1      42.791  20.668  26.441  1.00  0.00     0.054 A 
BRANCH  72  73
ATOM     73  S   UNL A   1      42.247  18.953  26.220  1.00  0.00     0.124 S 
ATOM     74  O   UNL A   1      40.855  19.129  25.813  1.00  0.00    -0.237 OA
ATOM     75  O   UNL A   1      43.148  18.464  25.180  1.00  0.00    -0.237 OA
ATOM     76  O   UNL A   1      42.439  18.355  27.540  1.00  0.00    -0.744 OA
ENDBRANCH  72  73
ENDBRANCH  53  67
BRANCH  54  77
ATOM     77  C   UNL A   1      46.595  32.712  28.449  1.00  0.00    -0.014 A 
ATOM     78  C   UNL A   1      46.488  33.706  27.460  1.00  0.00     0.010 A 
ATOM     79  C   UNL A   1      47.142  33.051  29.701  1.00  0.00     0.010 A 
ATOM     80  C   UNL A   1      46.937  35.006  27.709  1.00  0.00     0.020 A 
ATOM     81  C   UNL A   1      47.562  34.358  29.965  1.00  0.00     0.020 A 
ATOM     82  C   UNL A   1      47.469  35.325  28.962  1.00  0.00     0.054 A 
BRANCH  82  83
ATOM     83  S   UNL A   1      48.005  37.029  29.277  1.00  0.00     0.124 S 
ATOM     84  O   UNL A   1      49.264  36.826  29.985  1.00  0.00    -0.237 OA
ATOM     85  O   UNL A   1      48.117  37.577  27.928  1.00  0.00    -0.237 OA
ATOM     86  O   UNL A   1      46.918  37.586  30.079  1.00  0.00    -0.744 OA
ENDBRANCH  82  83
ENDBRANCH  54  77
BRANCH  66  87
ATOM     87  C   UNL A   1      49.732  27.079  25.777  1.00  0.00    -0.014 A 
ATOM     88  C   UNL A   1      50.753  26.531  26.572  1.00  0.00     0.010 A 
ATOM     89  C   UNL A   1      49.995  27.360  24.423  1.00  0.00     0.010 A 
ATOM     90  C   UNL A   1      52.023  26.300  26.033  1.00  0.00     0.020 A 
ATOM     91  C   UNL A   1      51.252  27.100  23.871  1.00  0.00     0.020 A 
ATOM     92  C   UNL A   1      52.263  26.585  24.684  1.00  0.00     0.054 A 
BRANCH  92  93
ATOM     93  S   UNL A   1      53.905  26.233  23.998  1.00  0.00     0.124 S 
ATOM     94  O   UNL A   1      54.645  27.441  24.348  1.00  0.00    -0.237 OA
ATOM     95  O   UNL A   1      54.299  25.024  24.717  1.00  0.00    -0.237 OA
ATOM     96  O   UNL A   1      53.652  26.048  22.571  1.00  0.00    -0.744 OA
ENDBRANCH  92  93
ENDBRANCH  66  87
ENDBRANCH  40  41
ENDBRANCH  32  35
ENDBRANCH  30  31
ENDBRANCH  29  30
ENDBRANCH   1  29
TORSDOF 18
ENDMDL
MODEL 2
REMARK VINA RESULT:     -12.0      0.459      7.970
REMARK SMILES O=C(CSc1ccc(NC(=O)c2cccc3ccccc23)cc1)NCCCCNC(=O)c1ccc(-c2c3nc(c(-c4ccc(S(=O)(=O)[O-])cc4)c4ccc([nH]4)c(-c4ccc(S(=O)(=O)[O-])cc4)c4nc(c(-c5ccc(S(=O)(=O)[O-])cc5)c5ccc2[nH]5)C=C4)C=C3)cc1
REMARK SMILES IDX 26 1 25 2 24 3 1 4 2 5 3 7 4 8 5 9 6 10 23 11 7 12 22 13
REMARK SMILES IDX 8 14 9 15 10 16 11 18 12 19 13 20 21 21 14 22 16 23 20 24
REMARK SMILES IDX 15 25 17 26 19 27 18 28 27 29 28 30 29 31 30 32 31 34 32 35
REMARK SMILES IDX 33 36 91 37 34 38 90 39 35 40 36 41 37 42 84 43 38 44 89 45
REMARK SMILES IDX 83 46 85 47 39 48 88 49 82 50 81 51 40 53 70 54 51 55 69 56
REMARK SMILES IDX 52 57 55 58 68 59 86 60 53 61 54 62 67 64 87 65 56 66 41 67
REMARK SMILES IDX 42 68 50 69 43 70 49 71 44 72 45 73 46 74 47 75 48 76 71 77
REMARK SMILES IDX 72 78 80 79 73 80 79 81 74 82 75 83 76 84 77 85 78 86 57 87
REMARK SMILES IDX 58 88 66 89 59 90 65 91 60 92 61 93 62 94 63 95 64 96
REMARK H PARENT 24 6 9 17 29 33 85 52 55 63
REMARK Flexibility Score: inf
ROOT
ATOM      1  C   UNL A   1      35.422  32.146  27.956  1.00  0.00     0.023 C 
ENDROOT
BRANCH   1   2
ATOM      2  C   UNL A   1      33.903  32.265  28.016  1.00  0.00     0.116 C 
BRANCH   2   3
ATOM      3  N   UNL A   1      33.251  31.039  27.603  1.00  0.00    -0.355 N 
ATOM      4  O   UNL A   1      31.470  32.054  26.562  1.00  0.00    -0.274 OA
ATOM      5  C   UNL A   1      32.080  31.034  26.871  1.00  0.00     0.230 C 
ATOM      6  H   UNL A   1      33.658  30.178  27.853  1.00  0.00     0.163 HD
BRANCH   5   7
ATOM      7  C   UNL A   1      31.552  29.653  26.523  1.00  0.00     0.174 C 
BRANCH   7   8
ATOM      8  S   UNL A   1      32.344  28.336  27.495  1.00  0.00    -0.116 SA
BRANCH   8   9
ATOM      9  C   UNL A   1      32.711  27.171  26.200  1.00  0.00     0.008 A 
ATOM     10  C   UNL A   1      31.832  26.112  25.970  1.00  0.00     0.017 A 
ATOM     11  C   UNL A   1      33.818  27.336  25.368  1.00  0.00     0.017 A 
ATOM     12  C   UNL A   1      32.007  25.268  24.876  1.00  0.00     0.027 A 
ATOM     13  C   UNL A   1      33.971  26.512  24.249  1.00  0.00     0.027 A 
ATOM     14  C   UNL A   1      33.006  25.542  23.951  1.00  0.00     0.041 A 
BRANCH  14  15
ATOM     15  N   UNL A   1      33.047  24.990  22.665  1.00  0.00    -0.322 N 
ATOM     16  C   UNL A   1      33.279  23.716  22.203  1.00  0.00     0.256 C 
ATOM     17  H   UNL A   1      32.875  25.644  21.950  1.00  0.00     0.170 HD
ATOM     18  O   UNL A   1      33.280  23.548  20.980  1.00  0.00    -0.269 OA
BRANCH  16  19
ATOM     19  C   UNL A   1      33.529  22.522  23.056  1.00  0.00     0.048 A 
ATOM     20  C   UNL A   1      32.401  21.691  23.194  1.00  0.00     0.014 A 
ATOM     21  C   UNL A   1      34.731  22.236  23.775  1.00  0.00    -0.006 A 
ATOM     22  C   UNL A   1      32.426  20.593  24.042  1.00  0.00     0.001 A 
ATOM     23  C   UNL A   1      34.729  21.104  24.635  1.00  0.00    -0.018 A 
ATOM     24  C   UNL A   1      35.947  22.965  23.694  1.00  0.00     0.009 A 
ATOM     25  C   UNL A   1      33.576  20.317  24.773  1.00  0.00     0.009 A 
ATOM     26  C   UNL A   1      35.885  20.742  25.347  1.00  0.00     0.009 A 
ATOM     27  C   UNL A   1      37.117  22.531  24.327  1.00  0.00     0.001 A 
ATOM     28  C   UNL A   1      37.082  21.427  25.166  1.00  0.00     0.001 A 
ENDBRANCH  16  19
ENDBRANCH  14  15
ENDBRANCH   8   9
ENDBRANCH   7   8
ENDBRANCH   5   7
ENDBRANCH   2   3
ENDBRANCH   1   2
BRANCH   1  29
ATOM     29  C   UNL A   1      36.183  33.320  28.580  1.00  0.00     0.023 C 
BRANCH  29  30
ATOM     30  C   UNL A   1      36.977  32.989  29.841  1.00  0.00     0.116 C 
BRANCH  30  31
ATOM     31  N   UNL A   1      36.318  32.007  30.685  1.00  0.00    -0.352 N 
ATOM     32  C   UNL A   1      36.674  30.705  30.958  1.00  0.00     0.251 C 
ATOM     33  H   UNL A   1      35.496  32.318  31.127  1.00  0.00     0.163 HD
ATOM     34  O   UNL A   1      35.907  29.983  31.584  1.00  0.00    -0.269 OA
BRANCH  32  35
ATOM     35  C   UNL A   1      37.966  30.167  30.470  1.00  0.00     0.039 A 
ATOM     36  C   UNL A   1      38.160  30.027  29.093  1.00  0.00     0.014 A 
ATOM     37  C   UNL A   1      38.982  29.801  31.356  1.00  0.00     0.014 A 
ATOM     38  C   UNL A   1      39.396  29.590  28.604  1.00  0.00     0.010 A 
ATOM     39  C   UNL A   1      40.237  29.441  30.866  1.00  0.00     0.010 A 
ATOM     40  C   UNL A   1      40.460  29.334  29.485  1.00  0.00    -0.014 A 
BRANCH  40  41
ATOM     41  C   UNL A   1      41.811  28.971  28.980  1.00  0.00     0.031 A 
ATOM     42  C   UNL A   1      42.896  30.012  28.884  1.00  0.00     0.074 A 
ATOM     43  C   UNL A   1      42.047  27.715  28.548  1.00  0.00     0.049 A 
ATOM     44  N   UNL A   1      44.115  29.893  28.420  1.00  0.00    -0.248 NA
ATOM     45  C   UNL A   1      42.563  31.368  29.348  1.00  0.00     0.031 C 
ATOM     46  C   UNL A   1      41.075  26.619  28.554  1.00  0.00     0.029 A 
ATOM     47  N   UNL A   1      43.179  27.146  28.014  1.00  0.00    -0.354 N 
ATOM     48  C   UNL A   1      44.685  31.156  28.521  1.00  0.00     0.074 A 
ATOM     49  C   UNL A   1      43.664  32.038  29.043  1.00  0.00     0.031 C 
ATOM     50  C   UNL A   1      41.659  25.507  28.079  1.00  0.00     0.029 A 
ATOM     51  C   UNL A   1      43.030  25.818  27.689  1.00  0.00     0.049 A 
ATOM     52  H   UNL A   1      44.018  27.644  27.877  1.00  0.00     0.167 HD
ATOM     53  C   UNL A   1      45.948  31.546  28.221  1.00  0.00     0.031 A 
ATOM     54  C   UNL A   1      43.895  24.946  27.132  1.00  0.00     0.031 A 
ATOM     55  C   UNL A   1      46.965  30.664  27.709  1.00  0.00     0.049 A 
ATOM     56  C   UNL A   1      45.284  25.410  26.784  1.00  0.00     0.074 A 
ATOM     57  C   UNL A   1      48.290  30.952  27.432  1.00  0.00     0.029 A 
ATOM     58  N   UNL A   1      46.772  29.328  27.390  1.00  0.00    -0.354 N 
ATOM     59  N   UNL A   1      45.824  26.594  26.953  1.00  0.00    -0.248 NA
ATOM     60  C   UNL A   1      46.183  24.417  26.180  1.00  0.00     0.031 C 
ATOM     61  C   UNL A   1      48.880  29.810  26.883  1.00  0.00     0.029 A 
ATOM     62  C   UNL A   1      47.944  28.788  26.887  1.00  0.00     0.049 A 
ATOM     63  H   UNL A   1      45.927  28.837  27.505  1.00  0.00     0.167 HD
ATOM     64  C   UNL A   1      47.136  26.477  26.506  1.00  0.00     0.074 A 
ATOM     65  C   UNL A   1      47.312  25.106  26.074  1.00  0.00     0.031 C 
ATOM     66  C   UNL A   1      48.109  27.421  26.461  1.00  0.00     0.031 A 
BRANCH  53  67
ATOM     67  C   UNL A   1      46.303  32.996  28.427  1.00  0.00    -0.014 A 
ATOM     68  C   UNL A   1      46.256  33.918  27.365  1.00  0.00     0.010 A 
ATOM     69  C   UNL A   1      46.638  33.456  29.714  1.00  0.00     0.010 A 
ATOM     70  C   UNL A   1      46.576  35.262  27.578  1.00  0.00     0.020 A 
ATOM     71  C   UNL A   1      46.927  34.805  29.938  1.00  0.00     0.020 A 
ATOM     72  C   UNL A   1      46.910  35.697  28.864  1.00  0.00     0.054 A 
BRANCH  72  73
ATOM     73  S   UNL A   1      47.296  37.451  29.114  1.00  0.00     0.124 S 
ATOM     74  O   UNL A   1      46.365  37.813  30.181  1.00  0.00    -0.237 OA
ATOM     75  O   UNL A   1      48.704  37.417  29.495  1.00  0.00    -0.237 OA
ATOM     76  O   UNL A   1      47.017  38.057  27.814  1.00  0.00    -0.744 OA
ENDBRANCH  72  73
ENDBRANCH  53  67
BRANCH  54  77
ATOM     77  C   UNL A   1      43.477  23.539  26.877  1.00  0.00    -0.014 A 
ATOM     78  C   UNL A   1      43.049  22.716  27.934  1.00  0.00     0.010 A 
ATOM     79  C   UNL A   1      43.506  23.012  25.572  1.00  0.00     0.010 A 
ATOM     80  C   UNL A   1      42.679  21.389  27.697  1.00  0.00     0.020 A 
ATOM     81  C   UNL A   1      43.106  21.695  25.325  1.00  0.00     0.020 A 
ATOM     82  C   UNL A   1      42.708  20.888  26.392  1.00  0.00     0.054 A 
BRANCH  82  83
ATOM     83  S   UNL A   1      42.181  19.176  26.102  1.00  0.00     0.124 S 
ATOM     84  O   UNL A   1      43.030  18.782  24.983  1.00  0.00    -0.237 OA
ATOM     85  O   UNL A   1      42.479  18.535  27.380  1.00  0.00    -0.237 OA
ATOM     86  O   UNL A   1      40.758  19.304  25.795  1.00  0.00    -0.744 OA
ENDBRANCH  82  83
ENDBRANCH  54  77
BRANCH  66  87
ATOM     87  C   UNL A   1      49.469  26.999  25.965  1.00  0.00    -0.014 A 
ATOM     88  C   UNL A   1      50.396  26.369  26.814  1.00  0.00     0.010 A 
ATOM     89  C   UNL A   1      49.799  27.186  24.610  1.00  0.00     0.010 A 
ATOM     90  C   UNL A   1      51.642  25.966  26.325  1.00  0.00     0.020 A 
ATOM     91  C   UNL A   1      51.030  26.754  24.109  1.00  0.00     0.020 A 
ATOM     92  C   UNL A   1      51.950  26.159  24.974  1.00  0.00     0.054 A 
BRANCH  92  93
ATOM     93  S   UNL A   1      53.555  25.585  24.354  1.00  0.00     0.124 S 
ATOM     94  O   UNL A   1      53.507  24.159  24.663  1.00  0.00    -0.237 OA
ATOM     95  O   UNL A   1      53.488  25.923  22.934  1.00  0.00    -0.237 OA
ATOM     96  O   UNL A   1      54.523  26.358  25.128  1.00  0.00    -0.744 OA
ENDBRANCH  92  93
ENDBRANCH  66  87
ENDBRANCH  40  41
ENDBRANCH  32  35
ENDBRANCH  30  31
ENDBRANCH  29  30
ENDBRANCH   1  29
TORSDOF 18
ENDMDL
MODEL 3
REMARK VINA RESULT:     -11.9      6.024     11.855
REMARK SMILES O=C(CSc1ccc(NC(=O)c2cccc3ccccc23)cc1)NCCCCNC(=O)c1ccc(-c2c3nc(c(-c4ccc(S(=O)(=O)[O-])cc4)c4ccc([nH]4)c(-c4ccc(S(=O)(=O)[O-])cc4)c4nc(c(-c5ccc(S(=O)(=O)[O-])cc5)c5ccc2[nH]5)C=C4)C=C3)cc1
REMARK SMILES IDX 26 1 25 2 24 3 1 4 2 5 3 7 4 8 5 9 6 10 23 11 7 12 22 13
REMARK SMILES IDX 8 14 9 15 10 16 11 18 12 19 13 20 21 21 14 22 16 23 20 24
REMARK SMILES IDX 15 25 17 26 19 27 18 28 27 29 28 30 29 31 30 32 31 34 32 35
REMARK SMILES IDX 33 36 91 37 34 38 90 39 35 40 36 41 37 42 84 43 38 44 89 45
REMARK SMILES IDX 83 46 85 47 39 48 88 49 82 50 81 51 40 53 70 54 51 55 69 56
REMARK SMILES IDX 52 57 55 58 68 59 86 60 53 61 54 62 67 64 87 65 56 66 41 67
REMARK SMILES IDX 42 68 50 69 43 70 49 71 44 72 45 73 46 74 47 75 48 76 71 77
REMARK SMILES IDX 72 78 80 79 73 80 79 81 74 82 75 83 76 84 77 85 78 86 57 87
REMARK SMILES IDX 58 88 66 89 59 90 65 91 60 92 61 93 62 94 63 95 64 96
REMARK H PARENT 24 6 9 17 29 33 85 52 55 63
REMARK Flexibility Score: inf
ROOT
ATOM      1  C   UNL A   1      40.889  21.951  27.932  1.00  0.00     0.023 C 
ENDROOT
BRANCH   1   2
ATOM      2  C   UNL A   1      40.335  21.454  26.601  1.00  0.00     0.116 C 
BRANCH   2   3
ATOM      3  N   UNL A   1      39.025  22.006  26.324  1.00  0.00    -0.355 N 
ATOM      4  O   UNL A   1      38.322  20.288  24.968  1.00  0.00    -0.274 OA
ATOM      5  C   UNL A   1      38.097  21.353  25.538  1.00  0.00     0.230 C 
ATOM      6  H   UNL A   1      38.788  22.880  26.710  1.00  0.00     0.163 HD
BRANCH   5   7
ATOM      7  C   UNL A   1      36.777  22.084  25.368  1.00  0.00     0.174 C 
BRANCH   7   8
ATOM      8  S   UNL A   1      35.386  20.951  25.065  1.00  0.00    -0.116 SA
BRANCH   8   9
ATOM      9  C   UNL A   1      34.019  22.056  25.341  1.00  0.00     0.008 A 
ATOM     10  C   UNL A   1      32.904  21.979  24.505  1.00  0.00     0.017 A 
ATOM     11  C   UNL A   1      34.009  22.944  26.416  1.00  0.00     0.017 A 
ATOM     12  C   UNL A   1      31.758  22.723  24.779  1.00  0.00     0.027 A 
ATOM     13  C   UNL A   1      32.845  23.661  26.711  1.00  0.00     0.027 A 
ATOM     14  C   UNL A   1      31.687  23.471  25.946  1.00  0.00     0.041 A 
BRANCH  14  15
ATOM     15  N   UNL A   1      30.491  23.956  26.486  1.00  0.00    -0.322 N 
ATOM     16  C   UNL A   1      29.813  25.143  26.336  1.00  0.00     0.256 C 
ATOM     17  H   UNL A   1      30.047  23.322  27.096  1.00  0.00     0.170 HD
ATOM     18  O   UNL A   1      28.774  25.289  26.987  1.00  0.00    -0.269 OA
BRANCH  16  19
ATOM     19  C   UNL A   1      30.226  26.266  25.451  1.00  0.00     0.048 A 
ATOM     20  C   UNL A   1      29.630  26.219  24.177  1.00  0.00     0.014 A 
ATOM     21  C   UNL A   1      31.201  27.266  25.757  1.00  0.00    -0.006 A 
ATOM     22  C   UNL A   1      29.987  27.128  23.190  1.00  0.00     0.001 A 
ATOM     23  C   UNL A   1      31.546  28.184  24.729  1.00  0.00    -0.018 A 
ATOM     24  C   UNL A   1      31.844  27.449  27.010  1.00  0.00     0.009 A 
ATOM     25  C   UNL A   1      30.955  28.088  23.461  1.00  0.00     0.009 A 
ATOM     26  C   UNL A   1      32.472  29.214  24.969  1.00  0.00     0.009 A 
ATOM     27  C   UNL A   1      32.683  28.542  27.262  1.00  0.00     0.001 A 
ATOM     28  C   UNL A   1      33.007  29.416  26.236  1.00  0.00     0.001 A 
ENDBRANCH  16  19
ENDBRANCH  14  15
ENDBRANCH   8   9
ENDBRANCH   7   8
ENDBRANCH   5   7
ENDBRANCH   2   3
ENDBRANCH   1   2
BRANCH   1  29
ATOM     29  C   UNL A   1      42.387  22.269  27.925  1.00  0.00     0.023 C 
BRANCH  29  30
ATOM     30  C   UNL A   1      42.744  23.737  27.713  1.00  0.00     0.116 C 
BRANCH  30  31
ATOM     31  N   UNL A   1      42.302  24.247  26.425  1.00  0.00    -0.352 N 
ATOM     32  C   UNL A   1      41.601  25.395  26.130  1.00  0.00     0.251 C 
ATOM     33  H   UNL A   1      42.541  23.691  25.649  1.00  0.00     0.163 HD
ATOM     34  O   UNL A   1      41.193  25.581  24.990  1.00  0.00    -0.269 OA
BRANCH  32  35
ATOM     35  C   UNL A   1      41.310  26.386  27.193  1.00  0.00     0.039 A 
ATOM     36  C   UNL A   1      40.315  26.097  28.129  1.00  0.00     0.014 A 
ATOM     37  C   UNL A   1      42.010  27.594  27.270  1.00  0.00     0.014 A 
ATOM     38  C   UNL A   1      40.073  26.983  29.184  1.00  0.00     0.010 A 
ATOM     39  C   UNL A   1      41.822  28.437  28.364  1.00  0.00     0.010 A 
ATOM     40  C   UNL A   1      40.854  28.141  29.336  1.00  0.00    -0.014 A 
BRANCH  40  41
ATOM     41  C   UNL A   1      40.683  29.041  30.508  1.00  0.00     0.031 A 
ATOM     42  C   UNL A   1      41.538  28.866  31.736  1.00  0.00     0.074 A 
ATOM     43  C   UNL A   1      39.714  29.980  30.493  1.00  0.00     0.049 A 
ATOM     44  N   UNL A   1      41.495  29.520  32.870  1.00  0.00    -0.248 NA
ATOM     45  C   UNL A   1      42.557  27.806  31.695  1.00  0.00     0.031 C 
ATOM     46  C   UNL A   1      38.795  30.233  29.381  1.00  0.00     0.029 A 
ATOM     47  N   UNL A   1      39.337  30.897  31.445  1.00  0.00    -0.354 N 
ATOM     48  C   UNL A   1      42.465  28.941  33.679  1.00  0.00     0.074 A 
ATOM     49  C   UNL A   1      43.046  27.852  32.925  1.00  0.00     0.031 C 
ATOM     50  C   UNL A   1      37.985  31.255  29.700  1.00  0.00     0.029 A 
ATOM     51  C   UNL A   1      38.289  31.699  31.056  1.00  0.00     0.049 A 
ATOM     52  H   UNL A   1      39.776  30.971  32.324  1.00  0.00     0.167 HD
ATOM     53  C   UNL A   1      42.851  29.292  34.930  1.00  0.00     0.031 A 
ATOM     54  C   UNL A   1      37.639  32.679  31.716  1.00  0.00     0.031 A 
ATOM     55  C   UNL A   1      42.277  30.383  35.675  1.00  0.00     0.049 A 
ATOM     56  C   UNL A   1      38.069  33.032  33.115  1.00  0.00     0.074 A 
ATOM     57  C   UNL A   1      42.640  30.853  36.925  1.00  0.00     0.029 A 
ATOM     58  N   UNL A   1      41.216  31.167  35.247  1.00  0.00    -0.354 N 
ATOM     59  N   UNL A   1      39.037  32.517  33.836  1.00  0.00    -0.248 NA
ATOM     60  C   UNL A   1      37.325  34.108  33.785  1.00  0.00     0.031 C 
ATOM     61  C   UNL A   1      41.758  31.876  37.281  1.00  0.00     0.029 A 
ATOM     62  C   UNL A   1      40.891  32.095  36.222  1.00  0.00     0.049 A 
ATOM     63  H   UNL A   1      40.762  31.077  34.378  1.00  0.00     0.167 HD
ATOM     64  C   UNL A   1      39.038  33.229  35.030  1.00  0.00     0.074 A 
ATOM     65  C   UNL A   1      37.985  34.219  34.930  1.00  0.00     0.031 C 
ATOM     66  C   UNL A   1      39.841  33.077  36.113  1.00  0.00     0.031 A 
BRANCH  53  67
ATOM     67  C   UNL A   1      43.940  28.481  35.583  1.00  0.00    -0.014 A 
ATOM     68  C   UNL A   1      45.296  28.829  35.443  1.00  0.00     0.010 A 
ATOM     69  C   UNL A   1      43.600  27.381  36.393  1.00  0.00     0.010 A 
ATOM     70  C   UNL A   1      46.291  28.072  36.066  1.00  0.00     0.020 A 
ATOM     71  C   UNL A   1      44.590  26.640  37.045  1.00  0.00     0.020 A 
ATOM     72  C   UNL A   1      45.931  26.981  36.864  1.00  0.00     0.054 A 
BRANCH  72  73
ATOM     73  S   UNL A   1      47.244  26.033  37.680  1.00  0.00     0.124 S 
ATOM     74  O   UNL A   1      46.505  25.350  38.740  1.00  0.00    -0.237 OA
ATOM     75  O   UNL A   1      47.734  25.175  36.605  1.00  0.00    -0.237 OA
ATOM     76  O   UNL A   1      48.181  27.057  38.136  1.00  0.00    -0.744 OA
ENDBRANCH  72  73
ENDBRANCH  53  67
BRANCH  54  77
ATOM     77  C   UNL A   1      36.516  33.405  31.059  1.00  0.00    -0.014 A 
ATOM     78  C   UNL A   1      35.300  33.605  31.736  1.00  0.00     0.010 A 
ATOM     79  C   UNL A   1      36.657  33.900  29.749  1.00  0.00     0.010 A 
ATOM     80  C   UNL A   1      34.240  34.267  31.111  1.00  0.00     0.020 A 
ATOM     81  C   UNL A   1      35.610  34.591  29.131  1.00  0.00     0.020 A 
ATOM     82  C   UNL A   1      34.403  34.758  29.812  1.00  0.00     0.054 A 
BRANCH  82  83
ATOM     83  S   UNL A   1      33.028  35.652  29.036  1.00  0.00     0.124 S 
ATOM     84  O   UNL A   1      32.226  36.038  30.192  1.00  0.00    -0.237 OA
ATOM     85  O   UNL A   1      33.712  36.743  28.346  1.00  0.00    -0.237 OA
ATOM     86  O   UNL A   1      32.422  34.653  28.159  1.00  0.00    -0.744 OA
ENDBRANCH  82  83
ENDBRANCH  54  77
BRANCH  66  87
ATOM     87  C   UNL A   1      39.647  34.030  37.265  1.00  0.00    -0.014 A 
ATOM     88  C   UNL A   1      38.835  33.697  38.363  1.00  0.00     0.010 A 
ATOM     89  C   UNL A   1      40.337  35.256  37.271  1.00  0.00     0.010 A 
ATOM     90  C   UNL A   1      38.689  34.589  39.430  1.00  0.00     0.020 A 
ATOM     91  C   UNL A   1      40.221  36.135  38.350  1.00  0.00     0.020 A 
ATOM     92  C   UNL A   1      39.385  35.802  39.418  1.00  0.00     0.054 A 
BRANCH  92  93
ATOM     93  S   UNL A   1      39.215  36.920  40.836  1.00  0.00     0.124 S 
ATOM     94  O   UNL A   1      38.484  36.092  41.789  1.00  0.00    -0.237 OA
ATOM     95  O   UNL A   1      40.605  37.204  41.187  1.00  0.00    -0.237 OA
ATOM     96  O   UNL A   1      38.470  38.055  40.296  1.00  0.00    -0.744 OA
ENDBRANCH  92  93
ENDBRANCH  66  87
ENDBRANCH  40  41
ENDBRANCH  32  35
ENDBRANCH  30  31
ENDBRANCH  29  30
ENDBRANCH   1  29
TORSDOF 18
ENDMDL
