MODEL 1
REMARK VINA RESULT:      -8.6      0.000      0.000
REMARK SMILES CC(C)[C@@H]([NH3+])C(=O)N[C@@H](Cc1ccccc1)C(=O)NCCCCNC(=O)c1ccc(-c2c3nc(c(-c4ccc(S(=O)(=O)[O-])cc4)c4ccc([nH]4)c(-c4ccc(S(=O)(=O)[O-])cc4)c4nc(c(-c5ccc(S(=O)(=O)[O-])cc5)c5ccc2[nH]5)C=C4)C=C3)cc1
REMARK SMILES IDX 21 1 20 2 19 3 17 4 18 5 9 7 8 8 6 9 7 10 4 12 2 13 1 14
REMARK SMILES IDX 3 15 5 16 10 20 11 21 12 22 16 23 13 24 15 25 14 26 22 27
REMARK SMILES IDX 23 28 24 29 25 30 26 32 27 33 28 34 86 35 29 36 85 37 30 38
REMARK SMILES IDX 31 39 32 40 79 41 33 42 84 43 78 44 80 45 34 46 83 47 77 48
REMARK SMILES IDX 76 49 35 51 65 52 46 53 64 54 47 55 50 56 63 57 81 58 48 59
REMARK SMILES IDX 49 60 62 62 82 63 51 64 36 65 37 66 45 67 38 68 44 69 39 70
REMARK SMILES IDX 40 71 41 72 42 73 43 74 66 75 67 76 75 77 68 78 74 79 69 80
REMARK SMILES IDX 70 81 71 82 72 83 73 84 52 85 53 86 61 87 54 88 60 89 55 90
REMARK SMILES IDX 56 91 57 92 58 93 59 94
REMARK H PARENT 19 6 8 11 5 17 5 18 5 19 24 31 80 50 50 61
REMARK Flexibility Score: inf
ROOT
ATOM      1  C   UNL A   1      34.647  32.771  31.798  1.00  0.00     0.023 C 
ENDROOT
BRANCH   1   2
ATOM      2  C   UNL A   1      35.115  33.487  33.054  1.00  0.00     0.116 C 
BRANCH   2   3
ATOM      3  N   UNL A   1      36.369  34.194  32.908  1.00  0.00    -0.354 N 
ATOM      4  C   UNL A   1      37.641  33.757  33.145  1.00  0.00     0.242 C 
ATOM      5  O   UNL A   1      38.539  34.301  32.491  1.00  0.00    -0.273 OA
ATOM      6  H   UNL A   1      36.294  35.123  32.591  1.00  0.00     0.163 HD
BRANCH   4   7
ATOM      7  C   UNL A   1      37.977  32.559  34.071  1.00  0.00     0.175 C 
BRANCH   7   8
ATOM      8  N   UNL A   1      37.253  32.544  35.349  1.00  0.00    -0.339 N 
ATOM      9  C   UNL A   1      37.620  33.002  36.576  1.00  0.00     0.279 C 
ATOM     10  O   UNL A   1      36.756  33.005  37.461  1.00  0.00    -0.268 OA
ATOM     11  H   UNL A   1      36.359  32.136  35.312  1.00  0.00     0.164 HD
BRANCH   9  12
ATOM     12  C   UNL A   1      39.060  33.464  36.893  1.00  0.00     0.273 C 
BRANCH  12  13
ATOM     13  C   UNL A   1      39.098  34.795  37.686  1.00  0.00     0.051 C 
ATOM     14  C   UNL A   1      39.710  34.621  39.080  1.00  0.00     0.014 C 
ATOM     15  C   UNL A   1      39.884  35.870  36.925  1.00  0.00     0.014 C 
ENDBRANCH  12  13
BRANCH  12  16
ATOM     16  N   UNL A   1      39.792  32.367  37.553  1.00  0.00    -0.347 N 
ATOM     17  H   UNL A   1      40.791  32.577  37.555  1.00  0.00     0.345 HD
ATOM     18  H   UNL A   1      39.629  31.496  37.047  1.00  0.00     0.345 HD
ATOM     19  H   UNL A   1      39.464  32.269  38.513  1.00  0.00     0.345 HD
ENDBRANCH  12  16
ENDBRANCH   9  12
ENDBRANCH   7   8
BRANCH   7  20
ATOM     20  C   UNL A   1      37.973  31.193  33.350  1.00  0.00     0.070 C 
BRANCH  20  21
ATOM     21  C   UNL A   1      39.207  30.331  33.479  1.00  0.00    -0.045 A 
ATOM     22  C   UNL A   1      40.368  30.850  34.072  1.00  0.00     0.004 A 
ATOM     23  C   UNL A   1      39.227  29.017  32.988  1.00  0.00     0.004 A 
ATOM     24  C   UNL A   1      41.538  30.090  34.126  1.00  0.00     0.000 A 
ATOM     25  C   UNL A   1      40.406  28.266  33.025  1.00  0.00     0.000 A 
ATOM     26  C   UNL A   1      41.562  28.806  33.585  1.00  0.00     0.000 A 
ENDBRANCH  20  21
ENDBRANCH   7  20
ENDBRANCH   4   7
ENDBRANCH   2   3
ENDBRANCH   1   2
BRANCH   1  27
ATOM     27  C   UNL A   1      34.590  33.638  30.543  1.00  0.00     0.023 C 
BRANCH  27  28
ATOM     28  C   UNL A   1      35.154  33.013  29.269  1.00  0.00     0.116 C 
BRANCH  28  29
ATOM     29  N   UNL A   1      34.208  32.179  28.537  1.00  0.00    -0.352 N 
ATOM     30  C   UNL A   1      34.380  30.900  28.060  1.00  0.00     0.251 C 
ATOM     31  H   UNL A   1      33.328  32.586  28.362  1.00  0.00     0.163 HD
ATOM     32  O   UNL A   1      33.490  30.346  27.421  1.00  0.00    -0.269 OA
BRANCH  30  33
ATOM     33  C   UNL A   1      35.672  30.220  28.290  1.00  0.00     0.039 A 
ATOM     34  C   UNL A   1      36.630  30.224  27.274  1.00  0.00     0.014 A 
ATOM     35  C   UNL A   1      35.963  29.665  29.538  1.00  0.00     0.014 A 
ATOM     36  C   UNL A   1      37.920  29.761  27.545  1.00  0.00     0.010 A 
ATOM     37  C   UNL A   1      37.266  29.272  29.827  1.00  0.00     0.010 A 
ATOM     38  C   UNL A   1      38.262  29.333  28.840  1.00  0.00    -0.014 A 
BRANCH  38  39
ATOM     39  C   UNL A   1      39.664  28.989  29.193  1.00  0.00     0.031 A 
ATOM     40  C   UNL A   1      40.556  30.009  29.844  1.00  0.00     0.074 A 
ATOM     41  C   UNL A   1      40.161  27.784  28.845  1.00  0.00     0.049 A 
ATOM     42  N   UNL A   1      41.822  29.914  30.162  1.00  0.00    -0.248 NA
ATOM     43  C   UNL A   1      39.954  31.317  30.154  1.00  0.00     0.031 C 
ATOM     44  C   UNL A   1      39.419  26.726  28.153  1.00  0.00     0.029 A 
ATOM     45  N   UNL A   1      41.414  27.249  29.017  1.00  0.00    -0.354 N 
ATOM     46  C   UNL A   1      42.174  31.151  30.687  1.00  0.00     0.074 A 
ATOM     47  C   UNL A   1      41.000  31.994  30.606  1.00  0.00     0.031 C 
ATOM     48  C   UNL A   1      40.223  25.663  27.984  1.00  0.00     0.029 A 
ATOM     49  C   UNL A   1      41.544  25.973  28.521  1.00  0.00     0.049 A 
ATOM     50  H   UNL A   1      42.151  27.734  29.454  1.00  0.00     0.167 HD
ATOM     51  C   UNL A   1      43.360  31.546  31.207  1.00  0.00     0.031 A 
ATOM     52  C   UNL A   1      42.605  25.144  28.497  1.00  0.00     0.031 A 
ATOM     53  C   UNL A   1      44.521  30.703  31.307  1.00  0.00     0.049 A 
ATOM     54  C   UNL A   1      43.906  25.597  29.101  1.00  0.00     0.074 A 
ATOM     55  C   UNL A   1      45.747  30.991  31.879  1.00  0.00     0.029 A 
ATOM     56  N   UNL A   1      44.600  29.406  30.822  1.00  0.00    -0.354 N 
ATOM     57  N   UNL A   1      44.196  26.747  29.660  1.00  0.00    -0.248 NA
ATOM     58  C   UNL A   1      45.017  24.636  29.081  1.00  0.00     0.031 C 
ATOM     59  C   UNL A   1      46.582  29.881  31.707  1.00  0.00     0.029 A 
ATOM     60  C   UNL A   1      45.860  28.886  31.068  1.00  0.00     0.049 A 
ATOM     61  H   UNL A   1      43.869  28.926  30.370  1.00  0.00     0.167 HD
ATOM     62  C   UNL A   1      45.518  26.639  30.079  1.00  0.00     0.074 A 
ATOM     63  C   UNL A   1      45.964  25.308  29.722  1.00  0.00     0.031 C 
ATOM     64  C   UNL A   1      46.290  27.560  30.705  1.00  0.00     0.031 A 
BRANCH  51  65
ATOM     65  C   UNL A   1      43.456  32.960  31.713  1.00  0.00    -0.014 A 
ATOM     66  C   UNL A   1      43.691  34.030  30.832  1.00  0.00     0.010 A 
ATOM     67  C   UNL A   1      43.282  33.226  33.084  1.00  0.00     0.010 A 
ATOM     68  C   UNL A   1      43.795  35.337  31.316  1.00  0.00     0.020 A 
ATOM     69  C   UNL A   1      43.360  34.535  33.569  1.00  0.00     0.020 A 
ATOM     70  C   UNL A   1      43.635  35.579  32.683  1.00  0.00     0.054 A 
BRANCH  70  71
ATOM     71  S   UNL A   1      43.762  37.286  33.284  1.00  0.00     0.124 S 
ATOM     72  O   UNL A   1      42.498  37.448  33.997  1.00  0.00    -0.237 OA
ATOM     73  O   UNL A   1      44.955  37.243  34.125  1.00  0.00    -0.237 OA
ATOM     74  O   UNL A   1      43.894  38.074  32.061  1.00  0.00    -0.744 OA
ENDBRANCH  70  71
ENDBRANCH  51  65
BRANCH  52  75
ATOM     75  C   UNL A   1      42.475  23.787  27.899  1.00  0.00    -0.014 A 
ATOM     76  C   UNL A   1      42.637  23.603  26.515  1.00  0.00     0.010 A 
ATOM     77  C   UNL A   1      42.205  22.671  28.713  1.00  0.00     0.010 A 
ATOM     78  C   UNL A   1      42.514  22.330  25.952  1.00  0.00     0.020 A 
ATOM     79  C   UNL A   1      42.105  21.394  28.156  1.00  0.00     0.020 A 
ATOM     80  C   UNL A   1      42.250  21.232  26.776  1.00  0.00     0.054 A 
BRANCH  80  81
ATOM     81  S   UNL A   1      42.152  19.580  26.032  1.00  0.00     0.124 S 
ATOM     82  O   UNL A   1      43.088  19.694  24.917  1.00  0.00    -0.237 OA
ATOM     83  O   UNL A   1      42.576  18.712  27.128  1.00  0.00    -0.237 OA
ATOM     84  O   UNL A   1      40.744  19.457  25.660  1.00  0.00    -0.744 OA
ENDBRANCH  80  81
ENDBRANCH  52  75
BRANCH  64  85
ATOM     85  C   UNL A   1      47.691  27.153  31.072  1.00  0.00    -0.014 A 
ATOM     86  C   UNL A   1      48.774  27.430  30.219  1.00  0.00     0.010 A 
ATOM     87  C   UNL A   1      47.932  26.533  32.311  1.00  0.00     0.010 A 
ATOM     88  C   UNL A   1      50.072  27.069  30.589  1.00  0.00     0.020 A 
ATOM     89  C   UNL A   1      49.231  26.193  32.694  1.00  0.00     0.020 A 
ATOM     90  C   UNL A   1      50.292  26.451  31.823  1.00  0.00     0.054 A 
BRANCH  90  91
ATOM     91  S   UNL A   1      51.992  26.033  32.303  1.00  0.00     0.124 S 
ATOM     92  O   UNL A   1      52.688  26.077  31.021  1.00  0.00    -0.237 OA
ATOM     93  O   UNL A   1      52.333  27.099  33.241  1.00  0.00    -0.237 OA
ATOM     94  O   UNL A   1      51.865  24.705  32.899  1.00  0.00    -0.744 OA
ENDBRANCH  90  91
ENDBRANCH  64  85
ENDBRANCH  38  39
ENDBRANCH  30  33
ENDBRANCH  28  29
ENDBRANCH  27  28
ENDBRANCH   1  27
TORSDOF 20
ENDMDL
MODEL 2
REMARK VINA RESULT:      -8.6      5.070     12.026
REMARK SMILES CC(C)[C@@H]([NH3+])C(=O)N[C@@H](Cc1ccccc1)C(=O)NCCCCNC(=O)c1ccc(-c2c3nc(c(-c4ccc(S(=O)(=O)[O-])cc4)c4ccc([nH]4)c(-c4ccc(S(=O)(=O)[O-])cc4)c4nc(c(-c5ccc(S(=O)(=O)[O-])cc5)c5ccc2[nH]5)C=C4)C=C3)cc1
REMARK SMILES IDX 21 1 20 2 19 3 17 4 18 5 9 7 8 8 6 9 7 10 4 12 2 13 1 14
REMARK SMILES IDX 3 15 5 16 10 20 11 21 12 22 16 23 13 24 15 25 14 26 22 27
REMARK SMILES IDX 23 28 24 29 25 30 26 32 27 33 28 34 86 35 29 36 85 37 30 38
REMARK SMILES IDX 31 39 32 40 79 41 33 42 84 43 78 44 80 45 34 46 83 47 77 48
REMARK SMILES IDX 76 49 35 51 65 52 46 53 64 54 47 55 50 56 63 57 81 58 48 59
REMARK SMILES IDX 49 60 62 62 82 63 51 64 36 65 37 66 45 67 38 68 44 69 39 70
REMARK SMILES IDX 40 71 41 72 42 73 43 74 66 75 67 76 75 77 68 78 74 79 69 80
REMARK SMILES IDX 70 81 71 82 72 83 73 84 52 85 53 86 61 87 54 88 60 89 55 90
REMARK SMILES IDX 56 91 57 92 58 93 59 94
REMARK H PARENT 19 6 8 11 5 17 5 18 5 19 24 31 80 50 50 61
REMARK Flexibility Score: inf
ROOT
ATOM      1  C   UNL A   1      34.976  23.642  26.676  1.00  0.00     0.023 C 
ENDROOT
BRANCH   1   2
ATOM      2  C   UNL A   1      33.663  22.973  27.048  1.00  0.00     0.116 C 
BRANCH   2   3
ATOM      3  N   UNL A   1      32.510  23.482  26.338  1.00  0.00    -0.354 N 
ATOM      4  C   UNL A   1      31.797  22.909  25.324  1.00  0.00     0.242 C 
ATOM      5  O   UNL A   1      30.610  23.245  25.230  1.00  0.00    -0.273 OA
ATOM      6  H   UNL A   1      32.195  24.369  26.627  1.00  0.00     0.163 HD
BRANCH   4   7
ATOM      7  C   UNL A   1      32.360  21.796  24.403  1.00  0.00     0.175 C 
BRANCH   7   8
ATOM      8  N   UNL A   1      33.614  22.136  23.717  1.00  0.00    -0.339 N 
ATOM      9  C   UNL A   1      33.898  23.138  22.844  1.00  0.00     0.279 C 
ATOM     10  O   UNL A   1      35.082  23.296  22.528  1.00  0.00    -0.268 OA
ATOM     11  H   UNL A   1      34.370  21.542  23.924  1.00  0.00     0.164 HD
BRANCH   9  12
ATOM     12  C   UNL A   1      32.801  24.032  22.220  1.00  0.00     0.273 C 
BRANCH  12  13
ATOM     13  C   UNL A   1      32.804  25.469  22.798  1.00  0.00     0.051 C 
ATOM     14  C   UNL A   1      33.803  25.629  23.948  1.00  0.00     0.014 C 
ATOM     15  C   UNL A   1      33.125  26.502  21.709  1.00  0.00     0.014 C 
ENDBRANCH  12  13
BRANCH  12  16
ATOM     16  N   UNL A   1      32.913  23.990  20.750  1.00  0.00    -0.347 N 
ATOM     17  H   UNL A   1      33.667  23.356  20.484  1.00  0.00     0.345 HD
ATOM     18  H   UNL A   1      33.115  24.925  20.397  1.00  0.00     0.345 HD
ATOM     19  H   UNL A   1      32.035  23.659  20.352  1.00  0.00     0.345 HD
ENDBRANCH  12  16
ENDBRANCH   9  12
ENDBRANCH   7   8
BRANCH   7  20
ATOM     20  C   UNL A   1      32.380  20.396  25.056  1.00  0.00     0.070 C 
BRANCH  20  21
ATOM     21  C   UNL A   1      32.939  19.253  24.242  1.00  0.00    -0.045 A 
ATOM     22  C   UNL A   1      32.263  18.809  23.096  1.00  0.00     0.004 A 
ATOM     23  C   UNL A   1      34.120  18.599  24.628  1.00  0.00     0.004 A 
ATOM     24  C   UNL A   1      32.728  17.703  22.381  1.00  0.00     0.000 A 
ATOM     25  C   UNL A   1      34.571  17.480  23.921  1.00  0.00     0.000 A 
ATOM     26  C   UNL A   1      33.870  17.028  22.805  1.00  0.00     0.000 A 
ENDBRANCH  20  21
ENDBRANCH   7  20
ENDBRANCH   4   7
ENDBRANCH   2   3
ENDBRANCH   1   2
BRANCH   1  27
ATOM     27  C   UNL A   1      35.989  22.736  25.980  1.00  0.00     0.023 C 
BRANCH  27  28
ATOM     28  C   UNL A   1      37.220  23.427  25.397  1.00  0.00     0.116 C 
BRANCH  28  29
ATOM     29  N   UNL A   1      38.455  22.662  25.522  1.00  0.00    -0.352 N 
ATOM     30  C   UNL A   1      39.624  23.014  26.155  1.00  0.00     0.251 C 
ATOM     31  H   UNL A   1      38.451  21.774  25.095  1.00  0.00     0.163 HD
ATOM     32  O   UNL A   1      40.597  22.266  26.134  1.00  0.00    -0.269 OA
BRANCH  30  33
ATOM     33  C   UNL A   1      39.705  24.330  26.825  1.00  0.00     0.039 A 
ATOM     34  C   UNL A   1      39.224  24.456  28.129  1.00  0.00     0.014 A 
ATOM     35  C   UNL A   1      40.339  25.403  26.194  1.00  0.00     0.014 A 
ATOM     36  C   UNL A   1      39.471  25.632  28.841  1.00  0.00     0.010 A 
ATOM     37  C   UNL A   1      40.647  26.544  26.929  1.00  0.00     0.010 A 
ATOM     38  C   UNL A   1      40.233  26.664  28.265  1.00  0.00    -0.014 A 
BRANCH  38  39
ATOM     39  C   UNL A   1      40.645  27.852  29.055  1.00  0.00     0.031 A 
ATOM     40  C   UNL A   1      41.960  27.861  29.784  1.00  0.00     0.074 A 
ATOM     41  C   UNL A   1      39.794  28.890  29.188  1.00  0.00     0.049 A 
ATOM     42  N   UNL A   1      42.456  28.778  30.575  1.00  0.00    -0.248 NA
ATOM     43  C   UNL A   1      42.817  26.675  29.625  1.00  0.00     0.031 C 
ATOM     44  C   UNL A   1      38.462  28.980  28.583  1.00  0.00     0.029 A 
ATOM     45  N   UNL A   1      39.918  30.066  29.887  1.00  0.00    -0.354 N 
ATOM     46  C   UNL A   1      43.670  28.271  31.025  1.00  0.00     0.074 A 
ATOM     47  C   UNL A   1      43.815  26.950  30.453  1.00  0.00     0.031 C 
ATOM     48  C   UNL A   1      37.905  30.156  28.916  1.00  0.00     0.029 A 
ATOM     49  C   UNL A   1      38.821  30.890  29.784  1.00  0.00     0.049 A 
ATOM     50  H   UNL A   1      40.718  30.298  30.412  1.00  0.00     0.167 HD
ATOM     51  C   UNL A   1      44.590  28.858  31.827  1.00  0.00     0.031 A 
ATOM     52  C   UNL A   1      38.576  32.098  30.327  1.00  0.00     0.031 A 
ATOM     53  C   UNL A   1      44.456  30.179  32.380  1.00  0.00     0.049 A 
ATOM     54  C   UNL A   1      39.623  32.739  31.196  1.00  0.00     0.074 A 
ATOM     55  C   UNL A   1      45.364  30.886  33.148  1.00  0.00     0.029 A 
ATOM     56  N   UNL A   1      43.345  30.992  32.224  1.00  0.00    -0.354 N 
ATOM     57  N   UNL A   1      40.797  32.273  31.550  1.00  0.00    -0.248 NA
ATOM     58  C   UNL A   1      39.316  34.074  31.729  1.00  0.00     0.031 C 
ATOM     59  C   UNL A   1      44.786  32.114  33.489  1.00  0.00     0.029 A 
ATOM     60  C   UNL A   1      43.536  32.189  32.896  1.00  0.00     0.049 A 
ATOM     61  H   UNL A   1      42.538  30.756  31.712  1.00  0.00     0.167 HD
ATOM     62  C   UNL A   1      41.378  33.268  32.328  1.00  0.00     0.074 A 
ATOM     63  C   UNL A   1      40.434  34.364  32.381  1.00  0.00     0.031 C 
ATOM     64  C   UNL A   1      42.587  33.271  32.941  1.00  0.00     0.031 A 
BRANCH  51  65
ATOM     65  C   UNL A   1      45.829  28.068  32.151  1.00  0.00    -0.014 A 
ATOM     66  C   UNL A   1      45.867  27.204  33.260  1.00  0.00     0.010 A 
ATOM     67  C   UNL A   1      46.960  28.169  31.320  1.00  0.00     0.010 A 
ATOM     68  C   UNL A   1      47.030  26.488  33.559  1.00  0.00     0.020 A 
ATOM     69  C   UNL A   1      48.116  27.435  31.602  1.00  0.00     0.020 A 
ATOM     70  C   UNL A   1      48.149  26.614  32.731  1.00  0.00     0.054 A 
BRANCH  70  71
ATOM     71  S   UNL A   1      49.641  25.664  33.136  1.00  0.00     0.124 S 
ATOM     72  O   UNL A   1      50.346  26.580  34.028  1.00  0.00    -0.237 OA
ATOM     73  O   UNL A   1      49.098  24.465  33.768  1.00  0.00    -0.237 OA
ATOM     74  O   UNL A   1      50.274  25.447  31.838  1.00  0.00    -0.744 OA
ENDBRANCH  70  71
ENDBRANCH  51  65
BRANCH  52  75
ATOM     75  C   UNL A   1      37.292  32.793  30.045  1.00  0.00    -0.014 A 
ATOM     76  C   UNL A   1      37.153  33.589  28.895  1.00  0.00     0.010 A 
ATOM     77  C   UNL A   1      36.195  32.649  30.915  1.00  0.00     0.010 A 
ATOM     78  C   UNL A   1      35.947  34.244  28.629  1.00  0.00     0.020 A 
ATOM     79  C   UNL A   1      34.981  33.282  30.639  1.00  0.00     0.020 A 
ATOM     80  C   UNL A   1      34.867  34.086  29.502  1.00  0.00     0.054 A 
BRANCH  80  81
ATOM     81  S   UNL A   1      33.293  34.896  29.107  1.00  0.00     0.124 S 
ATOM     82  O   UNL A   1      32.757  34.025  28.066  1.00  0.00    -0.237 OA
ATOM     83  O   UNL A   1      32.588  34.863  30.385  1.00  0.00    -0.237 OA
ATOM     84  O   UNL A   1      33.698  36.229  28.663  1.00  0.00    -0.744 OA
ENDBRANCH  80  81
ENDBRANCH  52  75
BRANCH  64  85
ATOM     85  C   UNL A   1      42.972  34.510  33.701  1.00  0.00    -0.014 A 
ATOM     86  C   UNL A   1      42.751  34.611  35.086  1.00  0.00     0.010 A 
ATOM     87  C   UNL A   1      43.614  35.566  33.028  1.00  0.00     0.010 A 
ATOM     88  C   UNL A   1      43.141  35.759  35.780  1.00  0.00     0.020 A 
ATOM     89  C   UNL A   1      44.027  36.704  33.724  1.00  0.00     0.020 A 
ATOM     90  C   UNL A   1      43.775  36.799  35.094  1.00  0.00     0.054 A 
BRANCH  90  91
ATOM     91  S   UNL A   1      44.315  38.261  36.024  1.00  0.00     0.124 S 
ATOM     92  O   UNL A   1      45.743  38.008  36.185  1.00  0.00    -0.237 OA
ATOM     93  O   UNL A   1      43.969  39.360  35.127  1.00  0.00    -0.237 OA
ATOM     94  O   UNL A   1      43.528  38.198  37.253  1.00  0.00    -0.744 OA
ENDBRANCH  90  91
ENDBRANCH  64  85
ENDBRANCH  38  39
ENDBRANCH  30  33
ENDBRANCH  28  29
ENDBRANCH  27  28
ENDBRANCH   1  27
TORSDOF 20
ENDMDL
MODEL 3
REMARK VINA RESULT:      -8.5      4.739      9.113
REMARK SMILES CC(C)[C@@H]([NH3+])C(=O)N[C@@H](Cc1ccccc1)C(=O)NCCCCNC(=O)c1ccc(-c2c3nc(c(-c4ccc(S(=O)(=O)[O-])cc4)c4ccc([nH]4)c(-c4ccc(S(=O)(=O)[O-])cc4)c4nc(c(-c5ccc(S(=O)(=O)[O-])cc5)c5ccc2[nH]5)C=C4)C=C3)cc1
REMARK SMILES IDX 21 1 20 2 19 3 17 4 18 5 9 7 8 8 6 9 7 10 4 12 2 13 1 14
REMARK SMILES IDX 3 15 5 16 10 20 11 21 12 22 16 23 13 24 15 25 14 26 22 27
REMARK SMILES IDX 23 28 24 29 25 30 26 32 27 33 28 34 86 35 29 36 85 37 30 38
REMARK SMILES IDX 31 39 32 40 79 41 33 42 84 43 78 44 80 45 34 46 83 47 77 48
REMARK SMILES IDX 76 49 35 51 65 52 46 53 64 54 47 55 50 56 63 57 81 58 48 59
REMARK SMILES IDX 49 60 62 62 82 63 51 64 36 65 37 66 45 67 38 68 44 69 39 70
REMARK SMILES IDX 40 71 41 72 42 73 43 74 66 75 67 76 75 77 68 78 74 79 69 80
REMARK SMILES IDX 70 81 71 82 72 83 73 84 52 85 53 86 61 87 54 88 60 89 55 90
REMARK SMILES IDX 56 91 57 92 58 93 59 94
REMARK H PARENT 19 6 8 11 5 17 5 18 5 19 24 31 80 50 50 61
REMARK Flexibility Score: inf
ROOT
ATOM      1  C   UNL A   1      32.288  29.164  27.266  1.00  0.00     0.023 C 
ENDROOT
BRANCH   1   2
ATOM      2  C   UNL A   1      32.064  28.004  26.310  1.00  0.00     0.116 C 
BRANCH   2   3
ATOM      3  N   UNL A   1      31.010  27.096  26.707  1.00  0.00    -0.354 N 
ATOM      4  C   UNL A   1      30.368  26.142  25.971  1.00  0.00     0.242 C 
ATOM      5  O   UNL A   1      29.909  25.180  26.600  1.00  0.00    -0.273 OA
ATOM      6  H   UNL A   1      30.714  27.177  27.643  1.00  0.00     0.163 HD
BRANCH   4   7
ATOM      7  C   UNL A   1      30.308  26.151  24.421  1.00  0.00     0.175 C 
BRANCH   7   8
ATOM      8  N   UNL A   1      30.896  24.971  23.773  1.00  0.00    -0.339 N 
ATOM      9  C   UNL A   1      31.779  24.879  22.743  1.00  0.00     0.279 C 
ATOM     10  O   UNL A   1      32.235  23.759  22.487  1.00  0.00    -0.268 OA
ATOM     11  H   UNL A   1      30.602  24.108  24.143  1.00  0.00     0.164 HD
BRANCH   9  12
ATOM     12  C   UNL A   1      32.181  26.098  21.882  1.00  0.00     0.273 C 
BRANCH  12  13
ATOM     13  C   UNL A   1      33.477  26.781  22.385  1.00  0.00     0.051 C 
ATOM     14  C   UNL A   1      33.301  28.293  22.567  1.00  0.00     0.014 C 
ATOM     15  C   UNL A   1      33.946  26.169  23.711  1.00  0.00     0.014 C 
ENDBRANCH  12  13
BRANCH  12  16
ATOM     16  N   UNL A   1      32.241  25.697  20.464  1.00  0.00    -0.347 N 
ATOM     17  H   UNL A   1      31.294  25.601  20.097  1.00  0.00     0.345 HD
ATOM     18  H   UNL A   1      32.729  24.806  20.382  1.00  0.00     0.345 HD
ATOM     19  H   UNL A   1      32.741  26.408  19.931  1.00  0.00     0.345 HD
ENDBRANCH  12  16
ENDBRANCH   9  12
ENDBRANCH   7   8
BRANCH   7  20
ATOM     20  C   UNL A   1      28.924  26.536  23.852  1.00  0.00     0.070 C 
BRANCH  20  21
ATOM     21  C   UNL A   1      28.705  27.978  23.463  1.00  0.00    -0.045 A 
ATOM     22  C   UNL A   1      29.797  28.854  23.363  1.00  0.00     0.004 A 
ATOM     23  C   UNL A   1      27.415  28.476  23.223  1.00  0.00     0.004 A 
ATOM     24  C   UNL A   1      29.599  30.207  23.082  1.00  0.00     0.000 A 
ATOM     25  C   UNL A   1      27.219  29.835  22.961  1.00  0.00     0.000 A 
ATOM     26  C   UNL A   1      28.309  30.701  22.900  1.00  0.00     0.000 A 
ENDBRANCH  20  21
ENDBRANCH   7  20
ENDBRANCH   4   7
ENDBRANCH   2   3
ENDBRANCH   1   2
BRANCH   1  27
ATOM     27  C   UNL A   1      32.966  30.386  26.652  1.00  0.00     0.023 C 
BRANCH  27  28
ATOM     28  C   UNL A   1      33.726  31.291  27.620  1.00  0.00     0.116 C 
BRANCH  28  29
ATOM     29  N   UNL A   1      33.180  32.637  27.739  1.00  0.00    -0.352 N 
ATOM     30  C   UNL A   1      33.589  33.660  28.564  1.00  0.00     0.251 C 
ATOM     31  H   UNL A   1      32.418  32.842  27.151  1.00  0.00     0.163 HD
ATOM     32  O   UNL A   1      32.992  34.732  28.574  1.00  0.00    -0.269 OA
BRANCH  30  33
ATOM     33  C   UNL A   1      34.732  33.431  29.473  1.00  0.00     0.039 A 
ATOM     34  C   UNL A   1      34.562  32.595  30.578  1.00  0.00     0.014 A 
ATOM     35  C   UNL A   1      35.986  33.968  29.175  1.00  0.00     0.014 A 
ATOM     36  C   UNL A   1      35.677  32.214  31.328  1.00  0.00     0.010 A 
ATOM     37  C   UNL A   1      37.105  33.531  29.879  1.00  0.00     0.010 A 
ATOM     38  C   UNL A   1      36.964  32.635  30.950  1.00  0.00    -0.014 A 
BRANCH  38  39
ATOM     39  C   UNL A   1      38.178  32.115  31.633  1.00  0.00     0.031 A 
ATOM     40  C   UNL A   1      38.596  32.669  32.966  1.00  0.00     0.074 A 
ATOM     41  C   UNL A   1      38.952  31.204  31.008  1.00  0.00     0.049 A 
ATOM     42  N   UNL A   1      39.657  32.389  33.678  1.00  0.00    -0.248 NA
ATOM     43  C   UNL A   1      37.722  33.692  33.565  1.00  0.00     0.031 C 
ATOM     44  C   UNL A   1      38.692  30.630  29.685  1.00  0.00     0.029 A 
ATOM     45  N   UNL A   1      40.125  30.608  31.401  1.00  0.00    -0.354 N 
ATOM     46  C   UNL A   1      39.592  33.213  34.795  1.00  0.00     0.074 A 
ATOM     47  C   UNL A   1      38.409  34.034  34.645  1.00  0.00     0.031 C 
ATOM     48  C   UNL A   1      39.661  29.749  29.389  1.00  0.00     0.029 A 
ATOM     49  C   UNL A   1      40.629  29.718  30.481  1.00  0.00     0.049 A 
ATOM     50  H   UNL A   1      40.566  30.799  32.261  1.00  0.00     0.167 HD
ATOM     51  C   UNL A   1      40.428  33.270  35.858  1.00  0.00     0.031 A 
ATOM     52  C   UNL A   1      41.744  28.962  30.509  1.00  0.00     0.031 A 
ATOM     53  C   UNL A   1      41.592  32.441  36.018  1.00  0.00     0.049 A 
ATOM     54  C   UNL A   1      42.646  29.027  31.710  1.00  0.00     0.074 A 
ATOM     55  C   UNL A   1      42.463  32.377  37.091  1.00  0.00     0.029 A 
ATOM     56  N   UNL A   1      42.048  31.529  35.078  1.00  0.00    -0.354 N 
ATOM     57  N   UNL A   1      42.525  29.761  32.791  1.00  0.00    -0.248 NA
ATOM     58  C   UNL A   1      43.827  28.152  31.702  1.00  0.00     0.031 C 
ATOM     59  C   UNL A   1      43.469  31.454  36.783  1.00  0.00     0.029 A 
ATOM     60  C   UNL A   1      43.198  30.910  35.538  1.00  0.00     0.049 A 
ATOM     61  H   UNL A   1      41.618  31.348  34.210  1.00  0.00     0.167 HD
ATOM     62  C   UNL A   1      43.603  29.419  33.600  1.00  0.00     0.074 A 
ATOM     63  C   UNL A   1      44.355  28.404  32.892  1.00  0.00     0.031 C 
ATOM     64  C   UNL A   1      43.936  29.903  34.821  1.00  0.00     0.031 A 
BRANCH  51  65
ATOM     65  C   UNL A   1      40.106  34.268  36.937  1.00  0.00    -0.014 A 
ATOM     66  C   UNL A   1      39.380  33.889  38.081  1.00  0.00     0.010 A 
ATOM     67  C   UNL A   1      40.559  35.595  36.821  1.00  0.00     0.010 A 
ATOM     68  C   UNL A   1      39.074  34.828  39.069  1.00  0.00     0.020 A 
ATOM     69  C   UNL A   1      40.276  36.533  37.820  1.00  0.00     0.020 A 
ATOM     70  C   UNL A   1      39.518  36.146  38.928  1.00  0.00     0.054 A 
BRANCH  70  71
ATOM     71  S   UNL A   1      39.117  37.343  40.230  1.00  0.00     0.124 S 
ATOM     72  O   UNL A   1      38.365  38.352  39.489  1.00  0.00    -0.237 OA
ATOM     73  O   UNL A   1      38.336  36.546  41.172  1.00  0.00    -0.237 OA
ATOM     74  O   UNL A   1      40.425  37.774  40.718  1.00  0.00    -0.744 OA
ENDBRANCH  70  71
ENDBRANCH  51  65
BRANCH  52  75
ATOM     75  C   UNL A   1      42.059  28.060  29.368  1.00  0.00    -0.014 A 
ATOM     76  C   UNL A   1      41.645  26.717  29.390  1.00  0.00     0.010 A 
ATOM     77  C   UNL A   1      42.760  28.543  28.248  1.00  0.00     0.010 A 
ATOM     78  C   UNL A   1      41.941  25.867  28.321  1.00  0.00     0.020 A 
ATOM     79  C   UNL A   1      43.036  27.703  27.166  1.00  0.00     0.020 A 
ATOM     80  C   UNL A   1      42.634  26.365  27.214  1.00  0.00     0.054 A 
BRANCH  80  81
ATOM     81  S   UNL A   1      42.956  25.261  25.811  1.00  0.00     0.124 S 
ATOM     82  O   UNL A   1      44.332  24.843  26.065  1.00  0.00    -0.237 OA
ATOM     83  O   UNL A   1      41.939  24.227  25.979  1.00  0.00    -0.237 OA
ATOM     84  O   UNL A   1      42.767  26.126  24.647  1.00  0.00    -0.744 OA
ENDBRANCH  80  81
ENDBRANCH  52  75
BRANCH  64  85
ATOM     85  C   UNL A   1      45.154  29.321  35.486  1.00  0.00    -0.014 A 
ATOM     86  C   UNL A   1      46.422  29.906  35.320  1.00  0.00     0.010 A 
ATOM     87  C   UNL A   1      45.017  28.204  36.331  1.00  0.00     0.010 A 
ATOM     88  C   UNL A   1      47.536  29.367  35.967  1.00  0.00     0.020 A 
ATOM     89  C   UNL A   1      46.125  27.679  36.999  1.00  0.00     0.020 A 
ATOM     90  C   UNL A   1      47.382  28.256  36.801  1.00  0.00     0.054 A 
BRANCH  90  91
ATOM     91  S   UNL A   1      48.835  27.601  37.668  1.00  0.00     0.124 S 
ATOM     92  O   UNL A   1      48.533  27.931  39.058  1.00  0.00    -0.237 OA
ATOM     93  O   UNL A   1      48.796  26.180  37.336  1.00  0.00    -0.237 OA
ATOM     94  O   UNL A   1      49.950  28.341  37.080  1.00  0.00    -0.744 OA
ENDBRANCH  90  91
ENDBRANCH  64  85
ENDBRANCH  38  39
ENDBRANCH  30  33
ENDBRANCH  28  29
ENDBRANCH  27  28
ENDBRANCH   1  27
TORSDOF 20
ENDMDL
