MODEL 1
REMARK VINA RESULT:     -10.9      0.000      0.000
REMARK SMILES O=C(Cc1ccc(F)cc1F)Nc1sccc1C(=O)NCCCCNC(=O)c1ccc(-c2c3nc(c(-c4ccc(S(=O)(=O)[O-])cc4)c4ccc([nH]4)c(-c4ccc(S(=O)(=O)[O-])cc4)c4nc(c(-c5ccc(S(=O)(=O)[O-])cc5)c5ccc2[nH]5)C=C4)C=C3)cc1
REMARK SMILES IDX 22 1 21 2 20 3 18 4 19 5 17 7 13 8 14 9 15 10 16 11 12 12
REMARK SMILES IDX 1 13 2 14 3 16 4 17 5 18 10 19 6 20 9 21 11 22 7 23 8 24
REMARK SMILES IDX 23 25 24 26 25 27 26 28 27 30 28 31 29 32 87 33 30 34 86 35
REMARK SMILES IDX 31 36 32 37 33 38 80 39 34 40 85 41 79 42 81 43 35 44 84 45
REMARK SMILES IDX 78 46 77 47 36 49 66 50 47 51 65 52 48 53 51 54 64 55 82 56
REMARK SMILES IDX 49 57 50 58 63 60 83 61 52 62 37 63 38 64 46 65 39 66 45 67
REMARK SMILES IDX 40 68 41 69 42 70 43 71 44 72 67 73 68 74 76 75 69 76 75 77
REMARK SMILES IDX 70 78 71 79 72 80 73 81 74 82 53 83 54 84 62 85 55 86 61 87
REMARK SMILES IDX 56 88 57 89 58 90 59 91 60 92
REMARK H PARENT 20 6 12 15 25 29 81 48 51 59
REMARK Flexibility Score: inf
ROOT
ATOM      1  C   UNL A   1      33.701  28.656  24.549  1.00  0.00     0.023 C 
ENDROOT
BRANCH   1   2
ATOM      2  C   UNL A   1      33.032  28.904  23.205  1.00  0.00     0.116 C 
BRANCH   2   3
ATOM      3  N   UNL A   1      33.396  28.016  22.130  1.00  0.00    -0.352 N 
ATOM      4  C   UNL A   1      32.915  26.754  21.841  1.00  0.00     0.254 C 
ATOM      5  O   UNL A   1      33.350  26.207  20.827  1.00  0.00    -0.269 OA
ATOM      6  H   UNL A   1      34.084  28.357  21.515  1.00  0.00     0.163 HD
BRANCH   4   7
ATOM      7  C   UNL A   1      32.083  26.009  22.794  1.00  0.00     0.074 A 
ATOM      8  C   UNL A   1      32.411  25.019  23.706  1.00  0.00     0.108 A 
ATOM      9  S   UNL A   1      31.039  24.262  24.394  1.00  0.00    -0.126 S 
ATOM     10  C   UNL A   1      29.982  25.404  23.702  1.00  0.00     0.068 A 
ATOM     11  C   UNL A   1      30.659  26.271  22.876  1.00  0.00     0.028 A 
BRANCH   8  12
ATOM     12  N   UNL A   1      33.569  24.443  24.178  1.00  0.00    -0.317 N 
ATOM     13  O   UNL A   1      33.339  24.975  26.405  1.00  0.00    -0.274 OA
ATOM     14  C   UNL A   1      34.027  24.573  25.468  1.00  0.00     0.229 C 
ATOM     15  H   UNL A   1      34.105  23.905  23.551  1.00  0.00     0.170 HD
BRANCH  14  16
ATOM     16  C   UNL A   1      35.527  24.367  25.641  1.00  0.00     0.139 C 
BRANCH  16  17
ATOM     17  C   UNL A   1      36.132  23.025  25.329  1.00  0.00    -0.003 A 
ATOM     18  C   UNL A   1      35.299  21.925  25.075  1.00  0.00     0.010 A 
ATOM     19  C   UNL A   1      37.509  22.800  25.452  1.00  0.00     0.129 A 
ATOM     20  C   UNL A   1      35.842  20.645  24.954  1.00  0.00     0.040 A 
ATOM     21  C   UNL A   1      38.060  21.534  25.319  1.00  0.00     0.078 A 
ATOM     22  F   UNL A   1      38.327  23.827  25.729  1.00  0.00    -0.207 F 
ATOM     23  C   UNL A   1      37.215  20.462  25.077  1.00  0.00     0.126 A 
ATOM     24  F   UNL A   1      37.730  19.230  24.975  1.00  0.00    -0.207 F 
ENDBRANCH  16  17
ENDBRANCH  14  16
ENDBRANCH   8  12
ENDBRANCH   4   7
ENDBRANCH   2   3
ENDBRANCH   1   2
BRANCH   1  25
ATOM     25  C   UNL A   1      32.768  28.410  25.738  1.00  0.00     0.023 C 
BRANCH  25  26
ATOM     26  C   UNL A   1      33.320  28.667  27.141  1.00  0.00     0.116 C 
BRANCH  26  27
ATOM     27  N   UNL A   1      33.401  30.070  27.517  1.00  0.00    -0.352 N 
ATOM     28  C   UNL A   1      34.468  30.806  27.992  1.00  0.00     0.251 C 
ATOM     29  H   UNL A   1      32.561  30.575  27.417  1.00  0.00     0.163 HD
ATOM     30  O   UNL A   1      34.320  31.997  28.228  1.00  0.00    -0.269 OA
BRANCH  28  31
ATOM     31  C   UNL A   1      35.767  30.148  28.282  1.00  0.00     0.039 A 
ATOM     32  C   UNL A   1      36.763  30.185  27.301  1.00  0.00     0.014 A 
ATOM     33  C   UNL A   1      36.027  29.540  29.511  1.00  0.00     0.014 A 
ATOM     34  C   UNL A   1      38.048  29.715  27.592  1.00  0.00     0.010 A 
ATOM     35  C   UNL A   1      37.327  29.138  29.825  1.00  0.00     0.010 A 
ATOM     36  C   UNL A   1      38.357  29.242  28.877  1.00  0.00    -0.014 A 
BRANCH  36  37
ATOM     37  C   UNL A   1      39.757  28.901  29.256  1.00  0.00     0.031 A 
ATOM     38  C   UNL A   1      40.643  29.920  29.920  1.00  0.00     0.074 A 
ATOM     39  C   UNL A   1      40.260  27.693  28.924  1.00  0.00     0.049 A 
ATOM     40  N   UNL A   1      41.903  29.816  30.264  1.00  0.00    -0.248 NA
ATOM     41  C   UNL A   1      40.049  31.235  30.209  1.00  0.00     0.031 C 
ATOM     42  C   UNL A   1      39.533  26.634  28.218  1.00  0.00     0.029 A 
ATOM     43  N   UNL A   1      41.508  27.155  29.124  1.00  0.00    -0.354 N 
ATOM     44  C   UNL A   1      42.259  31.058  30.781  1.00  0.00     0.074 A 
ATOM     45  C   UNL A   1      41.093  31.907  30.676  1.00  0.00     0.031 C 
ATOM     46  C   UNL A   1      40.340  25.573  28.060  1.00  0.00     0.029 A 
ATOM     47  C   UNL A   1      41.650  25.882  28.623  1.00  0.00     0.049 A 
ATOM     48  H   UNL A   1      42.234  27.636  29.584  1.00  0.00     0.167 HD
ATOM     49  C   UNL A   1      43.443  31.449  31.309  1.00  0.00     0.031 A 
ATOM     50  C   UNL A   1      42.713  25.053  28.612  1.00  0.00     0.031 A 
ATOM     51  C   UNL A   1      44.595  30.598  31.444  1.00  0.00     0.049 A 
ATOM     52  C   UNL A   1      44.000  25.495  29.250  1.00  0.00     0.074 A 
ATOM     53  C   UNL A   1      45.810  30.884  32.044  1.00  0.00     0.029 A 
ATOM     54  N   UNL A   1      44.677  29.296  30.977  1.00  0.00    -0.354 N 
ATOM     55  N   UNL A   1      44.286  26.644  29.815  1.00  0.00    -0.248 NA
ATOM     56  C   UNL A   1      45.103  24.524  29.267  1.00  0.00     0.031 C 
ATOM     57  C   UNL A   1      46.641  29.768  31.903  1.00  0.00     0.029 A 
ATOM     58  C   UNL A   1      45.927  28.771  31.259  1.00  0.00     0.049 A 
ATOM     59  H   UNL A   1      43.954  28.816  30.513  1.00  0.00     0.167 HD
ATOM     60  C   UNL A   1      45.592  26.522  30.278  1.00  0.00     0.074 A 
ATOM     61  C   UNL A   1      46.034  25.185  29.941  1.00  0.00     0.031 C 
ATOM     62  C   UNL A   1      46.355  27.437  30.925  1.00  0.00     0.031 A 
BRANCH  49  63
ATOM     63  C   UNL A   1      43.556  32.873  31.787  1.00  0.00    -0.014 A 
ATOM     64  C   UNL A   1      44.114  33.871  30.970  1.00  0.00     0.010 A 
ATOM     65  C   UNL A   1      43.047  33.227  33.051  1.00  0.00     0.010 A 
ATOM     66  C   UNL A   1      44.196  35.191  31.421  1.00  0.00     0.020 A 
ATOM     67  C   UNL A   1      43.103  34.551  33.495  1.00  0.00     0.020 A 
ATOM     68  C   UNL A   1      43.692  35.522  32.682  1.00  0.00     0.054 A 
BRANCH  68  69
ATOM     69  S   UNL A   1      43.782  37.249  33.229  1.00  0.00     0.124 S 
ATOM     70  O   UNL A   1      45.119  37.309  33.815  1.00  0.00    -0.237 OA
ATOM     71  O   UNL A   1      43.608  37.991  31.983  1.00  0.00    -0.237 OA
ATOM     72  O   UNL A   1      42.679  37.369  34.179  1.00  0.00    -0.744 OA
ENDBRANCH  68  69
ENDBRANCH  49  63
BRANCH  50  73
ATOM     73  C   UNL A   1      42.603  23.706  27.985  1.00  0.00    -0.014 A 
ATOM     74  C   UNL A   1      42.938  23.517  26.633  1.00  0.00     0.010 A 
ATOM     75  C   UNL A   1      42.157  22.606  28.740  1.00  0.00     0.010 A 
ATOM     76  C   UNL A   1      42.805  22.259  26.039  1.00  0.00     0.020 A 
ATOM     77  C   UNL A   1      42.048  21.340  28.156  1.00  0.00     0.020 A 
ATOM     78  C   UNL A   1      42.358  21.178  26.805  1.00  0.00     0.054 A 
BRANCH  78  79
ATOM     79  S   UNL A   1      42.231  19.543  26.028  1.00  0.00     0.124 S 
ATOM     80  O   UNL A   1      40.807  19.459  25.728  1.00  0.00    -0.237 OA
ATOM     81  O   UNL A   1      43.116  19.670  24.871  1.00  0.00    -0.237 OA
ATOM     82  O   UNL A   1      42.710  18.635  27.068  1.00  0.00    -0.744 OA
ENDBRANCH  78  79
ENDBRANCH  50  73
BRANCH  62  83
ATOM     83  C   UNL A   1      47.735  27.011  31.346  1.00  0.00    -0.014 A 
ATOM     84  C   UNL A   1      47.967  26.434  32.607  1.00  0.00     0.010 A 
ATOM     85  C   UNL A   1      48.808  27.155  30.448  1.00  0.00     0.010 A 
ATOM     86  C   UNL A   1      49.258  26.042  32.976  1.00  0.00     0.020 A 
ATOM     87  C   UNL A   1      50.094  26.742  30.804  1.00  0.00     0.020 A 
ATOM     88  C   UNL A   1      50.313  26.203  32.073  1.00  0.00     0.054 A 
BRANCH  88  89
ATOM     89  S   UNL A   1      51.974  25.659  32.560  1.00  0.00     0.124 S 
ATOM     90  O   UNL A   1      52.165  24.478  31.722  1.00  0.00    -0.237 OA
ATOM     91  O   UNL A   1      52.805  26.812  32.220  1.00  0.00    -0.237 OA
ATOM     92  O   UNL A   1      51.844  25.394  33.991  1.00  0.00    -0.744 OA
ENDBRANCH  88  89
ENDBRANCH  62  83
ENDBRANCH  36  37
ENDBRANCH  28  31
ENDBRANCH  26  27
ENDBRANCH  25  26
ENDBRANCH   1  25
TORSDOF 17
ENDMDL
MODEL 2
REMARK VINA RESULT:     -10.8      1.253      8.287
REMARK SMILES O=C(Cc1ccc(F)cc1F)Nc1sccc1C(=O)NCCCCNC(=O)c1ccc(-c2c3nc(c(-c4ccc(S(=O)(=O)[O-])cc4)c4ccc([nH]4)c(-c4ccc(S(=O)(=O)[O-])cc4)c4nc(c(-c5ccc(S(=O)(=O)[O-])cc5)c5ccc2[nH]5)C=C4)C=C3)cc1
REMARK SMILES IDX 22 1 21 2 20 3 18 4 19 5 17 7 13 8 14 9 15 10 16 11 12 12
REMARK SMILES IDX 1 13 2 14 3 16 4 17 5 18 10 19 6 20 9 21 11 22 7 23 8 24
REMARK SMILES IDX 23 25 24 26 25 27 26 28 27 30 28 31 29 32 87 33 30 34 86 35
REMARK SMILES IDX 31 36 32 37 33 38 80 39 34 40 85 41 79 42 81 43 35 44 84 45
REMARK SMILES IDX 78 46 77 47 36 49 66 50 47 51 65 52 48 53 51 54 64 55 82 56
REMARK SMILES IDX 49 57 50 58 63 60 83 61 52 62 37 63 38 64 46 65 39 66 45 67
REMARK SMILES IDX 40 68 41 69 42 70 43 71 44 72 67 73 68 74 76 75 69 76 75 77
REMARK SMILES IDX 70 78 71 79 72 80 73 81 74 82 53 83 54 84 62 85 55 86 61 87
REMARK SMILES IDX 56 88 57 89 58 90 59 91 60 92
REMARK H PARENT 20 6 12 15 25 29 81 48 51 59
REMARK Flexibility Score: inf
ROOT
ATOM      1  C   UNL A   1      33.870  27.666  24.965  1.00  0.00     0.023 C 
ENDROOT
BRANCH   1   2
ATOM      2  C   UNL A   1      33.635  28.094  23.524  1.00  0.00     0.116 C 
BRANCH   2   3
ATOM      3  N   UNL A   1      33.443  27.039  22.561  1.00  0.00    -0.352 N 
ATOM      4  C   UNL A   1      32.268  26.466  22.119  1.00  0.00     0.254 C 
ATOM      5  O   UNL A   1      32.359  25.605  21.243  1.00  0.00    -0.269 OA
ATOM      6  H   UNL A   1      34.267  26.678  22.161  1.00  0.00     0.163 HD
BRANCH   4   7
ATOM      7  C   UNL A   1      30.988  26.712  22.794  1.00  0.00     0.074 A 
ATOM      8  C   UNL A   1      30.245  25.918  23.652  1.00  0.00     0.108 A 
ATOM      9  S   UNL A   1      28.680  26.540  23.954  1.00  0.00    -0.126 S 
ATOM     10  C   UNL A   1      29.042  28.007  23.169  1.00  0.00     0.068 A 
ATOM     11  C   UNL A   1      30.291  27.970  22.596  1.00  0.00     0.028 A 
BRANCH   8  12
ATOM     12  N   UNL A   1      30.422  24.716  24.301  1.00  0.00    -0.317 N 
ATOM     13  O   UNL A   1      30.643  25.511  26.449  1.00  0.00    -0.274 OA
ATOM     14  C   UNL A   1      30.743  24.597  25.632  1.00  0.00     0.229 C 
ATOM     15  H   UNL A   1      30.312  23.889  23.778  1.00  0.00     0.170 HD
BRANCH  14  16
ATOM     16  C   UNL A   1      31.430  23.290  26.013  1.00  0.00     0.139 C 
BRANCH  16  17
ATOM     17  C   UNL A   1      32.892  23.107  25.710  1.00  0.00    -0.003 A 
ATOM     18  C   UNL A   1      33.810  24.106  26.067  1.00  0.00     0.010 A 
ATOM     19  C   UNL A   1      33.346  22.038  24.926  1.00  0.00     0.129 A 
ATOM     20  C   UNL A   1      35.137  24.026  25.641  1.00  0.00     0.040 A 
ATOM     21  C   UNL A   1      34.666  21.942  24.510  1.00  0.00     0.078 A 
ATOM     22  F   UNL A   1      32.484  21.086  24.540  1.00  0.00    -0.207 F 
ATOM     23  C   UNL A   1      35.552  22.947  24.867  1.00  0.00     0.126 A 
ATOM     24  F   UNL A   1      36.822  22.882  24.449  1.00  0.00    -0.207 F 
ENDBRANCH  16  17
ENDBRANCH  14  16
ENDBRANCH   8  12
ENDBRANCH   4   7
ENDBRANCH   2   3
ENDBRANCH   1   2
BRANCH   1  25
ATOM     25  C   UNL A   1      32.738  27.955  25.955  1.00  0.00     0.023 C 
BRANCH  25  26
ATOM     26  C   UNL A   1      33.123  28.332  27.386  1.00  0.00     0.116 C 
BRANCH  26  27
ATOM     27  N   UNL A   1      33.148  29.762  27.654  1.00  0.00    -0.352 N 
ATOM     28  C   UNL A   1      34.204  30.590  27.978  1.00  0.00     0.251 C 
ATOM     29  H   UNL A   1      32.273  30.211  27.595  1.00  0.00     0.163 HD
ATOM     30  O   UNL A   1      34.003  31.786  28.142  1.00  0.00    -0.269 OA
BRANCH  28  31
ATOM     31  C   UNL A   1      35.561  30.030  28.195  1.00  0.00     0.039 A 
ATOM     32  C   UNL A   1      36.458  30.028  27.121  1.00  0.00     0.014 A 
ATOM     33  C   UNL A   1      35.971  29.550  29.440  1.00  0.00     0.014 A 
ATOM     34  C   UNL A   1      37.790  29.654  27.325  1.00  0.00     0.010 A 
ATOM     35  C   UNL A   1      37.316  29.247  29.659  1.00  0.00     0.010 A 
ATOM     36  C   UNL A   1      38.246  29.317  28.610  1.00  0.00    -0.014 A 
BRANCH  36  37
ATOM     37  C   UNL A   1      39.692  29.085  28.878  1.00  0.00     0.031 A 
ATOM     38  C   UNL A   1      40.337  27.769  28.533  1.00  0.00     0.074 A 
ATOM     39  C   UNL A   1      40.411  30.034  29.514  1.00  0.00     0.049 A 
ATOM     40  N   UNL A   1      41.566  27.373  28.750  1.00  0.00    -0.248 NA
ATOM     41  C   UNL A   1      39.486  26.758  27.886  1.00  0.00     0.031 C 
ATOM     42  C   UNL A   1      39.895  31.329  29.968  1.00  0.00     0.029 A 
ATOM     43  N   UNL A   1      41.728  30.053  29.903  1.00  0.00    -0.354 N 
ATOM     44  C   UNL A   1      41.627  26.059  28.295  1.00  0.00     0.074 A 
ATOM     45  C   UNL A   1      40.304  25.716  27.821  1.00  0.00     0.031 C 
ATOM     46  C   UNL A   1      40.886  32.019  30.556  1.00  0.00     0.029 A 
ATOM     47  C   UNL A   1      42.099  31.208  30.551  1.00  0.00     0.049 A 
ATOM     48  H   UNL A   1      42.350  29.307  29.734  1.00  0.00     0.167 HD
ATOM     49  C   UNL A   1      42.690  25.221  28.262  1.00  0.00     0.031 A 
ATOM     50  C   UNL A   1      43.280  31.577  31.087  1.00  0.00     0.031 A 
ATOM     51  C   UNL A   1      44.015  25.569  28.704  1.00  0.00     0.049 A 
ATOM     52  C   UNL A   1      44.457  30.647  30.991  1.00  0.00     0.074 A 
ATOM     53  C   UNL A   1      45.173  24.812  28.630  1.00  0.00     0.029 A 
ATOM     54  N   UNL A   1      44.361  26.771  29.300  1.00  0.00    -0.354 N 
ATOM     55  N   UNL A   1      44.513  29.443  30.474  1.00  0.00    -0.248 NA
ATOM     56  C   UNL A   1      45.734  31.132  31.533  1.00  0.00     0.031 C 
ATOM     57  C   UNL A   1      46.211  25.543  29.218  1.00  0.00     0.029 A 
ATOM     58  C   UNL A   1      45.710  26.772  29.614  1.00  0.00     0.049 A 
ATOM     59  H   UNL A   1      43.740  27.515  29.474  1.00  0.00     0.167 HD
ATOM     60  C   UNL A   1      45.838  29.038  30.604  1.00  0.00     0.074 A 
ATOM     61  C   UNL A   1      46.551  30.130  31.234  1.00  0.00     0.031 C 
ATOM     62  C   UNL A   1      46.410  27.866  30.235  1.00  0.00     0.031 A 
BRANCH  49  63
ATOM     63  C   UNL A   1      42.467  23.832  27.724  1.00  0.00    -0.014 A 
ATOM     64  C   UNL A   1      42.684  23.536  26.367  1.00  0.00     0.010 A 
ATOM     65  C   UNL A   1      42.085  22.799  28.599  1.00  0.00     0.010 A 
ATOM     66  C   UNL A   1      42.489  22.238  25.887  1.00  0.00     0.020 A 
ATOM     67  C   UNL A   1      41.914  21.494  28.127  1.00  0.00     0.020 A 
ATOM     68  C   UNL A   1      42.103  21.226  26.769  1.00  0.00     0.054 A 
BRANCH  68  69
ATOM     69  S   UNL A   1      41.888  19.544  26.126  1.00  0.00     0.124 S 
ATOM     70  O   UNL A   1      42.741  19.566  24.940  1.00  0.00    -0.237 OA
ATOM     71  O   UNL A   1      42.367  18.714  27.228  1.00  0.00    -0.237 OA
ATOM     72  O   UNL A   1      40.455  19.454  25.860  1.00  0.00    -0.744 OA
ENDBRANCH  68  69
ENDBRANCH  49  63
BRANCH  50  73
ATOM     73  C   UNL A   1      43.416  32.902  31.753  1.00  0.00    -0.014 A 
ATOM     74  C   UNL A   1      43.784  34.039  31.013  1.00  0.00     0.010 A 
ATOM     75  C   UNL A   1      43.181  33.031  33.134  1.00  0.00     0.010 A 
ATOM     76  C   UNL A   1      43.941  35.276  31.646  1.00  0.00     0.020 A 
ATOM     77  C   UNL A   1      43.312  34.271  33.765  1.00  0.00     0.020 A 
ATOM     78  C   UNL A   1      43.706  35.383  33.019  1.00  0.00     0.054 A 
BRANCH  78  79
ATOM     79  S   UNL A   1      43.874  37.005  33.816  1.00  0.00     0.124 S 
ATOM     80  O   UNL A   1      45.133  36.860  34.537  1.00  0.00    -0.237 OA
ATOM     81  O   UNL A   1      43.898  37.920  32.676  1.00  0.00    -0.237 OA
ATOM     82  O   UNL A   1      42.678  37.099  34.651  1.00  0.00    -0.744 OA
ENDBRANCH  78  79
ENDBRANCH  50  73
BRANCH  62  83
ATOM     83  C   UNL A   1      47.890  27.717  30.466  1.00  0.00    -0.014 A 
ATOM     84  C   UNL A   1      48.824  28.137  29.503  1.00  0.00     0.010 A 
ATOM     85  C   UNL A   1      48.350  27.186  31.684  1.00  0.00     0.010 A 
ATOM     86  C   UNL A   1      50.194  27.993  29.741  1.00  0.00     0.020 A 
ATOM     87  C   UNL A   1      49.718  27.064  31.936  1.00  0.00     0.020 A 
ATOM     88  C   UNL A   1      50.632  27.453  30.954  1.00  0.00     0.054 A 
BRANCH  88  89
ATOM     89  S   UNL A   1      52.415  27.303  31.255  1.00  0.00     0.124 S 
ATOM     90  O   UNL A   1      52.602  25.854  31.253  1.00  0.00    -0.237 OA
ATOM     91  O   UNL A   1      52.996  28.013  30.119  1.00  0.00    -0.237 OA
ATOM     92  O   UNL A   1      52.602  27.954  32.550  1.00  0.00    -0.744 OA
ENDBRANCH  88  89
ENDBRANCH  62  83
ENDBRANCH  36  37
ENDBRANCH  28  31
ENDBRANCH  26  27
ENDBRANCH  25  26
ENDBRANCH   1  25
TORSDOF 17
ENDMDL
MODEL 3
REMARK VINA RESULT:     -10.7      3.319      4.152
REMARK SMILES O=C(Cc1ccc(F)cc1F)Nc1sccc1C(=O)NCCCCNC(=O)c1ccc(-c2c3nc(c(-c4ccc(S(=O)(=O)[O-])cc4)c4ccc([nH]4)c(-c4ccc(S(=O)(=O)[O-])cc4)c4nc(c(-c5ccc(S(=O)(=O)[O-])cc5)c5ccc2[nH]5)C=C4)C=C3)cc1
REMARK SMILES IDX 22 1 21 2 20 3 18 4 19 5 17 7 13 8 14 9 15 10 16 11 12 12
REMARK SMILES IDX 1 13 2 14 3 16 4 17 5 18 10 19 6 20 9 21 11 22 7 23 8 24
REMARK SMILES IDX 23 25 24 26 25 27 26 28 27 30 28 31 29 32 87 33 30 34 86 35
REMARK SMILES IDX 31 36 32 37 33 38 80 39 34 40 85 41 79 42 81 43 35 44 84 45
REMARK SMILES IDX 78 46 77 47 36 49 66 50 47 51 65 52 48 53 51 54 64 55 82 56
REMARK SMILES IDX 49 57 50 58 63 60 83 61 52 62 37 63 38 64 46 65 39 66 45 67
REMARK SMILES IDX 40 68 41 69 42 70 43 71 44 72 67 73 68 74 76 75 69 76 75 77
REMARK SMILES IDX 70 78 71 79 72 80 73 81 74 82 53 83 54 84 62 85 55 86 61 87
REMARK SMILES IDX 56 88 57 89 58 90 59 91 60 92
REMARK H PARENT 20 6 12 15 25 29 81 48 51 59
REMARK Flexibility Score: inf
ROOT
ATOM      1  C   UNL A   1      35.051  29.366  27.283  1.00  0.00     0.023 C 
ENDROOT
BRANCH   1   2
ATOM      2  C   UNL A   1      34.074  28.658  26.354  1.00  0.00     0.116 C 
BRANCH   2   3
ATOM      3  N   UNL A   1      32.977  27.965  26.980  1.00  0.00    -0.352 N 
ATOM      4  C   UNL A   1      31.877  27.367  26.397  1.00  0.00     0.254 C 
ATOM      5  O   UNL A   1      31.092  26.785  27.147  1.00  0.00    -0.269 OA
ATOM      6  H   UNL A   1      33.018  27.908  27.962  1.00  0.00     0.163 HD
BRANCH   4   7
ATOM      7  C   UNL A   1      31.542  27.580  24.984  1.00  0.00     0.074 A 
ATOM      8  C   UNL A   1      31.717  26.768  23.875  1.00  0.00     0.108 A 
ATOM      9  S   UNL A   1      31.419  27.578  22.398  1.00  0.00    -0.126 S 
ATOM     10  C   UNL A   1      30.795  28.944  23.199  1.00  0.00     0.068 A 
ATOM     11  C   UNL A   1      30.920  28.822  24.563  1.00  0.00     0.028 A 
BRANCH   8  12
ATOM     12  N   UNL A   1      32.119  25.471  23.644  1.00  0.00    -0.317 N 
ATOM     13  O   UNL A   1      34.253  25.613  24.495  1.00  0.00    -0.274 OA
ATOM     14  C   UNL A   1      33.400  25.012  23.843  1.00  0.00     0.229 C 
ATOM     15  H   UNL A   1      31.447  24.831  23.315  1.00  0.00     0.170 HD
BRANCH  14  16
ATOM     16  C   UNL A   1      33.773  23.778  23.031  1.00  0.00     0.139 C 
BRANCH  16  17
ATOM     17  C   UNL A   1      33.655  22.415  23.657  1.00  0.00    -0.003 A 
ATOM     18  C   UNL A   1      32.514  21.634  23.422  1.00  0.00     0.010 A 
ATOM     19  C   UNL A   1      34.578  21.969  24.612  1.00  0.00     0.129 A 
ATOM     20  C   UNL A   1      32.314  20.448  24.129  1.00  0.00     0.040 A 
ATOM     21  C   UNL A   1      34.396  20.784  25.311  1.00  0.00     0.078 A 
ATOM     22  F   UNL A   1      35.662  22.711  24.885  1.00  0.00    -0.207 F 
ATOM     23  C   UNL A   1      33.256  20.035  25.066  1.00  0.00     0.126 A 
ATOM     24  F   UNL A   1      33.053  18.903  25.753  1.00  0.00    -0.207 F 
ENDBRANCH  16  17
ENDBRANCH  14  16
ENDBRANCH   8  12
ENDBRANCH   4   7
ENDBRANCH   2   3
ENDBRANCH   1   2
BRANCH   1  25
ATOM     25  C   UNL A   1      34.733  30.825  27.622  1.00  0.00     0.023 C 
BRANCH  25  26
ATOM     26  C   UNL A   1      35.595  31.512  28.681  1.00  0.00     0.116 C 
BRANCH  26  27
ATOM     27  N   UNL A   1      35.512  30.925  30.010  1.00  0.00    -0.352 N 
ATOM     28  C   UNL A   1      36.503  30.400  30.816  1.00  0.00     0.251 C 
ATOM     29  H   UNL A   1      34.607  30.898  30.396  1.00  0.00     0.163 HD
ATOM     30  O   UNL A   1      36.212  29.972  31.924  1.00  0.00    -0.269 OA
BRANCH  28  31
ATOM     31  C   UNL A   1      37.898  30.289  30.320  1.00  0.00     0.039 A 
ATOM     32  C   UNL A   1      38.934  30.248  31.258  1.00  0.00     0.014 A 
ATOM     33  C   UNL A   1      38.191  30.183  28.959  1.00  0.00     0.014 A 
ATOM     34  C   UNL A   1      40.244  29.988  30.842  1.00  0.00     0.010 A 
ATOM     35  C   UNL A   1      39.484  29.852  28.552  1.00  0.00     0.010 A 
ATOM     36  C   UNL A   1      40.521  29.729  29.490  1.00  0.00    -0.014 A 
BRANCH  36  37
ATOM     37  C   UNL A   1      41.873  29.282  29.053  1.00  0.00     0.031 A 
ATOM     38  C   UNL A   1      43.012  30.261  28.954  1.00  0.00     0.074 A 
ATOM     39  C   UNL A   1      42.055  28.003  28.661  1.00  0.00     0.049 A 
ATOM     40  N   UNL A   1      44.236  30.059  28.536  1.00  0.00    -0.248 NA
ATOM     41  C   UNL A   1      42.734  31.650  29.349  1.00  0.00     0.031 C 
ATOM     42  C   UNL A   1      41.021  26.964  28.640  1.00  0.00     0.029 A 
ATOM     43  N   UNL A   1      43.174  27.359  28.191  1.00  0.00    -0.354 N 
ATOM     44  C   UNL A   1      44.865  31.299  28.589  1.00  0.00     0.074 A 
ATOM     45  C   UNL A   1      43.878  32.252  29.047  1.00  0.00     0.031 C 
ATOM     46  C   UNL A   1      41.557  25.815  28.198  1.00  0.00     0.029 A 
ATOM     47  C   UNL A   1      42.962  26.037  27.875  1.00  0.00     0.049 A 
ATOM     48  H   UNL A   1      44.048  27.803  28.090  1.00  0.00     0.167 HD
ATOM     49  C   UNL A   1      46.149  31.614  28.296  1.00  0.00     0.031 A 
ATOM     50  C   UNL A   1      43.799  25.105  27.376  1.00  0.00     0.031 A 
ATOM     51  C   UNL A   1      47.142  30.664  27.869  1.00  0.00     0.049 A 
ATOM     52  C   UNL A   1      45.233  25.469  27.108  1.00  0.00     0.074 A 
ATOM     53  C   UNL A   1      48.490  30.877  27.632  1.00  0.00     0.029 A 
ATOM     54  N   UNL A   1      46.899  29.323  27.618  1.00  0.00    -0.354 N 
ATOM     55  N   UNL A   1      45.828  26.629  27.252  1.00  0.00    -0.248 NA
ATOM     56  C   UNL A   1      46.114  24.394  26.629  1.00  0.00     0.031 C 
ATOM     57  C   UNL A   1      49.054  29.672  27.198  1.00  0.00     0.029 A 
ATOM     58  C   UNL A   1      48.068  28.699  27.212  1.00  0.00     0.049 A 
ATOM     59  H   UNL A   1      46.026  28.879  27.714  1.00  0.00     0.167 HD
ATOM     60  C   UNL A   1      47.158  26.416  26.907  1.00  0.00     0.074 A 
ATOM     61  C   UNL A   1      47.284  25.015  26.563  1.00  0.00     0.031 C 
ATOM     62  C   UNL A   1      48.183  27.303  26.878  1.00  0.00     0.031 A 
BRANCH  49  63
ATOM     63  C   UNL A   1      46.562  33.056  28.429  1.00  0.00    -0.014 A 
ATOM     64  C   UNL A   1      47.095  33.551  29.632  1.00  0.00     0.010 A 
ATOM     65  C   UNL A   1      46.463  33.914  27.318  1.00  0.00     0.010 A 
ATOM     66  C   UNL A   1      47.490  34.887  29.734  1.00  0.00     0.020 A 
ATOM     67  C   UNL A   1      46.881  35.245  27.409  1.00  0.00     0.020 A 
ATOM     68  C   UNL A   1      47.377  35.727  28.622  1.00  0.00     0.054 A 
BRANCH  68  69
ATOM     69  S   UNL A   1      47.927  37.449  28.772  1.00  0.00     0.124 S 
ATOM     70  O   UNL A   1      47.341  37.840  30.053  1.00  0.00    -0.237 OA
ATOM     71  O   UNL A   1      49.382  37.324  28.760  1.00  0.00    -0.237 OA
ATOM     72  O   UNL A   1      47.351  38.100  27.599  1.00  0.00    -0.744 OA
ENDBRANCH  68  69
ENDBRANCH  49  63
BRANCH  50  73
ATOM     73  C   UNL A   1      43.306  23.725  27.110  1.00  0.00    -0.014 A 
ATOM     74  C   UNL A   1      43.241  22.778  28.146  1.00  0.00     0.010 A 
ATOM     75  C   UNL A   1      42.904  23.352  25.815  1.00  0.00     0.010 A 
ATOM     76  C   UNL A   1      42.808  21.474  27.887  1.00  0.00     0.020 A 
ATOM     77  C   UNL A   1      42.445  22.057  25.558  1.00  0.00     0.020 A 
ATOM     78  C   UNL A   1      42.414  21.121  26.593  1.00  0.00     0.054 A 
BRANCH  78  79
ATOM     79  S   UNL A   1      41.815  19.436  26.285  1.00  0.00     0.124 S 
ATOM     80  O   UNL A   1      40.388  19.655  26.081  1.00  0.00    -0.237 OA
ATOM     81  O   UNL A   1      42.572  19.040  25.099  1.00  0.00    -0.237 OA
ATOM     82  O   UNL A   1      42.173  18.720  27.508  1.00  0.00    -0.744 OA
ENDBRANCH  78  79
ENDBRANCH  50  73
BRANCH  62  83
ATOM     83  C   UNL A   1      49.541  26.778  26.498  1.00  0.00    -0.014 A 
ATOM     84  C   UNL A   1      50.414  26.247  27.464  1.00  0.00     0.010 A 
ATOM     85  C   UNL A   1      49.929  26.778  25.146  1.00  0.00     0.010 A 
ATOM     86  C   UNL A   1      51.670  25.761  27.087  1.00  0.00     0.020 A 
ATOM     87  C   UNL A   1      51.173  26.270  24.763  1.00  0.00     0.020 A 
ATOM     88  C   UNL A   1      52.042  25.780  25.740  1.00  0.00     0.054 A 
BRANCH  88  89
ATOM     89  S   UNL A   1      53.663  25.115  25.269  1.00  0.00     0.124 S 
ATOM     90  O   UNL A   1      53.410  23.677  25.257  1.00  0.00    -0.237 OA
ATOM     91  O   UNL A   1      53.895  25.723  23.961  1.00  0.00    -0.237 OA
ATOM     92  O   UNL A   1      54.550  25.584  26.331  1.00  0.00    -0.744 OA
ENDBRANCH  88  89
ENDBRANCH  62  83
ENDBRANCH  36  37
ENDBRANCH  28  31
ENDBRANCH  26  27
ENDBRANCH  25  26
ENDBRANCH   1  25
TORSDOF 17
ENDMDL
