MODEL 1
REMARK VINA RESULT:     -11.6      0.000      0.000
REMARK SMILES C[C@@H](C(=O)NCCCCNC(=O)c1ccc(-c2c3nc(c(-c4ccc(S(=O)(=O)[O-])cc4)c4ccc([nH]4)c(-c4ccc(S(=O)(=O)[O-])cc4)c4nc(c(-c5ccc(S(=O)(=O)[O-])cc5)c5ccc2[nH]5)C=C4)C=C3)cc1)c1ccc2c3cc(Cl)ccc3n(C(=O)c3cocn3)c2c1
REMARK SMILES IDX 7 1 6 2 5 3 3 4 4 5 2 7 1 8 73 9 74 10 93 11 75 12 92 13
REMARK SMILES IDX 76 14 84 15 77 16 83 17 78 18 82 19 79 20 81 21 80 22 85 23
REMARK SMILES IDX 86 24 87 25 88 26 91 27 89 28 90 29 8 30 9 31 10 32 11 33
REMARK SMILES IDX 12 35 13 36 14 37 72 38 15 39 71 40 16 41 17 42 18 43 65 44
REMARK SMILES IDX 19 45 70 46 64 47 66 48 20 49 69 50 63 51 62 52 21 54 51 55
REMARK SMILES IDX 32 56 50 57 33 58 36 59 49 60 67 61 34 62 35 63 48 65 68 66
REMARK SMILES IDX 37 67 22 68 23 69 31 70 24 71 30 72 25 73 26 74 27 75 28 76
REMARK SMILES IDX 29 77 52 78 53 79 61 80 54 81 60 82 55 83 56 84 57 85 58 86
REMARK SMILES IDX 59 87 38 88 39 89 47 90 40 91 46 92 41 93 42 94 43 95 44 96
REMARK SMILES IDX 45 97
REMARK H PARENT 5 6 10 34 66 53 36 64
REMARK Flexibility Score: inf
ROOT
ATOM      1  C   UNL A   1      36.037  22.761  23.568  1.00  0.00     0.023 C 
ENDROOT
BRANCH   1   2
ATOM      2  C   UNL A   1      34.529  22.670  23.336  1.00  0.00     0.116 C 
BRANCH   2   3
ATOM      3  N   UNL A   1      33.927  21.598  24.099  1.00  0.00    -0.356 N 
ATOM      4  C   UNL A   1      33.398  21.591  25.356  1.00  0.00     0.227 C 
ATOM      5  O   UNL A   1      32.899  20.526  25.728  1.00  0.00    -0.274 OA
ATOM      6  H   UNL A   1      33.894  20.731  23.634  1.00  0.00     0.163 HD
BRANCH   4   7
ATOM      7  C   UNL A   1      33.395  22.875  26.213  1.00  0.00     0.105 C 
ATOM      8  C   UNL A   1      33.019  22.616  27.675  1.00  0.00     0.023 C 
BRANCH   7   9
ATOM      9  C   UNL A   1      32.451  23.948  25.668  1.00  0.00    -0.034 A 
ATOM     10  C   UNL A   1      31.148  23.625  25.282  1.00  0.00     0.005 A 
ATOM     11  C   UNL A   1      32.911  25.266  25.499  1.00  0.00     0.032 A 
ATOM     12  C   UNL A   1      30.293  24.603  24.757  1.00  0.00     0.011 A 
ATOM     13  C   UNL A   1      32.055  26.241  24.956  1.00  0.00     0.058 A 
ATOM     14  C   UNL A   1      30.747  25.932  24.604  1.00  0.00     0.008 A 
ATOM     15  N   UNL A   1      32.272  27.601  24.719  1.00  0.00    -0.274 N 
ATOM     16  C   UNL A   1      30.145  27.126  24.117  1.00  0.00     0.009 A 
ATOM     17  C   UNL A   1      31.105  28.145  24.166  1.00  0.00     0.057 A 
ATOM     18  C   UNL A   1      28.860  27.407  23.604  1.00  0.00     0.031 A 
ATOM     19  C   UNL A   1      30.826  29.422  23.635  1.00  0.00     0.029 A 
ATOM     20  C   UNL A   1      28.577  28.682  23.119  1.00  0.00     0.041 A 
ATOM     21  C   UNL A   1      29.548  29.674  23.124  1.00  0.00     0.023 A 
ATOM     22  Cl  UNL A   1      27.016  29.017  22.474  1.00  0.00    -0.084 Cl
BRANCH  15  23
ATOM     23  C   UNL A   1      33.503  28.264  24.959  1.00  0.00     0.284 C 
ATOM     24  O   UNL A   1      34.380  28.092  24.109  1.00  0.00    -0.266 OA
BRANCH  23  25
ATOM     25  C   UNL A   1      33.775  29.087  26.134  1.00  0.00     0.167 A 
ATOM     26  C   UNL A   1      34.725  28.901  27.117  1.00  0.00     0.231 A 
ATOM     27  N   UNL A   1      33.138  30.298  26.368  1.00  0.00    -0.211 NA
ATOM     28  O   UNL A   1      34.687  29.969  27.965  1.00  0.00    -0.451 OA
ATOM     29  C   UNL A   1      33.727  30.775  27.436  1.00  0.00     0.308 A 
ENDBRANCH  23  25
ENDBRANCH  15  23
ENDBRANCH   7   9
ENDBRANCH   4   7
ENDBRANCH   2   3
ENDBRANCH   1   2
BRANCH   1  30
ATOM     30  C   UNL A   1      36.484  23.847  24.551  1.00  0.00     0.023 C 
BRANCH  30  31
ATOM     31  C   UNL A   1      36.817  23.370  25.961  1.00  0.00     0.116 C 
BRANCH  31  32
ATOM     32  N   UNL A   1      38.032  22.571  26.021  1.00  0.00    -0.352 N 
ATOM     33  C   UNL A   1      39.289  22.929  26.444  1.00  0.00     0.251 C 
ATOM     34  H   UNL A   1      37.938  21.640  25.715  1.00  0.00     0.163 HD
ATOM     35  O   UNL A   1      40.221  22.140  26.322  1.00  0.00    -0.269 OA
BRANCH  33  36
ATOM     36  C   UNL A   1      39.522  24.276  27.003  1.00  0.00     0.039 A 
ATOM     37  C   UNL A   1      39.096  24.543  28.307  1.00  0.00     0.014 A 
ATOM     38  C   UNL A   1      40.178  25.262  26.259  1.00  0.00     0.014 A 
ATOM     39  C   UNL A   1      39.405  25.770  28.897  1.00  0.00     0.010 A 
ATOM     40  C   UNL A   1      40.534  26.464  26.869  1.00  0.00     0.010 A 
ATOM     41  C   UNL A   1      40.164  26.722  28.199  1.00  0.00    -0.014 A 
BRANCH  41  42
ATOM     42  C   UNL A   1      40.630  27.967  28.861  1.00  0.00     0.031 A 
ATOM     43  C   UNL A   1      41.994  28.034  29.491  1.00  0.00     0.074 A 
ATOM     44  C   UNL A   1      39.787  29.015  28.959  1.00  0.00     0.049 A 
ATOM     45  N   UNL A   1      42.538  29.012  30.168  1.00  0.00    -0.248 NA
ATOM     46  C   UNL A   1      42.849  26.843  29.362  1.00  0.00     0.031 C 
ATOM     47  C   UNL A   1      38.421  29.056  28.431  1.00  0.00     0.029 A 
ATOM     48  N   UNL A   1      39.949  30.243  29.550  1.00  0.00    -0.354 N 
ATOM     49  C   UNL A   1      43.789  28.552  30.560  1.00  0.00     0.074 A 
ATOM     50  C   UNL A   1      43.911  27.194  30.074  1.00  0.00     0.031 C 
ATOM     51  C   UNL A   1      37.875  30.252  28.710  1.00  0.00     0.029 A 
ATOM     52  C   UNL A   1      38.837  31.047  29.466  1.00  0.00     0.049 A 
ATOM     53  H   UNL A   1      40.783  30.522  29.992  1.00  0.00     0.167 HD
ATOM     54  C   UNL A   1      44.754  29.206  31.250  1.00  0.00     0.031 A 
ATOM     55  C   UNL A   1      38.609  32.283  29.951  1.00  0.00     0.031 A 
ATOM     56  C   UNL A   1      44.637  30.562  31.718  1.00  0.00     0.049 A 
ATOM     57  C   UNL A   1      39.696  32.984  30.717  1.00  0.00     0.074 A 
ATOM     58  C   UNL A   1      45.590  31.331  32.363  1.00  0.00     0.029 A 
ATOM     59  N   UNL A   1      43.502  31.348  31.598  1.00  0.00    -0.354 N 
ATOM     60  N   UNL A   1      40.902  32.558  31.008  1.00  0.00    -0.248 NA
ATOM     61  C   UNL A   1      39.396  34.335  31.212  1.00  0.00     0.031 C 
ATOM     62  C   UNL A   1      45.015  32.569  32.673  1.00  0.00     0.029 A 
ATOM     63  C   UNL A   1      43.721  32.585  32.180  1.00  0.00     0.049 A 
ATOM     64  H   UNL A   1      42.664  31.068  31.163  1.00  0.00     0.167 HD
ATOM     65  C   UNL A   1      41.510  33.596  31.706  1.00  0.00     0.074 A 
ATOM     66  C   UNL A   1      40.547  34.675  31.775  1.00  0.00     0.031 C 
ATOM     67  C   UNL A   1      42.752  33.648  32.244  1.00  0.00     0.031 A 
BRANCH  54  68
ATOM     68  C   UNL A   1      46.029  28.465  31.545  1.00  0.00    -0.014 A 
ATOM     69  C   UNL A   1      47.132  28.550  30.676  1.00  0.00     0.010 A 
ATOM     70  C   UNL A   1      46.152  27.734  32.741  1.00  0.00     0.010 A 
ATOM     71  C   UNL A   1      48.328  27.897  30.986  1.00  0.00     0.020 A 
ATOM     72  C   UNL A   1      47.355  27.099  33.065  1.00  0.00     0.020 A 
ATOM     73  C   UNL A   1      48.431  27.175  32.179  1.00  0.00     0.054 A 
BRANCH  73  74
ATOM     74  S   UNL A   1      50.011  26.378  32.579  1.00  0.00     0.124 S 
ATOM     75  O   UNL A   1      50.819  27.514  33.014  1.00  0.00    -0.237 OA
ATOM     76  O   UNL A   1      49.637  25.434  33.629  1.00  0.00    -0.237 OA
ATOM     77  O   UNL A   1      50.421  25.769  31.316  1.00  0.00    -0.744 OA
ENDBRANCH  73  74
ENDBRANCH  54  68
BRANCH  55  78
ATOM     78  C   UNL A   1      37.291  32.939  29.737  1.00  0.00    -0.014 A 
ATOM     79  C   UNL A   1      36.415  33.149  30.816  1.00  0.00     0.010 A 
ATOM     80  C   UNL A   1      36.903  33.351  28.450  1.00  0.00     0.010 A 
ATOM     81  C   UNL A   1      35.162  33.733  30.608  1.00  0.00     0.020 A 
ATOM     82  C   UNL A   1      35.661  33.957  28.242  1.00  0.00     0.020 A 
ATOM     83  C   UNL A   1      34.792  34.131  29.321  1.00  0.00     0.054 A 
BRANCH  83  84
ATOM     84  S   UNL A   1      33.175  34.916  29.074  1.00  0.00     0.124 S 
ATOM     85  O   UNL A   1      32.580  34.066  28.048  1.00  0.00    -0.237 OA
ATOM     86  O   UNL A   1      32.571  34.824  30.401  1.00  0.00    -0.237 OA
ATOM     87  O   UNL A   1      33.518  36.270  28.647  1.00  0.00    -0.744 OA
ENDBRANCH  83  84
ENDBRANCH  55  78
BRANCH  67  88
ATOM     88  C   UNL A   1      43.149  34.922  32.938  1.00  0.00    -0.014 A 
ATOM     89  C   UNL A   1      42.929  35.094  34.315  1.00  0.00     0.010 A 
ATOM     90  C   UNL A   1      43.793  35.940  32.212  1.00  0.00     0.010 A 
ATOM     91  C   UNL A   1      43.320  36.276  34.951  1.00  0.00     0.020 A 
ATOM     92  C   UNL A   1      44.208  37.113  32.847  1.00  0.00     0.020 A 
ATOM     93  C   UNL A   1      43.955  37.279  34.211  1.00  0.00     0.054 A 
BRANCH  93  94
ATOM     94  S   UNL A   1      44.492  38.788  35.064  1.00  0.00     0.124 S 
ATOM     95  O   UNL A   1      44.136  38.496  36.449  1.00  0.00    -0.237 OA
ATOM     96  O   UNL A   1      45.925  38.826  34.778  1.00  0.00    -0.237 OA
ATOM     97  O   UNL A   1      43.709  39.843  34.426  1.00  0.00    -0.744 OA
ENDBRANCH  93  94
ENDBRANCH  67  88
ENDBRANCH  41  42
ENDBRANCH  33  36
ENDBRANCH  31  32
ENDBRANCH  30  31
ENDBRANCH   1  30
TORSDOF 17
ENDMDL
MODEL 2
REMARK VINA RESULT:     -11.2      1.911      2.565
REMARK SMILES C[C@@H](C(=O)NCCCCNC(=O)c1ccc(-c2c3nc(c(-c4ccc(S(=O)(=O)[O-])cc4)c4ccc([nH]4)c(-c4ccc(S(=O)(=O)[O-])cc4)c4nc(c(-c5ccc(S(=O)(=O)[O-])cc5)c5ccc2[nH]5)C=C4)C=C3)cc1)c1ccc2c3cc(Cl)ccc3n(C(=O)c3cocn3)c2c1
REMARK SMILES IDX 7 1 6 2 5 3 3 4 4 5 2 7 1 8 73 9 74 10 93 11 75 12 92 13
REMARK SMILES IDX 76 14 84 15 77 16 83 17 78 18 82 19 79 20 81 21 80 22 85 23
REMARK SMILES IDX 86 24 87 25 88 26 91 27 89 28 90 29 8 30 9 31 10 32 11 33
REMARK SMILES IDX 12 35 13 36 14 37 72 38 15 39 71 40 16 41 17 42 18 43 65 44
REMARK SMILES IDX 19 45 70 46 64 47 66 48 20 49 69 50 63 51 62 52 21 54 51 55
REMARK SMILES IDX 32 56 50 57 33 58 36 59 49 60 67 61 34 62 35 63 48 65 68 66
REMARK SMILES IDX 37 67 22 68 23 69 31 70 24 71 30 72 25 73 26 74 27 75 28 76
REMARK SMILES IDX 29 77 52 78 53 79 61 80 54 81 60 82 55 83 56 84 57 85 58 86
REMARK SMILES IDX 59 87 38 88 39 89 47 90 40 91 46 92 41 93 42 94 43 95 44 96
REMARK SMILES IDX 45 97
REMARK H PARENT 5 6 10 34 66 53 36 64
REMARK Flexibility Score: inf
ROOT
ATOM      1  C   UNL A   1      36.426  22.967  23.707  1.00  0.00     0.023 C 
ENDROOT
BRANCH   1   2
ATOM      2  C   UNL A   1      34.919  22.930  23.454  1.00  0.00     0.116 C 
BRANCH   2   3
ATOM      3  N   UNL A   1      34.286  21.811  24.119  1.00  0.00    -0.356 N 
ATOM      4  C   UNL A   1      33.663  21.735  25.329  1.00  0.00     0.227 C 
ATOM      5  O   UNL A   1      33.162  20.643  25.613  1.00  0.00    -0.274 OA
ATOM      6  H   UNL A   1      34.308  20.966  23.613  1.00  0.00     0.163 HD
BRANCH   4   7
ATOM      7  C   UNL A   1      33.564  22.976  26.241  1.00  0.00     0.105 C 
ATOM      8  C   UNL A   1      33.159  22.631  27.678  1.00  0.00     0.023 C 
BRANCH   7   9
ATOM      9  C   UNL A   1      32.580  24.021  25.713  1.00  0.00    -0.034 A 
ATOM     10  C   UNL A   1      31.280  23.662  25.355  1.00  0.00     0.005 A 
ATOM     11  C   UNL A   1      33.001  25.351  25.533  1.00  0.00     0.032 A 
ATOM     12  C   UNL A   1      30.387  24.614  24.846  1.00  0.00     0.011 A 
ATOM     13  C   UNL A   1      32.108  26.301  25.006  1.00  0.00     0.058 A 
ATOM     14  C   UNL A   1      30.801  25.955  24.681  1.00  0.00     0.008 A 
ATOM     15  N   UNL A   1      32.282  27.666  24.762  1.00  0.00    -0.274 N 
ATOM     16  C   UNL A   1      30.157  27.131  24.204  1.00  0.00     0.009 A 
ATOM     17  C   UNL A   1      31.089  28.176  24.231  1.00  0.00     0.057 A 
ATOM     18  C   UNL A   1      28.854  27.376  23.717  1.00  0.00     0.031 A 
ATOM     19  C   UNL A   1      30.765  29.443  23.704  1.00  0.00     0.029 A 
ATOM     20  C   UNL A   1      28.527  28.641  23.236  1.00  0.00     0.041 A 
ATOM     21  C   UNL A   1      29.470  29.660  23.219  1.00  0.00     0.023 A 
ATOM     22  Cl  UNL A   1      26.944  28.932  22.622  1.00  0.00    -0.084 Cl
BRANCH  15  23
ATOM     23  C   UNL A   1      33.499  28.363  24.975  1.00  0.00     0.284 C 
ATOM     24  O   UNL A   1      34.364  28.210  24.109  1.00  0.00    -0.266 OA
BRANCH  23  25
ATOM     25  C   UNL A   1      33.771  29.198  26.141  1.00  0.00     0.167 A 
ATOM     26  C   UNL A   1      34.856  29.164  26.993  1.00  0.00     0.231 A 
ATOM     27  N   UNL A   1      32.969  30.273  26.500  1.00  0.00    -0.211 NA
ATOM     28  O   UNL A   1      34.741  30.192  27.883  1.00  0.00    -0.451 OA
ATOM     29  C   UNL A   1      33.597  30.825  27.508  1.00  0.00     0.308 A 
ENDBRANCH  23  25
ENDBRANCH  15  23
ENDBRANCH   7   9
ENDBRANCH   4   7
ENDBRANCH   2   3
ENDBRANCH   1   2
BRANCH   1  30
ATOM     30  C   UNL A   1      36.862  23.746  24.952  1.00  0.00     0.023 C 
BRANCH  30  31
ATOM     31  C   UNL A   1      37.135  22.908  26.196  1.00  0.00     0.116 C 
BRANCH  31  32
ATOM     32  N   UNL A   1      38.328  22.082  26.078  1.00  0.00    -0.352 N 
ATOM     33  C   UNL A   1      39.645  22.424  26.270  1.00  0.00     0.251 C 
ATOM     34  H   UNL A   1      38.167  21.145  25.824  1.00  0.00     0.163 HD
ATOM     35  O   UNL A   1      40.529  21.610  26.020  1.00  0.00    -0.269 OA
BRANCH  33  36
ATOM     36  C   UNL A   1      39.993  23.782  26.736  1.00  0.00     0.039 A 
ATOM     37  C   UNL A   1      40.134  24.004  28.108  1.00  0.00     0.014 A 
ATOM     38  C   UNL A   1      40.206  24.823  25.828  1.00  0.00     0.014 A 
ATOM     39  C   UNL A   1      40.572  25.248  28.566  1.00  0.00     0.010 A 
ATOM     40  C   UNL A   1      40.697  26.045  26.282  1.00  0.00     0.010 A 
ATOM     41  C   UNL A   1      40.900  26.264  27.654  1.00  0.00    -0.014 A 
BRANCH  41  42
ATOM     42  C   UNL A   1      41.509  27.538  28.112  1.00  0.00     0.031 A 
ATOM     43  C   UNL A   1      43.003  27.710  28.126  1.00  0.00     0.074 A 
ATOM     44  C   UNL A   1      40.711  28.515  28.590  1.00  0.00     0.049 A 
ATOM     45  N   UNL A   1      43.709  28.725  28.554  1.00  0.00    -0.248 NA
ATOM     46  C   UNL A   1      43.809  26.591  27.610  1.00  0.00     0.031 C 
ATOM     47  C   UNL A   1      39.250  28.450  28.675  1.00  0.00     0.029 A 
ATOM     48  N   UNL A   1      41.017  29.748  29.107  1.00  0.00    -0.354 N 
ATOM     49  C   UNL A   1      45.039  28.363  28.377  1.00  0.00     0.074 A 
ATOM     50  C   UNL A   1      45.043  27.023  27.833  1.00  0.00     0.031 C 
ATOM     51  C   UNL A   1      38.786  29.596  29.199  1.00  0.00     0.029 A 
ATOM     52  C   UNL A   1      39.916  30.462  29.521  1.00  0.00     0.049 A 
ATOM     53  H   UNL A   1      41.937  30.090  29.177  1.00  0.00     0.167 HD
ATOM     54  C   UNL A   1      46.154  29.088  28.633  1.00  0.00     0.031 A 
ATOM     55  C   UNL A   1      39.824  31.672  30.104  1.00  0.00     0.031 A 
ATOM     56  C   UNL A   1      46.147  30.428  29.159  1.00  0.00     0.049 A 
ATOM     57  C   UNL A   1      41.078  32.454  30.379  1.00  0.00     0.074 A 
ATOM     58  C   UNL A   1      47.225  31.267  29.382  1.00  0.00     0.029 A 
ATOM     59  N   UNL A   1      45.012  31.121  29.548  1.00  0.00    -0.354 N 
ATOM     60  N   UNL A   1      42.323  32.123  30.130  1.00  0.00    -0.248 NA
ATOM     61  C   UNL A   1      40.916  33.774  31.005  1.00  0.00     0.031 C 
ATOM     62  C   UNL A   1      46.744  32.454  29.948  1.00  0.00     0.029 A 
ATOM     63  C   UNL A   1      45.365  32.369  30.035  1.00  0.00     0.049 A 
ATOM     64  H   UNL A   1      44.091  30.778  29.487  1.00  0.00     0.167 HD
ATOM     65  C   UNL A   1      43.090  33.203  30.554  1.00  0.00     0.074 A 
ATOM     66  C   UNL A   1      42.170  34.201  31.056  1.00  0.00     0.031 C 
ATOM     67  C   UNL A   1      44.437  33.351  30.533  1.00  0.00     0.031 A 
BRANCH  54  68
ATOM     68  C   UNL A   1      47.485  28.450  28.347  1.00  0.00    -0.014 A 
ATOM     69  C   UNL A   1      48.175  27.738  29.345  1.00  0.00     0.010 A 
ATOM     70  C   UNL A   1      48.019  28.499  27.047  1.00  0.00     0.010 A 
ATOM     71  C   UNL A   1      49.387  27.106  29.054  1.00  0.00     0.020 A 
ATOM     72  C   UNL A   1      49.221  27.850  26.746  1.00  0.00     0.020 A 
ATOM     73  C   UNL A   1      49.902  27.167  27.756  1.00  0.00     0.054 A 
BRANCH  73  74
ATOM     74  S   UNL A   1      51.453  26.299  27.394  1.00  0.00     0.124 S 
ATOM     75  O   UNL A   1      50.985  24.938  27.144  1.00  0.00    -0.237 OA
ATOM     76  O   UNL A   1      51.957  27.014  26.224  1.00  0.00    -0.237 OA
ATOM     77  O   UNL A   1      52.240  26.473  28.612  1.00  0.00    -0.744 OA
ENDBRANCH  73  74
ENDBRANCH  54  68
BRANCH  55  78
ATOM     78  C   UNL A   1      38.493  32.222  30.478  1.00  0.00    -0.014 A 
ATOM     79  C   UNL A   1      37.732  32.944  29.543  1.00  0.00     0.010 A 
ATOM     80  C   UNL A   1      37.984  32.033  31.775  1.00  0.00     0.010 A 
ATOM     81  C   UNL A   1      36.498  33.492  29.906  1.00  0.00     0.020 A 
ATOM     82  C   UNL A   1      36.740  32.557  32.135  1.00  0.00     0.020 A 
ATOM     83  C   UNL A   1      36.011  33.297  31.201  1.00  0.00     0.054 A 
BRANCH  83  84
ATOM     84  S   UNL A   1      34.393  33.988  31.646  1.00  0.00     0.124 S 
ATOM     85  O   UNL A   1      33.816  32.915  32.447  1.00  0.00    -0.237 OA
ATOM     86  O   UNL A   1      34.755  35.201  32.376  1.00  0.00    -0.237 OA
ATOM     87  O   UNL A   1      33.756  34.218  30.351  1.00  0.00    -0.744 OA
ENDBRANCH  83  84
ENDBRANCH  55  78
BRANCH  67  88
ATOM     88  C   UNL A   1      44.996  34.648  31.050  1.00  0.00    -0.014 A 
ATOM     89  C   UNL A   1      45.142  35.761  30.204  1.00  0.00     0.010 A 
ATOM     90  C   UNL A   1      45.334  34.769  32.409  1.00  0.00     0.010 A 
ATOM     91  C   UNL A   1      45.645  36.966  30.702  1.00  0.00     0.020 A 
ATOM     92  C   UNL A   1      45.814  35.978  32.918  1.00  0.00     0.020 A 
ATOM     93  C   UNL A   1      45.980  37.066  32.057  1.00  0.00     0.054 A 
BRANCH  93  94
ATOM     94  S   UNL A   1      46.591  38.651  32.692  1.00  0.00     0.124 S 
ATOM     95  O   UNL A   1      47.631  38.986  31.724  1.00  0.00    -0.237 OA
ATOM     96  O   UNL A   1      45.399  39.496  32.651  1.00  0.00    -0.237 OA
ATOM     97  O   UNL A   1      47.069  38.325  34.034  1.00  0.00    -0.744 OA
ENDBRANCH  93  94
ENDBRANCH  67  88
ENDBRANCH  41  42
ENDBRANCH  33  36
ENDBRANCH  31  32
ENDBRANCH  30  31
ENDBRANCH   1  30
TORSDOF 17
ENDMDL
MODEL 3
REMARK VINA RESULT:     -10.9      4.287     10.453
REMARK SMILES C[C@@H](C(=O)NCCCCNC(=O)c1ccc(-c2c3nc(c(-c4ccc(S(=O)(=O)[O-])cc4)c4ccc([nH]4)c(-c4ccc(S(=O)(=O)[O-])cc4)c4nc(c(-c5ccc(S(=O)(=O)[O-])cc5)c5ccc2[nH]5)C=C4)C=C3)cc1)c1ccc2c3cc(Cl)ccc3n(C(=O)c3cocn3)c2c1
REMARK SMILES IDX 7 1 6 2 5 3 3 4 4 5 2 7 1 8 73 9 74 10 93 11 75 12 92 13
REMARK SMILES IDX 76 14 84 15 77 16 83 17 78 18 82 19 79 20 81 21 80 22 85 23
REMARK SMILES IDX 86 24 87 25 88 26 91 27 89 28 90 29 8 30 9 31 10 32 11 33
REMARK SMILES IDX 12 35 13 36 14 37 72 38 15 39 71 40 16 41 17 42 18 43 65 44
REMARK SMILES IDX 19 45 70 46 64 47 66 48 20 49 69 50 63 51 62 52 21 54 51 55
REMARK SMILES IDX 32 56 50 57 33 58 36 59 49 60 67 61 34 62 35 63 48 65 68 66
REMARK SMILES IDX 37 67 22 68 23 69 31 70 24 71 30 72 25 73 26 74 27 75 28 76
REMARK SMILES IDX 29 77 52 78 53 79 61 80 54 81 60 82 55 83 56 84 57 85 58 86
REMARK SMILES IDX 59 87 38 88 39 89 47 90 40 91 46 92 41 93 42 94 43 95 44 96
REMARK SMILES IDX 45 97
REMARK H PARENT 5 6 10 34 66 53 36 64
REMARK Flexibility Score: inf
ROOT
ATOM      1  C   UNL A   1      33.057  28.476  26.786  1.00  0.00     0.023 C 
ENDROOT
BRANCH   1   2
ATOM      2  C   UNL A   1      31.645  28.615  26.217  1.00  0.00     0.116 C 
BRANCH   2   3
ATOM      3  N   UNL A   1      31.638  28.583  24.770  1.00  0.00    -0.356 N 
ATOM      4  C   UNL A   1      31.413  27.552  23.906  1.00  0.00     0.227 C 
ATOM      5  O   UNL A   1      31.418  27.840  22.706  1.00  0.00    -0.274 OA
ATOM      6  H   UNL A   1      31.828  29.447  24.339  1.00  0.00     0.163 HD
BRANCH   4   7
ATOM      7  C   UNL A   1      31.118  26.133  24.437  1.00  0.00     0.105 C 
ATOM      8  C   UNL A   1      30.283  26.138  25.721  1.00  0.00     0.023 C 
BRANCH   7   9
ATOM      9  C   UNL A   1      32.389  25.326  24.705  1.00  0.00    -0.034 A 
ATOM     10  C   UNL A   1      33.538  25.945  25.201  1.00  0.00     0.005 A 
ATOM     11  C   UNL A   1      32.425  23.954  24.399  1.00  0.00     0.032 A 
ATOM     12  C   UNL A   1      34.710  25.210  25.421  1.00  0.00     0.011 A 
ATOM     13  C   UNL A   1      33.608  23.223  24.605  1.00  0.00     0.058 A 
ATOM     14  C   UNL A   1      34.744  23.828  25.131  1.00  0.00     0.008 A 
ATOM     15  N   UNL A   1      33.878  21.866  24.403  1.00  0.00    -0.274 N 
ATOM     16  C   UNL A   1      35.748  22.825  25.239  1.00  0.00     0.009 A 
ATOM     17  C   UNL A   1      35.212  21.623  24.760  1.00  0.00     0.057 A 
ATOM     18  C   UNL A   1      37.090  22.860  25.678  1.00  0.00     0.031 A 
ATOM     19  C   UNL A   1      36.020  20.474  24.638  1.00  0.00     0.029 A 
ATOM     20  C   UNL A   1      37.871  21.710  25.594  1.00  0.00     0.041 A 
ATOM     21  C   UNL A   1      37.349  20.535  25.071  1.00  0.00     0.023 A 
ATOM     22  Cl  UNL A   1      39.513  21.761  26.110  1.00  0.00    -0.084 Cl
BRANCH  15  23
ATOM     23  C   UNL A   1      32.946  20.940  23.870  1.00  0.00     0.284 C 
ATOM     24  O   UNL A   1      32.243  21.359  22.947  1.00  0.00    -0.266 OA
BRANCH  23  25
ATOM     25  C   UNL A   1      32.769  19.578  24.364  1.00  0.00     0.167 A 
ATOM     26  C   UNL A   1      32.894  18.388  23.677  1.00  0.00     0.231 A 
ATOM     27  N   UNL A   1      32.541  19.287  25.702  1.00  0.00    -0.211 NA
ATOM     28  O   UNL A   1      32.739  17.359  24.560  1.00  0.00    -0.451 OA
ATOM     29  C   UNL A   1      32.555  17.978  25.757  1.00  0.00     0.308 A 
ENDBRANCH  23  25
ENDBRANCH  15  23
ENDBRANCH   7   9
ENDBRANCH   4   7
ENDBRANCH   2   3
ENDBRANCH   1   2
BRANCH   1  30
ATOM     30  C   UNL A   1      33.811  29.793  26.996  1.00  0.00     0.023 C 
BRANCH  30  31
ATOM     31  C   UNL A   1      35.170  29.678  27.677  1.00  0.00     0.116 C 
BRANCH  31  32
ATOM     32  N   UNL A   1      35.225  30.360  28.961  1.00  0.00    -0.352 N 
ATOM     33  C   UNL A   1      36.257  30.431  29.866  1.00  0.00     0.251 C 
ATOM     34  H   UNL A   1      34.405  30.842  29.217  1.00  0.00     0.163 HD
ATOM     35  O   UNL A   1      36.079  30.973  30.952  1.00  0.00    -0.269 OA
BRANCH  33  36
ATOM     36  C   UNL A   1      37.562  29.817  29.544  1.00  0.00     0.039 A 
ATOM     37  C   UNL A   1      38.008  29.846  28.220  1.00  0.00     0.014 A 
ATOM     38  C   UNL A   1      38.353  29.240  30.543  1.00  0.00     0.014 A 
ATOM     39  C   UNL A   1      39.284  29.374  27.911  1.00  0.00     0.010 A 
ATOM     40  C   UNL A   1      39.647  28.822  30.241  1.00  0.00     0.010 A 
ATOM     41  C   UNL A   1      40.131  28.900  28.925  1.00  0.00    -0.014 A 
BRANCH  41  42
ATOM     42  C   UNL A   1      41.542  28.536  28.639  1.00  0.00     0.031 A 
ATOM     43  C   UNL A   1      42.617  29.588  28.636  1.00  0.00     0.074 A 
ATOM     44  C   UNL A   1      41.839  27.264  28.305  1.00  0.00     0.049 A 
ATOM     45  N   UNL A   1      43.886  29.463  28.344  1.00  0.00    -0.248 NA
ATOM     46  C   UNL A   1      42.212  30.959  28.989  1.00  0.00     0.031 C 
ATOM     47  C   UNL A   1      40.876  26.162  28.225  1.00  0.00     0.029 A 
ATOM     48  N   UNL A   1      43.032  26.685  27.957  1.00  0.00    -0.354 N 
ATOM     49  C   UNL A   1      44.428  30.738  28.459  1.00  0.00     0.074 A 
ATOM     50  C   UNL A   1      43.344  31.627  28.816  1.00  0.00     0.031 C 
ATOM     51  C   UNL A   1      41.519  25.039  27.865  1.00  0.00     0.029 A 
ATOM     52  C   UNL A   1      42.930  25.347  27.654  1.00  0.00     0.049 A 
ATOM     53  H   UNL A   1      43.883  27.179  27.927  1.00  0.00     0.167 HD
ATOM     54  C   UNL A   1      45.715  31.128  28.294  1.00  0.00     0.031 A 
ATOM     55  C   UNL A   1      43.862  24.467  27.241  1.00  0.00     0.031 A 
ATOM     56  C   UNL A   1      46.794  30.239  27.955  1.00  0.00     0.049 A 
ATOM     57  C   UNL A   1      45.282  24.928  27.065  1.00  0.00     0.074 A 
ATOM     58  C   UNL A   1      48.142  30.532  27.839  1.00  0.00     0.029 A 
ATOM     59  N   UNL A   1      46.652  28.889  27.673  1.00  0.00    -0.354 N 
ATOM     60  N   UNL A   1      45.787  26.124  27.256  1.00  0.00    -0.248 NA
ATOM     61  C   UNL A   1      46.258  23.921  26.625  1.00  0.00     0.031 C 
ATOM     62  C   UNL A   1      48.809  29.367  27.442  1.00  0.00     0.029 A 
ATOM     63  C   UNL A   1      47.884  28.340  27.357  1.00  0.00     0.049 A 
ATOM     64  H   UNL A   1      45.801  28.394  27.695  1.00  0.00     0.167 HD
ATOM     65  C   UNL A   1      47.144  26.007  26.975  1.00  0.00     0.074 A 
ATOM     66  C   UNL A   1      47.383  24.624  26.621  1.00  0.00     0.031 C 
ATOM     67  C   UNL A   1      48.105  26.963  27.005  1.00  0.00     0.031 A 
BRANCH  54  68
ATOM     68  C   UNL A   1      46.034  32.586  28.479  1.00  0.00    -0.014 A 
ATOM     69  C   UNL A   1      46.444  33.083  29.730  1.00  0.00     0.010 A 
ATOM     70  C   UNL A   1      45.994  33.457  27.375  1.00  0.00     0.010 A 
ATOM     71  C   UNL A   1      46.786  34.430  29.878  1.00  0.00     0.020 A 
ATOM     72  C   UNL A   1      46.356  34.800  27.515  1.00  0.00     0.020 A 
ATOM     73  C   UNL A   1      46.739  35.280  28.769  1.00  0.00     0.054 A 
BRANCH  73  74
ATOM     74  S   UNL A   1      47.233  37.013  28.979  1.00  0.00     0.124 S 
ATOM     75  O   UNL A   1      47.681  37.031  30.370  1.00  0.00    -0.237 OA
ATOM     76  O   UNL A   1      48.287  37.169  27.979  1.00  0.00    -0.237 OA
ATOM     77  O   UNL A   1      46.007  37.758  28.709  1.00  0.00    -0.744 OA
ENDBRANCH  73  74
ENDBRANCH  54  68
BRANCH  55  78
ATOM     78  C   UNL A   1      43.484  23.056  26.957  1.00  0.00    -0.014 A 
ATOM     79  C   UNL A   1      42.972  22.236  27.977  1.00  0.00     0.010 A 
ATOM     80  C   UNL A   1      43.643  22.525  25.665  1.00  0.00     0.010 A 
ATOM     81  C   UNL A   1      42.652  20.900  27.717  1.00  0.00     0.020 A 
ATOM     82  C   UNL A   1      43.300  21.197  25.396  1.00  0.00     0.020 A 
ATOM     83  C   UNL A   1      42.821  20.388  26.428  1.00  0.00     0.054 A 
BRANCH  83  84
ATOM     84  S   UNL A   1      42.370  18.661  26.102  1.00  0.00     0.124 S 
ATOM     85  O   UNL A   1      42.661  18.026  27.382  1.00  0.00    -0.237 OA
ATOM     86  O   UNL A   1      40.955  18.762  25.751  1.00  0.00    -0.237 OA
ATOM     87  O   UNL A   1      43.251  18.284  24.998  1.00  0.00    -0.744 OA
ENDBRANCH  83  84
ENDBRANCH  55  78
BRANCH  67  88
ATOM     88  C   UNL A   1      49.507  26.540  26.664  1.00  0.00    -0.014 A 
ATOM     89  C   UNL A   1      50.436  26.232  27.673  1.00  0.00     0.010 A 
ATOM     90  C   UNL A   1      49.886  26.402  25.317  1.00  0.00     0.010 A 
ATOM     91  C   UNL A   1      51.730  25.822  27.342  1.00  0.00     0.020 A 
ATOM     92  C   UNL A   1      51.171  25.970  24.980  1.00  0.00     0.020 A 
ATOM     93  C   UNL A   1      52.090  25.696  25.996  1.00  0.00     0.054 A 
BRANCH  93  94
ATOM     94  S   UNL A   1      53.762  25.122  25.587  1.00  0.00     0.124 S 
ATOM     95  O   UNL A   1      53.543  23.699  25.344  1.00  0.00    -0.237 OA
ATOM     96  O   UNL A   1      54.096  25.917  24.407  1.00  0.00    -0.237 OA
ATOM     97  O   UNL A   1      54.538  25.439  26.783  1.00  0.00    -0.744 OA
ENDBRANCH  93  94
ENDBRANCH  67  88
ENDBRANCH  41  42
ENDBRANCH  33  36
ENDBRANCH  31  32
ENDBRANCH  30  31
ENDBRANCH   1  30
TORSDOF 17
ENDMDL
