MODEL 1
REMARK VINA RESULT:     -11.2      0.000      0.000
REMARK SMILES CC[C@H]1CC[C@](C(=O)NCCCCNC(=O)c2ccc(-c3c4nc(c(-c5ccc(S(=O)(=O)[O-])cc5)c5ccc([nH]5)c(-c5ccc(S(=O)(=O)[O-])cc5)c5nc(c(-c6ccc(S(=O)(=O)[O-])cc6)c6ccc3[nH]6)C=C5)C=C4)cc2)([C@H]2CCC[C@@H](S(C)(=O)=O)C2)CC1
REMARK SMILES IDX 12 1 11 2 10 3 9 4 7 5 8 6 6 8 3 9 88 10 4 11 87 12 5 13
REMARK SMILES IDX 2 14 1 15 77 16 78 17 86 18 79 19 81 20 80 21 82 22 83 23
REMARK SMILES IDX 84 24 85 25 13 26 14 27 15 28 16 30 17 31 18 32 76 33 19 34
REMARK SMILES IDX 75 35 20 36 21 37 22 38 69 39 23 40 74 41 68 42 70 43 24 44
REMARK SMILES IDX 73 45 67 46 66 47 25 49 55 50 36 51 54 52 37 53 40 54 53 55
REMARK SMILES IDX 71 56 38 57 39 58 52 60 72 61 41 62 26 63 27 64 35 65 28 66
REMARK SMILES IDX 34 67 29 68 30 69 31 70 32 71 33 72 56 73 57 74 65 75 58 76
REMARK SMILES IDX 64 77 59 78 60 79 61 80 62 81 63 82 42 83 43 84 51 85 44 86
REMARK SMILES IDX 50 87 45 88 46 89 47 90 48 91 49 92
REMARK H PARENT 9 7 14 29 70 48 40 59
REMARK Flexibility Score: inf
ROOT
ATOM      1  C   UNL A   1      32.521  28.602  26.467  1.00  0.00     0.023 C 
ENDROOT
BRANCH   1   2
ATOM      2  C   UNL A   1      32.198  29.170  25.094  1.00  0.00     0.023 C 
BRANCH   2   3
ATOM      3  C   UNL A   1      32.253  28.132  23.988  1.00  0.00     0.116 C 
BRANCH   3   4
ATOM      4  N   UNL A   1      33.534  27.495  23.858  1.00  0.00    -0.356 N 
ATOM      5  C   UNL A   1      33.621  26.314  23.186  1.00  0.00     0.226 C 
ATOM      6  O   UNL A   1      33.865  26.360  21.982  1.00  0.00    -0.274 OA
ATOM      7  H   UNL A   1      34.338  27.907  24.249  1.00  0.00     0.163 HD
BRANCH   5   8
ATOM      8  C   UNL A   1      33.391  24.975  23.923  1.00  0.00     0.052 C 
ATOM      9  C   UNL A   1      30.369  24.965  24.599  1.00  0.00    -0.011 C 
ATOM     10  C   UNL A   1      30.923  24.797  23.175  1.00  0.00     0.005 C 
ATOM     11  C   UNL A   1      31.412  25.397  25.647  1.00  0.00     0.005 C 
ATOM     12  C   UNL A   1      32.326  24.193  23.106  1.00  0.00     0.017 C 
ATOM     13  C   UNL A   1      32.873  25.025  25.386  1.00  0.00     0.017 C 
BRANCH   9  14
ATOM     14  C   UNL A   1      29.148  25.927  24.671  1.00  0.00    -0.000 C 
ATOM     15  C   UNL A   1      29.045  26.945  23.546  1.00  0.00     0.004 C 
ENDBRANCH   9  14
BRANCH   8  16
ATOM     16  C   UNL A   1      34.771  24.150  23.924  1.00  0.00     0.006 C 
ATOM     17  C   UNL A   1      35.708  24.278  25.141  1.00  0.00     0.005 C 
ATOM     18  C   UNL A   1      34.743  22.672  23.477  1.00  0.00     0.024 C 
ATOM     19  C   UNL A   1      35.545  23.250  26.262  1.00  0.00     0.002 C 
ATOM     20  C   UNL A   1      34.465  21.600  24.535  1.00  0.00     0.108 C 
ATOM     21  C   UNL A   1      35.196  21.817  25.861  1.00  0.00     0.020 C 
BRANCH  20  22
ATOM     22  S   UNL A   1      32.715  21.152  24.686  1.00  0.00     0.150 S 
ATOM     23  C   UNL A   1      32.743  19.468  25.244  1.00  0.00     0.158 C 
ATOM     24  O   UNL A   1      32.081  21.934  25.725  1.00  0.00    -0.229 OA
ATOM     25  O   UNL A   1      32.133  21.087  23.356  1.00  0.00    -0.229 OA
ENDBRANCH  20  22
ENDBRANCH   8  16
ENDBRANCH   5   8
ENDBRANCH   3   4
ENDBRANCH   2   3
ENDBRANCH   1   2
BRANCH   1  26
ATOM     26  C   UNL A   1      33.859  29.045  27.046  1.00  0.00     0.116 C 
BRANCH  26  27
ATOM     27  N   UNL A   1      33.819  30.326  27.748  1.00  0.00    -0.352 N 
ATOM     28  C   UNL A   1      34.818  30.893  28.508  1.00  0.00     0.251 C 
ATOM     29  H   UNL A   1      32.983  30.841  27.670  1.00  0.00     0.163 HD
ATOM     30  O   UNL A   1      34.645  31.944  29.113  1.00  0.00    -0.269 OA
BRANCH  28  31
ATOM     31  C   UNL A   1      36.092  30.157  28.607  1.00  0.00     0.039 A 
ATOM     32  C   UNL A   1      36.990  30.212  27.542  1.00  0.00     0.014 A 
ATOM     33  C   UNL A   1      36.454  29.579  29.826  1.00  0.00     0.014 A 
ATOM     34  C   UNL A   1      38.295  29.758  27.732  1.00  0.00     0.010 A 
ATOM     35  C   UNL A   1      37.778  29.228  30.042  1.00  0.00     0.010 A 
ATOM     36  C   UNL A   1      38.713  29.313  28.998  1.00  0.00    -0.014 A 
BRANCH  36  37
ATOM     37  C   UNL A   1      40.124  28.927  29.253  1.00  0.00     0.031 A 
ATOM     38  C   UNL A   1      41.067  29.923  29.872  1.00  0.00     0.074 A 
ATOM     39  C   UNL A   1      40.571  27.713  28.871  1.00  0.00     0.049 A 
ATOM     40  N   UNL A   1      42.341  29.799  30.134  1.00  0.00    -0.248 NA
ATOM     41  C   UNL A   1      40.512  31.244  30.214  1.00  0.00     0.031 C 
ATOM     42  C   UNL A   1      39.769  26.678  28.213  1.00  0.00     0.029 A 
ATOM     43  N   UNL A   1      41.815  27.142  28.982  1.00  0.00    -0.354 N 
ATOM     44  C   UNL A   1      42.741  31.027  30.650  1.00  0.00     0.074 A 
ATOM     45  C   UNL A   1      41.593  31.901  30.604  1.00  0.00     0.031 C 
ATOM     46  C   UNL A   1      40.529  25.587  28.019  1.00  0.00     0.029 A 
ATOM     47  C   UNL A   1      41.882  25.857  28.493  1.00  0.00     0.049 A 
ATOM     48  H   UNL A   1      42.588  27.608  29.376  1.00  0.00     0.167 HD
ATOM     49  C   UNL A   1      43.949  31.387  31.142  1.00  0.00     0.031 A 
ATOM     50  C   UNL A   1      42.917  24.995  28.431  1.00  0.00     0.031 A 
ATOM     51  C   UNL A   1      45.084  30.507  31.200  1.00  0.00     0.049 A 
ATOM     52  C   UNL A   1      44.253  25.423  28.976  1.00  0.00     0.074 A 
ATOM     53  C   UNL A   1      46.334  30.752  31.737  1.00  0.00     0.029 A 
ATOM     54  N   UNL A   1      45.108  29.213  30.699  1.00  0.00    -0.354 N 
ATOM     55  N   UNL A   1      44.590  26.561  29.533  1.00  0.00    -0.248 NA
ATOM     56  C   UNL A   1      45.346  24.444  28.895  1.00  0.00     0.031 C 
ATOM     57  C   UNL A   1      47.135  29.629  31.504  1.00  0.00     0.029 A 
ATOM     58  C   UNL A   1      46.362  28.658  30.888  1.00  0.00     0.049 A 
ATOM     59  H   UNL A   1      44.347  28.757  30.272  1.00  0.00     0.167 HD
ATOM     60  C   UNL A   1      45.926  26.425  29.898  1.00  0.00     0.074 A 
ATOM     61  C   UNL A   1      46.328  25.088  29.512  1.00  0.00     0.031 C 
ATOM     62  C   UNL A   1      46.744  27.324  30.499  1.00  0.00     0.031 A 
BRANCH  49  63
ATOM     63  C   UNL A   1      44.102  32.795  31.654  1.00  0.00    -0.014 A 
ATOM     64  C   UNL A   1      44.636  33.813  30.843  1.00  0.00     0.010 A 
ATOM     65  C   UNL A   1      43.673  33.114  32.955  1.00  0.00     0.010 A 
ATOM     66  C   UNL A   1      44.779  35.112  31.336  1.00  0.00     0.020 A 
ATOM     67  C   UNL A   1      43.781  34.420  33.441  1.00  0.00     0.020 A 
ATOM     68  C   UNL A   1      44.349  35.408  32.634  1.00  0.00     0.054 A 
BRANCH  68  69
ATOM     69  S   UNL A   1      44.515  37.110  33.235  1.00  0.00     0.124 S 
ATOM     70  O   UNL A   1      44.853  37.830  32.010  1.00  0.00    -0.237 OA
ATOM     71  O   UNL A   1      43.188  37.386  33.779  1.00  0.00    -0.237 OA
ATOM     72  O   UNL A   1      45.587  37.027  34.224  1.00  0.00    -0.744 OA
ENDBRANCH  68  69
ENDBRANCH  49  63
BRANCH  50  73
ATOM     73  C   UNL A   1      42.728  23.636  27.848  1.00  0.00    -0.014 A 
ATOM     74  C   UNL A   1      43.073  23.377  26.510  1.00  0.00     0.010 A 
ATOM     75  C   UNL A   1      42.201  22.591  28.630  1.00  0.00     0.010 A 
ATOM     76  C   UNL A   1      42.875  22.107  25.957  1.00  0.00     0.020 A 
ATOM     77  C   UNL A   1      42.031  21.312  28.090  1.00  0.00     0.020 A 
ATOM     78  C   UNL A   1      42.356  21.081  26.753  1.00  0.00     0.054 A 
BRANCH  78  79
ATOM     79  S   UNL A   1      42.148  19.431  26.027  1.00  0.00     0.124 S 
ATOM     80  O   UNL A   1      40.702  19.360  25.843  1.00  0.00    -0.237 OA
ATOM     81  O   UNL A   1      42.938  19.523  24.803  1.00  0.00    -0.237 OA
ATOM     82  O   UNL A   1      42.693  18.537  27.047  1.00  0.00    -0.744 OA
ENDBRANCH  78  79
ENDBRANCH  50  73
BRANCH  62  83
ATOM     83  C   UNL A   1      48.149  26.881  30.818  1.00  0.00    -0.014 A 
ATOM     84  C   UNL A   1      49.216  27.138  29.939  1.00  0.00     0.010 A 
ATOM     85  C   UNL A   1      48.411  26.253  32.049  1.00  0.00     0.010 A 
ATOM     86  C   UNL A   1      50.514  26.746  30.273  1.00  0.00     0.020 A 
ATOM     87  C   UNL A   1      49.712  25.889  32.402  1.00  0.00     0.020 A 
ATOM     88  C   UNL A   1      50.754  26.126  31.504  1.00  0.00     0.054 A 
BRANCH  88  89
ATOM     89  S   UNL A   1      52.455  25.667  31.932  1.00  0.00     0.124 S 
ATOM     90  O   UNL A   1      53.158  25.893  30.672  1.00  0.00    -0.237 OA
ATOM     91  O   UNL A   1      52.777  26.604  33.007  1.00  0.00    -0.237 OA
ATOM     92  O   UNL A   1      52.347  24.270  32.343  1.00  0.00    -0.744 OA
ENDBRANCH  88  89
ENDBRANCH  62  83
ENDBRANCH  36  37
ENDBRANCH  28  31
ENDBRANCH  26  27
ENDBRANCH   1  26
TORSDOF 17
ENDMDL
MODEL 2
REMARK VINA RESULT:     -11.0      1.050      2.561
REMARK SMILES CC[C@H]1CC[C@](C(=O)NCCCCNC(=O)c2ccc(-c3c4nc(c(-c5ccc(S(=O)(=O)[O-])cc5)c5ccc([nH]5)c(-c5ccc(S(=O)(=O)[O-])cc5)c5nc(c(-c6ccc(S(=O)(=O)[O-])cc6)c6ccc3[nH]6)C=C5)C=C4)cc2)([C@H]2CCC[C@@H](S(C)(=O)=O)C2)CC1
REMARK SMILES IDX 12 1 11 2 10 3 9 4 7 5 8 6 6 8 3 9 88 10 4 11 87 12 5 13
REMARK SMILES IDX 2 14 1 15 77 16 78 17 86 18 79 19 81 20 80 21 82 22 83 23
REMARK SMILES IDX 84 24 85 25 13 26 14 27 15 28 16 30 17 31 18 32 76 33 19 34
REMARK SMILES IDX 75 35 20 36 21 37 22 38 69 39 23 40 74 41 68 42 70 43 24 44
REMARK SMILES IDX 73 45 67 46 66 47 25 49 55 50 36 51 54 52 37 53 40 54 53 55
REMARK SMILES IDX 71 56 38 57 39 58 52 60 72 61 41 62 26 63 27 64 35 65 28 66
REMARK SMILES IDX 34 67 29 68 30 69 31 70 32 71 33 72 56 73 57 74 65 75 58 76
REMARK SMILES IDX 64 77 59 78 60 79 61 80 62 81 63 82 42 83 43 84 51 85 44 86
REMARK SMILES IDX 50 87 45 88 46 89 47 90 48 91 49 92
REMARK H PARENT 9 7 14 29 70 48 40 59
REMARK Flexibility Score: inf
ROOT
ATOM      1  C   UNL A   1      33.474  28.487  25.738  1.00  0.00     0.023 C 
ENDROOT
BRANCH   1   2
ATOM      2  C   UNL A   1      32.179  27.937  25.162  1.00  0.00     0.023 C 
BRANCH   2   3
ATOM      3  C   UNL A   1      32.349  26.589  24.485  1.00  0.00     0.116 C 
BRANCH   3   4
ATOM      4  N   UNL A   1      33.710  26.131  24.444  1.00  0.00    -0.356 N 
ATOM      5  C   UNL A   1      34.029  25.076  23.646  1.00  0.00     0.226 C 
ATOM      6  O   UNL A   1      34.400  25.321  22.499  1.00  0.00    -0.274 OA
ATOM      7  H   UNL A   1      34.402  26.575  24.986  1.00  0.00     0.163 HD
BRANCH   5   8
ATOM      8  C   UNL A   1      33.899  23.629  24.171  1.00  0.00     0.052 C 
ATOM      9  C   UNL A   1      36.560  23.097  25.662  1.00  0.00    -0.011 C 
ATOM     10  C   UNL A   1      35.466  24.042  26.184  1.00  0.00     0.005 C 
ATOM     11  C   UNL A   1      36.359  22.621  24.211  1.00  0.00     0.005 C 
ATOM     12  C   UNL A   1      34.052  23.698  25.715  1.00  0.00     0.017 C 
ATOM     13  C   UNL A   1      34.927  22.575  23.674  1.00  0.00     0.017 C 
BRANCH   9  14
ATOM     14  C   UNL A   1      37.995  23.681  25.810  1.00  0.00    -0.000 C 
ATOM     15  C   UNL A   1      39.055  22.709  26.301  1.00  0.00     0.004 C 
ENDBRANCH   9  14
BRANCH   8  16
ATOM     16  C   UNL A   1      32.430  23.085  23.806  1.00  0.00     0.006 C 
ATOM     17  C   UNL A   1      32.137  22.664  22.352  1.00  0.00     0.005 C 
ATOM     18  C   UNL A   1      31.770  22.062  24.756  1.00  0.00     0.024 C 
ATOM     19  C   UNL A   1      32.348  21.194  21.991  1.00  0.00     0.002 C 
ATOM     20  C   UNL A   1      32.039  20.573  24.520  1.00  0.00     0.108 C 
ATOM     21  C   UNL A   1      31.995  20.149  23.051  1.00  0.00     0.020 C 
BRANCH  20  22
ATOM     22  S   UNL A   1      33.439  19.919  25.467  1.00  0.00     0.150 S 
ATOM     23  C   UNL A   1      32.876  18.338  26.043  1.00  0.00     0.158 C 
ATOM     24  O   UNL A   1      34.569  19.676  24.596  1.00  0.00    -0.229 OA
ATOM     25  O   UNL A   1      33.599  20.713  26.674  1.00  0.00    -0.229 OA
ENDBRANCH  20  22
ENDBRANCH   8  16
ENDBRANCH   5   8
ENDBRANCH   3   4
ENDBRANCH   2   3
ENDBRANCH   1   2
BRANCH   1  26
ATOM     26  C   UNL A   1      33.473  28.680  27.250  1.00  0.00     0.116 C 
BRANCH  26  27
ATOM     27  N   UNL A   1      33.465  30.076  27.680  1.00  0.00    -0.352 N 
ATOM     28  C   UNL A   1      34.510  30.785  28.232  1.00  0.00     0.251 C 
ATOM     29  H   UNL A   1      32.619  30.564  27.563  1.00  0.00     0.163 HD
ATOM     30  O   UNL A   1      34.366  31.937  28.623  1.00  0.00    -0.269 OA
BRANCH  28  31
ATOM     31  C   UNL A   1      35.799  30.085  28.380  1.00  0.00     0.039 A 
ATOM     32  C   UNL A   1      36.706  30.105  27.320  1.00  0.00     0.014 A 
ATOM     33  C   UNL A   1      36.161  29.580  29.630  1.00  0.00     0.014 A 
ATOM     34  C   UNL A   1      38.018  29.691  27.546  1.00  0.00     0.010 A 
ATOM     35  C   UNL A   1      37.491  29.270  29.876  1.00  0.00     0.010 A 
ATOM     36  C   UNL A   1      38.434  29.322  28.836  1.00  0.00    -0.014 A 
BRANCH  36  37
ATOM     37  C   UNL A   1      39.850  28.982  29.124  1.00  0.00     0.031 A 
ATOM     38  C   UNL A   1      40.750  30.013  29.751  1.00  0.00     0.074 A 
ATOM     39  C   UNL A   1      40.342  27.779  28.763  1.00  0.00     0.049 A 
ATOM     40  N   UNL A   1      42.022  29.930  30.040  1.00  0.00    -0.248 NA
ATOM     41  C   UNL A   1      40.148  31.320  30.068  1.00  0.00     0.031 C 
ATOM     42  C   UNL A   1      39.585  26.713  28.100  1.00  0.00     0.029 A 
ATOM     43  N   UNL A   1      41.600  27.247  28.905  1.00  0.00    -0.354 N 
ATOM     44  C   UNL A   1      42.374  31.175  30.550  1.00  0.00     0.074 A 
ATOM     45  C   UNL A   1      41.200  32.013  30.472  1.00  0.00     0.031 C 
ATOM     46  C   UNL A   1      40.382  25.644  27.933  1.00  0.00     0.029 A 
ATOM     47  C   UNL A   1      41.716  25.960  28.430  1.00  0.00     0.049 A 
ATOM     48  H   UNL A   1      42.351  27.740  29.309  1.00  0.00     0.167 HD
ATOM     49  C   UNL A   1      43.560  31.577  31.063  1.00  0.00     0.031 A 
ATOM     50  C   UNL A   1      42.777  25.130  28.398  1.00  0.00     0.031 A 
ATOM     51  C   UNL A   1      44.719  30.732  31.152  1.00  0.00     0.049 A 
ATOM     52  C   UNL A   1      44.089  25.604  28.965  1.00  0.00     0.074 A 
ATOM     53  C   UNL A   1      45.951  31.021  31.712  1.00  0.00     0.029 A 
ATOM     54  N   UNL A   1      44.793  29.435  30.665  1.00  0.00    -0.354 N 
ATOM     55  N   UNL A   1      44.380  26.757  29.517  1.00  0.00    -0.248 NA
ATOM     56  C   UNL A   1      45.213  24.659  28.916  1.00  0.00     0.031 C 
ATOM     57  C   UNL A   1      46.790  29.921  31.506  1.00  0.00     0.029 A 
ATOM     58  C   UNL A   1      46.060  28.921  30.885  1.00  0.00     0.049 A 
ATOM     59  H   UNL A   1      44.055  28.952  30.228  1.00  0.00     0.167 HD
ATOM     60  C   UNL A   1      45.712  26.666  29.910  1.00  0.00     0.074 A 
ATOM     61  C   UNL A   1      46.162  25.338  29.546  1.00  0.00     0.031 C 
ATOM     62  C   UNL A   1      46.490  27.595  30.518  1.00  0.00     0.031 A 
BRANCH  49  63
ATOM     63  C   UNL A   1      43.659  32.994  31.563  1.00  0.00    -0.014 A 
ATOM     64  C   UNL A   1      43.322  33.326  32.888  1.00  0.00     0.010 A 
ATOM     65  C   UNL A   1      44.129  34.004  30.705  1.00  0.00     0.010 A 
ATOM     66  C   UNL A   1      43.412  34.647  33.333  1.00  0.00     0.020 A 
ATOM     67  C   UNL A   1      44.254  35.321  31.155  1.00  0.00     0.020 A 
ATOM     68  C   UNL A   1      43.879  35.637  32.463  1.00  0.00     0.054 A 
BRANCH  68  69
ATOM     69  S   UNL A   1      44.019  37.336  33.079  1.00  0.00     0.124 S 
ATOM     70  O   UNL A   1      43.744  38.117  31.876  1.00  0.00    -0.237 OA
ATOM     71  O   UNL A   1      42.985  37.387  34.110  1.00  0.00    -0.237 OA
ATOM     72  O   UNL A   1      45.392  37.416  33.573  1.00  0.00    -0.744 OA
ENDBRANCH  68  69
ENDBRANCH  49  63
BRANCH  50  73
ATOM     73  C   UNL A   1      42.642  23.760  27.826  1.00  0.00    -0.014 A 
ATOM     74  C   UNL A   1      42.932  23.518  26.471  1.00  0.00     0.010 A 
ATOM     75  C   UNL A   1      42.223  22.687  28.634  1.00  0.00     0.010 A 
ATOM     76  C   UNL A   1      42.783  22.237  25.929  1.00  0.00     0.020 A 
ATOM     77  C   UNL A   1      42.102  21.398  28.104  1.00  0.00     0.020 A 
ATOM     78  C   UNL A   1      42.370  21.184  26.751  1.00  0.00     0.054 A 
BRANCH  78  79
ATOM     79  S   UNL A   1      42.226  19.522  26.037  1.00  0.00     0.124 S 
ATOM     80  O   UNL A   1      42.649  18.676  27.149  1.00  0.00    -0.237 OA
ATOM     81  O   UNL A   1      40.810  19.449  25.690  1.00  0.00    -0.237 OA
ATOM     82  O   UNL A   1      43.139  19.559  24.897  1.00  0.00    -0.744 OA
ENDBRANCH  78  79
ENDBRANCH  50  73
BRANCH  62  83
ATOM     83  C   UNL A   1      47.901  27.199  30.869  1.00  0.00    -0.014 A 
ATOM     84  C   UNL A   1      48.185  26.455  32.027  1.00  0.00     0.010 A 
ATOM     85  C   UNL A   1      48.948  27.525  29.988  1.00  0.00     0.010 A 
ATOM     86  C   UNL A   1      49.498  26.072  32.314  1.00  0.00     0.020 A 
ATOM     87  C   UNL A   1      50.257  27.116  30.254  1.00  0.00     0.020 A 
ATOM     88  C   UNL A   1      50.525  26.403  31.423  1.00  0.00     0.054 A 
BRANCH  88  89
ATOM     89  S   UNL A   1      52.213  25.855  31.796  1.00  0.00     0.124 S 
ATOM     90  O   UNL A   1      52.654  26.859  32.760  1.00  0.00    -0.237 OA
ATOM     91  O   UNL A   1      52.001  24.515  32.338  1.00  0.00    -0.237 OA
ATOM     92  O   UNL A   1      52.887  25.897  30.501  1.00  0.00    -0.744 OA
ENDBRANCH  88  89
ENDBRANCH  62  83
ENDBRANCH  36  37
ENDBRANCH  28  31
ENDBRANCH  26  27
ENDBRANCH   1  26
TORSDOF 17
ENDMDL
MODEL 3
REMARK VINA RESULT:     -10.9      2.723      9.232
REMARK SMILES CC[C@H]1CC[C@](C(=O)NCCCCNC(=O)c2ccc(-c3c4nc(c(-c5ccc(S(=O)(=O)[O-])cc5)c5ccc([nH]5)c(-c5ccc(S(=O)(=O)[O-])cc5)c5nc(c(-c6ccc(S(=O)(=O)[O-])cc6)c6ccc3[nH]6)C=C5)C=C4)cc2)([C@H]2CCC[C@@H](S(C)(=O)=O)C2)CC1
REMARK SMILES IDX 12 1 11 2 10 3 9 4 7 5 8 6 6 8 3 9 88 10 4 11 87 12 5 13
REMARK SMILES IDX 2 14 1 15 77 16 78 17 86 18 79 19 81 20 80 21 82 22 83 23
REMARK SMILES IDX 84 24 85 25 13 26 14 27 15 28 16 30 17 31 18 32 76 33 19 34
REMARK SMILES IDX 75 35 20 36 21 37 22 38 69 39 23 40 74 41 68 42 70 43 24 44
REMARK SMILES IDX 73 45 67 46 66 47 25 49 55 50 36 51 54 52 37 53 40 54 53 55
REMARK SMILES IDX 71 56 38 57 39 58 52 60 72 61 41 62 26 63 27 64 35 65 28 66
REMARK SMILES IDX 34 67 29 68 30 69 31 70 32 71 33 72 56 73 57 74 65 75 58 76
REMARK SMILES IDX 64 77 59 78 60 79 61 80 62 81 63 82 42 83 43 84 51 85 44 86
REMARK SMILES IDX 50 87 45 88 46 89 47 90 48 91 49 92
REMARK H PARENT 9 7 14 29 70 48 40 59
REMARK Flexibility Score: inf
ROOT
ATOM      1  C   UNL A   1      36.736  23.365  23.796  1.00  0.00     0.023 C 
ENDROOT
BRANCH   1   2
ATOM      2  C   UNL A   1      35.300  22.896  23.625  1.00  0.00     0.023 C 
BRANCH   2   3
ATOM      3  C   UNL A   1      34.300  24.037  23.572  1.00  0.00     0.116 C 
BRANCH   3   4
ATOM      4  N   UNL A   1      34.518  25.042  24.575  1.00  0.00    -0.356 N 
ATOM      5  C   UNL A   1      33.499  25.365  25.419  1.00  0.00     0.226 C 
ATOM      6  O   UNL A   1      33.427  24.755  26.484  1.00  0.00    -0.274 OA
ATOM      7  H   UNL A   1      35.391  25.490  24.652  1.00  0.00     0.163 HD
BRANCH   5   8
ATOM      8  C   UNL A   1      32.467  26.445  25.023  1.00  0.00     0.052 C 
ATOM      9  C   UNL A   1      33.453  29.021  26.432  1.00  0.00    -0.011 C 
ATOM     10  C   UNL A   1      34.166  28.382  25.230  1.00  0.00     0.005 C 
ATOM     11  C   UNL A   1      32.348  28.150  27.059  1.00  0.00     0.005 C 
ATOM     12  C   UNL A   1      33.255  27.574  24.305  1.00  0.00     0.017 C 
ATOM     13  C   UNL A   1      31.654  27.128  26.157  1.00  0.00     0.017 C 
BRANCH   9  14
ATOM     14  C   UNL A   1      34.432  29.481  27.550  1.00  0.00    -0.000 C 
ATOM     15  C   UNL A   1      34.587  30.985  27.712  1.00  0.00     0.004 C 
ENDBRANCH   9  14
BRANCH   8  16
ATOM     16  C   UNL A   1      31.416  25.793  23.996  1.00  0.00     0.006 C 
ATOM     17  C   UNL A   1      30.072  25.272  24.542  1.00  0.00     0.005 C 
ATOM     18  C   UNL A   1      31.155  26.516  22.656  1.00  0.00     0.024 C 
ATOM     19  C   UNL A   1      28.889  26.241  24.532  1.00  0.00     0.002 C 
ATOM     20  C   UNL A   1      30.060  27.585  22.610  1.00  0.00     0.108 C 
ATOM     21  C   UNL A   1      28.778  27.207  23.353  1.00  0.00     0.020 C 
BRANCH  20  22
ATOM     22  S   UNL A   1      30.661  29.267  22.920  1.00  0.00     0.150 S 
ATOM     23  C   UNL A   1      29.574  30.300  21.970  1.00  0.00     0.158 C 
ATOM     24  O   UNL A   1      30.476  29.621  24.311  1.00  0.00    -0.229 OA
ATOM     25  O   UNL A   1      31.960  29.424  22.288  1.00  0.00    -0.229 OA
ENDBRANCH  20  22
ENDBRANCH   8  16
ENDBRANCH   5   8
ENDBRANCH   3   4
ENDBRANCH   2   3
ENDBRANCH   1   2
BRANCH   1  26
ATOM     26  C   UNL A   1      37.216  23.449  25.241  1.00  0.00     0.116 C 
BRANCH  26  27
ATOM     27  N   UNL A   1      38.345  22.577  25.555  1.00  0.00    -0.352 N 
ATOM     28  C   UNL A   1      39.480  22.905  26.264  1.00  0.00     0.251 C 
ATOM     29  H   UNL A   1      38.288  21.653  25.223  1.00  0.00     0.163 HD
ATOM     30  O   UNL A   1      40.399  22.107  26.405  1.00  0.00    -0.269 OA
BRANCH  28  31
ATOM     31  C   UNL A   1      39.568  24.273  26.805  1.00  0.00     0.039 A 
ATOM     32  C   UNL A   1      39.127  24.516  28.106  1.00  0.00     0.014 A 
ATOM     33  C   UNL A   1      40.255  25.250  26.082  1.00  0.00     0.014 A 
ATOM     34  C   UNL A   1      39.457  25.726  28.717  1.00  0.00     0.010 A 
ATOM     35  C   UNL A   1      40.670  26.405  26.729  1.00  0.00     0.010 A 
ATOM     36  C   UNL A   1      40.276  26.656  28.053  1.00  0.00    -0.014 A 
BRANCH  36  37
ATOM     37  C   UNL A   1      40.730  27.901  28.723  1.00  0.00     0.031 A 
ATOM     38  C   UNL A   1      42.132  27.986  29.262  1.00  0.00     0.074 A 
ATOM     39  C   UNL A   1      39.868  28.923  28.904  1.00  0.00     0.049 A 
ATOM     40  N   UNL A   1      42.706  28.962  29.915  1.00  0.00    -0.248 NA
ATOM     41  C   UNL A   1      42.995  26.808  29.067  1.00  0.00     0.031 C 
ATOM     42  C   UNL A   1      38.466  28.941  28.474  1.00  0.00     0.029 A 
ATOM     43  N   UNL A   1      40.044  30.148  29.498  1.00  0.00    -0.354 N 
ATOM     44  C   UNL A   1      43.983  28.508  30.226  1.00  0.00     0.074 A 
ATOM     45  C   UNL A   1      44.078  27.148  29.747  1.00  0.00     0.031 C 
ATOM     46  C   UNL A   1      37.926  30.132  28.781  1.00  0.00     0.029 A 
ATOM     47  C   UNL A   1      38.923  30.945  29.469  1.00  0.00     0.049 A 
ATOM     48  H   UNL A   1      40.894  30.431  29.907  1.00  0.00     0.167 HD
ATOM     49  C   UNL A   1      44.994  29.171  30.831  1.00  0.00     0.031 A 
ATOM     50  C   UNL A   1      38.720  32.190  29.946  1.00  0.00     0.031 A 
ATOM     51  C   UNL A   1      44.898  30.529  31.291  1.00  0.00     0.049 A 
ATOM     52  C   UNL A   1      39.858  32.903  30.625  1.00  0.00     0.074 A 
ATOM     53  C   UNL A   1      45.884  31.315  31.860  1.00  0.00     0.029 A 
ATOM     54  N   UNL A   1      43.748  31.303  31.238  1.00  0.00    -0.354 N 
ATOM     55  N   UNL A   1      41.084  32.486  30.838  1.00  0.00    -0.248 NA
ATOM     56  C   UNL A   1      39.590  34.261  31.118  1.00  0.00     0.031 C 
ATOM     57  C   UNL A   1      45.312  32.543  32.211  1.00  0.00     0.029 A 
ATOM     58  C   UNL A   1      43.991  32.548  31.793  1.00  0.00     0.049 A 
ATOM     59  H   UNL A   1      42.886  31.010  30.863  1.00  0.00     0.167 HD
ATOM     60  C   UNL A   1      41.742  33.541  31.461  1.00  0.00     0.074 A 
ATOM     61  C   UNL A   1      40.782  34.621  31.575  1.00  0.00     0.031 C 
ATOM     62  C   UNL A   1      43.024  33.611  31.897  1.00  0.00     0.031 A 
BRANCH  49  63
ATOM     63  C   UNL A   1      46.291  28.432  31.033  1.00  0.00    -0.014 A 
ATOM     64  C   UNL A   1      47.312  28.473  30.065  1.00  0.00     0.010 A 
ATOM     65  C   UNL A   1      46.506  27.713  32.222  1.00  0.00     0.010 A 
ATOM     66  C   UNL A   1      48.505  27.774  30.264  1.00  0.00     0.020 A 
ATOM     67  C   UNL A   1      47.712  27.041  32.441  1.00  0.00     0.020 A 
ATOM     68  C   UNL A   1      48.698  27.063  31.453  1.00  0.00     0.054 A 
BRANCH  68  69
ATOM     69  S   UNL A   1      50.271  26.195  31.698  1.00  0.00     0.124 S 
ATOM     70  O   UNL A   1      49.887  24.805  31.466  1.00  0.00    -0.237 OA
ATOM     71  O   UNL A   1      51.126  26.789  30.673  1.00  0.00    -0.237 OA
ATOM     72  O   UNL A   1      50.636  26.519  33.075  1.00  0.00    -0.744 OA
ENDBRANCH  68  69
ENDBRANCH  49  63
BRANCH  50  73
ATOM     73  C   UNL A   1      37.393  32.849  29.783  1.00  0.00    -0.014 A 
ATOM     74  C   UNL A   1      37.115  33.625  28.642  1.00  0.00     0.010 A 
ATOM     75  C   UNL A   1      36.397  32.705  30.766  1.00  0.00     0.010 A 
ATOM     76  C   UNL A   1      35.878  34.262  28.500  1.00  0.00     0.020 A 
ATOM     77  C   UNL A   1      35.147  33.314  30.613  1.00  0.00     0.020 A 
ATOM     78  C   UNL A   1      34.901  34.101  29.486  1.00  0.00     0.054 A 
BRANCH  78  79
ATOM     79  S   UNL A   1      33.287  34.901  29.259  1.00  0.00     0.124 S 
ATOM     80  O   UNL A   1      32.728  34.843  30.606  1.00  0.00    -0.237 OA
ATOM     81  O   UNL A   1      33.659  36.230  28.784  1.00  0.00    -0.237 OA
ATOM     82  O   UNL A   1      32.623  34.056  28.269  1.00  0.00    -0.744 OA
ENDBRANCH  78  79
ENDBRANCH  50  73
BRANCH  62  83
ATOM     83  C   UNL A   1      43.483  34.913  32.502  1.00  0.00    -0.014 A 
ATOM     84  C   UNL A   1      43.398  35.148  33.886  1.00  0.00     0.010 A 
ATOM     85  C   UNL A   1      44.066  35.890  31.675  1.00  0.00     0.010 A 
ATOM     86  C   UNL A   1      43.859  36.350  34.426  1.00  0.00     0.020 A 
ATOM     87  C   UNL A   1      44.560  37.080  32.215  1.00  0.00     0.020 A 
ATOM     88  C   UNL A   1      44.440  37.308  33.587  1.00  0.00     0.054 A 
BRANCH  88  89
ATOM     89  S   UNL A   1      45.073  38.841  34.320  1.00  0.00     0.124 S 
ATOM     90  O   UNL A   1      45.994  39.313  33.290  1.00  0.00    -0.237 OA
ATOM     91  O   UNL A   1      43.860  39.637  34.490  1.00  0.00    -0.237 OA
ATOM     92  O   UNL A   1      45.701  38.400  35.563  1.00  0.00    -0.744 OA
ENDBRANCH  88  89
ENDBRANCH  62  83
ENDBRANCH  36  37
ENDBRANCH  28  31
ENDBRANCH  26  27
ENDBRANCH   1  26
TORSDOF 17
ENDMDL
