MODEL 1
REMARK VINA RESULT:     -12.5      0.000      0.000
REMARK SMILES CC(=O)Nc1cccc(-c2ccc(F)c(C(=O)NCCCCNC(=O)c3ccc(-c4c5nc(c(-c6ccc(S(=O)(=O)[O-])cc6)c6ccc([nH]6)c(-c6ccc(S(=O)(=O)[O-])cc6)c6nc(c(-c7ccc(S(=O)(=O)[O-])cc7)c7ccc4[nH]7)C=C6)C=C5)cc3)c2)c1
REMARK SMILES IDX 21 1 20 2 19 3 18 4 16 5 17 6 15 8 10 9 11 10 86 11 12 12
REMARK SMILES IDX 13 13 14 14 9 15 5 16 6 17 87 18 7 19 8 20 4 21 1 22 2 23
REMARK SMILES IDX 3 24 22 26 23 27 24 28 25 30 26 31 27 32 85 33 28 34 84 35
REMARK SMILES IDX 29 36 30 37 31 38 78 39 32 40 83 41 77 42 79 43 33 44 82 45
REMARK SMILES IDX 76 46 75 47 34 49 64 50 45 51 63 52 46 53 49 54 62 55 80 56
REMARK SMILES IDX 47 57 48 58 61 60 81 61 50 62 35 63 36 64 44 65 37 66 43 67
REMARK SMILES IDX 38 68 39 69 40 70 41 71 42 72 65 73 66 74 74 75 67 76 73 77
REMARK SMILES IDX 68 78 69 79 70 80 71 81 72 82 51 83 52 84 60 85 53 86 59 87
REMARK SMILES IDX 54 88 55 89 56 90 57 91 58 92
REMARK H PARENT 18 7 4 25 23 29 79 48 49 59
REMARK Flexibility Score: inf
ROOT
ATOM      1  C   UNL A   1      32.087  27.810  27.235  1.00  0.00     0.023 C 
ENDROOT
BRANCH   1   2
ATOM      2  C   UNL A   1      31.418  27.737  25.869  1.00  0.00     0.023 C 
BRANCH   2   3
ATOM      3  C   UNL A   1      31.078  26.349  25.344  1.00  0.00     0.116 C 
BRANCH   3   4
ATOM      4  N   UNL A   1      30.848  25.335  26.364  1.00  0.00    -0.352 N 
ATOM      5  C   UNL A   1      31.460  24.117  26.601  1.00  0.00     0.254 C 
ATOM      6  O   UNL A   1      31.120  23.471  27.588  1.00  0.00    -0.269 OA
ATOM      7  H   UNL A   1      30.128  25.556  27.000  1.00  0.00     0.163 HD
BRANCH   5   8
ATOM      8  C   UNL A   1      32.487  23.567  25.682  1.00  0.00     0.076 A 
ATOM      9  C   UNL A   1      33.291  21.713  24.306  1.00  0.00    -0.017 A 
ATOM     10  C   UNL A   1      34.553  22.321  24.253  1.00  0.00     0.012 A 
ATOM     11  C   UNL A   1      32.245  22.422  24.921  1.00  0.00     0.025 A 
ATOM     12  C   UNL A   1      34.769  23.558  24.869  1.00  0.00     0.041 A 
ATOM     13  C   UNL A   1      33.749  24.154  25.611  1.00  0.00     0.135 A 
ATOM     14  F   UNL A   1      34.040  25.275  26.286  1.00  0.00    -0.206 F 
BRANCH   9  15
ATOM     15  C   UNL A   1      33.068  20.304  23.928  1.00  0.00    -0.016 A 
ATOM     16  C   UNL A   1      33.837  17.980  23.906  1.00  0.00     0.041 A 
ATOM     17  C   UNL A   1      32.979  17.716  22.834  1.00  0.00     0.026 A 
ATOM     18  C   UNL A   1      33.877  19.272  24.437  1.00  0.00     0.034 A 
ATOM     19  C   UNL A   1      32.131  18.708  22.346  1.00  0.00     0.003 A 
ATOM     20  C   UNL A   1      32.172  19.989  22.892  1.00  0.00     0.009 A 
BRANCH  16  21
ATOM     21  N   UNL A   1      34.678  16.935  24.322  1.00  0.00    -0.326 N 
ATOM     22  C   UNL A   1      33.057  15.417  25.458  1.00  0.00     0.114 C 
ATOM     23  C   UNL A   1      34.455  15.836  25.099  1.00  0.00     0.221 C 
ATOM     24  O   UNL A   1      35.421  15.154  25.449  1.00  0.00    -0.275 OA
ATOM     25  H   UNL A   1      35.601  17.009  23.989  1.00  0.00     0.169 HD
ENDBRANCH  16  21
ENDBRANCH   9  15
ENDBRANCH   5   8
ENDBRANCH   3   4
ENDBRANCH   2   3
ENDBRANCH   1   2
BRANCH   1  26
ATOM     26  C   UNL A   1      33.456  28.479  27.282  1.00  0.00     0.116 C 
BRANCH  26  27
ATOM     27  N   UNL A   1      33.420  29.882  27.670  1.00  0.00    -0.352 N 
ATOM     28  C   UNL A   1      34.414  30.675  28.200  1.00  0.00     0.251 C 
ATOM     29  H   UNL A   1      32.555  30.331  27.531  1.00  0.00     0.163 HD
ATOM     30  O   UNL A   1      34.159  31.827  28.530  1.00  0.00    -0.269 OA
BRANCH  28  31
ATOM     31  C   UNL A   1      35.772  30.122  28.416  1.00  0.00     0.039 A 
ATOM     32  C   UNL A   1      36.681  30.136  27.352  1.00  0.00     0.014 A 
ATOM     33  C   UNL A   1      36.161  29.615  29.658  1.00  0.00     0.014 A 
ATOM     34  C   UNL A   1      38.001  29.726  27.561  1.00  0.00     0.010 A 
ATOM     35  C   UNL A   1      37.495  29.288  29.886  1.00  0.00     0.010 A 
ATOM     36  C   UNL A   1      38.431  29.340  28.841  1.00  0.00    -0.014 A 
BRANCH  36  37
ATOM     37  C   UNL A   1      39.850  28.987  29.108  1.00  0.00     0.031 A 
ATOM     38  C   UNL A   1      40.783  30.008  29.703  1.00  0.00     0.074 A 
ATOM     39  C   UNL A   1      40.319  27.773  28.753  1.00  0.00     0.049 A 
ATOM     40  N   UNL A   1      42.066  29.912  29.945  1.00  0.00    -0.248 NA
ATOM     41  C   UNL A   1      40.206  31.318  30.042  1.00  0.00     0.031 C 
ATOM     42  C   UNL A   1      39.533  26.710  28.122  1.00  0.00     0.029 A 
ATOM     43  N   UNL A   1      41.576  27.231  28.864  1.00  0.00    -0.354 N 
ATOM     44  C   UNL A   1      42.452  31.152  30.440  1.00  0.00     0.074 A 
ATOM     45  C   UNL A   1      41.279  31.999  30.417  1.00  0.00     0.031 C 
ATOM     46  C   UNL A   1      40.317  25.636  27.930  1.00  0.00     0.029 A 
ATOM     47  C   UNL A   1      41.668  25.943  28.389  1.00  0.00     0.049 A 
ATOM     48  H   UNL A   1      42.340  27.719  29.248  1.00  0.00     0.167 HD
ATOM     49  C   UNL A   1      43.665  31.548  30.894  1.00  0.00     0.031 A 
ATOM     50  C   UNL A   1      42.719  25.104  28.329  1.00  0.00     0.031 A 
ATOM     51  C   UNL A   1      44.825  30.699  30.939  1.00  0.00     0.049 A 
ATOM     52  C   UNL A   1      44.052  25.557  28.862  1.00  0.00     0.074 A 
ATOM     53  C   UNL A   1      46.087  30.989  31.431  1.00  0.00     0.029 A 
ATOM     54  N   UNL A   1      44.866  29.391  30.481  1.00  0.00    -0.354 N 
ATOM     55  N   UNL A   1      44.381  26.716  29.379  1.00  0.00    -0.248 NA
ATOM     56  C   UNL A   1      45.149  24.580  28.820  1.00  0.00     0.031 C 
ATOM     57  C   UNL A   1      46.899  29.867  31.237  1.00  0.00     0.029 A 
ATOM     58  C   UNL A   1      46.132  28.863  30.671  1.00  0.00     0.049 A 
ATOM     59  H   UNL A   1      44.107  28.909  30.080  1.00  0.00     0.167 HD
ATOM     60  C   UNL A   1      45.715  26.597  29.754  1.00  0.00     0.074 A 
ATOM     61  C   UNL A   1      46.127  25.250  29.413  1.00  0.00     0.031 C 
ATOM     62  C   UNL A   1      46.524  27.518  30.332  1.00  0.00     0.031 A 
BRANCH  49  63
ATOM     63  C   UNL A   1      43.792  32.967  31.382  1.00  0.00    -0.014 A 
ATOM     64  C   UNL A   1      43.611  33.284  32.742  1.00  0.00     0.010 A 
ATOM     65  C   UNL A   1      44.118  33.992  30.477  1.00  0.00     0.010 A 
ATOM     66  C   UNL A   1      43.705  34.608  33.177  1.00  0.00     0.020 A 
ATOM     67  C   UNL A   1      44.241  35.315  30.915  1.00  0.00     0.020 A 
ATOM     68  C   UNL A   1      44.013  35.616  32.259  1.00  0.00     0.054 A 
BRANCH  68  69
ATOM     69  S   UNL A   1      44.141  37.326  32.855  1.00  0.00     0.124 S 
ATOM     70  O   UNL A   1      43.031  37.396  33.801  1.00  0.00    -0.237 OA
ATOM     71  O   UNL A   1      45.475  37.361  33.448  1.00  0.00    -0.237 OA
ATOM     72  O   UNL A   1      43.981  38.127  31.644  1.00  0.00    -0.744 OA
ENDBRANCH  68  69
ENDBRANCH  49  63
BRANCH  50  73
ATOM     73  C   UNL A   1      42.547  23.733  27.775  1.00  0.00    -0.014 A 
ATOM     74  C   UNL A   1      42.241  22.656  28.625  1.00  0.00     0.010 A 
ATOM     75  C   UNL A   1      42.679  23.498  26.394  1.00  0.00     0.010 A 
ATOM     76  C   UNL A   1      42.090  21.366  28.109  1.00  0.00     0.020 A 
ATOM     77  C   UNL A   1      42.503  22.213  25.871  1.00  0.00     0.020 A 
ATOM     78  C   UNL A   1      42.222  21.152  26.734  1.00  0.00     0.054 A 
BRANCH  78  79
ATOM     79  S   UNL A   1      41.972  19.479  26.079  1.00  0.00     0.124 S 
ATOM     80  O   UNL A   1      42.427  18.647  27.188  1.00  0.00    -0.237 OA
ATOM     81  O   UNL A   1      40.535  19.453  25.817  1.00  0.00    -0.237 OA
ATOM     82  O   UNL A   1      42.814  19.451  24.886  1.00  0.00    -0.744 OA
ENDBRANCH  78  79
ENDBRANCH  50  73
BRANCH  62  83
ATOM     83  C   UNL A   1      47.924  27.089  30.679  1.00  0.00    -0.014 A 
ATOM     84  C   UNL A   1      48.994  27.294  29.790  1.00  0.00     0.010 A 
ATOM     85  C   UNL A   1      48.175  26.508  31.935  1.00  0.00     0.010 A 
ATOM     86  C   UNL A   1      50.287  26.892  30.139  1.00  0.00     0.020 A 
ATOM     87  C   UNL A   1      49.470  26.129  32.298  1.00  0.00     0.020 A 
ATOM     88  C   UNL A   1      50.515  26.308  31.390  1.00  0.00     0.054 A 
BRANCH  88  89
ATOM     89  S   UNL A   1      52.206  25.823  31.834  1.00  0.00     0.124 S 
ATOM     90  O   UNL A   1      52.500  26.728  32.941  1.00  0.00    -0.237 OA
ATOM     91  O   UNL A   1      52.054  24.415  32.195  1.00  0.00    -0.237 OA
ATOM     92  O   UNL A   1      52.968  26.066  30.611  1.00  0.00    -0.744 OA
ENDBRANCH  88  89
ENDBRANCH  62  83
ENDBRANCH  36  37
ENDBRANCH  28  31
ENDBRANCH  26  27
ENDBRANCH   1  26
TORSDOF 16
ENDMDL
MODEL 2
REMARK VINA RESULT:     -12.2      1.543      2.155
REMARK SMILES CC(=O)Nc1cccc(-c2ccc(F)c(C(=O)NCCCCNC(=O)c3ccc(-c4c5nc(c(-c6ccc(S(=O)(=O)[O-])cc6)c6ccc([nH]6)c(-c6ccc(S(=O)(=O)[O-])cc6)c6nc(c(-c7ccc(S(=O)(=O)[O-])cc7)c7ccc4[nH]7)C=C6)C=C5)cc3)c2)c1
REMARK SMILES IDX 21 1 20 2 19 3 18 4 16 5 17 6 15 8 10 9 11 10 86 11 12 12
REMARK SMILES IDX 13 13 14 14 9 15 5 16 6 17 87 18 7 19 8 20 4 21 1 22 2 23
REMARK SMILES IDX 3 24 22 26 23 27 24 28 25 30 26 31 27 32 85 33 28 34 84 35
REMARK SMILES IDX 29 36 30 37 31 38 78 39 32 40 83 41 77 42 79 43 33 44 82 45
REMARK SMILES IDX 76 46 75 47 34 49 64 50 45 51 63 52 46 53 49 54 62 55 80 56
REMARK SMILES IDX 47 57 48 58 61 60 81 61 50 62 35 63 36 64 44 65 37 66 43 67
REMARK SMILES IDX 38 68 39 69 40 70 41 71 42 72 65 73 66 74 74 75 67 76 73 77
REMARK SMILES IDX 68 78 69 79 70 80 71 81 72 82 51 83 52 84 60 85 53 86 59 87
REMARK SMILES IDX 54 88 55 89 56 90 57 91 58 92
REMARK H PARENT 18 7 4 25 23 29 79 48 49 59
REMARK Flexibility Score: inf
ROOT
ATOM      1  C   UNL A   1      32.670  28.069  25.940  1.00  0.00     0.023 C 
ENDROOT
BRANCH   1   2
ATOM      2  C   UNL A   1      33.521  28.188  24.683  1.00  0.00     0.023 C 
BRANCH   2   3
ATOM      3  C   UNL A   1      32.803  28.585  23.401  1.00  0.00     0.116 C 
BRANCH   3   4
ATOM      4  N   UNL A   1      33.195  27.842  22.211  1.00  0.00    -0.352 N 
ATOM      5  C   UNL A   1      33.082  26.500  21.889  1.00  0.00     0.254 C 
ATOM      6  O   UNL A   1      33.433  26.134  20.771  1.00  0.00    -0.269 OA
ATOM      7  H   UNL A   1      33.615  28.392  21.510  1.00  0.00     0.163 HD
BRANCH   5   8
ATOM      8  C   UNL A   1      32.578  25.502  22.864  1.00  0.00     0.076 A 
ATOM      9  C   UNL A   1      32.914  23.413  24.088  1.00  0.00    -0.017 A 
ATOM     10  C   UNL A   1      31.547  23.392  24.397  1.00  0.00     0.012 A 
ATOM     11  C   UNL A   1      33.423  24.545  23.429  1.00  0.00     0.025 A 
ATOM     12  C   UNL A   1      30.712  24.435  23.982  1.00  0.00     0.041 A 
ATOM     13  C   UNL A   1      31.222  25.461  23.187  1.00  0.00     0.135 A 
ATOM     14  F   UNL A   1      30.361  26.371  22.711  1.00  0.00    -0.206 F 
BRANCH   9  15
ATOM     15  C   UNL A   1      33.785  22.232  24.246  1.00  0.00    -0.016 A 
ATOM     16  C   UNL A   1      34.076  19.905  24.951  1.00  0.00     0.041 A 
ATOM     17  C   UNL A   1      35.456  20.116  25.040  1.00  0.00     0.026 A 
ATOM     18  C   UNL A   1      33.255  20.968  24.561  1.00  0.00     0.034 A 
ATOM     19  C   UNL A   1      36.010  21.343  24.682  1.00  0.00     0.003 A 
ATOM     20  C   UNL A   1      35.181  22.390  24.284  1.00  0.00     0.009 A 
BRANCH  16  21
ATOM     21  N   UNL A   1      33.596  18.649  25.353  1.00  0.00    -0.326 N 
ATOM     22  C   UNL A   1      33.470  17.446  23.171  1.00  0.00     0.114 C 
ATOM     23  C   UNL A   1      33.193  17.555  24.645  1.00  0.00     0.221 C 
ATOM     24  O   UNL A   1      32.652  16.626  25.250  1.00  0.00    -0.275 OA
ATOM     25  H   UNL A   1      33.540  18.537  26.328  1.00  0.00     0.169 HD
ENDBRANCH  16  21
ENDBRANCH   9  15
ENDBRANCH   5   8
ENDBRANCH   3   4
ENDBRANCH   2   3
ENDBRANCH   1   2
BRANCH   1  26
ATOM     26  C   UNL A   1      33.350  28.435  27.254  1.00  0.00     0.116 C 
BRANCH  26  27
ATOM     27  N   UNL A   1      33.336  29.859  27.556  1.00  0.00    -0.352 N 
ATOM     28  C   UNL A   1      34.340  30.666  28.046  1.00  0.00     0.251 C 
ATOM     29  H   UNL A   1      32.480  30.313  27.383  1.00  0.00     0.163 HD
ATOM     30  O   UNL A   1      34.103  31.840  28.303  1.00  0.00    -0.269 OA
BRANCH  28  31
ATOM     31  C   UNL A   1      35.687  30.103  28.306  1.00  0.00     0.039 A 
ATOM     32  C   UNL A   1      36.630  30.112  27.273  1.00  0.00     0.014 A 
ATOM     33  C   UNL A   1      36.030  29.593  29.559  1.00  0.00     0.014 A 
ATOM     34  C   UNL A   1      37.939  29.693  27.525  1.00  0.00     0.010 A 
ATOM     35  C   UNL A   1      37.354  29.256  29.831  1.00  0.00     0.010 A 
ATOM     36  C   UNL A   1      38.324  29.303  28.818  1.00  0.00    -0.014 A 
BRANCH  36  37
ATOM     37  C   UNL A   1      39.731  28.940  29.132  1.00  0.00     0.031 A 
ATOM     38  C   UNL A   1      40.647  29.950  29.772  1.00  0.00     0.074 A 
ATOM     39  C   UNL A   1      40.207  27.728  28.779  1.00  0.00     0.049 A 
ATOM     40  N   UNL A   1      41.919  29.845  30.058  1.00  0.00    -0.248 NA
ATOM     41  C   UNL A   1      40.063  31.259  30.106  1.00  0.00     0.031 C 
ATOM     42  C   UNL A   1      39.440  26.677  28.108  1.00  0.00     0.029 A 
ATOM     43  N   UNL A   1      41.457  27.180  28.930  1.00  0.00    -0.354 N 
ATOM     44  C   UNL A   1      42.292  31.078  30.582  1.00  0.00     0.074 A 
ATOM     45  C   UNL A   1      41.125  31.930  30.527  1.00  0.00     0.031 C 
ATOM     46  C   UNL A   1      40.226  25.601  27.932  1.00  0.00     0.029 A 
ATOM     47  C   UNL A   1      41.561  25.897  28.442  1.00  0.00     0.049 A 
ATOM     48  H   UNL A   1      42.209  27.660  29.347  1.00  0.00     0.167 HD
ATOM     49  C   UNL A   1      43.490  31.462  31.084  1.00  0.00     0.031 A 
ATOM     50  C   UNL A   1      42.610  25.053  28.411  1.00  0.00     0.031 A 
ATOM     51  C   UNL A   1      44.644  30.608  31.160  1.00  0.00     0.049 A 
ATOM     52  C   UNL A   1      43.925  25.493  28.996  1.00  0.00     0.074 A 
ATOM     53  C   UNL A   1      45.889  30.886  31.701  1.00  0.00     0.029 A 
ATOM     54  N   UNL A   1      44.696  29.305  30.689  1.00  0.00    -0.354 N 
ATOM     55  N   UNL A   1      44.240  26.645  29.539  1.00  0.00    -0.248 NA
ATOM     56  C   UNL A   1      45.018  24.513  28.982  1.00  0.00     0.031 C 
ATOM     57  C   UNL A   1      46.703  29.763  31.523  1.00  0.00     0.029 A 
ATOM     58  C   UNL A   1      45.952  28.768  30.918  1.00  0.00     0.049 A 
ATOM     59  H   UNL A   1      43.950  28.831  30.255  1.00  0.00     0.167 HD
ATOM     60  C   UNL A   1      45.559  26.516  29.960  1.00  0.00     0.074 A 
ATOM     61  C   UNL A   1      45.977  25.171  29.618  1.00  0.00     0.031 C 
ATOM     62  C   UNL A   1      46.351  27.426  30.578  1.00  0.00     0.031 A 
BRANCH  49  63
ATOM     63  C   UNL A   1      43.605  32.875  31.593  1.00  0.00    -0.014 A 
ATOM     64  C   UNL A   1      43.313  33.188  32.934  1.00  0.00     0.010 A 
ATOM     65  C   UNL A   1      44.033  33.899  30.729  1.00  0.00     0.010 A 
ATOM     66  C   UNL A   1      43.399  34.507  33.387  1.00  0.00     0.020 A 
ATOM     67  C   UNL A   1      44.147  35.215  31.186  1.00  0.00     0.020 A 
ATOM     68  C   UNL A   1      43.808  35.513  32.508  1.00  0.00     0.054 A 
BRANCH  68  69
ATOM     69  S   UNL A   1      43.922  37.216  33.126  1.00  0.00     0.124 S 
ATOM     70  O   UNL A   1      42.753  37.295  33.999  1.00  0.00    -0.237 OA
ATOM     71  O   UNL A   1      45.214  37.225  33.805  1.00  0.00    -0.237 OA
ATOM     72  O   UNL A   1      43.852  38.029  31.915  1.00  0.00    -0.744 OA
ENDBRANCH  68  69
ENDBRANCH  49  63
BRANCH  50  73
ATOM     73  C   UNL A   1      42.452  23.690  27.834  1.00  0.00    -0.014 A 
ATOM     74  C   UNL A   1      42.692  23.464  26.467  1.00  0.00     0.010 A 
ATOM     75  C   UNL A   1      42.070  22.609  28.649  1.00  0.00     0.010 A 
ATOM     76  C   UNL A   1      42.533  22.187  25.921  1.00  0.00     0.020 A 
ATOM     77  C   UNL A   1      41.936  21.325  28.111  1.00  0.00     0.020 A 
ATOM     78  C   UNL A   1      42.156  21.125  26.747  1.00  0.00     0.054 A 
BRANCH  78  79
ATOM     79  S   UNL A   1      42.005  19.466  26.027  1.00  0.00     0.124 S 
ATOM     80  O   UNL A   1      42.839  19.576  24.835  1.00  0.00    -0.237 OA
ATOM     81  O   UNL A   1      42.530  18.611  27.089  1.00  0.00    -0.237 OA
ATOM     82  O   UNL A   1      40.572  19.331  25.781  1.00  0.00    -0.744 OA
ENDBRANCH  78  79
ENDBRANCH  50  73
BRANCH  62  83
ATOM     83  C   UNL A   1      47.736  26.986  30.969  1.00  0.00    -0.014 A 
ATOM     84  C   UNL A   1      47.986  26.375  32.210  1.00  0.00     0.010 A 
ATOM     85  C   UNL A   1      48.794  27.151  30.057  1.00  0.00     0.010 A 
ATOM     86  C   UNL A   1      49.281  25.969  32.546  1.00  0.00     0.020 A 
ATOM     87  C   UNL A   1      50.084  26.723  30.380  1.00  0.00     0.020 A 
ATOM     88  C   UNL A   1      50.322  26.150  31.630  1.00  0.00     0.054 A 
BRANCH  88  89
ATOM     89  S   UNL A   1      51.988  25.587  32.076  1.00  0.00     0.124 S 
ATOM     90  O   UNL A   1      52.200  26.251  33.359  1.00  0.00    -0.237 OA
ATOM     91  O   UNL A   1      51.833  24.135  32.138  1.00  0.00    -0.237 OA
ATOM     92  O   UNL A   1      52.822  26.070  30.978  1.00  0.00    -0.744 OA
ENDBRANCH  88  89
ENDBRANCH  62  83
ENDBRANCH  36  37
ENDBRANCH  28  31
ENDBRANCH  26  27
ENDBRANCH   1  26
TORSDOF 16
ENDMDL
MODEL 3
REMARK VINA RESULT:     -11.9      4.563      5.974
REMARK SMILES CC(=O)Nc1cccc(-c2ccc(F)c(C(=O)NCCCCNC(=O)c3ccc(-c4c5nc(c(-c6ccc(S(=O)(=O)[O-])cc6)c6ccc([nH]6)c(-c6ccc(S(=O)(=O)[O-])cc6)c6nc(c(-c7ccc(S(=O)(=O)[O-])cc7)c7ccc4[nH]7)C=C6)C=C5)cc3)c2)c1
REMARK SMILES IDX 21 1 20 2 19 3 18 4 16 5 17 6 15 8 10 9 11 10 86 11 12 12
REMARK SMILES IDX 13 13 14 14 9 15 5 16 6 17 87 18 7 19 8 20 4 21 1 22 2 23
REMARK SMILES IDX 3 24 22 26 23 27 24 28 25 30 26 31 27 32 85 33 28 34 84 35
REMARK SMILES IDX 29 36 30 37 31 38 78 39 32 40 83 41 77 42 79 43 33 44 82 45
REMARK SMILES IDX 76 46 75 47 34 49 64 50 45 51 63 52 46 53 49 54 62 55 80 56
REMARK SMILES IDX 47 57 48 58 61 60 81 61 50 62 35 63 36 64 44 65 37 66 43 67
REMARK SMILES IDX 38 68 39 69 40 70 41 71 42 72 65 73 66 74 74 75 67 76 73 77
REMARK SMILES IDX 68 78 69 79 70 80 71 81 72 82 51 83 52 84 60 85 53 86 59 87
REMARK SMILES IDX 54 88 55 89 56 90 57 91 58 92
REMARK H PARENT 18 7 4 25 23 29 79 48 49 59
REMARK Flexibility Score: inf
ROOT
ATOM      1  C   UNL A   1      31.583  32.144  26.928  1.00  0.00     0.023 C 
ENDROOT
BRANCH   1   2
ATOM      2  C   UNL A   1      31.759  30.646  26.728  1.00  0.00     0.023 C 
BRANCH   2   3
ATOM      3  C   UNL A   1      33.187  30.121  26.680  1.00  0.00     0.116 C 
BRANCH   3   4
ATOM      4  N   UNL A   1      33.660  29.721  25.362  1.00  0.00    -0.352 N 
ATOM      5  C   UNL A   1      33.511  28.542  24.653  1.00  0.00     0.254 C 
ATOM      6  O   UNL A   1      33.956  28.483  23.510  1.00  0.00    -0.269 OA
ATOM      7  H   UNL A   1      34.180  30.412  24.891  1.00  0.00     0.163 HD
BRANCH   5   8
ATOM      8  C   UNL A   1      32.856  27.350  25.247  1.00  0.00     0.076 A 
ATOM      9  C   UNL A   1      32.971  24.990  25.874  1.00  0.00    -0.017 A 
ATOM     10  C   UNL A   1      31.575  24.972  26.002  1.00  0.00     0.012 A 
ATOM     11  C   UNL A   1      33.593  26.224  25.619  1.00  0.00     0.025 A 
ATOM     12  C   UNL A   1      30.831  26.139  25.798  1.00  0.00     0.041 A 
ATOM     13  C   UNL A   1      31.470  27.309  25.385  1.00  0.00     0.135 A 
ATOM     14  F   UNL A   1      30.704  28.366  25.082  1.00  0.00    -0.206 F 
BRANCH   9  15
ATOM     15  C   UNL A   1      33.780  23.758  25.799  1.00  0.00    -0.016 A 
ATOM     16  C   UNL A   1      33.963  21.334  26.092  1.00  0.00     0.041 A 
ATOM     17  C   UNL A   1      35.354  21.458  26.164  1.00  0.00     0.026 A 
ATOM     18  C   UNL A   1      33.191  22.486  25.916  1.00  0.00     0.034 A 
ATOM     19  C   UNL A   1      35.964  22.699  25.999  1.00  0.00     0.003 A 
ATOM     20  C   UNL A   1      35.183  23.839  25.813  1.00  0.00     0.009 A 
BRANCH  16  21
ATOM     21  N   UNL A   1      33.425  20.053  26.293  1.00  0.00    -0.326 N 
ATOM     22  C   UNL A   1      32.977  19.328  23.949  1.00  0.00     0.114 C 
ATOM     23  C   UNL A   1      32.864  19.151  25.438  1.00  0.00     0.221 C 
ATOM     24  O   UNL A   1      32.315  18.152  25.908  1.00  0.00    -0.275 OA
ATOM     25  H   UNL A   1      33.462  19.748  27.228  1.00  0.00     0.169 HD
ENDBRANCH  16  21
ENDBRANCH   9  15
ENDBRANCH   5   8
ENDBRANCH   3   4
ENDBRANCH   2   3
ENDBRANCH   1   2
BRANCH   1  26
ATOM     26  C   UNL A   1      32.803  32.908  27.430  1.00  0.00     0.116 C 
BRANCH  26  27
ATOM     27  N   UNL A   1      32.529  34.286  27.808  1.00  0.00    -0.352 N 
ATOM     28  C   UNL A   1      33.133  35.075  28.763  1.00  0.00     0.251 C 
ATOM     29  H   UNL A   1      31.803  34.720  27.305  1.00  0.00     0.163 HD
ATOM     30  O   UNL A   1      32.702  36.201  28.980  1.00  0.00    -0.269 OA
BRANCH  28  31
ATOM     31  C   UNL A   1      34.268  34.546  29.556  1.00  0.00     0.039 A 
ATOM     32  C   UNL A   1      34.002  33.947  30.792  1.00  0.00     0.014 A 
ATOM     33  C   UNL A   1      35.579  34.614  29.082  1.00  0.00     0.014 A 
ATOM     34  C   UNL A   1      35.039  33.340  31.507  1.00  0.00     0.010 A 
ATOM     35  C   UNL A   1      36.594  33.936  29.752  1.00  0.00     0.010 A 
ATOM     36  C   UNL A   1      36.337  33.290  30.971  1.00  0.00    -0.014 A 
BRANCH  36  37
ATOM     37  C   UNL A   1      37.436  32.572  31.667  1.00  0.00     0.031 A 
ATOM     38  C   UNL A   1      37.940  33.070  32.996  1.00  0.00     0.074 A 
ATOM     39  C   UNL A   1      38.030  31.515  31.075  1.00  0.00     0.049 A 
ATOM     40  N   UNL A   1      38.932  32.622  33.723  1.00  0.00    -0.248 NA
ATOM     41  C   UNL A   1      37.260  34.242  33.569  1.00  0.00     0.031 C 
ATOM     42  C   UNL A   1      37.673  30.963  29.767  1.00  0.00     0.029 A 
ATOM     43  N   UNL A   1      39.069  30.721  31.496  1.00  0.00    -0.354 N 
ATOM     44  C   UNL A   1      39.009  33.469  34.822  1.00  0.00     0.074 A 
ATOM     45  C   UNL A   1      37.997  34.487  34.642  1.00  0.00     0.031 C 
ATOM     46  C   UNL A   1      38.457  29.904  29.506  1.00  0.00     0.029 A 
ATOM     47  C   UNL A   1      39.396  29.722  30.608  1.00  0.00     0.049 A 
ATOM     48  H   UNL A   1      39.535  30.854  32.353  1.00  0.00     0.167 HD
ATOM     49  C   UNL A   1      39.831  33.398  35.897  1.00  0.00     0.031 A 
ATOM     50  C   UNL A   1      40.345  28.768  30.672  1.00  0.00     0.031 A 
ATOM     51  C   UNL A   1      40.821  32.373  36.088  1.00  0.00     0.049 A 
ATOM     52  C   UNL A   1      41.230  28.693  31.887  1.00  0.00     0.074 A 
ATOM     53  C   UNL A   1      41.666  32.183  37.168  1.00  0.00     0.029 A 
ATOM     54  N   UNL A   1      41.096  31.360  35.182  1.00  0.00    -0.354 N 
ATOM     55  N   UNL A   1      41.248  29.471  32.942  1.00  0.00    -0.248 NA
ATOM     56  C   UNL A   1      42.210  27.600  31.927  1.00  0.00     0.031 C 
ATOM     57  C   UNL A   1      42.477  31.075  36.897  1.00  0.00     0.029 A 
ATOM     58  C   UNL A   1      42.103  30.546  35.673  1.00  0.00     0.049 A 
ATOM     59  H   UNL A   1      40.642  31.238  34.317  1.00  0.00     0.167 HD
ATOM     60  C   UNL A   1      42.218  28.942  33.786  1.00  0.00     0.074 A 
ATOM     61  C   UNL A   1      42.756  27.772  33.122  1.00  0.00     0.031 C 
ATOM     62  C   UNL A   1      42.623  29.382  35.003  1.00  0.00     0.031 A 
BRANCH  49  63
ATOM     63  C   UNL A   1      39.685  34.464  36.951  1.00  0.00    -0.014 A 
ATOM     64  C   UNL A   1      38.919  34.237  38.109  1.00  0.00     0.010 A 
ATOM     65  C   UNL A   1      40.339  35.699  36.793  1.00  0.00     0.010 A 
ATOM     66  C   UNL A   1      38.771  35.244  39.067  1.00  0.00     0.020 A 
ATOM     67  C   UNL A   1      40.216  36.699  37.764  1.00  0.00     0.020 A 
ATOM     68  C   UNL A   1      39.414  36.471  38.884  1.00  0.00     0.054 A 
BRANCH  68  69
ATOM     69  S   UNL A   1      39.214  37.756  40.150  1.00  0.00     0.124 S 
ATOM     70  O   UNL A   1      38.827  36.968  41.317  1.00  0.00    -0.237 OA
ATOM     71  O   UNL A   1      40.543  38.357  40.211  1.00  0.00    -0.237 OA
ATOM     72  O   UNL A   1      38.168  38.618  39.604  1.00  0.00    -0.744 OA
ENDBRANCH  68  69
ENDBRANCH  49  63
BRANCH  50  73
ATOM     73  C   UNL A   1      40.484  27.780  29.568  1.00  0.00    -0.014 A 
ATOM     74  C   UNL A   1      41.447  27.971  28.560  1.00  0.00     0.010 A 
ATOM     75  C   UNL A   1      39.661  26.640  29.520  1.00  0.00     0.010 A 
ATOM     76  C   UNL A   1      41.572  27.051  27.515  1.00  0.00     0.020 A 
ATOM     77  C   UNL A   1      39.801  25.705  28.490  1.00  0.00     0.020 A 
ATOM     78  C   UNL A   1      40.747  25.923  27.486  1.00  0.00     0.054 A 
BRANCH  78  79
ATOM     79  S   UNL A   1      40.961  24.716  26.149  1.00  0.00     0.124 S 
ATOM     80  O   UNL A   1      39.583  24.337  25.858  1.00  0.00    -0.237 OA
ATOM     81  O   UNL A   1      41.632  25.503  25.116  1.00  0.00    -0.237 OA
ATOM     82  O   UNL A   1      41.784  23.674  26.759  1.00  0.00    -0.744 OA
ENDBRANCH  78  79
ENDBRANCH  50  73
BRANCH  62  83
ATOM     83  C   UNL A   1      43.667  28.569  35.719  1.00  0.00    -0.014 A 
ATOM     84  C   UNL A   1      45.038  28.842  35.570  1.00  0.00     0.010 A 
ATOM     85  C   UNL A   1      43.262  27.541  36.591  1.00  0.00     0.010 A 
ATOM     86  C   UNL A   1      45.988  28.077  36.253  1.00  0.00     0.020 A 
ATOM     87  C   UNL A   1      44.207  26.792  37.295  1.00  0.00     0.020 A 
ATOM     88  C   UNL A   1      45.566  27.054  37.108  1.00  0.00     0.054 A 
BRANCH  88  89
ATOM     89  S   UNL A   1      46.814  26.094  38.008  1.00  0.00     0.124 S 
ATOM     90  O   UNL A   1      47.552  27.139  38.711  1.00  0.00    -0.237 OA
ATOM     91  O   UNL A   1      46.003  25.219  38.852  1.00  0.00    -0.237 OA
ATOM     92  O   UNL A   1      47.556  25.412  36.949  1.00  0.00    -0.744 OA
ENDBRANCH  88  89
ENDBRANCH  62  83
ENDBRANCH  36  37
ENDBRANCH  28  31
ENDBRANCH  26  27
ENDBRANCH   1  26
TORSDOF 16
ENDMDL
