MODEL 1
REMARK VINA RESULT:     -12.0      0.000      0.000
REMARK SMILES CC(=O)Nc1ccc(/C=N/c2ccccc2C(=O)NCCCCNC(=O)c2ccc(-c3c4nc(c(-c5ccc(S(=O)(=O)[O-])cc5)c5ccc([nH]5)c(-c5ccc(S(=O)(=O)[O-])cc5)c5nc(c(-c6ccc(S(=O)(=O)[O-])cc6)c6ccc3[nH]6)C=C5)C=C4)cc2)cc1
REMARK SMILES IDX 21 1 20 2 19 3 17 4 18 5 16 7 11 8 12 9 13 10 15 11 14 12
REMARK SMILES IDX 10 13 9 14 8 15 5 16 6 17 88 18 7 19 87 20 4 21 1 22 2 23
REMARK SMILES IDX 3 24 22 26 23 27 24 28 25 29 26 31 27 32 28 33 86 34 29 35
REMARK SMILES IDX 85 36 30 37 31 38 32 39 79 40 33 41 84 42 78 43 80 44 34 45
REMARK SMILES IDX 83 46 77 47 76 48 35 50 65 51 46 52 64 53 47 54 50 55 63 56
REMARK SMILES IDX 81 57 48 58 49 59 62 61 82 62 51 63 36 64 37 65 45 66 38 67
REMARK SMILES IDX 44 68 39 69 40 70 41 71 42 72 43 73 66 74 67 75 75 76 68 77
REMARK SMILES IDX 74 78 69 79 70 80 71 81 72 82 73 83 52 84 53 85 61 86 54 87
REMARK SMILES IDX 60 88 55 89 56 90 57 91 58 92 59 93
REMARK H PARENT 19 6 4 25 24 30 80 49 50 60
REMARK Flexibility Score: inf
ROOT
ATOM      1  C   UNL A   1      33.314  27.855  25.189  1.00  0.00     0.023 C 
ENDROOT
BRANCH   1   2
ATOM      2  C   UNL A   1      33.614  26.469  25.741  1.00  0.00     0.116 C 
BRANCH   2   3
ATOM      3  N   UNL A   1      32.560  25.884  26.541  1.00  0.00    -0.352 N 
ATOM      4  C   UNL A   1      31.819  24.748  26.317  1.00  0.00     0.253 C 
ATOM      5  O   UNL A   1      31.041  24.388  27.206  1.00  0.00    -0.269 OA
ATOM      6  H   UNL A   1      32.342  26.372  27.368  1.00  0.00     0.163 HD
BRANCH   4   7
ATOM      7  C   UNL A   1      31.829  23.977  25.042  1.00  0.00     0.065 A 
ATOM      8  C   UNL A   1      31.593  24.481  23.747  1.00  0.00     0.076 A 
ATOM      9  C   UNL A   1      31.628  23.588  22.662  1.00  0.00     0.029 A 
ATOM     10  C   UNL A   1      31.939  22.238  22.829  1.00  0.00     0.002 A 
ATOM     11  C   UNL A   1      32.172  22.615  25.192  1.00  0.00     0.016 A 
ATOM     12  C   UNL A   1      32.223  21.752  24.096  1.00  0.00     0.001 A 
BRANCH   8  13
ATOM     13  N   UNL A   1      31.222  25.798  23.432  1.00  0.00    -0.255 NA
ATOM     14  C   UNL A   1      30.026  26.200  23.716  1.00  0.00     0.119 C 
BRANCH  14  15
ATOM     15  C   UNL A   1      29.571  27.531  23.259  1.00  0.00    -0.007 A 
ATOM     16  C   UNL A   1      28.599  29.913  22.120  1.00  0.00     0.041 A 
ATOM     17  C   UNL A   1      29.960  29.581  22.043  1.00  0.00     0.027 A 
ATOM     18  C   UNL A   1      27.736  29.036  22.778  1.00  0.00     0.027 A 
ATOM     19  C   UNL A   1      30.448  28.401  22.609  1.00  0.00     0.012 A 
ATOM     20  C   UNL A   1      28.218  27.849  23.352  1.00  0.00     0.012 A 
BRANCH  16  21
ATOM     21  N   UNL A   1      28.207  31.076  21.433  1.00  0.00    -0.326 N 
ATOM     22  C   UNL A   1      28.811  32.923  23.000  1.00  0.00     0.114 C 
ATOM     23  C   UNL A   1      28.184  32.403  21.742  1.00  0.00     0.221 C 
ATOM     24  O   UNL A   1      27.654  33.183  20.947  1.00  0.00    -0.275 OA
ATOM     25  H   UNL A   1      27.876  30.890  20.525  1.00  0.00     0.169 HD
ENDBRANCH  16  21
ENDBRANCH  14  15
ENDBRANCH   8  13
ENDBRANCH   4   7
ENDBRANCH   2   3
ENDBRANCH   1   2
BRANCH   1  26
ATOM     26  C   UNL A   1      33.888  29.044  25.966  1.00  0.00     0.023 C 
BRANCH  26  27
ATOM     27  C   UNL A   1      33.265  29.354  27.328  1.00  0.00     0.116 C 
BRANCH  27  28
ATOM     28  N   UNL A   1      33.569  30.686  27.823  1.00  0.00    -0.352 N 
ATOM     29  C   UNL A   1      34.694  31.189  28.435  1.00  0.00     0.251 C 
ATOM     30  H   UNL A   1      32.846  31.342  27.699  1.00  0.00     0.163 HD
ATOM     31  O   UNL A   1      34.664  32.345  28.856  1.00  0.00    -0.269 OA
BRANCH  29  32
ATOM     32  C   UNL A   1      35.925  30.375  28.613  1.00  0.00     0.039 A 
ATOM     33  C   UNL A   1      36.834  30.325  27.549  1.00  0.00     0.014 A 
ATOM     34  C   UNL A   1      36.204  29.660  29.781  1.00  0.00     0.014 A 
ATOM     35  C   UNL A   1      38.071  29.698  27.712  1.00  0.00     0.010 A 
ATOM     36  C   UNL A   1      37.467  29.101  29.975  1.00  0.00     0.010 A 
ATOM     37  C   UNL A   1      38.430  29.169  28.960  1.00  0.00    -0.014 A 
BRANCH  37  38
ATOM     38  C   UNL A   1      39.854  28.893  29.273  1.00  0.00     0.031 A 
ATOM     39  C   UNL A   1      40.747  29.927  29.888  1.00  0.00     0.074 A 
ATOM     40  C   UNL A   1      40.351  27.697  28.890  1.00  0.00     0.049 A 
ATOM     41  N   UNL A   1      42.014  29.834  30.200  1.00  0.00    -0.248 NA
ATOM     42  C   UNL A   1      40.154  31.244  30.166  1.00  0.00     0.031 C 
ATOM     43  C   UNL A   1      39.584  26.648  28.206  1.00  0.00     0.029 A 
ATOM     44  N   UNL A   1      41.605  27.158  29.011  1.00  0.00    -0.354 N 
ATOM     45  C   UNL A   1      42.375  31.075  30.709  1.00  0.00     0.074 A 
ATOM     46  C   UNL A   1      41.202  31.921  30.618  1.00  0.00     0.031 C 
ATOM     47  C   UNL A   1      40.369  25.581  28.010  1.00  0.00     0.029 A 
ATOM     48  C   UNL A   1      41.705  25.881  28.506  1.00  0.00     0.049 A 
ATOM     49  H   UNL A   1      42.361  27.637  29.420  1.00  0.00     0.167 HD
ATOM     50  C   UNL A   1      43.571  31.463  31.215  1.00  0.00     0.031 A 
ATOM     51  C   UNL A   1      42.754  25.041  28.445  1.00  0.00     0.031 A 
ATOM     52  C   UNL A   1      44.728  30.606  31.280  1.00  0.00     0.049 A 
ATOM     53  C   UNL A   1      44.065  25.493  29.022  1.00  0.00     0.074 A 
ATOM     54  C   UNL A   1      45.973  30.877  31.824  1.00  0.00     0.029 A 
ATOM     55  N   UNL A   1      44.789  29.313  30.776  1.00  0.00    -0.354 N 
ATOM     56  N   UNL A   1      44.362  26.641  29.581  1.00  0.00    -0.248 NA
ATOM     57  C   UNL A   1      45.175  24.535  28.972  1.00  0.00     0.031 C 
ATOM     58  C   UNL A   1      46.800  29.770  31.597  1.00  0.00     0.029 A 
ATOM     59  C   UNL A   1      46.054  28.784  30.972  1.00  0.00     0.049 A 
ATOM     60  H   UNL A   1      44.040  28.841  30.345  1.00  0.00     0.167 HD
ATOM     61  C   UNL A   1      45.689  26.536  29.975  1.00  0.00     0.074 A 
ATOM     62  C   UNL A   1      46.129  25.205  29.605  1.00  0.00     0.031 C 
ATOM     63  C   UNL A   1      46.472  27.459  30.587  1.00  0.00     0.031 A 
BRANCH  50  64
ATOM     64  C   UNL A   1      43.692  32.875  31.731  1.00  0.00    -0.014 A 
ATOM     65  C   UNL A   1      43.504  33.169  33.096  1.00  0.00     0.010 A 
ATOM     66  C   UNL A   1      44.045  33.918  30.855  1.00  0.00     0.010 A 
ATOM     67  C   UNL A   1      43.624  34.482  33.563  1.00  0.00     0.020 A 
ATOM     68  C   UNL A   1      44.193  35.229  31.323  1.00  0.00     0.020 A 
ATOM     69  C   UNL A   1      43.964  35.504  32.673  1.00  0.00     0.054 A 
BRANCH  69  70
ATOM     70  S   UNL A   1      44.125  37.195  33.312  1.00  0.00     0.124 S 
ATOM     71  O   UNL A   1      42.799  37.431  33.878  1.00  0.00    -0.237 OA
ATOM     72  O   UNL A   1      45.209  37.069  34.282  1.00  0.00    -0.237 OA
ATOM     73  O   UNL A   1      44.444  37.987  32.126  1.00  0.00    -0.744 OA
ENDBRANCH  69  70
ENDBRANCH  50  64
BRANCH  51  74
ATOM     74  C   UNL A   1      42.591  23.690  27.842  1.00  0.00    -0.014 A 
ATOM     75  C   UNL A   1      42.885  23.471  26.485  1.00  0.00     0.010 A 
ATOM     76  C   UNL A   1      42.178  22.601  28.634  1.00  0.00     0.010 A 
ATOM     77  C   UNL A   1      42.750  22.196  25.926  1.00  0.00     0.020 A 
ATOM     78  C   UNL A   1      42.072  21.320  28.086  1.00  0.00     0.020 A 
ATOM     79  C   UNL A   1      42.346  21.128  26.732  1.00  0.00     0.054 A 
BRANCH  79  80
ATOM     80  S   UNL A   1      42.225  19.475  25.995  1.00  0.00     0.124 S 
ATOM     81  O   UNL A   1      40.795  19.371  25.716  1.00  0.00    -0.237 OA
ATOM     82  O   UNL A   1      43.092  19.584  24.826  1.00  0.00    -0.237 OA
ATOM     83  O   UNL A   1      42.722  18.593  27.050  1.00  0.00    -0.744 OA
ENDBRANCH  79  80
ENDBRANCH  51  74
BRANCH  63  84
ATOM     84  C   UNL A   1      47.882  27.044  30.918  1.00  0.00    -0.014 A 
ATOM     85  C   UNL A   1      48.173  26.314  32.084  1.00  0.00     0.010 A 
ATOM     86  C   UNL A   1      48.922  27.353  30.022  1.00  0.00     0.010 A 
ATOM     87  C   UNL A   1      49.487  25.931  32.364  1.00  0.00     0.020 A 
ATOM     88  C   UNL A   1      50.230  26.944  30.284  1.00  0.00     0.020 A 
ATOM     89  C   UNL A   1      50.507  26.247  31.461  1.00  0.00     0.054 A 
BRANCH  89  90
ATOM     90  S   UNL A   1      52.195  25.698  31.827  1.00  0.00     0.124 S 
ATOM     91  O   UNL A   1      51.989  24.297  32.185  1.00  0.00    -0.237 OA
ATOM     92  O   UNL A   1      52.887  25.926  30.560  1.00  0.00    -0.237 OA
ATOM     93  O   UNL A   1      52.613  26.567  32.923  1.00  0.00    -0.744 OA
ENDBRANCH  89  90
ENDBRANCH  63  84
ENDBRANCH  37  38
ENDBRANCH  29  32
ENDBRANCH  27  28
ENDBRANCH  26  27
ENDBRANCH   1  26
TORSDOF 17
ENDMDL
MODEL 2
REMARK VINA RESULT:     -11.9      1.022      8.178
REMARK SMILES CC(=O)Nc1ccc(/C=N/c2ccccc2C(=O)NCCCCNC(=O)c2ccc(-c3c4nc(c(-c5ccc(S(=O)(=O)[O-])cc5)c5ccc([nH]5)c(-c5ccc(S(=O)(=O)[O-])cc5)c5nc(c(-c6ccc(S(=O)(=O)[O-])cc6)c6ccc3[nH]6)C=C5)C=C4)cc2)cc1
REMARK SMILES IDX 21 1 20 2 19 3 17 4 18 5 16 7 11 8 12 9 13 10 15 11 14 12
REMARK SMILES IDX 10 13 9 14 8 15 5 16 6 17 88 18 7 19 87 20 4 21 1 22 2 23
REMARK SMILES IDX 3 24 22 26 23 27 24 28 25 29 26 31 27 32 28 33 86 34 29 35
REMARK SMILES IDX 85 36 30 37 31 38 32 39 79 40 33 41 84 42 78 43 80 44 34 45
REMARK SMILES IDX 83 46 77 47 76 48 35 50 65 51 46 52 64 53 47 54 50 55 63 56
REMARK SMILES IDX 81 57 48 58 49 59 62 61 82 62 51 63 36 64 37 65 45 66 38 67
REMARK SMILES IDX 44 68 39 69 40 70 41 71 42 72 43 73 66 74 67 75 75 76 68 77
REMARK SMILES IDX 74 78 69 79 70 80 71 81 72 82 73 83 52 84 53 85 61 86 54 87
REMARK SMILES IDX 60 88 55 89 56 90 57 91 58 92 59 93
REMARK H PARENT 19 6 4 25 24 30 80 49 50 60
REMARK Flexibility Score: inf
ROOT
ATOM      1  C   UNL A   1      33.355  28.508  24.721  1.00  0.00     0.023 C 
ENDROOT
BRANCH   1   2
ATOM      2  C   UNL A   1      33.851  27.145  25.183  1.00  0.00     0.116 C 
BRANCH   2   3
ATOM      3  N   UNL A   1      33.981  26.152  24.140  1.00  0.00    -0.352 N 
ATOM      4  C   UNL A   1      33.251  25.006  23.925  1.00  0.00     0.253 C 
ATOM      5  O   UNL A   1      33.480  24.365  22.895  1.00  0.00    -0.269 OA
ATOM      6  H   UNL A   1      34.698  26.321  23.486  1.00  0.00     0.163 HD
BRANCH   4   7
ATOM      7  C   UNL A   1      32.268  24.444  24.894  1.00  0.00     0.065 A 
ATOM      8  C   UNL A   1      31.039  25.016  25.280  1.00  0.00     0.076 A 
ATOM      9  C   UNL A   1      30.251  24.340  26.228  1.00  0.00     0.029 A 
ATOM     10  C   UNL A   1      30.629  23.102  26.751  1.00  0.00     0.002 A 
ATOM     11  C   UNL A   1      32.622  23.176  25.408  1.00  0.00     0.016 A 
ATOM     12  C   UNL A   1      31.812  22.513  26.330  1.00  0.00     0.001 A 
BRANCH   8  13
ATOM     13  N   UNL A   1      30.554  26.272  24.879  1.00  0.00    -0.255 NA
ATOM     14  C   UNL A   1      29.752  26.342  23.867  1.00  0.00     0.119 C 
BRANCH  14  15
ATOM     15  C   UNL A   1      29.349  27.664  23.340  1.00  0.00    -0.007 A 
ATOM     16  C   UNL A   1      28.462  30.018  22.080  1.00  0.00     0.041 A 
ATOM     17  C   UNL A   1      29.803  29.614  21.990  1.00  0.00     0.027 A 
ATOM     18  C   UNL A   1      27.577  29.226  22.812  1.00  0.00     0.027 A 
ATOM     19  C   UNL A   1      30.249  28.447  22.615  1.00  0.00     0.012 A 
ATOM     20  C   UNL A   1      28.016  28.054  23.446  1.00  0.00     0.012 A 
BRANCH  16  21
ATOM     21  N   UNL A   1      28.109  31.155  21.332  1.00  0.00    -0.326 N 
ATOM     22  C   UNL A   1      28.740  33.061  22.815  1.00  0.00     0.114 C 
ATOM     23  C   UNL A   1      28.115  32.495  21.575  1.00  0.00     0.221 C 
ATOM     24  O   UNL A   1      27.615  33.249  20.737  1.00  0.00    -0.275 OA
ATOM     25  H   UNL A   1      27.784  30.933  20.430  1.00  0.00     0.169 HD
ENDBRANCH  16  21
ENDBRANCH  14  15
ENDBRANCH   8  13
ENDBRANCH   4   7
ENDBRANCH   2   3
ENDBRANCH   1   2
BRANCH   1  26
ATOM     26  C   UNL A   1      32.863  29.466  25.810  1.00  0.00     0.023 C 
BRANCH  26  27
ATOM     27  C   UNL A   1      33.434  29.278  27.216  1.00  0.00     0.116 C 
BRANCH  27  28
ATOM     28  N   UNL A   1      33.690  30.525  27.917  1.00  0.00    -0.352 N 
ATOM     29  C   UNL A   1      34.796  30.963  28.609  1.00  0.00     0.251 C 
ATOM     30  H   UNL A   1      32.945  31.168  27.892  1.00  0.00     0.163 HD
ATOM     31  O   UNL A   1      34.725  32.036  29.206  1.00  0.00    -0.269 OA
BRANCH  29  32
ATOM     32  C   UNL A   1      36.054  30.173  28.666  1.00  0.00     0.039 A 
ATOM     33  C   UNL A   1      36.859  30.145  27.521  1.00  0.00     0.014 A 
ATOM     34  C   UNL A   1      36.456  29.459  29.799  1.00  0.00     0.014 A 
ATOM     35  C   UNL A   1      38.118  29.542  27.563  1.00  0.00     0.010 A 
ATOM     36  C   UNL A   1      37.742  28.924  29.870  1.00  0.00     0.010 A 
ATOM     37  C   UNL A   1      38.603  29.016  28.770  1.00  0.00    -0.014 A 
BRANCH  37  38
ATOM     38  C   UNL A   1      40.056  28.766  28.945  1.00  0.00     0.031 A 
ATOM     39  C   UNL A   1      40.683  27.449  28.601  1.00  0.00     0.074 A 
ATOM     40  C   UNL A   1      40.786  29.743  29.524  1.00  0.00     0.049 A 
ATOM     41  N   UNL A   1      41.933  27.083  28.718  1.00  0.00    -0.248 NA
ATOM     42  C   UNL A   1      39.793  26.399  28.084  1.00  0.00     0.031 C 
ATOM     43  C   UNL A   1      40.253  31.036  29.974  1.00  0.00     0.029 A 
ATOM     44  N   UNL A   1      42.117  29.812  29.839  1.00  0.00    -0.354 N 
ATOM     45  C   UNL A   1      41.985  25.761  28.293  1.00  0.00     0.074 A 
ATOM     46  C   UNL A   1      40.628  25.375  27.962  1.00  0.00     0.031 C 
ATOM     47  C   UNL A   1      41.253  31.781  30.464  1.00  0.00     0.029 A 
ATOM     48  C   UNL A   1      42.487  31.010  30.410  1.00  0.00     0.049 A 
ATOM     49  H   UNL A   1      42.750  29.077  29.673  1.00  0.00     0.167 HD
ATOM     50  C   UNL A   1      43.068  24.954  28.181  1.00  0.00     0.031 A 
ATOM     51  C   UNL A   1      43.684  31.442  30.846  1.00  0.00     0.031 A 
ATOM     52  C   UNL A   1      44.407  25.357  28.532  1.00  0.00     0.049 A 
ATOM     53  C   UNL A   1      44.868  30.531  30.700  1.00  0.00     0.074 A 
ATOM     54  C   UNL A   1      45.585  24.641  28.406  1.00  0.00     0.029 A 
ATOM     55  N   UNL A   1      44.746  26.583  29.090  1.00  0.00    -0.354 N 
ATOM     56  N   UNL A   1      44.911  29.315  30.211  1.00  0.00    -0.248 NA
ATOM     57  C   UNL A   1      46.164  31.053  31.150  1.00  0.00     0.031 C 
ATOM     58  C   UNL A   1      46.625  25.410  28.939  1.00  0.00     0.029 A 
ATOM     59  C   UNL A   1      46.108  26.632  29.338  1.00  0.00     0.049 A 
ATOM     60  H   UNL A   1      44.111  27.311  29.280  1.00  0.00     0.167 HD
ATOM     61  C   UNL A   1      46.245  28.933  30.271  1.00  0.00     0.074 A 
ATOM     62  C   UNL A   1      46.976  30.056  30.826  1.00  0.00     0.031 C 
ATOM     63  C   UNL A   1      46.813  27.759  29.899  1.00  0.00     0.031 A 
BRANCH  50  64
ATOM     64  C   UNL A   1      42.851  23.554  27.664  1.00  0.00    -0.014 A 
ATOM     65  C   UNL A   1      42.133  22.604  28.415  1.00  0.00     0.010 A 
ATOM     66  C   UNL A   1      43.325  23.191  26.389  1.00  0.00     0.010 A 
ATOM     67  C   UNL A   1      41.934  21.311  27.923  1.00  0.00     0.020 A 
ATOM     68  C   UNL A   1      43.104  21.907  25.880  1.00  0.00     0.020 A 
ATOM     69  C   UNL A   1      42.424  20.969  26.660  1.00  0.00     0.054 A 
BRANCH  69  70
ATOM     70  S   UNL A   1      42.137  19.287  26.042  1.00  0.00     0.124 S 
ATOM     71  O   UNL A   1      42.607  18.471  27.159  1.00  0.00    -0.237 OA
ATOM     72  O   UNL A   1      40.695  19.270  25.815  1.00  0.00    -0.237 OA
ATOM     73  O   UNL A   1      42.956  19.215  24.834  1.00  0.00    -0.744 OA
ENDBRANCH  69  70
ENDBRANCH  50  64
BRANCH  51  74
ATOM     74  C   UNL A   1      43.814  32.806  31.428  1.00  0.00    -0.014 A 
ATOM     75  C   UNL A   1      44.094  33.912  30.606  1.00  0.00     0.010 A 
ATOM     76  C   UNL A   1      43.619  33.013  32.807  1.00  0.00     0.010 A 
ATOM     77  C   UNL A   1      44.196  35.195  31.154  1.00  0.00     0.020 A 
ATOM     78  C   UNL A   1      43.690  34.298  33.353  1.00  0.00     0.020 A 
ATOM     79  C   UNL A   1      43.991  35.380  32.524  1.00  0.00     0.054 A 
BRANCH  79  80
ATOM     80  S   UNL A   1      44.081  37.060  33.202  1.00  0.00     0.124 S 
ATOM     81  O   UNL A   1      45.440  37.099  33.734  1.00  0.00    -0.237 OA
ATOM     82  O   UNL A   1      43.837  37.890  32.026  1.00  0.00    -0.237 OA
ATOM     83  O   UNL A   1      43.016  37.082  34.204  1.00  0.00    -0.744 OA
ENDBRANCH  79  80
ENDBRANCH  51  74
BRANCH  63  84
ATOM     84  C   UNL A   1      48.306  27.643  30.060  1.00  0.00    -0.014 A 
ATOM     85  C   UNL A   1      48.875  27.118  31.234  1.00  0.00     0.010 A 
ATOM     86  C   UNL A   1      49.147  28.027  29.000  1.00  0.00     0.010 A 
ATOM     87  C   UNL A   1      50.262  27.010  31.356  1.00  0.00     0.020 A 
ATOM     88  C   UNL A   1      50.532  27.891  29.107  1.00  0.00     0.020 A 
ATOM     89  C   UNL A   1      51.082  27.396  30.291  1.00  0.00     0.054 A 
BRANCH  89  90
ATOM     90  S   UNL A   1      52.877  27.203  30.459  1.00  0.00     0.124 S 
ATOM     91  O   UNL A   1      52.978  26.004  31.286  1.00  0.00    -0.237 OA
ATOM     92  O   UNL A   1      53.313  27.048  29.073  1.00  0.00    -0.237 OA
ATOM     93  O   UNL A   1      53.300  28.443  31.104  1.00  0.00    -0.744 OA
ENDBRANCH  89  90
ENDBRANCH  63  84
ENDBRANCH  37  38
ENDBRANCH  29  32
ENDBRANCH  27  28
ENDBRANCH  26  27
ENDBRANCH   1  26
TORSDOF 17
ENDMDL
MODEL 3
REMARK VINA RESULT:     -11.5      4.163      5.397
REMARK SMILES CC(=O)Nc1ccc(/C=N/c2ccccc2C(=O)NCCCCNC(=O)c2ccc(-c3c4nc(c(-c5ccc(S(=O)(=O)[O-])cc5)c5ccc([nH]5)c(-c5ccc(S(=O)(=O)[O-])cc5)c5nc(c(-c6ccc(S(=O)(=O)[O-])cc6)c6ccc3[nH]6)C=C5)C=C4)cc2)cc1
REMARK SMILES IDX 21 1 20 2 19 3 17 4 18 5 16 7 11 8 12 9 13 10 15 11 14 12
REMARK SMILES IDX 10 13 9 14 8 15 5 16 6 17 88 18 7 19 87 20 4 21 1 22 2 23
REMARK SMILES IDX 3 24 22 26 23 27 24 28 25 29 26 31 27 32 28 33 86 34 29 35
REMARK SMILES IDX 85 36 30 37 31 38 32 39 79 40 33 41 84 42 78 43 80 44 34 45
REMARK SMILES IDX 83 46 77 47 76 48 35 50 65 51 46 52 64 53 47 54 50 55 63 56
REMARK SMILES IDX 81 57 48 58 49 59 62 61 82 62 51 63 36 64 37 65 45 66 38 67
REMARK SMILES IDX 44 68 39 69 40 70 41 71 42 72 43 73 66 74 67 75 75 76 68 77
REMARK SMILES IDX 74 78 69 79 70 80 71 81 72 82 73 83 52 84 53 85 61 86 54 87
REMARK SMILES IDX 60 88 55 89 56 90 57 91 58 92 59 93
REMARK H PARENT 19 6 4 25 24 30 80 49 50 60
REMARK Flexibility Score: inf
ROOT
ATOM      1  C   UNL A   1      33.502  29.014  27.299  1.00  0.00     0.023 C 
ENDROOT
BRANCH   1   2
ATOM      2  C   UNL A   1      33.044  28.042  26.221  1.00  0.00     0.116 C 
BRANCH   2   3
ATOM      3  N   UNL A   1      34.033  27.070  25.809  1.00  0.00    -0.352 N 
ATOM      4  C   UNL A   1      33.881  25.737  25.512  1.00  0.00     0.253 C 
ATOM      5  O   UNL A   1      34.864  25.131  25.074  1.00  0.00    -0.269 OA
ATOM      6  H   UNL A   1      34.953  27.415  25.730  1.00  0.00     0.163 HD
BRANCH   4   7
ATOM      7  C   UNL A   1      32.636  24.958  25.764  1.00  0.00     0.065 A 
ATOM      8  C   UNL A   1      31.348  25.237  25.265  1.00  0.00     0.076 A 
ATOM      9  C   UNL A   1      30.287  24.390  25.631  1.00  0.00     0.029 A 
ATOM     10  C   UNL A   1      30.487  23.261  26.428  1.00  0.00     0.002 A 
ATOM     11  C   UNL A   1      32.828  23.795  26.544  1.00  0.00     0.016 A 
ATOM     12  C   UNL A   1      31.764  22.956  26.875  1.00  0.00     0.001 A 
BRANCH   8  13
ATOM     13  N   UNL A   1      30.987  26.357  24.498  1.00  0.00    -0.255 NA
ATOM     14  C   UNL A   1      29.734  26.637  24.345  1.00  0.00     0.119 C 
BRANCH  14  15
ATOM     15  C   UNL A   1      29.332  27.722  23.423  1.00  0.00    -0.007 A 
ATOM     16  C   UNL A   1      28.655  29.993  21.906  1.00  0.00     0.041 A 
ATOM     17  C   UNL A   1      27.671  29.264  22.591  1.00  0.00     0.027 A 
ATOM     18  C   UNL A   1      29.981  29.565  21.993  1.00  0.00     0.027 A 
ATOM     19  C   UNL A   1      28.001  28.134  23.343  1.00  0.00     0.012 A 
ATOM     20  C   UNL A   1      30.322  28.430  22.744  1.00  0.00     0.012 A 
BRANCH  16  21
ATOM     21  N   UNL A   1      28.220  31.164  21.262  1.00  0.00    -0.326 N 
ATOM     22  C   UNL A   1      28.811  32.980  22.869  1.00  0.00     0.114 C 
ATOM     23  C   UNL A   1      28.169  32.480  21.609  1.00  0.00     0.221 C 
ATOM     24  O   UNL A   1      27.603  33.269  20.849  1.00  0.00    -0.275 OA
ATOM     25  H   UNL A   1      27.873  30.996  20.356  1.00  0.00     0.169 HD
ENDBRANCH  16  21
ENDBRANCH  14  15
ENDBRANCH   8  13
ENDBRANCH   4   7
ENDBRANCH   2   3
ENDBRANCH   1   2
BRANCH   1  26
ATOM     26  C   UNL A   1      32.919  30.430  27.239  1.00  0.00     0.023 C 
BRANCH  26  27
ATOM     27  C   UNL A   1      33.900  31.596  27.369  1.00  0.00     0.116 C 
BRANCH  27  28
ATOM     28  N   UNL A   1      33.259  32.878  27.606  1.00  0.00    -0.352 N 
ATOM     29  C   UNL A   1      33.504  33.852  28.547  1.00  0.00     0.251 C 
ATOM     30  H   UNL A   1      32.523  33.087  26.986  1.00  0.00     0.163 HD
ATOM     31  O   UNL A   1      32.743  34.817  28.601  1.00  0.00    -0.269 OA
BRANCH  29  32
ATOM     32  C   UNL A   1      34.642  33.759  29.499  1.00  0.00     0.039 A 
ATOM     33  C   UNL A   1      34.386  33.248  30.776  1.00  0.00     0.014 A 
ATOM     34  C   UNL A   1      35.940  34.167  29.176  1.00  0.00     0.014 A 
ATOM     35  C   UNL A   1      35.440  33.003  31.658  1.00  0.00     0.010 A 
ATOM     36  C   UNL A   1      37.003  33.853  30.021  1.00  0.00     0.010 A 
ATOM     37  C   UNL A   1      36.764  33.214  31.245  1.00  0.00    -0.014 A 
BRANCH  37  38
ATOM     38  C   UNL A   1      37.886  32.577  31.978  1.00  0.00     0.031 A 
ATOM     39  C   UNL A   1      38.363  33.094  33.302  1.00  0.00     0.074 A 
ATOM     40  C   UNL A   1      38.534  31.567  31.362  1.00  0.00     0.049 A 
ATOM     41  N   UNL A   1      39.342  32.650  34.049  1.00  0.00    -0.248 NA
ATOM     42  C   UNL A   1      37.675  34.273  33.849  1.00  0.00     0.031 C 
ATOM     43  C   UNL A   1      38.201  31.042  30.031  1.00  0.00     0.029 A 
ATOM     44  N   UNL A   1      39.602  30.803  31.755  1.00  0.00    -0.354 N 
ATOM     45  C   UNL A   1      39.392  33.493  35.152  1.00  0.00     0.074 A 
ATOM     46  C   UNL A   1      38.375  34.505  34.952  1.00  0.00     0.031 C 
ATOM     47  C   UNL A   1      39.015  30.018  29.741  1.00  0.00     0.029 A 
ATOM     48  C   UNL A   1      39.958  29.841  30.836  1.00  0.00     0.049 A 
ATOM     49  H   UNL A   1      40.069  30.928  32.612  1.00  0.00     0.167 HD
ATOM     50  C   UNL A   1      40.206  33.416  36.234  1.00  0.00     0.031 A 
ATOM     51  C   UNL A   1      40.937  28.919  30.866  1.00  0.00     0.031 A 
ATOM     52  C   UNL A   1      41.222  32.408  36.402  1.00  0.00     0.049 A 
ATOM     53  C   UNL A   1      41.817  28.850  32.081  1.00  0.00     0.074 A 
ATOM     54  C   UNL A   1      42.063  32.203  37.482  1.00  0.00     0.029 A 
ATOM     55  N   UNL A   1      41.543  31.439  35.460  1.00  0.00    -0.354 N 
ATOM     56  N   UNL A   1      41.789  29.601  33.156  1.00  0.00    -0.248 NA
ATOM     57  C   UNL A   1      42.847  27.806  32.094  1.00  0.00     0.031 C 
ATOM     58  C   UNL A   1      42.929  31.149  37.169  1.00  0.00     0.029 A 
ATOM     59  C   UNL A   1      42.585  30.653  35.922  1.00  0.00     0.049 A 
ATOM     60  H   UNL A   1      41.093  31.327  34.591  1.00  0.00     0.167 HD
ATOM     61  C   UNL A   1      42.784  29.104  33.988  1.00  0.00     0.074 A 
ATOM     62  C   UNL A   1      43.379  27.977  33.296  1.00  0.00     0.031 C 
ATOM     63  C   UNL A   1      43.168  29.541  35.213  1.00  0.00     0.031 A 
BRANCH  50  64
ATOM     64  C   UNL A   1      40.036  34.454  37.316  1.00  0.00    -0.014 A 
ATOM     65  C   UNL A   1      40.677  35.705  37.231  1.00  0.00     0.010 A 
ATOM     66  C   UNL A   1      39.186  34.201  38.409  1.00  0.00     0.010 A 
ATOM     67  C   UNL A   1      40.507  36.660  38.238  1.00  0.00     0.020 A 
ATOM     68  C   UNL A   1      38.991  35.164  39.404  1.00  0.00     0.020 A 
ATOM     69  C   UNL A   1      39.668  36.383  39.320  1.00  0.00     0.054 A 
BRANCH  69  70
ATOM     70  S   UNL A   1      39.457  37.648  40.604  1.00  0.00     0.124 S 
ATOM     71  O   UNL A   1      39.158  36.836  41.781  1.00  0.00    -0.237 OA
ATOM     72  O   UNL A   1      40.757  38.314  40.614  1.00  0.00    -0.237 OA
ATOM     73  O   UNL A   1      38.347  38.461  40.112  1.00  0.00    -0.744 OA
ENDBRANCH  69  70
ENDBRANCH  50  64
BRANCH  51  74
ATOM     74  C   UNL A   1      41.108  27.979  29.724  1.00  0.00    -0.014 A 
ATOM     75  C   UNL A   1      42.156  28.154  28.804  1.00  0.00     0.010 A 
ATOM     76  C   UNL A   1      40.245  26.876  29.574  1.00  0.00     0.010 A 
ATOM     77  C   UNL A   1      42.325  27.257  27.743  1.00  0.00     0.020 A 
ATOM     78  C   UNL A   1      40.431  25.961  28.534  1.00  0.00     0.020 A 
ATOM     79  C   UNL A   1      41.463  26.165  27.617  1.00  0.00     0.054 A 
BRANCH  79  80
ATOM     80  S   UNL A   1      41.733  24.990  26.262  1.00  0.00     0.124 S 
ATOM     81  O   UNL A   1      43.047  24.444  26.591  1.00  0.00    -0.237 OA
ATOM     82  O   UNL A   1      40.609  24.070  26.412  1.00  0.00    -0.237 OA
ATOM     83  O   UNL A   1      41.687  25.829  25.067  1.00  0.00    -0.744 OA
ENDBRANCH  79  80
ENDBRANCH  51  74
BRANCH  63  84
ATOM     84  C   UNL A   1      44.273  28.775  35.893  1.00  0.00    -0.014 A 
ATOM     85  C   UNL A   1      45.615  29.179  35.782  1.00  0.00     0.010 A 
ATOM     86  C   UNL A   1      43.953  27.662  36.691  1.00  0.00     0.010 A 
ATOM     87  C   UNL A   1      46.621  28.460  36.431  1.00  0.00     0.020 A 
ATOM     88  C   UNL A   1      44.953  26.960  37.365  1.00  0.00     0.020 A 
ATOM     89  C   UNL A   1      46.284  27.356  37.220  1.00  0.00     0.054 A 
BRANCH  89  90
ATOM     90  S   UNL A   1      47.605  26.468  38.087  1.00  0.00     0.124 S 
ATOM     91  O   UNL A   1      47.624  25.188  37.384  1.00  0.00    -0.237 OA
ATOM     92  O   UNL A   1      48.767  27.324  37.863  1.00  0.00    -0.237 OA
ATOM     93  O   UNL A   1      47.136  26.413  39.470  1.00  0.00    -0.744 OA
ENDBRANCH  89  90
ENDBRANCH  63  84
ENDBRANCH  37  38
ENDBRANCH  29  32
ENDBRANCH  27  28
ENDBRANCH  26  27
ENDBRANCH   1  26
TORSDOF 17
ENDMDL
