MODEL 1
REMARK VINA RESULT:     -14.4      0.000      0.000
REMARK SMILES COc1cc([C@@H]2CC(=O)Nc3c(C(=O)NCCCCNC(=O)c4ccc(-c5c6nc(c(-c7ccc(S(=O)(=O)[O-])cc7)c7ccc([nH]7)c(-c7ccc(S(=O)(=O)[O-])cc7)c7nc(c(-c8ccc(S(=O)(=O)[O-])cc8)c8ccc5[nH]8)C=C7)C=C6)cc4)cn(-c4ccc(F)cc4)c32)c(OC)c2c1OCO2
REMARK SMILES IDX 18 1 17 2 16 3 15 4 13 5 14 6 12 8 6 9 7 10 92 11 8 12 11 13
REMARK SMILES IDX 84 14 9 15 10 16 83 17 5 19 3 20 4 21 97 22 96 23 98 24
REMARK SMILES IDX 93 25 100 26 99 27 2 28 1 29 94 30 95 31 85 32 86 33 91 34
REMARK SMILES IDX 87 35 90 36 88 37 89 38 19 39 20 40 21 41 22 43 23 44 24 45
REMARK SMILES IDX 82 46 25 47 81 48 26 49 27 50 28 51 75 52 29 53 80 54 74 55
REMARK SMILES IDX 76 56 30 57 79 58 73 59 72 60 31 62 61 63 42 64 60 65 43 66
REMARK SMILES IDX 46 67 59 68 77 69 44 70 45 71 58 73 78 74 47 75 32 76 33 77
REMARK SMILES IDX 41 78 34 79 40 80 35 81 36 82 37 83 38 84 39 85 62 86 63 87
REMARK SMILES IDX 71 88 64 89 70 90 65 91 66 92 67 93 68 94 69 95 48 96 49 97
REMARK SMILES IDX 57 98 50 99 56 100 51 101 52 102 53 103 54 104 55 105
REMARK H PARENT 15 7 10 18 20 42 76 61 46 72
REMARK Flexibility Score: inf
ROOT
ATOM      1  C   UNL A   1      37.331  21.829  24.690  1.00  0.00     0.023 C 
ENDROOT
BRANCH   1   2
ATOM      2  C   UNL A   1      36.732  22.596  23.507  1.00  0.00     0.023 C 
BRANCH   2   3
ATOM      3  C   UNL A   1      35.200  22.696  23.492  1.00  0.00     0.116 C 
BRANCH   3   4
ATOM      4  N   UNL A   1      34.664  22.703  24.832  1.00  0.00    -0.352 N 
ATOM      5  C   UNL A   1      34.020  23.638  25.599  1.00  0.00     0.254 C 
ATOM      6  O   UNL A   1      33.702  23.241  26.726  1.00  0.00    -0.269 OA
ATOM      7  H   UNL A   1      34.789  21.845  25.299  1.00  0.00     0.163 HD
BRANCH   5   8
ATOM      8  C   UNL A   1      33.671  25.003  25.176  1.00  0.00     0.081 A 
ATOM      9  C   UNL A   1      32.608  28.018  23.233  1.00  0.00     0.082 C 
ATOM     10  C   UNL A   1      33.141  27.618  21.855  1.00  0.00     0.115 C 
ATOM     11  C   UNL A   1      33.017  26.997  24.259  1.00  0.00     0.055 A 
ATOM     12  C   UNL A   1      33.087  26.133  21.592  1.00  0.00     0.225 C 
ATOM     13  C   UNL A   1      33.351  25.688  23.966  1.00  0.00     0.076 A 
ATOM     14  N   UNL A   1      33.260  27.213  25.596  1.00  0.00    -0.317 N 
ATOM     15  O   UNL A   1      32.991  25.678  20.452  1.00  0.00    -0.275 OA
ATOM     16  N   UNL A   1      33.311  25.294  22.650  1.00  0.00    -0.324 N 
ATOM     17  C   UNL A   1      33.687  26.024  26.132  1.00  0.00     0.107 A 
ATOM     18  H   UNL A   1      33.455  24.340  22.453  1.00  0.00     0.170 HD
BRANCH   9  19
ATOM     19  C   UNL A   1      31.112  28.338  23.176  1.00  0.00     0.012 A 
ATOM     20  C   UNL A   1      29.438  30.070  22.685  1.00  0.00     0.165 A 
ATOM     21  C   UNL A   1      30.759  29.628  22.696  1.00  0.00     0.059 A 
ATOM     22  C   UNL A   1      28.460  29.178  23.072  1.00  0.00     0.211 A 
ATOM     23  C   UNL A   1      28.773  27.900  23.493  1.00  0.00     0.211 A 
ATOM     24  O   UNL A   1      27.117  29.410  23.074  1.00  0.00    -0.449 OA
ATOM     25  C   UNL A   1      30.086  27.444  23.563  1.00  0.00     0.168 A 
ATOM     26  O   UNL A   1      27.648  27.199  23.817  1.00  0.00    -0.449 OA
ATOM     27  C   UNL A   1      26.610  28.130  23.484  1.00  0.00     0.468 C 
BRANCH  20  28
ATOM     28  O   UNL A   1      29.229  31.347  22.253  1.00  0.00    -0.493 OA
ATOM     29  C   UNL A   1      28.490  31.410  21.035  1.00  0.00     0.278 C 
ENDBRANCH  20  28
BRANCH  25  30
ATOM     30  O   UNL A   1      30.480  26.207  23.972  1.00  0.00    -0.492 OA
ATOM     31  C   UNL A   1      29.975  25.680  25.190  1.00  0.00     0.278 C 
ENDBRANCH  25  30
ENDBRANCH   9  19
BRANCH  14  32
ATOM     32  C   UNL A   1      33.230  28.454  26.277  1.00  0.00     0.046 A 
ATOM     33  C   UNL A   1      32.036  29.174  26.370  1.00  0.00     0.029 A 
ATOM     34  C   UNL A   1      34.421  28.990  26.781  1.00  0.00     0.029 A 
ATOM     35  C   UNL A   1      32.043  30.473  26.875  1.00  0.00     0.041 A 
ATOM     36  C   UNL A   1      34.423  30.294  27.283  1.00  0.00     0.041 A 
ATOM     37  C   UNL A   1      33.240  31.028  27.308  1.00  0.00     0.123 A 
ATOM     38  F   UNL A   1      33.257  32.292  27.752  1.00  0.00    -0.207 F 
ENDBRANCH  14  32
ENDBRANCH   5   8
ENDBRANCH   3   4
ENDBRANCH   2   3
ENDBRANCH   1   2
BRANCH   1  39
ATOM     39  C   UNL A   1      38.164  22.693  25.632  1.00  0.00     0.116 C 
BRANCH  39  40
ATOM     40  N   UNL A   1      38.919  21.904  26.605  1.00  0.00    -0.352 N 
ATOM     41  C   UNL A   1      40.040  22.290  27.318  1.00  0.00     0.251 C 
ATOM     42  H   UNL A   1      38.591  20.992  26.771  1.00  0.00     0.163 HD
ATOM     43  O   UNL A   1      40.813  21.467  27.775  1.00  0.00    -0.269 OA
BRANCH  41  44
ATOM     44  C   UNL A   1      40.270  23.733  27.506  1.00  0.00     0.039 A 
ATOM     45  C   UNL A   1      39.227  24.644  27.350  1.00  0.00     0.014 A 
ATOM     46  C   UNL A   1      41.533  24.145  27.934  1.00  0.00     0.014 A 
ATOM     47  C   UNL A   1      39.435  25.967  27.733  1.00  0.00     0.010 A 
ATOM     48  C   UNL A   1      41.706  25.431  28.403  1.00  0.00     0.010 A 
ATOM     49  C   UNL A   1      40.665  26.352  28.300  1.00  0.00    -0.014 A 
BRANCH  49  50
ATOM     50  C   UNL A   1      40.783  27.670  28.931  1.00  0.00     0.031 A 
ATOM     51  C   UNL A   1      41.876  28.519  28.380  1.00  0.00     0.074 A 
ATOM     52  C   UNL A   1      39.895  28.207  29.795  1.00  0.00     0.049 A 
ATOM     53  N   UNL A   1      43.017  28.780  28.928  1.00  0.00    -0.248 NA
ATOM     54  C   UNL A   1      41.750  29.025  27.002  1.00  0.00     0.031 C 
ATOM     55  C   UNL A   1      38.587  27.668  30.183  1.00  0.00     0.029 A 
ATOM     56  N   UNL A   1      39.926  29.414  30.436  1.00  0.00    -0.354 N 
ATOM     57  C   UNL A   1      43.637  29.698  28.087  1.00  0.00     0.074 A 
ATOM     58  C   UNL A   1      42.921  29.647  26.838  1.00  0.00     0.031 C 
ATOM     59  C   UNL A   1      37.857  28.635  30.781  1.00  0.00     0.029 A 
ATOM     60  C   UNL A   1      38.712  29.787  31.001  1.00  0.00     0.049 A 
ATOM     61  H   UNL A   1      40.737  29.969  30.494  1.00  0.00     0.167 HD
ATOM     62  C   UNL A   1      44.481  30.644  28.588  1.00  0.00     0.031 A 
ATOM     63  C   UNL A   1      38.417  30.948  31.632  1.00  0.00     0.031 A 
ATOM     64  C   UNL A   1      44.782  30.394  29.974  1.00  0.00     0.049 A 
ATOM     65  C   UNL A   1      39.682  31.509  32.152  1.00  0.00     0.074 A 
ATOM     66  C   UNL A   1      45.589  29.557  30.708  1.00  0.00     0.029 A 
ATOM     67  N   UNL A   1      43.850  30.920  30.827  1.00  0.00    -0.354 N 
ATOM     68  N   UNL A   1      40.403  30.913  33.061  1.00  0.00    -0.248 NA
ATOM     69  C   UNL A   1      40.343  32.596  31.441  1.00  0.00     0.031 C 
ATOM     70  C   UNL A   1      44.996  29.472  32.005  1.00  0.00     0.029 A 
ATOM     71  C   UNL A   1      43.869  30.290  32.041  1.00  0.00     0.049 A 
ATOM     72  H   UNL A   1      43.241  31.659  30.596  1.00  0.00     0.167 HD
ATOM     73  C   UNL A   1      41.701  31.249  32.740  1.00  0.00     0.074 A 
ATOM     74  C   UNL A   1      41.595  32.409  31.866  1.00  0.00     0.031 C 
ATOM     75  C   UNL A   1      42.727  30.371  32.929  1.00  0.00     0.031 A 
BRANCH  62  76
ATOM     76  C   UNL A   1      44.616  32.051  28.038  1.00  0.00    -0.014 A 
ATOM     77  C   UNL A   1      45.912  32.552  27.783  1.00  0.00     0.010 A 
ATOM     78  C   UNL A   1      43.565  32.990  28.049  1.00  0.00     0.010 A 
ATOM     79  C   UNL A   1      46.148  33.923  27.604  1.00  0.00     0.020 A 
ATOM     80  C   UNL A   1      43.784  34.355  27.835  1.00  0.00     0.020 A 
ATOM     81  C   UNL A   1      45.078  34.817  27.640  1.00  0.00     0.054 A 
BRANCH  81  82
ATOM     82  S   UNL A   1      45.400  36.592  27.489  1.00  0.00     0.124 S 
ATOM     83  O   UNL A   1      46.280  36.643  26.326  1.00  0.00    -0.237 OA
ATOM     84  O   UNL A   1      44.056  37.133  27.293  1.00  0.00    -0.237 OA
ATOM     85  O   UNL A   1      46.023  36.935  28.766  1.00  0.00    -0.744 OA
ENDBRANCH  81  82
ENDBRANCH  62  76
BRANCH  63  86
ATOM     86  C   UNL A   1      37.148  31.712  31.619  1.00  0.00    -0.014 A 
ATOM     87  C   UNL A   1      36.380  31.854  32.789  1.00  0.00     0.010 A 
ATOM     88  C   UNL A   1      36.855  32.558  30.530  1.00  0.00     0.010 A 
ATOM     89  C   UNL A   1      35.410  32.863  32.897  1.00  0.00     0.020 A 
ATOM     90  C   UNL A   1      35.885  33.563  30.629  1.00  0.00     0.020 A 
ATOM     91  C   UNL A   1      35.188  33.730  31.824  1.00  0.00     0.054 A 
BRANCH  91  92
ATOM     92  S   UNL A   1      34.088  35.160  32.047  1.00  0.00     0.124 S 
ATOM     93  O   UNL A   1      32.938  34.563  32.718  1.00  0.00    -0.237 OA
ATOM     94  O   UNL A   1      34.898  36.061  32.861  1.00  0.00    -0.237 OA
ATOM     95  O   UNL A   1      33.839  35.618  30.681  1.00  0.00    -0.744 OA
ENDBRANCH  91  92
ENDBRANCH  63  86
BRANCH  75  96
ATOM     96  C   UNL A   1      42.597  29.347  34.021  1.00  0.00    -0.014 A 
ATOM     97  C   UNL A   1      42.887  29.577  35.377  1.00  0.00     0.010 A 
ATOM     98  C   UNL A   1      42.092  28.092  33.642  1.00  0.00     0.010 A 
ATOM     99  C   UNL A   1      42.690  28.562  36.328  1.00  0.00     0.020 A 
ATOM    100  C   UNL A   1      41.879  27.085  34.581  1.00  0.00     0.020 A 
ATOM    101  C   UNL A   1      42.188  27.321  35.921  1.00  0.00     0.054 A 
BRANCH 101 102
ATOM    102  S   UNL A   1      41.911  26.015  37.150  1.00  0.00     0.124 S 
ATOM    103  O   UNL A   1      42.146  24.798  36.380  1.00  0.00    -0.237 OA
ATOM    104  O   UNL A   1      42.911  26.318  38.173  1.00  0.00    -0.237 OA
ATOM    105  O   UNL A   1      40.526  26.222  37.573  1.00  0.00    -0.744 OA
ENDBRANCH 101 102
ENDBRANCH  75  96
ENDBRANCH  49  50
ENDBRANCH  41  44
ENDBRANCH  39  40
ENDBRANCH   1  39
TORSDOF 18
ENDMDL
MODEL 2
REMARK VINA RESULT:     -13.9      3.317      9.791
REMARK SMILES COc1cc([C@@H]2CC(=O)Nc3c(C(=O)NCCCCNC(=O)c4ccc(-c5c6nc(c(-c7ccc(S(=O)(=O)[O-])cc7)c7ccc([nH]7)c(-c7ccc(S(=O)(=O)[O-])cc7)c7nc(c(-c8ccc(S(=O)(=O)[O-])cc8)c8ccc5[nH]8)C=C7)C=C6)cc4)cn(-c4ccc(F)cc4)c32)c(OC)c2c1OCO2
REMARK SMILES IDX 18 1 17 2 16 3 15 4 13 5 14 6 12 8 6 9 7 10 92 11 8 12 11 13
REMARK SMILES IDX 84 14 9 15 10 16 83 17 5 19 3 20 4 21 97 22 96 23 98 24
REMARK SMILES IDX 93 25 100 26 99 27 2 28 1 29 94 30 95 31 85 32 86 33 91 34
REMARK SMILES IDX 87 35 90 36 88 37 89 38 19 39 20 40 21 41 22 43 23 44 24 45
REMARK SMILES IDX 82 46 25 47 81 48 26 49 27 50 28 51 75 52 29 53 80 54 74 55
REMARK SMILES IDX 76 56 30 57 79 58 73 59 72 60 31 62 61 63 42 64 60 65 43 66
REMARK SMILES IDX 46 67 59 68 77 69 44 70 45 71 58 73 78 74 47 75 32 76 33 77
REMARK SMILES IDX 41 78 34 79 40 80 35 81 36 82 37 83 38 84 39 85 62 86 63 87
REMARK SMILES IDX 71 88 64 89 70 90 65 91 66 92 67 93 68 94 69 95 48 96 49 97
REMARK SMILES IDX 57 98 50 99 56 100 51 101 52 102 53 103 54 104 55 105
REMARK H PARENT 15 7 10 18 20 42 76 61 46 72
REMARK Flexibility Score: inf
ROOT
ATOM      1  C   UNL A   1      32.353  30.805  26.984  1.00  0.00     0.023 C 
ENDROOT
BRANCH   1   2
ATOM      2  C   UNL A   1      32.161  29.310  27.254  1.00  0.00     0.023 C 
BRANCH   2   3
ATOM      3  C   UNL A   1      33.300  28.399  26.774  1.00  0.00     0.116 C 
BRANCH   3   4
ATOM      4  N   UNL A   1      33.227  28.178  25.350  1.00  0.00    -0.352 N 
ATOM      5  C   UNL A   1      33.399  27.085  24.543  1.00  0.00     0.254 C 
ATOM      6  O   UNL A   1      33.233  27.310  23.338  1.00  0.00    -0.269 OA
ATOM      7  H   UNL A   1      33.003  28.994  24.847  1.00  0.00     0.163 HD
BRANCH   5   8
ATOM      8  C   UNL A   1      33.718  25.723  24.997  1.00  0.00     0.081 A 
ATOM      9  C   UNL A   1      33.552  22.233  26.336  1.00  0.00     0.082 C 
ATOM     10  C   UNL A   1      32.423  22.418  27.352  1.00  0.00     0.115 C 
ATOM     11  C   UNL A   1      33.909  23.557  25.718  1.00  0.00     0.055 A 
ATOM     12  C   UNL A   1      31.382  23.424  26.927  1.00  0.00     0.225 C 
ATOM     13  C   UNL A   1      33.060  24.647  25.664  1.00  0.00     0.076 A 
ATOM     14  N   UNL A   1      35.140  23.949  25.244  1.00  0.00    -0.317 N 
ATOM     15  O   UNL A   1      30.216  23.359  27.318  1.00  0.00    -0.275 OA
ATOM     16  N   UNL A   1      31.808  24.514  26.216  1.00  0.00    -0.324 N 
ATOM     17  C   UNL A   1      35.029  25.258  24.849  1.00  0.00     0.107 A 
ATOM     18  H   UNL A   1      31.172  25.255  26.093  1.00  0.00     0.170 HD
BRANCH   9  19
ATOM     19  C   UNL A   1      33.230  21.107  25.350  1.00  0.00     0.012 A 
ATOM     20  C   UNL A   1      33.317  18.681  24.963  1.00  0.00     0.165 A 
ATOM     21  C   UNL A   1      33.481  19.782  25.799  1.00  0.00     0.059 A 
ATOM     22  C   UNL A   1      32.812  18.904  23.699  1.00  0.00     0.211 A 
ATOM     23  C   UNL A   1      32.510  20.178  23.257  1.00  0.00     0.211 A 
ATOM     24  O   UNL A   1      32.532  17.951  22.766  1.00  0.00    -0.449 OA
ATOM     25  C   UNL A   1      32.709  21.304  24.050  1.00  0.00     0.168 A 
ATOM     26  O   UNL A   1      32.017  20.153  21.984  1.00  0.00    -0.449 OA
ATOM     27  C   UNL A   1      31.969  18.747  21.710  1.00  0.00     0.468 C 
BRANCH  20  28
ATOM     28  O   UNL A   1      33.642  17.465  25.489  1.00  0.00    -0.493 OA
ATOM     29  C   UNL A   1      32.500  16.671  25.804  1.00  0.00     0.278 C 
ENDBRANCH  20  28
BRANCH  25  30
ATOM     30  O   UNL A   1      32.445  22.590  23.689  1.00  0.00    -0.492 OA
ATOM     31  C   UNL A   1      31.150  22.932  23.218  1.00  0.00     0.278 C 
ENDBRANCH  25  30
ENDBRANCH   9  19
BRANCH  14  32
ATOM     32  C   UNL A   1      36.345  23.207  25.290  1.00  0.00     0.046 A 
ATOM     33  C   UNL A   1      36.443  21.986  24.616  1.00  0.00     0.029 A 
ATOM     34  C   UNL A   1      37.404  23.665  26.083  1.00  0.00     0.029 A 
ATOM     35  C   UNL A   1      37.556  21.171  24.810  1.00  0.00     0.041 A 
ATOM     36  C   UNL A   1      38.516  22.842  26.276  1.00  0.00     0.041 A 
ATOM     37  C   UNL A   1      38.573  21.597  25.654  1.00  0.00     0.123 A 
ATOM     38  F   UNL A   1      39.623  20.795  25.877  1.00  0.00    -0.207 F 
ENDBRANCH  14  32
ENDBRANCH   5   8
ENDBRANCH   3   4
ENDBRANCH   2   3
ENDBRANCH   1   2
BRANCH   1  39
ATOM     39  C   UNL A   1      33.762  31.313  27.273  1.00  0.00     0.116 C 
BRANCH  39  40
ATOM     40  N   UNL A   1      33.834  32.123  28.488  1.00  0.00    -0.352 N 
ATOM     41  C   UNL A   1      34.746  32.015  29.522  1.00  0.00     0.251 C 
ATOM     42  H   UNL A   1      33.153  32.827  28.580  1.00  0.00     0.163 HD
ATOM     43  O   UNL A   1      34.492  32.438  30.636  1.00  0.00    -0.269 OA
BRANCH  41  44
ATOM     44  C   UNL A   1      36.039  31.370  29.234  1.00  0.00     0.039 A 
ATOM     45  C   UNL A   1      37.203  32.130  29.131  1.00  0.00     0.014 A 
ATOM     46  C   UNL A   1      36.074  29.977  29.159  1.00  0.00     0.014 A 
ATOM     47  C   UNL A   1      38.425  31.467  29.061  1.00  0.00     0.010 A 
ATOM     48  C   UNL A   1      37.290  29.326  29.188  1.00  0.00     0.010 A 
ATOM     49  C   UNL A   1      38.472  30.062  29.131  1.00  0.00    -0.014 A 
BRANCH  49  50
ATOM     50  C   UNL A   1      39.765  29.394  29.316  1.00  0.00     0.031 A 
ATOM     51  C   UNL A   1      40.141  29.166  30.738  1.00  0.00     0.074 A 
ATOM     52  C   UNL A   1      40.502  28.833  28.334  1.00  0.00     0.049 A 
ATOM     53  N   UNL A   1      41.017  29.816  31.431  1.00  0.00    -0.248 NA
ATOM     54  C   UNL A   1      39.360  28.198  31.528  1.00  0.00     0.031 C 
ATOM     55  C   UNL A   1      40.129  28.652  26.927  1.00  0.00     0.029 A 
ATOM     56  N   UNL A   1      41.713  28.203  28.407  1.00  0.00    -0.354 N 
ATOM     57  C   UNL A   1      41.087  29.163  32.657  1.00  0.00     0.074 A 
ATOM     58  C   UNL A   1      39.916  28.327  32.735  1.00  0.00     0.031 C 
ATOM     59  C   UNL A   1      40.961  27.759  26.347  1.00  0.00     0.029 A 
ATOM     60  C   UNL A   1      42.040  27.468  27.274  1.00  0.00     0.049 A 
ATOM     61  H   UNL A   1      42.303  28.266  29.194  1.00  0.00     0.167 HD
ATOM     62  C   UNL A   1      42.254  29.123  33.361  1.00  0.00     0.031 A 
ATOM     63  C   UNL A   1      43.128  26.686  27.083  1.00  0.00     0.031 A 
ATOM     64  C   UNL A   1      43.239  30.004  32.788  1.00  0.00     0.049 A 
ATOM     65  C   UNL A   1      44.194  27.173  27.985  1.00  0.00     0.074 A 
ATOM     66  C   UNL A   1      43.516  31.350  32.768  1.00  0.00     0.029 A 
ATOM     67  N   UNL A   1      43.950  29.421  31.774  1.00  0.00    -0.354 N 
ATOM     68  N   UNL A   1      44.724  28.360  27.881  1.00  0.00    -0.248 NA
ATOM     69  C   UNL A   1      44.474  26.467  29.228  1.00  0.00     0.031 C 
ATOM     70  C   UNL A   1      44.293  31.577  31.590  1.00  0.00     0.029 A 
ATOM     71  C   UNL A   1      44.504  30.359  30.947  1.00  0.00     0.049 A 
ATOM     72  H   UNL A   1      44.050  28.449  31.653  1.00  0.00     0.167 HD
ATOM     73  C   UNL A   1      45.026  28.712  29.181  1.00  0.00     0.074 A 
ATOM     74  C   UNL A   1      45.020  27.463  29.930  1.00  0.00     0.031 C 
ATOM     75  C   UNL A   1      44.922  30.003  29.606  1.00  0.00     0.031 A 
BRANCH  62  76
ATOM     76  C   UNL A   1      42.705  27.950  34.209  1.00  0.00    -0.014 A 
ATOM     77  C   UNL A   1      42.949  28.167  35.584  1.00  0.00     0.010 A 
ATOM     78  C   UNL A   1      43.184  26.741  33.664  1.00  0.00     0.010 A 
ATOM     79  C   UNL A   1      43.679  27.250  36.354  1.00  0.00     0.020 A 
ATOM     80  C   UNL A   1      43.881  25.803  34.433  1.00  0.00     0.020 A 
ATOM     81  C   UNL A   1      44.147  26.076  35.768  1.00  0.00     0.054 A 
BRANCH  81  82
ATOM     82  S   UNL A   1      45.156  24.936  36.748  1.00  0.00     0.124 S 
ATOM     83  O   UNL A   1      44.609  25.121  38.088  1.00  0.00    -0.237 OA
ATOM     84  O   UNL A   1      44.869  23.650  36.116  1.00  0.00    -0.237 OA
ATOM     85  O   UNL A   1      46.518  25.431  36.550  1.00  0.00    -0.744 OA
ENDBRANCH  81  82
ENDBRANCH  62  76
BRANCH  63  86
ATOM     86  C   UNL A   1      43.233  25.411  26.336  1.00  0.00    -0.014 A 
ATOM     87  C   UNL A   1      44.176  25.255  25.304  1.00  0.00     0.010 A 
ATOM     88  C   UNL A   1      42.616  24.251  26.847  1.00  0.00     0.010 A 
ATOM     89  C   UNL A   1      44.553  23.978  24.858  1.00  0.00     0.020 A 
ATOM     90  C   UNL A   1      42.982  22.975  26.403  1.00  0.00     0.020 A 
ATOM     91  C   UNL A   1      43.971  22.844  25.431  1.00  0.00     0.054 A 
BRANCH  91  92
ATOM     92  S   UNL A   1      44.615  21.199  25.000  1.00  0.00     0.124 S 
ATOM     93  O   UNL A   1      45.963  21.239  25.557  1.00  0.00    -0.237 OA
ATOM     94  O   UNL A   1      43.679  20.304  25.674  1.00  0.00    -0.237 OA
ATOM     95  O   UNL A   1      44.548  21.176  23.540  1.00  0.00    -0.744 OA
ENDBRANCH  91  92
ENDBRANCH  63  86
BRANCH  75  96
ATOM     96  C   UNL A   1      45.111  31.102  28.600  1.00  0.00    -0.014 A 
ATOM     97  C   UNL A   1      44.071  31.758  27.919  1.00  0.00     0.010 A 
ATOM     98  C   UNL A   1      46.433  31.528  28.383  1.00  0.00     0.010 A 
ATOM     99  C   UNL A   1      44.354  32.806  27.028  1.00  0.00     0.020 A 
ATOM    100  C   UNL A   1      46.721  32.578  27.513  1.00  0.00     0.020 A 
ATOM    101  C   UNL A   1      45.680  33.207  26.831  1.00  0.00     0.054 A 
BRANCH 101 102
ATOM    102  S   UNL A   1      46.047  34.576  25.697  1.00  0.00     0.124 S 
ATOM    103  O   UNL A   1      47.469  34.391  25.426  1.00  0.00    -0.237 OA
ATOM    104  O   UNL A   1      45.150  34.313  24.573  1.00  0.00    -0.237 OA
ATOM    105  O   UNL A   1      45.715  35.770  26.474  1.00  0.00    -0.744 OA
ENDBRANCH 101 102
ENDBRANCH  75  96
ENDBRANCH  49  50
ENDBRANCH  41  44
ENDBRANCH  39  40
ENDBRANCH   1  39
TORSDOF 18
ENDMDL
MODEL 3
REMARK VINA RESULT:     -11.8      5.001     11.650
REMARK SMILES COc1cc([C@@H]2CC(=O)Nc3c(C(=O)NCCCCNC(=O)c4ccc(-c5c6nc(c(-c7ccc(S(=O)(=O)[O-])cc7)c7ccc([nH]7)c(-c7ccc(S(=O)(=O)[O-])cc7)c7nc(c(-c8ccc(S(=O)(=O)[O-])cc8)c8ccc5[nH]8)C=C7)C=C6)cc4)cn(-c4ccc(F)cc4)c32)c(OC)c2c1OCO2
REMARK SMILES IDX 18 1 17 2 16 3 15 4 13 5 14 6 12 8 6 9 7 10 92 11 8 12 11 13
REMARK SMILES IDX 84 14 9 15 10 16 83 17 5 19 3 20 4 21 97 22 96 23 98 24
REMARK SMILES IDX 93 25 100 26 99 27 2 28 1 29 94 30 95 31 85 32 86 33 91 34
REMARK SMILES IDX 87 35 90 36 88 37 89 38 19 39 20 40 21 41 22 43 23 44 24 45
REMARK SMILES IDX 82 46 25 47 81 48 26 49 27 50 28 51 75 52 29 53 80 54 74 55
REMARK SMILES IDX 76 56 30 57 79 58 73 59 72 60 31 62 61 63 42 64 60 65 43 66
REMARK SMILES IDX 46 67 59 68 77 69 44 70 45 71 58 73 78 74 47 75 32 76 33 77
REMARK SMILES IDX 41 78 34 79 40 80 35 81 36 82 37 83 38 84 39 85 62 86 63 87
REMARK SMILES IDX 71 88 64 89 70 90 65 91 66 92 67 93 68 94 69 95 48 96 49 97
REMARK SMILES IDX 57 98 50 99 56 100 51 101 52 102 53 103 54 104 55 105
REMARK H PARENT 15 7 10 18 20 42 76 61 46 72
REMARK Flexibility Score: inf
ROOT
ATOM      1  C   UNL A   1      35.383  30.736  28.136  1.00  0.00     0.023 C 
ENDROOT
BRANCH   1   2
ATOM      2  C   UNL A   1      36.338  29.690  27.555  1.00  0.00     0.023 C 
BRANCH   2   3
ATOM      3  C   UNL A   1      37.783  29.754  28.069  1.00  0.00     0.116 C 
BRANCH   3   4
ATOM      4  N   UNL A   1      37.938  28.992  29.285  1.00  0.00    -0.352 N 
ATOM      5  C   UNL A   1      38.650  27.873  29.627  1.00  0.00     0.254 C 
ATOM      6  O   UNL A   1      38.524  27.529  30.808  1.00  0.00    -0.269 OA
ATOM      7  H   UNL A   1      37.416  29.358  30.036  1.00  0.00     0.163 HD
BRANCH   5   8
ATOM      8  C   UNL A   1      39.537  27.113  28.734  1.00  0.00     0.081 A 
ATOM      9  C   UNL A   1      42.160  26.086  26.272  1.00  0.00     0.082 C 
ATOM     10  C   UNL A   1      42.143  27.322  25.370  1.00  0.00     0.115 C 
ATOM     11  C   UNL A   1      41.080  26.193  27.312  1.00  0.00     0.055 A 
ATOM     12  C   UNL A   1      41.847  28.606  26.107  1.00  0.00     0.225 C 
ATOM     13  C   UNL A   1      40.515  27.384  27.730  1.00  0.00     0.076 A 
ATOM     14  N   UNL A   1      40.390  25.160  27.903  1.00  0.00    -0.317 N 
ATOM     15  O   UNL A   1      42.258  29.695  25.706  1.00  0.00    -0.275 OA
ATOM     16  N   UNL A   1      40.968  28.547  27.154  1.00  0.00    -0.324 N 
ATOM     17  C   UNL A   1      39.443  25.717  28.725  1.00  0.00     0.107 A 
ATOM     18  H   UNL A   1      40.635  29.398  27.519  1.00  0.00     0.170 HD
BRANCH   9  19
ATOM     19  C   UNL A   1      43.569  25.809  26.805  1.00  0.00     0.012 A 
ATOM     20  C   UNL A   1      45.111  26.141  28.690  1.00  0.00     0.165 A 
ATOM     21  C   UNL A   1      43.842  26.251  28.129  1.00  0.00     0.059 A 
ATOM     22  C   UNL A   1      46.086  25.503  27.953  1.00  0.00     0.211 A 
ATOM     23  C   UNL A   1      45.832  25.018  26.684  1.00  0.00     0.211 A 
ATOM     24  O   UNL A   1      47.364  25.253  28.356  1.00  0.00    -0.449 OA
ATOM     25  C   UNL A   1      44.588  25.156  26.075  1.00  0.00     0.168 A 
ATOM     26  O   UNL A   1      46.938  24.421  26.154  1.00  0.00    -0.449 OA
ATOM     27  C   UNL A   1      47.874  24.511  27.237  1.00  0.00     0.468 C 
BRANCH  20  28
ATOM     28  O   UNL A   1      45.265  26.649  29.947  1.00  0.00    -0.493 OA
ATOM     29  C   UNL A   1      45.650  28.022  29.949  1.00  0.00     0.278 C 
ENDBRANCH  20  28
BRANCH  25  30
ATOM     30  O   UNL A   1      44.257  24.715  24.830  1.00  0.00    -0.492 OA
ATOM     31  C   UNL A   1      43.910  23.351  24.641  1.00  0.00     0.278 C 
ENDBRANCH  25  30
ENDBRANCH   9  19
BRANCH  14  32
ATOM     32  C   UNL A   1      40.513  23.779  27.616  1.00  0.00     0.046 A 
ATOM     33  C   UNL A   1      41.609  23.058  28.099  1.00  0.00     0.029 A 
ATOM     34  C   UNL A   1      39.576  23.165  26.776  1.00  0.00     0.029 A 
ATOM     35  C   UNL A   1      41.828  21.751  27.666  1.00  0.00     0.041 A 
ATOM     36  C   UNL A   1      39.802  21.856  26.344  1.00  0.00     0.041 A 
ATOM     37  C   UNL A   1      40.934  21.170  26.777  1.00  0.00     0.123 A 
ATOM     38  F   UNL A   1      41.167  19.930  26.325  1.00  0.00    -0.207 F 
ENDBRANCH  14  32
ENDBRANCH   5   8
ENDBRANCH   3   4
ENDBRANCH   2   3
ENDBRANCH   1   2
BRANCH   1  39
ATOM     39  C   UNL A   1      35.890  32.171  28.023  1.00  0.00     0.116 C 
BRANCH  39  40
ATOM     40  N   UNL A   1      34.847  33.162  28.282  1.00  0.00    -0.352 N 
ATOM     41  C   UNL A   1      34.389  33.606  29.509  1.00  0.00     0.251 C 
ATOM     42  H   UNL A   1      34.421  33.560  27.489  1.00  0.00     0.163 HD
ATOM     43  O   UNL A   1      33.284  34.104  29.630  1.00  0.00    -0.269 OA
BRANCH  41  44
ATOM     44  C   UNL A   1      35.283  33.456  30.671  1.00  0.00     0.039 A 
ATOM     45  C   UNL A   1      35.199  32.330  31.489  1.00  0.00     0.014 A 
ATOM     46  C   UNL A   1      36.270  34.423  30.869  1.00  0.00     0.014 A 
ATOM     47  C   UNL A   1      36.189  32.130  32.448  1.00  0.00     0.010 A 
ATOM     48  C   UNL A   1      37.300  34.172  31.751  1.00  0.00     0.010 A 
ATOM     49  C   UNL A   1      37.265  33.031  32.551  1.00  0.00    -0.014 A 
BRANCH  49  50
ATOM     50  C   UNL A   1      38.423  32.676  33.378  1.00  0.00     0.031 A 
ATOM     51  C   UNL A   1      38.350  33.169  34.782  1.00  0.00     0.074 A 
ATOM     52  C   UNL A   1      39.403  31.817  33.025  1.00  0.00     0.049 A 
ATOM     53  N   UNL A   1      38.998  34.160  35.298  1.00  0.00    -0.248 NA
ATOM     54  C   UNL A   1      37.340  32.586  35.682  1.00  0.00     0.031 C 
ATOM     55  C   UNL A   1      39.461  30.970  31.828  1.00  0.00     0.029 A 
ATOM     56  N   UNL A   1      40.517  31.435  33.718  1.00  0.00    -0.354 N 
ATOM     57  C   UNL A   1      38.679  34.154  36.652  1.00  0.00     0.074 A 
ATOM     58  C   UNL A   1      37.514  33.317  36.787  1.00  0.00     0.031 C 
ATOM     59  C   UNL A   1      40.401  30.014  31.994  1.00  0.00     0.029 A 
ATOM     60  C   UNL A   1      41.144  30.306  33.206  1.00  0.00     0.049 A 
ATOM     61  H   UNL A   1      40.846  31.918  34.511  1.00  0.00     0.167 HD
ATOM     62  C   UNL A   1      39.581  34.576  37.583  1.00  0.00     0.031 A 
ATOM     63  C   UNL A   1      42.216  29.655  33.716  1.00  0.00     0.031 A 
ATOM     64  C   UNL A   1      40.718  35.204  36.962  1.00  0.00     0.049 A 
ATOM     65  C   UNL A   1      42.978  30.620  34.536  1.00  0.00     0.074 A 
ATOM     66  C   UNL A   1      41.029  36.414  36.387  1.00  0.00     0.029 A 
ATOM     67  N   UNL A   1      41.682  34.308  36.583  1.00  0.00    -0.354 N 
ATOM     68  N   UNL A   1      43.551  31.681  34.038  1.00  0.00    -0.248 NA
ATOM     69  C   UNL A   1      42.853  30.599  35.988  1.00  0.00     0.031 C 
ATOM     70  C   UNL A   1      42.128  36.164  35.509  1.00  0.00     0.029 A 
ATOM     71  C   UNL A   1      42.485  34.821  35.603  1.00  0.00     0.049 A 
ATOM     72  H   UNL A   1      41.784  33.407  36.968  1.00  0.00     0.167 HD
ATOM     73  C   UNL A   1      43.461  32.620  35.044  1.00  0.00     0.074 A 
ATOM     74  C   UNL A   1      43.194  31.862  36.258  1.00  0.00     0.031 C 
ATOM     75  C   UNL A   1      43.274  33.941  34.764  1.00  0.00     0.031 A 
BRANCH  62  76
ATOM     76  C   UNL A   1      39.723  33.981  38.971  1.00  0.00    -0.014 A 
ATOM     77  C   UNL A   1      40.965  33.416  39.337  1.00  0.00     0.010 A 
ATOM     78  C   UNL A   1      38.623  33.685  39.801  1.00  0.00     0.010 A 
ATOM     79  C   UNL A   1      41.086  32.560  40.441  1.00  0.00     0.020 A 
ATOM     80  C   UNL A   1      38.740  32.862  40.926  1.00  0.00     0.020 A 
ATOM     81  C   UNL A   1      39.966  32.282  41.224  1.00  0.00     0.054 A 
BRANCH  81  82
ATOM     82  S   UNL A   1      40.112  31.113  42.599  1.00  0.00     0.124 S 
ATOM     83  O   UNL A   1      39.101  30.118  42.260  1.00  0.00    -0.237 OA
ATOM     84  O   UNL A   1      41.501  30.674  42.483  1.00  0.00    -0.237 OA
ATOM     85  O   UNL A   1      39.820  31.933  43.774  1.00  0.00    -0.744 OA
ENDBRANCH  81  82
ENDBRANCH  62  76
BRANCH  63  86
ATOM     86  C   UNL A   1      42.501  28.201  33.720  1.00  0.00    -0.014 A 
ATOM     87  C   UNL A   1      43.688  27.697  33.156  1.00  0.00     0.010 A 
ATOM     88  C   UNL A   1      41.750  27.346  34.552  1.00  0.00     0.010 A 
ATOM     89  C   UNL A   1      44.152  26.412  33.483  1.00  0.00     0.020 A 
ATOM     90  C   UNL A   1      42.203  26.062  34.877  1.00  0.00     0.020 A 
ATOM     91  C   UNL A   1      43.418  25.613  34.363  1.00  0.00     0.054 A 
BRANCH  91  92
ATOM     92  S   UNL A   1      44.130  24.043  34.944  1.00  0.00     0.124 S 
ATOM     93  O   UNL A   1      44.333  24.304  36.365  1.00  0.00    -0.237 OA
ATOM     94  O   UNL A   1      43.081  23.080  34.620  1.00  0.00    -0.237 OA
ATOM     95  O   UNL A   1      45.355  23.910  34.157  1.00  0.00    -0.744 OA
ENDBRANCH  91  92
ENDBRANCH  63  86
BRANCH  75  96
ATOM     96  C   UNL A   1      43.788  34.472  33.455  1.00  0.00    -0.014 A 
ATOM     97  C   UNL A   1      45.123  34.832  33.202  1.00  0.00     0.010 A 
ATOM     98  C   UNL A   1      42.856  34.552  32.406  1.00  0.00     0.010 A 
ATOM     99  C   UNL A   1      45.508  35.279  31.927  1.00  0.00     0.020 A 
ATOM    100  C   UNL A   1      43.234  34.978  31.134  1.00  0.00     0.020 A 
ATOM    101  C   UNL A   1      44.558  35.350  30.902  1.00  0.00     0.054 A 
BRANCH 101 102
ATOM    102  S   UNL A   1      45.059  35.904  29.248  1.00  0.00     0.124 S 
ATOM    103  O   UNL A   1      45.655  37.209  29.518  1.00  0.00    -0.237 OA
ATOM    104  O   UNL A   1      45.991  34.860  28.826  1.00  0.00    -0.237 OA
ATOM    105  O   UNL A   1      43.804  35.940  28.498  1.00  0.00    -0.744 OA
ENDBRANCH 101 102
ENDBRANCH  75  96
ENDBRANCH  49  50
ENDBRANCH  41  44
ENDBRANCH  39  40
ENDBRANCH   1  39
TORSDOF 18
ENDMDL
