MODEL 1
REMARK VINA RESULT:     -12.1      0.000      0.000
REMARK SMILES O=C(Cc1ccccc1C(=O)NCCCCNC(=O)c1ccc(-c2c3nc(c(-c4ccc(S(=O)(=O)[O-])cc4)c4ccc([nH]4)c(-c4ccc(S(=O)(=O)[O-])cc4)c4nc(c(-c5ccc(S(=O)(=O)[O-])cc5)c5ccc2[nH]5)C=C4)C=C3)cc1)Nc1cccc(OC[C@@H]2CCCO2)c1
REMARK SMILES IDX 13 1 12 2 10 3 11 4 9 6 4 7 5 8 6 9 8 10 7 11 3 12 2 13 1 14
REMARK SMILES IDX 80 15 81 17 82 18 93 19 83 20 85 21 84 22 86 23 87 24 88 25
REMARK SMILES IDX 89 26 92 27 90 28 91 29 14 30 15 31 16 32 17 33 18 34 19 36
REMARK SMILES IDX 20 37 21 38 79 39 22 40 78 41 23 42 24 43 25 44 72 45 26 46
REMARK SMILES IDX 77 47 71 48 73 49 27 50 76 51 70 52 69 53 28 55 58 56 39 57
REMARK SMILES IDX 57 58 40 59 43 60 56 61 74 62 41 63 42 64 55 66 75 67 44 68
REMARK SMILES IDX 29 69 30 70 38 71 31 72 37 73 32 74 33 75 34 76 35 77 36 78
REMARK SMILES IDX 59 79 60 80 68 81 61 82 67 83 62 84 63 85 64 86 65 87 66 88
REMARK SMILES IDX 45 89 46 90 54 91 47 92 53 93 48 94 49 95 50 96 51 97 52 98
REMARK H PARENT 12 5 80 16 17 35 73 54 43 65
REMARK Flexibility Score: inf
ROOT
ATOM      1  C   UNL A   1      32.520  30.517  26.350  1.00  0.00     0.116 C 
ENDROOT
BRANCH   1   2
ATOM      2  N   UNL A   1      32.866  30.044  25.028  1.00  0.00    -0.352 N 
ATOM      3  C   UNL A   1      32.463  29.033  24.204  1.00  0.00     0.251 C 
ATOM      4  O   UNL A   1      33.112  28.938  23.155  1.00  0.00    -0.269 OA
ATOM      5  H   UNL A   1      33.574  30.590  24.617  1.00  0.00     0.163 HD
BRANCH   3   6
ATOM      6  C   UNL A   1      31.304  28.088  24.377  1.00  0.00     0.043 A 
ATOM      7  C   UNL A   1      31.193  26.887  25.111  1.00  0.00    -0.026 A 
ATOM      8  C   UNL A   1      30.037  26.076  24.949  1.00  0.00     0.005 A 
ATOM      9  C   UNL A   1      29.015  26.413  24.069  1.00  0.00     0.000 A 
ATOM     10  C   UNL A   1      30.231  28.408  23.507  1.00  0.00     0.014 A 
ATOM     11  C   UNL A   1      29.112  27.586  23.346  1.00  0.00     0.001 A 
BRANCH   7  12
ATOM     12  C   UNL A   1      32.231  26.294  26.020  1.00  0.00     0.136 C 
BRANCH  12  13
ATOM     13  C   UNL A   1      33.329  25.438  25.390  1.00  0.00     0.228 C 
ATOM     14  O   UNL A   1      33.705  25.725  24.253  1.00  0.00    -0.274 OA
ATOM     15  N   UNL A   1      33.812  24.371  26.136  1.00  0.00    -0.326 N 
ATOM     16  H   UNL A   1      33.433  24.248  27.036  1.00  0.00     0.169 HD
BRANCH  15  17
ATOM     17  C   UNL A   1      34.801  23.447  25.722  1.00  0.00     0.044 A 
ATOM     18  C   UNL A   1      36.142  23.763  25.968  1.00  0.00     0.026 A 
ATOM     19  C   UNL A   1      34.493  22.208  25.158  1.00  0.00     0.072 A 
ATOM     20  C   UNL A   1      37.141  22.811  25.745  1.00  0.00     0.006 A 
ATOM     21  C   UNL A   1      35.470  21.220  25.027  1.00  0.00     0.121 A 
ATOM     22  C   UNL A   1      36.799  21.533  25.302  1.00  0.00     0.046 A 
BRANCH  21  23
ATOM     23  O   UNL A   1      35.228  19.902  24.750  1.00  0.00    -0.491 OA
BRANCH  23  24
ATOM     24  C   UNL A   1      33.868  19.438  24.736  1.00  0.00     0.261 C 
BRANCH  24  25
ATOM     25  C   UNL A   1      33.661  17.914  24.594  1.00  0.00     0.156 C 
ATOM     26  C   UNL A   1      32.849  17.176  25.648  1.00  0.00     0.038 C 
ATOM     27  O   UNL A   1      34.936  17.223  24.587  1.00  0.00    -0.375 OA
ATOM     28  C   UNL A   1      33.256  15.749  25.391  1.00  0.00     0.031 C 
ATOM     29  C   UNL A   1      34.731  15.894  25.093  1.00  0.00     0.161 C 
ENDBRANCH  24  25
ENDBRANCH  23  24
ENDBRANCH  21  23
ENDBRANCH  15  17
ENDBRANCH  12  13
ENDBRANCH   7  12
ENDBRANCH   3   6
ENDBRANCH   1   2
BRANCH   1  30
ATOM     30  C   UNL A   1      33.776  30.552  27.229  1.00  0.00     0.023 C 
BRANCH  30  31
ATOM     31  C   UNL A   1      34.717  29.361  27.079  1.00  0.00     0.023 C 
BRANCH  31  32
ATOM     32  C   UNL A   1      35.931  29.404  27.995  1.00  0.00     0.116 C 
BRANCH  32  33
ATOM     33  N   UNL A   1      35.620  29.722  29.383  1.00  0.00    -0.352 N 
ATOM     34  C   UNL A   1      36.505  29.883  30.425  1.00  0.00     0.251 C 
ATOM     35  H   UNL A   1      34.665  29.835  29.601  1.00  0.00     0.163 HD
ATOM     36  O   UNL A   1      36.104  30.111  31.562  1.00  0.00    -0.269 OA
BRANCH  34  37
ATOM     37  C   UNL A   1      37.947  29.724  30.152  1.00  0.00     0.039 A 
ATOM     38  C   UNL A   1      38.749  29.076  31.094  1.00  0.00     0.014 A 
ATOM     39  C   UNL A   1      38.474  30.120  28.921  1.00  0.00     0.014 A 
ATOM     40  C   UNL A   1      40.066  28.751  30.765  1.00  0.00     0.010 A 
ATOM     41  C   UNL A   1      39.760  29.729  28.568  1.00  0.00     0.010 A 
ATOM     42  C   UNL A   1      40.567  29.036  29.484  1.00  0.00    -0.014 A 
BRANCH  42  43
ATOM     43  C   UNL A   1      41.932  28.623  29.073  1.00  0.00     0.031 A 
ATOM     44  C   UNL A   1      43.041  29.637  29.041  1.00  0.00     0.074 A 
ATOM     45  C   UNL A   1      42.153  27.363  28.646  1.00  0.00     0.049 A 
ATOM     46  N   UNL A   1      44.271  29.502  28.618  1.00  0.00    -0.248 NA
ATOM     47  C   UNL A   1      42.714  30.992  29.516  1.00  0.00     0.031 C 
ATOM     48  C   UNL A   1      41.149  26.298  28.575  1.00  0.00     0.029 A 
ATOM     49  N   UNL A   1      43.298  26.768  28.177  1.00  0.00    -0.354 N 
ATOM     50  C   UNL A   1      44.854  30.756  28.746  1.00  0.00     0.074 A 
ATOM     51  C   UNL A   1      43.832  31.650  29.246  1.00  0.00     0.031 C 
ATOM     52  C   UNL A   1      41.728  25.177  28.116  1.00  0.00     0.029 A 
ATOM     53  C   UNL A   1      43.133  25.449  27.829  1.00  0.00     0.049 A 
ATOM     54  H   UNL A   1      44.157  27.242  28.098  1.00  0.00     0.167 HD
ATOM     55  C   UNL A   1      46.130  31.129  28.490  1.00  0.00     0.031 A 
ATOM     56  C   UNL A   1      44.013  24.557  27.333  1.00  0.00     0.031 A 
ATOM     57  C   UNL A   1      47.155  30.234  28.027  1.00  0.00     0.049 A 
ATOM     58  C   UNL A   1      45.436  24.984  27.096  1.00  0.00     0.074 A 
ATOM     59  C   UNL A   1      48.493  30.501  27.800  1.00  0.00     0.029 A 
ATOM     60  N   UNL A   1      46.957  28.894  27.733  1.00  0.00    -0.354 N 
ATOM     61  N   UNL A   1      45.981  26.164  27.277  1.00  0.00    -0.248 NA
ATOM     62  C   UNL A   1      46.363  23.957  26.600  1.00  0.00     0.031 C 
ATOM     63  C   UNL A   1      49.100  29.327  27.342  1.00  0.00     0.029 A 
ATOM     64  C   UNL A   1      48.147  28.322  27.319  1.00  0.00     0.049 A 
ATOM     65  H   UNL A   1      46.097  28.421  27.807  1.00  0.00     0.167 HD
ATOM     66  C   UNL A   1      47.322  26.014  26.938  1.00  0.00     0.074 A 
ATOM     67  C   UNL A   1      47.506  24.629  26.553  1.00  0.00     0.031 C 
ATOM     68  C   UNL A   1      48.311  26.940  26.947  1.00  0.00     0.031 A 
BRANCH  55  69
ATOM     69  C   UNL A   1      46.482  32.575  28.713  1.00  0.00    -0.014 A 
ATOM     70  C   UNL A   1      46.329  33.522  27.684  1.00  0.00     0.010 A 
ATOM     71  C   UNL A   1      46.956  32.995  29.968  1.00  0.00     0.010 A 
ATOM     72  C   UNL A   1      46.690  34.855  27.892  1.00  0.00     0.020 A 
ATOM     73  C   UNL A   1      47.294  34.334  30.187  1.00  0.00     0.020 A 
ATOM     74  C   UNL A   1      47.178  35.251  29.141  1.00  0.00     0.054 A 
BRANCH  74  75
ATOM     75  S   UNL A   1      47.629  36.990  29.390  1.00  0.00     0.124 S 
ATOM     76  O   UNL A   1      46.576  37.445  30.295  1.00  0.00    -0.237 OA
ATOM     77  O   UNL A   1      48.963  36.897  29.979  1.00  0.00    -0.237 OA
ATOM     78  O   UNL A   1      47.584  37.555  28.045  1.00  0.00    -0.744 OA
ENDBRANCH  74  75
ENDBRANCH  55  69
BRANCH  56  79
ATOM     79  C   UNL A   1      43.583  23.162  27.054  1.00  0.00    -0.014 A 
ATOM     80  C   UNL A   1      43.769  22.606  25.777  1.00  0.00     0.010 A 
ATOM     81  C   UNL A   1      42.996  22.378  28.064  1.00  0.00     0.010 A 
ATOM     82  C   UNL A   1      43.358  21.298  25.506  1.00  0.00     0.020 A 
ATOM     83  C   UNL A   1      42.604  21.062  27.803  1.00  0.00     0.020 A 
ATOM     84  C   UNL A   1      42.777  20.534  26.521  1.00  0.00     0.054 A 
BRANCH  84  85
ATOM     85  S   UNL A   1      42.297  18.820  26.167  1.00  0.00     0.124 S 
ATOM     86  O   UNL A   1      42.475  18.181  27.467  1.00  0.00    -0.237 OA
ATOM     87  O   UNL A   1      40.916  18.962  25.715  1.00  0.00    -0.237 OA
ATOM     88  O   UNL A   1      43.243  18.410  25.131  1.00  0.00    -0.744 OA
ENDBRANCH  84  85
ENDBRANCH  56  79
BRANCH  68  89
ATOM     89  C   UNL A   1      49.688  26.482  26.558  1.00  0.00    -0.014 A 
ATOM     90  C   UNL A   1      50.163  26.647  25.245  1.00  0.00     0.010 A 
ATOM     91  C   UNL A   1      50.538  25.936  27.536  1.00  0.00     0.010 A 
ATOM     92  C   UNL A   1      51.460  26.250  24.911  1.00  0.00     0.020 A 
ATOM     93  C   UNL A   1      51.842  25.556  27.210  1.00  0.00     0.020 A 
ATOM     94  C   UNL A   1      52.291  25.704  25.895  1.00  0.00     0.054 A 
BRANCH  94  95
ATOM     95  S   UNL A   1      53.989  25.243  25.452  1.00  0.00     0.124 S 
ATOM     96  O   UNL A   1      53.780  24.017  24.687  1.00  0.00    -0.237 OA
ATOM     97  O   UNL A   1      54.448  26.396  24.681  1.00  0.00    -0.237 OA
ATOM     98  O   UNL A   1      54.646  25.067  26.745  1.00  0.00    -0.744 OA
ENDBRANCH  94  95
ENDBRANCH  68  89
ENDBRANCH  42  43
ENDBRANCH  34  37
ENDBRANCH  32  33
ENDBRANCH  31  32
ENDBRANCH  30  31
ENDBRANCH   1  30
TORSDOF 20
ENDMDL
MODEL 2
REMARK VINA RESULT:     -11.9      4.068     10.553
REMARK SMILES O=C(Cc1ccccc1C(=O)NCCCCNC(=O)c1ccc(-c2c3nc(c(-c4ccc(S(=O)(=O)[O-])cc4)c4ccc([nH]4)c(-c4ccc(S(=O)(=O)[O-])cc4)c4nc(c(-c5ccc(S(=O)(=O)[O-])cc5)c5ccc2[nH]5)C=C4)C=C3)cc1)Nc1cccc(OC[C@@H]2CCCO2)c1
REMARK SMILES IDX 13 1 12 2 10 3 11 4 9 6 4 7 5 8 6 9 8 10 7 11 3 12 2 13 1 14
REMARK SMILES IDX 80 15 81 17 82 18 93 19 83 20 85 21 84 22 86 23 87 24 88 25
REMARK SMILES IDX 89 26 92 27 90 28 91 29 14 30 15 31 16 32 17 33 18 34 19 36
REMARK SMILES IDX 20 37 21 38 79 39 22 40 78 41 23 42 24 43 25 44 72 45 26 46
REMARK SMILES IDX 77 47 71 48 73 49 27 50 76 51 70 52 69 53 28 55 58 56 39 57
REMARK SMILES IDX 57 58 40 59 43 60 56 61 74 62 41 63 42 64 55 66 75 67 44 68
REMARK SMILES IDX 29 69 30 70 38 71 31 72 37 73 32 74 33 75 34 76 35 77 36 78
REMARK SMILES IDX 59 79 60 80 68 81 61 82 67 83 62 84 63 85 64 86 65 87 66 88
REMARK SMILES IDX 45 89 46 90 54 91 47 92 53 93 48 94 49 95 50 96 51 97 52 98
REMARK H PARENT 12 5 80 16 17 35 73 54 43 65
REMARK Flexibility Score: inf
ROOT
ATOM      1  C   UNL A   1      34.265  24.214  22.935  1.00  0.00     0.116 C 
ENDROOT
BRANCH   1   2
ATOM      2  N   UNL A   1      32.828  24.188  23.087  1.00  0.00    -0.352 N 
ATOM      3  C   UNL A   1      31.903  23.315  23.581  1.00  0.00     0.251 C 
ATOM      4  O   UNL A   1      30.728  23.672  23.428  1.00  0.00    -0.269 OA
ATOM      5  H   UNL A   1      32.408  25.010  22.745  1.00  0.00     0.163 HD
BRANCH   3   6
ATOM      6  C   UNL A   1      32.132  22.034  24.339  1.00  0.00     0.043 A 
ATOM      7  C   UNL A   1      32.466  21.809  25.692  1.00  0.00    -0.026 A 
ATOM      8  C   UNL A   1      32.819  20.499  26.114  1.00  0.00     0.005 A 
ATOM      9  C   UNL A   1      32.871  19.427  25.230  1.00  0.00     0.000 A 
ATOM     10  C   UNL A   1      32.174  20.911  23.474  1.00  0.00     0.014 A 
ATOM     11  C   UNL A   1      32.545  19.634  23.904  1.00  0.00     0.001 A 
BRANCH   7  12
ATOM     12  C   UNL A   1      32.580  22.847  26.771  1.00  0.00     0.136 C 
BRANCH  12  13
ATOM     13  C   UNL A   1      31.801  24.151  26.595  1.00  0.00     0.228 C 
ATOM     14  O   UNL A   1      30.575  24.111  26.706  1.00  0.00    -0.274 OA
ATOM     15  N   UNL A   1      32.530  25.293  26.293  1.00  0.00    -0.326 N 
ATOM     16  H   UNL A   1      33.508  25.195  26.234  1.00  0.00     0.169 HD
BRANCH  15  17
ATOM     17  C   UNL A   1      31.997  26.584  26.063  1.00  0.00     0.044 A 
ATOM     18  C   UNL A   1      32.238  27.576  27.021  1.00  0.00     0.026 A 
ATOM     19  C   UNL A   1      31.316  26.926  24.893  1.00  0.00     0.072 A 
ATOM     20  C   UNL A   1      31.892  28.905  26.759  1.00  0.00     0.006 A 
ATOM     21  C   UNL A   1      31.059  28.262  24.583  1.00  0.00     0.121 A 
ATOM     22  C   UNL A   1      31.328  29.248  25.530  1.00  0.00     0.046 A 
BRANCH  21  23
ATOM     23  O   UNL A   1      30.654  28.725  23.360  1.00  0.00    -0.491 OA
BRANCH  23  24
ATOM     24  C   UNL A   1      29.269  28.601  23.000  1.00  0.00     0.261 C 
BRANCH  24  25
ATOM     25  C   UNL A   1      28.507  29.917  22.731  1.00  0.00     0.156 C 
ATOM     26  C   UNL A   1      28.569  30.538  21.343  1.00  0.00     0.038 C 
ATOM     27  O   UNL A   1      28.980  30.971  23.608  1.00  0.00    -0.375 OA
ATOM     28  C   UNL A   1      28.104  31.943  21.625  1.00  0.00     0.031 C 
ATOM     29  C   UNL A   1      28.770  32.231  22.952  1.00  0.00     0.161 C 
ENDBRANCH  24  25
ENDBRANCH  23  24
ENDBRANCH  21  23
ENDBRANCH  15  17
ENDBRANCH  12  13
ENDBRANCH   7  12
ENDBRANCH   3   6
ENDBRANCH   1   2
BRANCH   1  30
ATOM     30  C   UNL A   1      34.930  24.163  24.317  1.00  0.00     0.023 C 
BRANCH  30  31
ATOM     31  C   UNL A   1      36.042  23.132  24.474  1.00  0.00     0.023 C 
BRANCH  31  32
ATOM     32  C   UNL A   1      37.370  23.711  24.939  1.00  0.00     0.116 C 
BRANCH  32  33
ATOM     33  N   UNL A   1      38.301  22.722  25.466  1.00  0.00    -0.352 N 
ATOM     34  C   UNL A   1      39.307  22.922  26.384  1.00  0.00     0.251 C 
ATOM     35  H   UNL A   1      38.199  21.803  25.125  1.00  0.00     0.163 HD
ATOM     36  O   UNL A   1      40.050  22.004  26.714  1.00  0.00    -0.269 OA
BRANCH  34  37
ATOM     37  C   UNL A   1      39.501  24.282  26.926  1.00  0.00     0.039 A 
ATOM     38  C   UNL A   1      38.955  24.601  28.171  1.00  0.00     0.014 A 
ATOM     39  C   UNL A   1      40.311  25.196  26.249  1.00  0.00     0.014 A 
ATOM     40  C   UNL A   1      39.292  25.813  28.777  1.00  0.00     0.010 A 
ATOM     41  C   UNL A   1      40.704  26.367  26.887  1.00  0.00     0.010 A 
ATOM     42  C   UNL A   1      40.204  26.685  28.159  1.00  0.00    -0.014 A 
BRANCH  42  43
ATOM     43  C   UNL A   1      40.651  27.937  28.817  1.00  0.00     0.031 A 
ATOM     44  C   UNL A   1      42.035  28.020  29.401  1.00  0.00     0.074 A 
ATOM     45  C   UNL A   1      39.789  28.962  28.968  1.00  0.00     0.049 A 
ATOM     46  N   UNL A   1      42.578  28.981  30.101  1.00  0.00    -0.248 NA
ATOM     47  C   UNL A   1      42.910  26.853  29.199  1.00  0.00     0.031 C 
ATOM     48  C   UNL A   1      38.402  28.987  28.497  1.00  0.00     0.029 A 
ATOM     49  N   UNL A   1      39.952  30.183  29.576  1.00  0.00    -0.354 N 
ATOM     50  C   UNL A   1      43.843  28.525  30.449  1.00  0.00     0.074 A 
ATOM     51  C   UNL A   1      43.971  27.185  29.919  1.00  0.00     0.031 C 
ATOM     52  C   UNL A   1      37.851  30.171  28.811  1.00  0.00     0.029 A 
ATOM     53  C   UNL A   1      38.830  30.976  29.532  1.00  0.00     0.049 A 
ATOM     54  H   UNL A   1      40.794  30.463  30.002  1.00  0.00     0.167 HD
ATOM     55  C   UNL A   1      44.819  29.169  31.131  1.00  0.00     0.031 A 
ATOM     56  C   UNL A   1      38.614  32.213  30.020  1.00  0.00     0.031 A 
ATOM     57  C   UNL A   1      44.706  30.513  31.627  1.00  0.00     0.049 A 
ATOM     58  C   UNL A   1      39.728  32.926  30.737  1.00  0.00     0.074 A 
ATOM     59  C   UNL A   1      45.661  31.277  32.273  1.00  0.00     0.029 A 
ATOM     60  N   UNL A   1      43.569  31.299  31.519  1.00  0.00    -0.354 N 
ATOM     61  N   UNL A   1      40.938  32.496  31.008  1.00  0.00    -0.248 NA
ATOM     62  C   UNL A   1      39.451  34.291  31.205  1.00  0.00     0.031 C 
ATOM     63  C   UNL A   1      45.093  32.517  32.581  1.00  0.00     0.029 A 
ATOM     64  C   UNL A   1      43.796  32.537  32.093  1.00  0.00     0.049 A 
ATOM     65  H   UNL A   1      42.726  31.018  31.097  1.00  0.00     0.167 HD
ATOM     66  C   UNL A   1      41.574  33.549  31.657  1.00  0.00     0.074 A 
ATOM     67  C   UNL A   1      40.620  34.637  31.728  1.00  0.00     0.031 C 
ATOM     68  C   UNL A   1      42.836  33.609  32.148  1.00  0.00     0.031 A 
BRANCH  55  69
ATOM     69  C   UNL A   1      46.100  28.417  31.374  1.00  0.00    -0.014 A 
ATOM     70  C   UNL A   1      46.314  27.727  32.581  1.00  0.00     0.010 A 
ATOM     71  C   UNL A   1      47.093  28.385  30.380  1.00  0.00     0.010 A 
ATOM     72  C   UNL A   1      47.519  27.059  32.808  1.00  0.00     0.020 A 
ATOM     73  C   UNL A   1      48.290  27.697  30.594  1.00  0.00     0.020 A 
ATOM     74  C   UNL A   1      48.504  27.056  31.816  1.00  0.00     0.054 A 
BRANCH  74  75
ATOM     75  S   UNL A   1      50.057  26.173  32.129  1.00  0.00     0.124 S 
ATOM     76  O   UNL A   1      50.344  26.554  33.510  1.00  0.00    -0.237 OA
ATOM     77  O   UNL A   1      49.681  24.775  31.931  1.00  0.00    -0.237 OA
ATOM     78  O   UNL A   1      50.971  26.716  31.129  1.00  0.00    -0.744 OA
ENDBRANCH  74  75
ENDBRANCH  55  69
BRANCH  56  79
ATOM     79  C   UNL A   1      37.297  32.873  29.820  1.00  0.00    -0.014 A 
ATOM     80  C   UNL A   1      36.265  32.689  30.755  1.00  0.00     0.010 A 
ATOM     81  C   UNL A   1      37.071  33.695  28.701  1.00  0.00     0.010 A 
ATOM     82  C   UNL A   1      35.021  33.300  30.568  1.00  0.00     0.020 A 
ATOM     83  C   UNL A   1      35.835  34.324  28.521  1.00  0.00     0.020 A 
ATOM     84  C   UNL A   1      34.814  34.113  29.451  1.00  0.00     0.054 A 
BRANCH  84  85
ATOM     85  S   UNL A   1      33.210  34.939  29.250  1.00  0.00     0.124 S 
ATOM     86  O   UNL A   1      32.705  34.954  30.620  1.00  0.00    -0.237 OA
ATOM     87  O   UNL A   1      33.587  36.238  28.700  1.00  0.00    -0.237 OA
ATOM     88  O   UNL A   1      32.492  34.065  28.326  1.00  0.00    -0.744 OA
ENDBRANCH  84  85
ENDBRANCH  56  79
BRANCH  68  89
ATOM     89  C   UNL A   1      43.269  34.902  32.779  1.00  0.00    -0.014 A 
ATOM     90  C   UNL A   1      43.975  35.868  32.040  1.00  0.00     0.010 A 
ATOM     91  C   UNL A   1      42.911  35.179  34.110  1.00  0.00     0.010 A 
ATOM     92  C   UNL A   1      44.337  37.080  32.631  1.00  0.00     0.020 A 
ATOM     93  C   UNL A   1      43.254  36.398  34.698  1.00  0.00     0.020 A 
ATOM     94  C   UNL A   1      43.975  37.338  33.958  1.00  0.00     0.054 A 
BRANCH  94  95
ATOM     95  S   UNL A   1      44.410  38.939  34.690  1.00  0.00     0.124 S 
ATOM     96  O   UNL A   1      43.423  39.828  34.083  1.00  0.00    -0.237 OA
ATOM     97  O   UNL A   1      44.242  38.698  36.122  1.00  0.00    -0.237 OA
ATOM     98  O   UNL A   1      45.790  39.151  34.260  1.00  0.00    -0.744 OA
ENDBRANCH  94  95
ENDBRANCH  68  89
ENDBRANCH  42  43
ENDBRANCH  34  37
ENDBRANCH  32  33
ENDBRANCH  31  32
ENDBRANCH  30  31
ENDBRANCH   1  30
TORSDOF 20
ENDMDL
MODEL 3
REMARK VINA RESULT:     -11.8      4.590      6.033
REMARK SMILES O=C(Cc1ccccc1C(=O)NCCCCNC(=O)c1ccc(-c2c3nc(c(-c4ccc(S(=O)(=O)[O-])cc4)c4ccc([nH]4)c(-c4ccc(S(=O)(=O)[O-])cc4)c4nc(c(-c5ccc(S(=O)(=O)[O-])cc5)c5ccc2[nH]5)C=C4)C=C3)cc1)Nc1cccc(OC[C@@H]2CCCO2)c1
REMARK SMILES IDX 13 1 12 2 10 3 11 4 9 6 4 7 5 8 6 9 8 10 7 11 3 12 2 13 1 14
REMARK SMILES IDX 80 15 81 17 82 18 93 19 83 20 85 21 84 22 86 23 87 24 88 25
REMARK SMILES IDX 89 26 92 27 90 28 91 29 14 30 15 31 16 32 17 33 18 34 19 36
REMARK SMILES IDX 20 37 21 38 79 39 22 40 78 41 23 42 24 43 25 44 72 45 26 46
REMARK SMILES IDX 77 47 71 48 73 49 27 50 76 51 70 52 69 53 28 55 58 56 39 57
REMARK SMILES IDX 57 58 40 59 43 60 56 61 74 62 41 63 42 64 55 66 75 67 44 68
REMARK SMILES IDX 29 69 30 70 38 71 31 72 37 73 32 74 33 75 34 76 35 77 36 78
REMARK SMILES IDX 59 79 60 80 68 81 61 82 67 83 62 84 63 85 64 86 65 87 66 88
REMARK SMILES IDX 45 89 46 90 54 91 47 92 53 93 48 94 49 95 50 96 51 97 52 98
REMARK H PARENT 12 5 80 16 17 35 73 54 43 65
REMARK Flexibility Score: inf
ROOT
ATOM      1  C   UNL A   1      30.820  25.927  25.891  1.00  0.00     0.116 C 
ENDROOT
BRANCH   1   2
ATOM      2  N   UNL A   1      30.019  26.505  24.835  1.00  0.00    -0.352 N 
ATOM      3  C   UNL A   1      30.256  27.209  23.689  1.00  0.00     0.251 C 
ATOM      4  O   UNL A   1      29.235  27.596  23.107  1.00  0.00    -0.269 OA
ATOM      5  H   UNL A   1      29.057  26.355  24.979  1.00  0.00     0.163 HD
BRANCH   3   6
ATOM      6  C   UNL A   1      31.573  27.501  23.022  1.00  0.00     0.043 A 
ATOM      7  C   UNL A   1      32.415  26.681  22.241  1.00  0.00    -0.026 A 
ATOM      8  C   UNL A   1      33.710  27.147  21.888  1.00  0.00     0.005 A 
ATOM      9  C   UNL A   1      34.191  28.382  22.310  1.00  0.00     0.000 A 
ATOM     10  C   UNL A   1      32.091  28.762  23.413  1.00  0.00     0.014 A 
ATOM     11  C   UNL A   1      33.377  29.194  23.074  1.00  0.00     0.001 A 
BRANCH   7  12
ATOM     12  C   UNL A   1      32.127  25.280  21.784  1.00  0.00     0.136 C 
BRANCH  12  13
ATOM     13  C   UNL A   1      32.929  24.142  22.417  1.00  0.00     0.228 C 
ATOM     14  O   UNL A   1      34.126  24.054  22.137  1.00  0.00    -0.274 OA
ATOM     15  N   UNL A   1      32.245  23.264  23.246  1.00  0.00    -0.326 N 
ATOM     16  H   UNL A   1      31.288  23.444  23.394  1.00  0.00     0.169 HD
BRANCH  15  17
ATOM     17  C   UNL A   1      32.796  22.136  23.899  1.00  0.00     0.044 A 
ATOM     18  C   UNL A   1      32.330  20.869  23.531  1.00  0.00     0.026 A 
ATOM     19  C   UNL A   1      33.834  22.229  24.828  1.00  0.00     0.072 A 
ATOM     20  C   UNL A   1      32.965  19.719  24.011  1.00  0.00     0.006 A 
ATOM     21  C   UNL A   1      34.535  21.093  25.232  1.00  0.00     0.121 A 
ATOM     22  C   UNL A   1      34.082  19.835  24.838  1.00  0.00     0.046 A 
BRANCH  21  23
ATOM     23  O   UNL A   1      35.723  21.097  25.911  1.00  0.00    -0.491 OA
BRANCH  23  24
ATOM     24  C   UNL A   1      36.946  21.015  25.162  1.00  0.00     0.261 C 
BRANCH  24  25
ATOM     25  C   UNL A   1      37.955  22.168  25.362  1.00  0.00     0.156 C 
ATOM     26  C   UNL A   1      39.147  21.957  26.283  1.00  0.00     0.038 C 
ATOM     27  O   UNL A   1      37.294  23.338  25.908  1.00  0.00    -0.375 OA
ATOM     28  C   UNL A   1      39.585  23.377  26.532  1.00  0.00     0.031 C 
ATOM     29  C   UNL A   1      38.260  24.095  26.654  1.00  0.00     0.161 C 
ENDBRANCH  24  25
ENDBRANCH  23  24
ENDBRANCH  21  23
ENDBRANCH  15  17
ENDBRANCH  12  13
ENDBRANCH   7  12
ENDBRANCH   3   6
ENDBRANCH   1   2
BRANCH   1  30
ATOM     30  C   UNL A   1      31.268  27.028  26.859  1.00  0.00     0.023 C 
BRANCH  30  31
ATOM     31  C   UNL A   1      32.633  27.643  26.570  1.00  0.00     0.023 C 
BRANCH  31  32
ATOM     32  C   UNL A   1      33.192  28.486  27.706  1.00  0.00     0.116 C 
BRANCH  32  33
ATOM     33  N   UNL A   1      33.306  29.906  27.397  1.00  0.00    -0.352 N 
ATOM     34  C   UNL A   1      34.410  30.713  27.553  1.00  0.00     0.251 C 
ATOM     35  H   UNL A   1      32.498  30.338  27.033  1.00  0.00     0.163 HD
ATOM     36  O   UNL A   1      34.357  31.909  27.290  1.00  0.00    -0.269 OA
BRANCH  34  37
ATOM     37  C   UNL A   1      35.646  30.113  28.095  1.00  0.00     0.039 A 
ATOM     38  C   UNL A   1      36.804  30.124  27.315  1.00  0.00     0.014 A 
ATOM     39  C   UNL A   1      35.677  29.641  29.409  1.00  0.00     0.014 A 
ATOM     40  C   UNL A   1      38.018  29.736  27.886  1.00  0.00     0.010 A 
ATOM     41  C   UNL A   1      36.898  29.328  29.996  1.00  0.00     0.010 A 
ATOM     42  C   UNL A   1      38.081  29.378  29.243  1.00  0.00    -0.014 A 
BRANCH  42  43
ATOM     43  C   UNL A   1      39.369  29.048  29.901  1.00  0.00     0.031 A 
ATOM     44  C   UNL A   1      39.836  29.862  31.076  1.00  0.00     0.074 A 
ATOM     45  C   UNL A   1      40.156  28.080  29.391  1.00  0.00     0.049 A 
ATOM     46  N   UNL A   1      40.970  29.799  31.724  1.00  0.00    -0.248 NA
ATOM     47  C   UNL A   1      38.919  30.905  31.567  1.00  0.00     0.031 C 
ATOM     48  C   UNL A   1      39.845  27.255  28.220  1.00  0.00     0.029 A 
ATOM     49  N   UNL A   1      41.393  27.634  29.788  1.00  0.00    -0.354 N 
ATOM     50  C   UNL A   1      40.917  30.812  32.674  1.00  0.00     0.074 A 
ATOM     51  C   UNL A   1      39.658  31.499  32.491  1.00  0.00     0.031 C 
ATOM     52  C   UNL A   1      40.850  26.390  28.011  1.00  0.00     0.029 A 
ATOM     53  C   UNL A   1      41.891  26.618  29.008  1.00  0.00     0.049 A 
ATOM     54  H   UNL A   1      41.877  28.008  30.559  1.00  0.00     0.167 HD
ATOM     55  C   UNL A   1      41.826  31.129  33.626  1.00  0.00     0.031 A 
ATOM     56  C   UNL A   1      43.055  25.944  29.086  1.00  0.00     0.031 A 
ATOM     57  C   UNL A   1      43.061  30.424  33.831  1.00  0.00     0.049 A 
ATOM     58  C   UNL A   1      44.030  26.287  30.179  1.00  0.00     0.074 A 
ATOM     59  C   UNL A   1      44.018  30.628  34.809  1.00  0.00     0.029 A 
ATOM     60  N   UNL A   1      43.504  29.369  33.049  1.00  0.00    -0.354 N 
ATOM     61  N   UNL A   1      43.936  27.213  31.104  1.00  0.00    -0.248 NA
ATOM     62  C   UNL A   1      45.261  25.488  30.245  1.00  0.00     0.031 C 
ATOM     63  C   UNL A   1      45.055  29.712  34.602  1.00  0.00     0.029 A 
ATOM     64  C   UNL A   1      44.725  28.915  33.518  1.00  0.00     0.049 A 
ATOM     65  H   UNL A   1      43.023  28.998  32.275  1.00  0.00     0.167 HD
ATOM     66  C   UNL A   1      45.086  27.091  31.876  1.00  0.00     0.074 A 
ATOM     67  C   UNL A   1      45.854  25.997  31.318  1.00  0.00     0.031 C 
ATOM     68  C   UNL A   1      45.470  27.820  32.952  1.00  0.00     0.031 A 
BRANCH  55  69
ATOM     69  C   UNL A   1      41.504  32.295  34.521  1.00  0.00    -0.014 A 
ATOM     70  C   UNL A   1      40.767  32.115  35.705  1.00  0.00     0.010 A 
ATOM     71  C   UNL A   1      41.957  33.583  34.184  1.00  0.00     0.010 A 
ATOM     72  C   UNL A   1      40.446  33.209  36.512  1.00  0.00     0.020 A 
ATOM     73  C   UNL A   1      41.660  34.677  35.002  1.00  0.00     0.020 A 
ATOM     74  C   UNL A   1      40.888  34.485  36.150  1.00  0.00     0.054 A 
BRANCH  74  75
ATOM     75  S   UNL A   1      40.470  35.890  37.218  1.00  0.00     0.124 S 
ATOM     76  O   UNL A   1      39.798  36.788  36.282  1.00  0.00    -0.237 OA
ATOM     77  O   UNL A   1      39.608  35.283  38.230  1.00  0.00    -0.237 OA
ATOM     78  O   UNL A   1      41.766  36.352  37.705  1.00  0.00    -0.744 OA
ENDBRANCH  74  75
ENDBRANCH  55  69
BRANCH  56  79
ATOM     79  C   UNL A   1      43.352  24.856  28.119  1.00  0.00    -0.014 A 
ATOM     80  C   UNL A   1      44.063  25.132  26.939  1.00  0.00     0.010 A 
ATOM     81  C   UNL A   1      42.936  23.537  28.375  1.00  0.00     0.010 A 
ATOM     82  C   UNL A   1      44.338  24.114  26.021  1.00  0.00     0.020 A 
ATOM     83  C   UNL A   1      43.227  22.512  27.469  1.00  0.00     0.020 A 
ATOM     84  C   UNL A   1      43.917  22.810  26.292  1.00  0.00     0.054 A 
BRANCH  84  85
ATOM     85  S   UNL A   1      44.327  21.492  25.114  1.00  0.00     0.124 S 
ATOM     86  O   UNL A   1      45.688  21.143  25.512  1.00  0.00    -0.237 OA
ATOM     87  O   UNL A   1      43.308  20.484  25.395  1.00  0.00    -0.237 OA
ATOM     88  O   UNL A   1      44.201  22.147  23.814  1.00  0.00    -0.744 OA
ENDBRANCH  84  85
ENDBRANCH  56  79
BRANCH  68  89
ATOM     89  C   UNL A   1      46.763  27.439  33.617  1.00  0.00    -0.014 A 
ATOM     90  C   UNL A   1      46.797  26.464  34.629  1.00  0.00     0.010 A 
ATOM     91  C   UNL A   1      47.965  28.022  33.179  1.00  0.00     0.010 A 
ATOM     92  C   UNL A   1      48.013  26.095  35.209  1.00  0.00     0.020 A 
ATOM     93  C   UNL A   1      49.185  27.641  33.742  1.00  0.00     0.020 A 
ATOM     94  C   UNL A   1      49.200  26.687  34.764  1.00  0.00     0.054 A 
BRANCH  94  95
ATOM     95  S   UNL A   1      50.773  26.156  35.494  1.00  0.00     0.124 S 
ATOM     96  O   UNL A   1      50.536  26.377  36.918  1.00  0.00    -0.237 OA
ATOM     97  O   UNL A   1      50.866  24.757  35.082  1.00  0.00    -0.237 OA
ATOM     98  O   UNL A   1      51.756  27.046  34.879  1.00  0.00    -0.744 OA
ENDBRANCH  94  95
ENDBRANCH  68  89
ENDBRANCH  42  43
ENDBRANCH  34  37
ENDBRANCH  32  33
ENDBRANCH  31  32
ENDBRANCH  30  31
ENDBRANCH   1  30
TORSDOF 20
ENDMDL
