MODEL 1
REMARK VINA RESULT:     -12.5      0.000      0.000
REMARK SMILES Cc1nsc(Nc2ccccc2C(C)C)c1C(=O)NCCCCNC(=O)c1ccc(-c2c3nc(c(-c4ccc(S(=O)(=O)[O-])cc4)c4ccc([nH]4)c(-c4ccc(S(=O)(=O)[O-])cc4)c4nc(c(-c5ccc(S(=O)(=O)[O-])cc5)c5ccc2[nH]5)C=C4)C=C3)cc1
REMARK SMILES IDX 21 1 20 2 19 3 17 4 18 5 16 7 1 8 2 9 3 10 4 11 5 12 6 13
REMARK SMILES IDX 7 15 8 16 12 17 9 18 11 19 10 20 13 21 14 22 15 23 22 24
REMARK SMILES IDX 23 25 24 26 25 27 26 29 27 30 28 31 86 32 29 33 85 34 30 35
REMARK SMILES IDX 31 36 32 37 79 38 33 39 84 40 78 41 80 42 34 43 83 44 77 45
REMARK SMILES IDX 76 46 35 48 65 49 46 50 64 51 47 52 50 53 63 54 81 55 48 56
REMARK SMILES IDX 49 57 62 59 82 60 51 61 36 62 37 63 45 64 38 65 44 66 39 67
REMARK SMILES IDX 40 68 41 69 42 70 43 71 66 72 67 73 75 74 68 75 74 76 69 77
REMARK SMILES IDX 70 78 71 79 72 80 73 81 52 82 53 83 61 84 54 85 60 86 55 87
REMARK SMILES IDX 56 88 57 89 58 90 59 91
REMARK H PARENT 19 6 6 14 24 28 80 47 50 58
REMARK Flexibility Score: inf
ROOT
ATOM      1  C   UNL A   1      34.777  22.990  26.869  1.00  0.00     0.023 C 
ENDROOT
BRANCH   1   2
ATOM      2  C   UNL A   1      33.772  22.112  27.615  1.00  0.00     0.116 C 
BRANCH   2   3
ATOM      3  N   UNL A   1      32.446  22.663  27.667  1.00  0.00    -0.352 N 
ATOM      4  C   UNL A   1      31.478  23.005  26.765  1.00  0.00     0.256 C 
ATOM      5  O   UNL A   1      30.420  23.329  27.326  1.00  0.00    -0.269 OA
ATOM      6  H   UNL A   1      32.159  22.839  28.593  1.00  0.00     0.163 HD
BRANCH   4   7
ATOM      7  C   UNL A   1      31.600  23.101  25.295  1.00  0.00     0.097 A 
ATOM      8  C   UNL A   1      32.408  20.769  24.224  1.00  0.00     0.069 C 
ATOM      9  C   UNL A   1      32.054  22.213  24.224  1.00  0.00     0.066 A 
ATOM     10  N   UNL A   1      32.164  22.757  23.010  1.00  0.00    -0.195 NA
ATOM     11  S   UNL A   1      31.628  24.297  23.042  1.00  0.00    -0.018 S 
ATOM     12  C   UNL A   1      31.142  24.289  24.685  1.00  0.00     0.127 A 
BRANCH  12  13
ATOM     13  N   UNL A   1      30.466  25.320  25.271  1.00  0.00    -0.345 N 
ATOM     14  H   UNL A   1      29.535  25.142  25.539  1.00  0.00     0.167 HD
BRANCH  13  15
ATOM     15  C   UNL A   1      30.964  26.611  25.533  1.00  0.00     0.043 A 
ATOM     16  C   UNL A   1      31.572  26.817  26.783  1.00  0.00     0.026 A 
ATOM     17  C   UNL A   1      30.797  27.707  24.655  1.00  0.00    -0.022 A 
ATOM     18  C   UNL A   1      32.094  28.058  27.140  1.00  0.00     0.002 A 
ATOM     19  C   UNL A   1      31.339  28.954  25.033  1.00  0.00     0.006 A 
ATOM     20  C   UNL A   1      31.989  29.124  26.256  1.00  0.00     0.000 A 
BRANCH  17  21
ATOM     21  C   UNL A   1      30.030  27.604  23.338  1.00  0.00     0.015 C 
ATOM     22  C   UNL A   1      28.527  27.402  23.567  1.00  0.00     0.012 C 
ATOM     23  C   UNL A   1      30.265  28.828  22.445  1.00  0.00     0.012 C 
ENDBRANCH  17  21
ENDBRANCH  13  15
ENDBRANCH  12  13
ENDBRANCH   4   7
ENDBRANCH   2   3
ENDBRANCH   1   2
BRANCH   1  24
ATOM     24  C   UNL A   1      35.610  22.273  25.791  1.00  0.00     0.023 C 
BRANCH  24  25
ATOM     25  C   UNL A   1      37.042  22.778  25.615  1.00  0.00     0.116 C 
BRANCH  25  26
ATOM     26  N   UNL A   1      38.065  21.833  26.076  1.00  0.00    -0.352 N 
ATOM     27  C   UNL A   1      39.401  22.092  26.369  1.00  0.00     0.251 C 
ATOM     28  H   UNL A   1      37.771  20.900  26.193  1.00  0.00     0.163 HD
ATOM     29  O   UNL A   1      40.242  21.212  26.324  1.00  0.00    -0.269 OA
BRANCH  27  30
ATOM     30  C   UNL A   1      39.761  23.462  26.780  1.00  0.00     0.039 A 
ATOM     31  C   UNL A   1      38.908  24.562  26.643  1.00  0.00     0.014 A 
ATOM     32  C   UNL A   1      41.006  23.599  27.374  1.00  0.00     0.014 A 
ATOM     33  C   UNL A   1      39.311  25.785  27.180  1.00  0.00     0.010 A 
ATOM     34  C   UNL A   1      41.282  24.712  28.109  1.00  0.00     0.010 A 
ATOM     35  C   UNL A   1      40.502  25.842  27.920  1.00  0.00    -0.014 A 
BRANCH  35  36
ATOM     36  C   UNL A   1      40.961  27.043  28.598  1.00  0.00     0.031 A 
ATOM     37  C   UNL A   1      42.218  27.607  28.051  1.00  0.00     0.074 A 
ATOM     38  C   UNL A   1      40.153  27.735  29.435  1.00  0.00     0.049 A 
ATOM     39  N   UNL A   1      43.384  27.590  28.603  1.00  0.00    -0.248 NA
ATOM     40  C   UNL A   1      42.229  28.084  26.657  1.00  0.00     0.031 C 
ATOM     41  C   UNL A   1      38.746  27.472  29.772  1.00  0.00     0.029 A 
ATOM     42  N   UNL A   1      40.376  28.921  30.051  1.00  0.00    -0.354 N 
ATOM     43  C   UNL A   1      44.219  28.289  27.740  1.00  0.00     0.074 A 
ATOM     44  C   UNL A   1      43.527  28.344  26.478  1.00  0.00     0.031 C 
ATOM     45  C   UNL A   1      38.188  28.588  30.290  1.00  0.00     0.029 A 
ATOM     46  C   UNL A   1      39.228  29.585  30.474  1.00  0.00     0.049 A 
ATOM     47  H   UNL A   1      41.280  29.286  30.189  1.00  0.00     0.167 HD
ATOM     48  C   UNL A   1      45.273  29.015  28.208  1.00  0.00     0.031 A 
ATOM     49  C   UNL A   1      39.141  30.879  30.882  1.00  0.00     0.031 A 
ATOM     50  C   UNL A   1      45.516  28.745  29.605  1.00  0.00     0.049 A 
ATOM     51  C   UNL A   1      40.520  31.295  31.258  1.00  0.00     0.074 A 
ATOM     52  C   UNL A   1      45.771  27.600  30.336  1.00  0.00     0.029 A 
ATOM     53  N   UNL A   1      45.058  29.679  30.509  1.00  0.00    -0.354 N 
ATOM     54  N   UNL A   1      41.176  30.763  32.254  1.00  0.00    -0.248 NA
ATOM     55  C   UNL A   1      41.348  31.909  30.229  1.00  0.00     0.031 C 
ATOM     56  C   UNL A   1      44.976  27.739  31.512  1.00  0.00     0.029 A 
ATOM     57  C   UNL A   1      44.375  29.000  31.488  1.00  0.00     0.049 A 
ATOM     58  H   UNL A   1      45.193  30.652  30.461  1.00  0.00     0.167 HD
ATOM     59  C   UNL A   1      42.462  30.570  31.769  1.00  0.00     0.074 A 
ATOM     60  C   UNL A   1      42.532  31.375  30.548  1.00  0.00     0.031 C 
ATOM     61  C   UNL A   1      43.249  29.546  32.220  1.00  0.00     0.031 A 
BRANCH  48  62
ATOM     62  C   UNL A   1      45.809  30.257  27.542  1.00  0.00    -0.014 A 
ATOM     63  C   UNL A   1      47.185  30.322  27.243  1.00  0.00     0.010 A 
ATOM     64  C   UNL A   1      45.076  31.458  27.437  1.00  0.00     0.010 A 
ATOM     65  C   UNL A   1      47.804  31.537  26.924  1.00  0.00     0.020 A 
ATOM     66  C   UNL A   1      45.673  32.665  27.075  1.00  0.00     0.020 A 
ATOM     67  C   UNL A   1      47.042  32.703  26.853  1.00  0.00     0.054 A 
BRANCH  67  68
ATOM     68  S   UNL A   1      47.865  34.280  26.529  1.00  0.00     0.124 S 
ATOM     69  O   UNL A   1      46.907  35.236  27.074  1.00  0.00    -0.237 OA
ATOM     70  O   UNL A   1      49.113  34.134  27.274  1.00  0.00    -0.237 OA
ATOM     71  O   UNL A   1      48.012  34.295  25.075  1.00  0.00    -0.744 OA
ENDBRANCH  67  68
ENDBRANCH  48  62
BRANCH  49  72
ATOM     72  C   UNL A   1      38.042  31.847  30.601  1.00  0.00    -0.014 A 
ATOM     73  C   UNL A   1      38.119  32.750  29.522  1.00  0.00     0.010 A 
ATOM     74  C   UNL A   1      36.783  31.694  31.222  1.00  0.00     0.010 A 
ATOM     75  C   UNL A   1      36.970  33.404  29.033  1.00  0.00     0.020 A 
ATOM     76  C   UNL A   1      35.638  32.348  30.749  1.00  0.00     0.020 A 
ATOM     77  C   UNL A   1      35.730  33.175  29.635  1.00  0.00     0.054 A 
BRANCH  77  78
ATOM     78  S   UNL A   1      34.216  33.836  28.871  1.00  0.00     0.124 S 
ATOM     79  O   UNL A   1      34.732  34.917  28.037  1.00  0.00    -0.237 OA
ATOM     80  O   UNL A   1      33.692  32.677  28.151  1.00  0.00    -0.237 OA
ATOM     81  O   UNL A   1      33.413  34.263  30.016  1.00  0.00    -0.744 OA
ENDBRANCH  77  78
ENDBRANCH  49  72
BRANCH  61  82
ATOM     82  C   UNL A   1      42.819  28.769  33.447  1.00  0.00    -0.014 A 
ATOM     83  C   UNL A   1      41.820  27.774  33.452  1.00  0.00     0.010 A 
ATOM     84  C   UNL A   1      43.586  28.945  34.613  1.00  0.00     0.010 A 
ATOM     85  C   UNL A   1      41.579  27.004  34.604  1.00  0.00     0.020 A 
ATOM     86  C   UNL A   1      43.367  28.170  35.752  1.00  0.00     0.020 A 
ATOM     87  C   UNL A   1      42.354  27.212  35.749  1.00  0.00     0.054 A 
BRANCH  87  88
ATOM     88  S   UNL A   1      42.056  26.208  37.232  1.00  0.00     0.124 S 
ATOM     89  O   UNL A   1      40.715  26.626  37.632  1.00  0.00    -0.237 OA
ATOM     90  O   UNL A   1      42.166  24.842  36.728  1.00  0.00    -0.237 OA
ATOM     91  O   UNL A   1      43.125  26.611  38.145  1.00  0.00    -0.744 OA
ENDBRANCH  87  88
ENDBRANCH  61  82
ENDBRANCH  35  36
ENDBRANCH  27  30
ENDBRANCH  25  26
ENDBRANCH  24  25
ENDBRANCH   1  24
TORSDOF 17
ENDMDL
MODEL 2
REMARK VINA RESULT:     -12.2      1.792      3.254
REMARK SMILES Cc1nsc(Nc2ccccc2C(C)C)c1C(=O)NCCCCNC(=O)c1ccc(-c2c3nc(c(-c4ccc(S(=O)(=O)[O-])cc4)c4ccc([nH]4)c(-c4ccc(S(=O)(=O)[O-])cc4)c4nc(c(-c5ccc(S(=O)(=O)[O-])cc5)c5ccc2[nH]5)C=C4)C=C3)cc1
REMARK SMILES IDX 21 1 20 2 19 3 17 4 18 5 16 7 1 8 2 9 3 10 4 11 5 12 6 13
REMARK SMILES IDX 7 15 8 16 12 17 9 18 11 19 10 20 13 21 14 22 15 23 22 24
REMARK SMILES IDX 23 25 24 26 25 27 26 29 27 30 28 31 86 32 29 33 85 34 30 35
REMARK SMILES IDX 31 36 32 37 79 38 33 39 84 40 78 41 80 42 34 43 83 44 77 45
REMARK SMILES IDX 76 46 35 48 65 49 46 50 64 51 47 52 50 53 63 54 81 55 48 56
REMARK SMILES IDX 49 57 62 59 82 60 51 61 36 62 37 63 45 64 38 65 44 66 39 67
REMARK SMILES IDX 40 68 41 69 42 70 43 71 66 72 67 73 75 74 68 75 74 76 69 77
REMARK SMILES IDX 70 78 71 79 72 80 73 81 52 82 53 83 61 84 54 85 60 86 55 87
REMARK SMILES IDX 56 88 57 89 58 90 59 91
REMARK H PARENT 19 6 6 14 24 28 80 47 50 58
REMARK Flexibility Score: inf
ROOT
ATOM      1  C   UNL A   1      35.228  22.743  24.234  1.00  0.00     0.023 C 
ENDROOT
BRANCH   1   2
ATOM      2  C   UNL A   1      34.824  24.207  24.049  1.00  0.00     0.116 C 
BRANCH   2   3
ATOM      3  N   UNL A   1      34.273  24.497  22.754  1.00  0.00    -0.352 N 
ATOM      4  C   UNL A   1      33.291  25.305  22.252  1.00  0.00     0.256 C 
ATOM      5  O   UNL A   1      33.281  25.301  21.013  1.00  0.00    -0.269 OA
ATOM      6  H   UNL A   1      34.718  23.982  22.042  1.00  0.00     0.163 HD
BRANCH   4   7
ATOM      7  C   UNL A   1      32.262  26.057  23.003  1.00  0.00     0.097 A 
ATOM      8  C   UNL A   1      32.831  28.685  23.085  1.00  0.00     0.069 C 
ATOM      9  C   UNL A   1      32.085  27.446  23.427  1.00  0.00     0.066 A 
ATOM     10  N   UNL A   1      31.065  27.686  24.255  1.00  0.00    -0.195 NA
ATOM     11  S   UNL A   1      30.200  26.323  24.480  1.00  0.00    -0.018 S 
ATOM     12  C   UNL A   1      31.109  25.347  23.405  1.00  0.00     0.127 A 
BRANCH  12  13
ATOM     13  N   UNL A   1      30.755  24.073  23.067  1.00  0.00    -0.345 N 
ATOM     14  H   UNL A   1      30.022  23.976  22.417  1.00  0.00     0.167 HD
BRANCH  13  15
ATOM     15  C   UNL A   1      31.332  22.883  23.552  1.00  0.00     0.043 A 
ATOM     16  C   UNL A   1      31.714  21.927  22.596  1.00  0.00     0.026 A 
ATOM     17  C   UNL A   1      31.452  22.575  24.927  1.00  0.00    -0.022 A 
ATOM     18  C   UNL A   1      32.291  20.716  22.973  1.00  0.00     0.002 A 
ATOM     19  C   UNL A   1      32.045  21.346  25.286  1.00  0.00     0.006 A 
ATOM     20  C   UNL A   1      32.470  20.433  24.320  1.00  0.00     0.000 A 
BRANCH  17  21
ATOM     21  C   UNL A   1      30.938  23.497  26.030  1.00  0.00     0.015 C 
ATOM     22  C   UNL A   1      29.891  22.806  26.912  1.00  0.00     0.012 C 
ATOM     23  C   UNL A   1      32.080  24.039  26.898  1.00  0.00     0.012 C 
ENDBRANCH  17  21
ENDBRANCH  13  15
ENDBRANCH  12  13
ENDBRANCH   4   7
ENDBRANCH   2   3
ENDBRANCH   1   2
BRANCH   1  24
ATOM     24  C   UNL A   1      36.088  22.446  25.476  1.00  0.00     0.023 C 
BRANCH  24  25
ATOM     25  C   UNL A   1      37.554  22.871  25.385  1.00  0.00     0.116 C 
BRANCH  25  26
ATOM     26  N   UNL A   1      38.482  21.937  26.031  1.00  0.00    -0.352 N 
ATOM     27  C   UNL A   1      39.727  22.215  26.589  1.00  0.00     0.251 C 
ATOM     28  H   UNL A   1      38.189  20.998  26.077  1.00  0.00     0.163 HD
ATOM     29  O   UNL A   1      40.578  21.351  26.704  1.00  0.00    -0.269 OA
BRANCH  27  30
ATOM     30  C   UNL A   1      39.969  23.586  27.078  1.00  0.00     0.039 A 
ATOM     31  C   UNL A   1      39.003  24.596  27.066  1.00  0.00     0.014 A 
ATOM     32  C   UNL A   1      41.227  23.813  27.616  1.00  0.00     0.014 A 
ATOM     33  C   UNL A   1      39.311  25.817  27.667  1.00  0.00     0.010 A 
ATOM     34  C   UNL A   1      41.431  24.898  28.413  1.00  0.00     0.010 A 
ATOM     35  C   UNL A   1      40.531  25.950  28.346  1.00  0.00    -0.014 A 
BRANCH  35  36
ATOM     36  C   UNL A   1      40.906  27.144  29.084  1.00  0.00     0.031 A 
ATOM     37  C   UNL A   1      42.054  27.881  28.506  1.00  0.00     0.074 A 
ATOM     38  C   UNL A   1      40.088  27.682  30.020  1.00  0.00     0.049 A 
ATOM     39  N   UNL A   1      43.250  27.956  28.982  1.00  0.00    -0.248 NA
ATOM     40  C   UNL A   1      41.917  28.452  27.154  1.00  0.00     0.031 C 
ATOM     41  C   UNL A   1      38.744  27.241  30.421  1.00  0.00     0.029 A 
ATOM     42  N   UNL A   1      40.225  28.841  30.710  1.00  0.00    -0.354 N 
ATOM     43  C   UNL A   1      43.944  28.802  28.126  1.00  0.00     0.074 A 
ATOM     44  C   UNL A   1      43.164  28.867  26.917  1.00  0.00     0.031 C 
ATOM     45  C   UNL A   1      38.107  28.250  31.056  1.00  0.00     0.029 A 
ATOM     46  C   UNL A   1      39.045  29.342  31.251  1.00  0.00     0.049 A 
ATOM     47  H   UNL A   1      41.092  29.294  30.819  1.00  0.00     0.167 HD
ATOM     48  C   UNL A   1      44.944  29.607  28.583  1.00  0.00     0.031 A 
ATOM     49  C   UNL A   1      38.848  30.587  31.761  1.00  0.00     0.031 A 
ATOM     50  C   UNL A   1      45.311  29.271  29.938  1.00  0.00     0.049 A 
ATOM     51  C   UNL A   1      40.198  31.127  32.083  1.00  0.00     0.074 A 
ATOM     52  C   UNL A   1      45.737  28.114  30.562  1.00  0.00     0.029 A 
ATOM     53  N   UNL A   1      44.819  30.083  30.936  1.00  0.00    -0.354 N 
ATOM     54  N   UNL A   1      40.974  30.605  32.993  1.00  0.00    -0.248 NA
ATOM     55  C   UNL A   1      40.882  31.899  31.055  1.00  0.00     0.031 C 
ATOM     56  C   UNL A   1      45.015  28.082  31.791  1.00  0.00     0.029 A 
ATOM     57  C   UNL A   1      44.283  29.267  31.900  1.00  0.00     0.049 A 
ATOM     58  H   UNL A   1      44.846  31.066  30.954  1.00  0.00     0.167 HD
ATOM     59  C   UNL A   1      42.237  30.590  32.417  1.00  0.00     0.074 A 
ATOM     60  C   UNL A   1      42.136  31.480  31.258  1.00  0.00     0.031 C 
ATOM     61  C   UNL A   1      43.159  29.631  32.740  1.00  0.00     0.031 A 
BRANCH  48  62
ATOM     62  C   UNL A   1      45.297  30.945  27.981  1.00  0.00    -0.014 A 
ATOM     63  C   UNL A   1      44.293  31.931  27.896  1.00  0.00     0.010 A 
ATOM     64  C   UNL A   1      46.487  31.181  27.262  1.00  0.00     0.010 A 
ATOM     65  C   UNL A   1      44.449  33.059  27.080  1.00  0.00     0.020 A 
ATOM     66  C   UNL A   1      46.671  32.324  26.483  1.00  0.00     0.020 A 
ATOM     67  C   UNL A   1      45.636  33.240  26.370  1.00  0.00     0.054 A 
BRANCH  67  68
ATOM     68  S   UNL A   1      45.792  34.652  25.251  1.00  0.00     0.124 S 
ATOM     69  O   UNL A   1      45.278  35.743  26.072  1.00  0.00    -0.237 OA
ATOM     70  O   UNL A   1      47.229  34.676  24.988  1.00  0.00    -0.237 OA
ATOM     71  O   UNL A   1      44.961  34.276  24.110  1.00  0.00    -0.744 OA
ENDBRANCH  67  68
ENDBRANCH  48  62
BRANCH  49  72
ATOM     72  C   UNL A   1      37.636  31.443  31.623  1.00  0.00    -0.014 A 
ATOM     73  C   UNL A   1      36.501  31.244  32.435  1.00  0.00     0.010 A 
ATOM     74  C   UNL A   1      37.694  32.645  30.884  1.00  0.00     0.010 A 
ATOM     75  C   UNL A   1      35.514  32.241  32.569  1.00  0.00     0.020 A 
ATOM     76  C   UNL A   1      36.712  33.637  31.003  1.00  0.00     0.020 A 
ATOM     77  C   UNL A   1      35.642  33.445  31.871  1.00  0.00     0.054 A 
BRANCH  77  78
ATOM     78  S   UNL A   1      34.496  34.817  32.212  1.00  0.00     0.124 S 
ATOM     79  O   UNL A   1      34.134  35.263  30.870  1.00  0.00    -0.237 OA
ATOM     80  O   UNL A   1      33.432  34.162  32.969  1.00  0.00    -0.237 OA
ATOM     81  O   UNL A   1      35.308  35.758  32.982  1.00  0.00    -0.744 OA
ENDBRANCH  77  78
ENDBRANCH  49  72
BRANCH  61  82
ATOM     82  C   UNL A   1      42.900  28.729  33.928  1.00  0.00    -0.014 A 
ATOM     83  C   UNL A   1      43.111  29.100  35.272  1.00  0.00     0.010 A 
ATOM     84  C   UNL A   1      42.252  27.508  33.672  1.00  0.00     0.010 A 
ATOM     85  C   UNL A   1      42.715  28.254  36.322  1.00  0.00     0.020 A 
ATOM     86  C   UNL A   1      41.835  26.673  34.709  1.00  0.00     0.020 A 
ATOM     87  C   UNL A   1      42.081  27.041  36.031  1.00  0.00     0.054 A 
BRANCH  87  88
ATOM     88  S   UNL A   1      41.552  25.953  37.385  1.00  0.00     0.124 S 
ATOM     89  O   UNL A   1      42.657  26.069  38.332  1.00  0.00    -0.237 OA
ATOM     90  O   UNL A   1      40.291  26.554  37.811  1.00  0.00    -0.237 OA
ATOM     91  O   UNL A   1      41.421  24.644  36.747  1.00  0.00    -0.744 OA
ENDBRANCH  87  88
ENDBRANCH  61  82
ENDBRANCH  35  36
ENDBRANCH  27  30
ENDBRANCH  25  26
ENDBRANCH  24  25
ENDBRANCH   1  24
TORSDOF 17
ENDMDL
MODEL 3
REMARK VINA RESULT:     -12.1      3.047      8.090
REMARK SMILES Cc1nsc(Nc2ccccc2C(C)C)c1C(=O)NCCCCNC(=O)c1ccc(-c2c3nc(c(-c4ccc(S(=O)(=O)[O-])cc4)c4ccc([nH]4)c(-c4ccc(S(=O)(=O)[O-])cc4)c4nc(c(-c5ccc(S(=O)(=O)[O-])cc5)c5ccc2[nH]5)C=C4)C=C3)cc1
REMARK SMILES IDX 21 1 20 2 19 3 17 4 18 5 16 7 1 8 2 9 3 10 4 11 5 12 6 13
REMARK SMILES IDX 7 15 8 16 12 17 9 18 11 19 10 20 13 21 14 22 15 23 22 24
REMARK SMILES IDX 23 25 24 26 25 27 26 29 27 30 28 31 86 32 29 33 85 34 30 35
REMARK SMILES IDX 31 36 32 37 79 38 33 39 84 40 78 41 80 42 34 43 83 44 77 45
REMARK SMILES IDX 76 46 35 48 65 49 46 50 64 51 47 52 50 53 63 54 81 55 48 56
REMARK SMILES IDX 49 57 62 59 82 60 51 61 36 62 37 63 45 64 38 65 44 66 39 67
REMARK SMILES IDX 40 68 41 69 42 70 43 71 66 72 67 73 75 74 68 75 74 76 69 77
REMARK SMILES IDX 70 78 71 79 72 80 73 81 52 82 53 83 61 84 54 85 60 86 55 87
REMARK SMILES IDX 56 88 57 89 58 90 59 91
REMARK H PARENT 19 6 6 14 24 28 80 47 50 58
REMARK Flexibility Score: inf
ROOT
ATOM      1  C   UNL A   1      31.743  30.207  25.773  1.00  0.00     0.023 C 
ENDROOT
BRANCH   1   2
ATOM      2  C   UNL A   1      32.211  29.170  26.794  1.00  0.00     0.116 C 
BRANCH   2   3
ATOM      3  N   UNL A   1      31.411  27.976  26.818  1.00  0.00    -0.352 N 
ATOM      4  C   UNL A   1      31.256  26.870  26.031  1.00  0.00     0.256 C 
ATOM      5  O   UNL A   1      30.514  26.029  26.559  1.00  0.00    -0.269 OA
ATOM      6  H   UNL A   1      30.822  27.946  27.607  1.00  0.00     0.163 HD
BRANCH   4   7
ATOM      7  C   UNL A   1      31.785  26.644  24.668  1.00  0.00     0.097 A 
ATOM      8  C   UNL A   1      30.420  28.066  22.837  1.00  0.00     0.069 C 
ATOM      9  C   UNL A   1      31.411  27.068  23.319  1.00  0.00     0.066 A 
ATOM     10  N   UNL A   1      32.073  26.491  22.312  1.00  0.00    -0.195 NA
ATOM     11  S   UNL A   1      33.240  25.518  22.902  1.00  0.00    -0.018 S 
ATOM     12  C   UNL A   1      32.969  25.883  24.553  1.00  0.00     0.127 A 
BRANCH  12  13
ATOM     13  N   UNL A   1      33.774  25.439  25.561  1.00  0.00    -0.345 N 
ATOM     14  H   UNL A   1      34.311  26.118  26.031  1.00  0.00     0.167 HD
BRANCH  13  15
ATOM     15  C   UNL A   1      33.917  24.108  26.000  1.00  0.00     0.043 A 
ATOM     16  C   UNL A   1      32.959  23.633  26.912  1.00  0.00     0.026 A 
ATOM     17  C   UNL A   1      35.007  23.279  25.647  1.00  0.00    -0.022 A 
ATOM     18  C   UNL A   1      33.012  22.332  27.407  1.00  0.00     0.002 A 
ATOM     19  C   UNL A   1      35.038  21.963  26.155  1.00  0.00     0.006 A 
ATOM     20  C   UNL A   1      34.046  21.492  27.016  1.00  0.00     0.000 A 
BRANCH  17  21
ATOM     21  C   UNL A   1      36.163  23.760  24.771  1.00  0.00     0.015 C 
ATOM     22  C   UNL A   1      37.510  23.657  25.495  1.00  0.00     0.012 C 
ATOM     23  C   UNL A   1      36.222  23.001  23.439  1.00  0.00     0.012 C 
ENDBRANCH  17  21
ENDBRANCH  13  15
ENDBRANCH  12  13
ENDBRANCH   4   7
ENDBRANCH   2   3
ENDBRANCH   1   2
BRANCH   1  24
ATOM     24  C   UNL A   1      31.422  31.600  26.343  1.00  0.00     0.023 C 
BRANCH  24  25
ATOM     25  C   UNL A   1      32.488  32.204  27.258  1.00  0.00     0.116 C 
BRANCH  25  26
ATOM     26  N   UNL A   1      32.370  33.656  27.429  1.00  0.00    -0.352 N 
ATOM     27  C   UNL A   1      33.009  34.463  28.366  1.00  0.00     0.251 C 
ATOM     28  H   UNL A   1      31.765  34.117  26.803  1.00  0.00     0.163 HD
ATOM     29  O   UNL A   1      32.541  35.536  28.703  1.00  0.00    -0.269 OA
BRANCH  27  30
ATOM     30  C   UNL A   1      34.298  33.996  28.910  1.00  0.00     0.039 A 
ATOM     31  C   UNL A   1      34.444  33.433  30.182  1.00  0.00     0.014 A 
ATOM     32  C   UNL A   1      35.381  34.098  28.050  1.00  0.00     0.014 A 
ATOM     33  C   UNL A   1      35.690  32.916  30.539  1.00  0.00     0.010 A 
ATOM     34  C   UNL A   1      36.508  33.375  28.299  1.00  0.00     0.010 A 
ATOM     35  C   UNL A   1      36.713  32.887  29.580  1.00  0.00    -0.014 A 
BRANCH  35  36
ATOM     36  C   UNL A   1      38.014  32.285  29.821  1.00  0.00     0.031 A 
ATOM     37  C   UNL A   1      38.094  30.848  29.467  1.00  0.00     0.074 A 
ATOM     38  C   UNL A   1      39.112  33.043  30.051  1.00  0.00     0.049 A 
ATOM     39  N   UNL A   1      38.165  29.849  30.280  1.00  0.00    -0.248 NA
ATOM     40  C   UNL A   1      37.890  30.455  28.061  1.00  0.00     0.031 C 
ATOM     41  C   UNL A   1      39.224  34.510  30.059  1.00  0.00     0.029 A 
ATOM     42  N   UNL A   1      40.405  32.658  30.178  1.00  0.00    -0.354 N 
ATOM     43  C   UNL A   1      38.281  28.720  29.479  1.00  0.00     0.074 A 
ATOM     44  C   UNL A   1      37.861  29.124  28.162  1.00  0.00     0.031 C 
ATOM     45  C   UNL A   1      40.520  34.865  29.911  1.00  0.00     0.029 A 
ATOM     46  C   UNL A   1      41.339  33.667  29.963  1.00  0.00     0.049 A 
ATOM     47  H   UNL A   1      40.664  31.736  30.404  1.00  0.00     0.167 HD
ATOM     48  C   UNL A   1      38.987  27.629  29.891  1.00  0.00     0.031 A 
ATOM     49  C   UNL A   1      42.677  33.511  29.779  1.00  0.00     0.031 A 
ATOM     50  C   UNL A   1      39.340  27.730  31.287  1.00  0.00     0.049 A 
ATOM     51  C   UNL A   1      43.022  32.169  30.324  1.00  0.00     0.074 A 
ATOM     52  C   UNL A   1      38.621  27.908  32.454  1.00  0.00     0.029 A 
ATOM     53  N   UNL A   1      40.633  28.109  31.577  1.00  0.00    -0.354 N 
ATOM     54  N   UNL A   1      42.908  31.866  31.589  1.00  0.00    -0.248 NA
ATOM     55  C   UNL A   1      42.990  31.036  29.410  1.00  0.00     0.031 C 
ATOM     56  C   UNL A   1      39.380  28.853  33.204  1.00  0.00     0.029 A 
ATOM     57  C   UNL A   1      40.566  29.111  32.513  1.00  0.00     0.049 A 
ATOM     58  H   UNL A   1      41.452  27.733  31.184  1.00  0.00     0.167 HD
ATOM     59  C   UNL A   1      42.342  30.598  31.600  1.00  0.00     0.074 A 
ATOM     60  C   UNL A   1      42.497  30.102  30.231  1.00  0.00     0.031 C 
ATOM     61  C   UNL A   1      41.531  30.187  32.622  1.00  0.00     0.031 A 
BRANCH  48  62
ATOM     62  C   UNL A   1      39.712  26.688  28.962  1.00  0.00    -0.014 A 
ATOM     63  C   UNL A   1      39.066  25.498  28.570  1.00  0.00     0.010 A 
ATOM     64  C   UNL A   1      41.087  26.794  28.671  1.00  0.00     0.010 A 
ATOM     65  C   UNL A   1      39.778  24.445  27.980  1.00  0.00     0.020 A 
ATOM     66  C   UNL A   1      41.796  25.770  28.042  1.00  0.00     0.020 A 
ATOM     67  C   UNL A   1      41.142  24.587  27.731  1.00  0.00     0.054 A 
BRANCH  67  68
ATOM     68  S   UNL A   1      42.069  23.190  27.053  1.00  0.00     0.124 S 
ATOM     69  O   UNL A   1      42.394  22.433  28.257  1.00  0.00    -0.237 OA
ATOM     70  O   UNL A   1      41.088  22.576  26.161  1.00  0.00    -0.237 OA
ATOM     71  O   UNL A   1      43.201  23.825  26.383  1.00  0.00    -0.744 OA
ENDBRANCH  67  68
ENDBRANCH  48  62
BRANCH  49  72
ATOM     72  C   UNL A   1      43.559  34.264  28.841  1.00  0.00    -0.014 A 
ATOM     73  C   UNL A   1      44.484  35.218  29.312  1.00  0.00     0.010 A 
ATOM     74  C   UNL A   1      43.695  33.845  27.500  1.00  0.00     0.010 A 
ATOM     75  C   UNL A   1      45.548  35.665  28.503  1.00  0.00     0.020 A 
ATOM     76  C   UNL A   1      44.744  34.292  26.686  1.00  0.00     0.020 A 
ATOM     77  C   UNL A   1      45.686  35.175  27.202  1.00  0.00     0.054 A 
BRANCH  77  78
ATOM     78  S   UNL A   1      47.177  35.572  26.237  1.00  0.00     0.124 S 
ATOM     79  O   UNL A   1      48.247  35.335  27.203  1.00  0.00    -0.237 OA
ATOM     80  O   UNL A   1      47.102  34.622  25.130  1.00  0.00    -0.237 OA
ATOM     81  O   UNL A   1      46.979  36.971  25.862  1.00  0.00    -0.744 OA
ENDBRANCH  77  78
ENDBRANCH  49  72
BRANCH  61  82
ATOM     82  C   UNL A   1      41.454  31.020  33.885  1.00  0.00    -0.014 A 
ATOM     83  C   UNL A   1      42.296  30.852  35.003  1.00  0.00     0.010 A 
ATOM     84  C   UNL A   1      40.597  32.134  33.861  1.00  0.00     0.010 A 
ATOM     85  C   UNL A   1      42.251  31.757  36.079  1.00  0.00     0.020 A 
ATOM     86  C   UNL A   1      40.562  33.048  34.914  1.00  0.00     0.020 A 
ATOM     87  C   UNL A   1      41.379  32.849  36.027  1.00  0.00     0.054 A 
BRANCH  87  88
ATOM     88  S   UNL A   1      41.330  34.029  37.406  1.00  0.00     0.124 S 
ATOM     89  O   UNL A   1      42.735  34.400  37.553  1.00  0.00    -0.237 OA
ATOM     90  O   UNL A   1      40.451  35.081  36.902  1.00  0.00    -0.237 OA
ATOM     91  O   UNL A   1      40.779  33.248  38.512  1.00  0.00    -0.744 OA
ENDBRANCH  87  88
ENDBRANCH  61  82
ENDBRANCH  35  36
ENDBRANCH  27  30
ENDBRANCH  25  26
ENDBRANCH  24  25
ENDBRANCH   1  24
TORSDOF 17
ENDMDL
