MODEL 1
REMARK VINA RESULT:     -11.2      0.000      0.000
REMARK SMILES COc1c(C(=O)NCCCCNC(=O)c2ccc(-c3c4nc(c(-c5ccc(S(=O)(=O)[O-])cc5)c5ccc([nH]5)c(-c5ccc(S(=O)(=O)[O-])cc5)c5nc(c(-c6ccc(S(=O)(=O)[O-])cc6)c6ccc3[nH]6)C=C5)C=C4)cc2)cccc1-c1cc(C)ccc1C
REMARK SMILES IDX 10 1 9 2 8 3 7 4 5 5 6 6 4 8 3 9 78 10 75 11 77 12 76 13
REMARK SMILES IDX 2 14 1 15 79 16 80 17 85 18 81 19 84 20 86 21 82 22 83 23
REMARK SMILES IDX 11 24 12 25 13 26 14 28 15 29 16 30 74 31 17 32 73 33 18 34
REMARK SMILES IDX 19 35 20 36 67 37 21 38 72 39 66 40 68 41 22 42 71 43 65 44
REMARK SMILES IDX 64 45 23 47 53 48 34 49 52 50 35 51 38 52 51 53 69 54 36 55
REMARK SMILES IDX 37 56 50 58 70 59 39 60 24 61 25 62 33 63 26 64 32 65 27 66
REMARK SMILES IDX 28 67 29 68 30 69 31 70 54 71 55 72 63 73 56 74 62 75 57 76
REMARK SMILES IDX 58 77 59 78 60 79 61 80 40 81 41 82 49 83 42 84 48 85 43 86
REMARK SMILES IDX 44 87 45 88 46 89 47 90
REMARK H PARENT 7 7 12 27 68 46 38 57
REMARK Flexibility Score: inf
ROOT
ATOM      1  C   UNL A   1      33.862  28.674  25.766  1.00  0.00     0.023 C 
ENDROOT
BRANCH   1   2
ATOM      2  C   UNL A   1      33.049  29.486  24.764  1.00  0.00     0.023 C 
BRANCH   2   3
ATOM      3  C   UNL A   1      33.017  28.967  23.337  1.00  0.00     0.116 C 
BRANCH   3   4
ATOM      4  N   UNL A   1      31.779  28.444  22.835  1.00  0.00    -0.352 N 
ATOM      5  C   UNL A   1      31.084  27.351  23.303  1.00  0.00     0.255 C 
ATOM      6  O   UNL A   1      29.959  27.148  22.838  1.00  0.00    -0.269 OA
ATOM      7  H   UNL A   1      31.383  28.919  22.070  1.00  0.00     0.163 HD
BRANCH   5   8
ATOM      8  C   UNL A   1      31.659  26.330  24.242  1.00  0.00     0.082 A 
ATOM      9  C   UNL A   1      32.775  25.484  24.033  1.00  0.00     0.139 A 
ATOM     10  C   UNL A   1      33.217  24.620  25.078  1.00  0.00     0.025 A 
ATOM     11  C   UNL A   1      30.996  26.288  25.487  1.00  0.00     0.018 A 
ATOM     12  C   UNL A   1      32.511  24.612  26.299  1.00  0.00     0.012 A 
ATOM     13  C   UNL A   1      31.412  25.435  26.505  1.00  0.00     0.002 A 
BRANCH   9  14
ATOM     14  O   UNL A   1      33.490  25.604  22.861  1.00  0.00    -0.495 OA
ATOM     15  C   UNL A   1      32.974  24.855  21.749  1.00  0.00     0.278 C 
ENDBRANCH   9  14
BRANCH  10  16
ATOM     16  C   UNL A   1      34.362  23.692  24.943  1.00  0.00    -0.011 A 
ATOM     17  C   UNL A   1      35.622  24.132  25.408  1.00  0.00     0.012 A 
ATOM     18  C   UNL A   1      34.247  22.366  24.468  1.00  0.00    -0.043 A 
ATOM     19  C   UNL A   1      36.727  23.277  25.479  1.00  0.00    -0.050 A 
ATOM     20  C   UNL A   1      35.356  21.507  24.560  1.00  0.00     0.004 A 
ATOM     21  C   UNL A   1      32.944  21.783  23.985  1.00  0.00     0.045 C 
ATOM     22  C   UNL A   1      38.027  23.784  26.028  1.00  0.00     0.044 C 
ATOM     23  C   UNL A   1      36.578  21.954  25.066  1.00  0.00     0.004 A 
ENDBRANCH  10  16
ENDBRANCH   5   8
ENDBRANCH   3   4
ENDBRANCH   2   3
ENDBRANCH   1   2
BRANCH   1  24
ATOM     24  C   UNL A   1      33.530  28.862  27.245  1.00  0.00     0.116 C 
BRANCH  24  25
ATOM     25  N   UNL A   1      33.679  30.228  27.733  1.00  0.00    -0.352 N 
ATOM     26  C   UNL A   1      34.760  30.875  28.297  1.00  0.00     0.251 C 
ATOM     27  H   UNL A   1      32.871  30.784  27.646  1.00  0.00     0.163 HD
ATOM     28  O   UNL A   1      34.642  32.027  28.692  1.00  0.00    -0.269 OA
BRANCH  26  29
ATOM     29  C   UNL A   1      36.045  30.159  28.475  1.00  0.00     0.039 A 
ATOM     30  C   UNL A   1      36.993  30.202  27.450  1.00  0.00     0.014 A 
ATOM     31  C   UNL A   1      36.336  29.486  29.661  1.00  0.00     0.014 A 
ATOM     32  C   UNL A   1      38.274  29.686  27.666  1.00  0.00     0.010 A 
ATOM     33  C   UNL A   1      37.640  29.073  29.916  1.00  0.00     0.010 A 
ATOM     34  C   UNL A   1      38.630  29.181  28.928  1.00  0.00    -0.014 A 
BRANCH  34  35
ATOM     35  C   UNL A   1      40.029  28.788  29.250  1.00  0.00     0.031 A 
ATOM     36  C   UNL A   1      40.959  29.770  29.914  1.00  0.00     0.074 A 
ATOM     37  C   UNL A   1      40.495  27.585  28.853  1.00  0.00     0.049 A 
ATOM     38  N   UNL A   1      42.235  29.647  30.180  1.00  0.00    -0.248 NA
ATOM     39  C   UNL A   1      40.391  31.072  30.295  1.00  0.00     0.031 C 
ATOM     40  C   UNL A   1      39.718  26.560  28.150  1.00  0.00     0.029 A 
ATOM     41  N   UNL A   1      41.741  27.022  28.978  1.00  0.00    -0.354 N 
ATOM     42  C   UNL A   1      42.627  30.865  30.721  1.00  0.00     0.074 A 
ATOM     43  C   UNL A   1      41.467  31.728  30.704  1.00  0.00     0.031 C 
ATOM     44  C   UNL A   1      40.491  25.482  27.945  1.00  0.00     0.029 A 
ATOM     45  C   UNL A   1      41.831  25.752  28.455  1.00  0.00     0.049 A 
ATOM     46  H   UNL A   1      42.500  27.483  29.402  1.00  0.00     0.167 HD
ATOM     47  C   UNL A   1      43.837  31.230  31.208  1.00  0.00     0.031 A 
ATOM     48  C   UNL A   1      42.872  24.900  28.390  1.00  0.00     0.031 A 
ATOM     49  C   UNL A   1      44.981  30.360  31.260  1.00  0.00     0.049 A 
ATOM     50  C   UNL A   1      44.202  25.319  28.955  1.00  0.00     0.074 A 
ATOM     51  C   UNL A   1      46.226  30.606  31.814  1.00  0.00     0.029 A 
ATOM     52  N   UNL A   1      45.022  29.075  30.740  1.00  0.00    -0.354 N 
ATOM     53  N   UNL A   1      44.531  26.450  29.532  1.00  0.00    -0.248 NA
ATOM     54  C   UNL A   1      45.298  24.344  28.866  1.00  0.00     0.031 C 
ATOM     55  C   UNL A   1      47.033  29.486  31.589  1.00  0.00     0.029 A 
ATOM     56  C   UNL A   1      46.276  28.524  30.940  1.00  0.00     0.049 A 
ATOM     57  H   UNL A   1      44.270  28.622  30.295  1.00  0.00     0.167 HD
ATOM     58  C   UNL A   1      45.863  26.310  29.903  1.00  0.00     0.074 A 
ATOM     59  C   UNL A   1      46.277  24.984  29.493  1.00  0.00     0.031 C 
ATOM     60  C   UNL A   1      46.672  27.201  30.529  1.00  0.00     0.031 A 
BRANCH  47  61
ATOM     61  C   UNL A   1      43.984  32.639  31.721  1.00  0.00    -0.014 A 
ATOM     62  C   UNL A   1      43.676  32.964  33.055  1.00  0.00     0.010 A 
ATOM     63  C   UNL A   1      44.455  33.648  30.862  1.00  0.00     0.010 A 
ATOM     64  C   UNL A   1      43.786  34.282  33.505  1.00  0.00     0.020 A 
ATOM     65  C   UNL A   1      44.594  34.963  31.317  1.00  0.00     0.020 A 
ATOM     66  C   UNL A   1      44.237  35.275  32.630  1.00  0.00     0.054 A 
BRANCH  66  67
ATOM     67  S   UNL A   1      44.377  36.977  33.242  1.00  0.00     0.124 S 
ATOM     68  O   UNL A   1      43.879  36.845  34.609  1.00  0.00    -0.237 OA
ATOM     69  O   UNL A   1      45.807  37.247  33.118  1.00  0.00    -0.237 OA
ATOM     70  O   UNL A   1      43.522  37.742  32.337  1.00  0.00    -0.744 OA
ENDBRANCH  66  67
ENDBRANCH  47  61
BRANCH  48  71
ATOM     71  C   UNL A   1      42.692  23.545  27.798  1.00  0.00    -0.014 A 
ATOM     72  C   UNL A   1      43.134  23.285  26.487  1.00  0.00     0.010 A 
ATOM     73  C   UNL A   1      42.096  22.509  28.538  1.00  0.00     0.010 A 
ATOM     74  C   UNL A   1      42.968  22.017  25.923  1.00  0.00     0.020 A 
ATOM     75  C   UNL A   1      41.951  21.232  27.984  1.00  0.00     0.020 A 
ATOM     76  C   UNL A   1      42.380  20.998  26.676  1.00  0.00     0.054 A 
BRANCH  76  77
ATOM     77  S   UNL A   1      42.226  19.345  25.940  1.00  0.00     0.124 S 
ATOM     78  O   UNL A   1      40.788  19.243  25.721  1.00  0.00    -0.237 OA
ATOM     79  O   UNL A   1      43.044  19.458  24.735  1.00  0.00    -0.237 OA
ATOM     80  O   UNL A   1      42.769  18.463  26.970  1.00  0.00    -0.744 OA
ENDBRANCH  76  77
ENDBRANCH  48  71
BRANCH  60  81
ATOM     81  C   UNL A   1      48.074  26.760  30.847  1.00  0.00    -0.014 A 
ATOM     82  C   UNL A   1      49.139  27.025  29.967  1.00  0.00     0.010 A 
ATOM     83  C   UNL A   1      48.338  26.121  32.072  1.00  0.00     0.010 A 
ATOM     84  C   UNL A   1      50.439  26.632  30.297  1.00  0.00     0.020 A 
ATOM     85  C   UNL A   1      49.640  25.752  32.416  1.00  0.00     0.020 A 
ATOM     86  C   UNL A   1      50.682  25.999  31.519  1.00  0.00     0.054 A 
BRANCH  86  87
ATOM     87  S   UNL A   1      52.385  25.543  31.946  1.00  0.00     0.124 S 
ATOM     88  O   UNL A   1      53.104  25.872  30.719  1.00  0.00    -0.237 OA
ATOM     89  O   UNL A   1      52.671  26.404  33.092  1.00  0.00    -0.237 OA
ATOM     90  O   UNL A   1      52.295  24.118  32.254  1.00  0.00    -0.744 OA
ENDBRANCH  86  87
ENDBRANCH  60  81
ENDBRANCH  34  35
ENDBRANCH  26  29
ENDBRANCH  24  25
ENDBRANCH   1  24
TORSDOF 16
ENDMDL
MODEL 2
REMARK VINA RESULT:     -10.9      4.594     10.413
REMARK SMILES COc1c(C(=O)NCCCCNC(=O)c2ccc(-c3c4nc(c(-c5ccc(S(=O)(=O)[O-])cc5)c5ccc([nH]5)c(-c5ccc(S(=O)(=O)[O-])cc5)c5nc(c(-c6ccc(S(=O)(=O)[O-])cc6)c6ccc3[nH]6)C=C5)C=C4)cc2)cccc1-c1cc(C)ccc1C
REMARK SMILES IDX 10 1 9 2 8 3 7 4 5 5 6 6 4 8 3 9 78 10 75 11 77 12 76 13
REMARK SMILES IDX 2 14 1 15 79 16 80 17 85 18 81 19 84 20 86 21 82 22 83 23
REMARK SMILES IDX 11 24 12 25 13 26 14 28 15 29 16 30 74 31 17 32 73 33 18 34
REMARK SMILES IDX 19 35 20 36 67 37 21 38 72 39 66 40 68 41 22 42 71 43 65 44
REMARK SMILES IDX 64 45 23 47 53 48 34 49 52 50 35 51 38 52 51 53 69 54 36 55
REMARK SMILES IDX 37 56 50 58 70 59 39 60 24 61 25 62 33 63 26 64 32 65 27 66
REMARK SMILES IDX 28 67 29 68 30 69 31 70 54 71 55 72 63 73 56 74 62 75 57 76
REMARK SMILES IDX 58 77 59 78 60 79 61 80 40 81 41 82 49 83 42 84 48 85 43 86
REMARK SMILES IDX 44 87 45 88 46 89 47 90
REMARK H PARENT 7 7 12 27 68 46 38 57
REMARK Flexibility Score: inf
ROOT
ATOM      1  C   UNL A   1      37.644  23.217  25.334  1.00  0.00     0.023 C 
ENDROOT
BRANCH   1   2
ATOM      2  C   UNL A   1      36.523  22.259  25.721  1.00  0.00     0.023 C 
BRANCH   2   3
ATOM      3  C   UNL A   1      36.032  21.316  24.637  1.00  0.00     0.116 C 
BRANCH   3   4
ATOM      4  N   UNL A   1      34.733  20.725  24.791  1.00  0.00    -0.352 N 
ATOM      5  C   UNL A   1      33.514  21.302  24.510  1.00  0.00     0.255 C 
ATOM      6  O   UNL A   1      32.515  20.580  24.564  1.00  0.00    -0.269 OA
ATOM      7  H   UNL A   1      34.712  19.804  25.137  1.00  0.00     0.163 HD
BRANCH   5   8
ATOM      8  C   UNL A   1      33.317  22.771  24.271  1.00  0.00     0.082 A 
ATOM      9  C   UNL A   1      33.113  23.792  25.231  1.00  0.00     0.139 A 
ATOM     10  C   UNL A   1      33.013  25.151  24.813  1.00  0.00     0.025 A 
ATOM     11  C   UNL A   1      33.405  23.126  22.908  1.00  0.00     0.018 A 
ATOM     12  C   UNL A   1      33.099  25.448  23.437  1.00  0.00     0.012 A 
ATOM     13  C   UNL A   1      33.292  24.449  22.492  1.00  0.00     0.002 A 
BRANCH   9  14
ATOM     14  O   UNL A   1      33.139  23.460  26.568  1.00  0.00    -0.495 OA
ATOM     15  C   UNL A   1      31.895  22.980  27.104  1.00  0.00     0.278 C 
ENDBRANCH   9  14
BRANCH  10  16
ATOM     16  C   UNL A   1      32.784  26.279  25.743  1.00  0.00    -0.011 A 
ATOM     17  C   UNL A   1      33.903  27.056  26.122  1.00  0.00     0.012 A 
ATOM     18  C   UNL A   1      31.506  26.678  26.193  1.00  0.00    -0.043 A 
ATOM     19  C   UNL A   1      33.771  28.237  26.860  1.00  0.00    -0.050 A 
ATOM     20  C   UNL A   1      31.379  27.876  26.919  1.00  0.00     0.004 A 
ATOM     21  C   UNL A   1      30.243  25.946  25.819  1.00  0.00     0.045 C 
ATOM     22  C   UNL A   1      34.988  29.048  27.191  1.00  0.00     0.044 C 
ATOM     23  C   UNL A   1      32.495  28.650  27.241  1.00  0.00     0.004 A 
ENDBRANCH  10  16
ENDBRANCH   5   8
ENDBRANCH   3   4
ENDBRANCH   2   3
ENDBRANCH   1   2
BRANCH   1  24
ATOM     24  C   UNL A   1      38.471  23.813  26.471  1.00  0.00     0.116 C 
BRANCH  24  25
ATOM     25  N   UNL A   1      39.915  23.714  26.291  1.00  0.00    -0.352 N 
ATOM     26  C   UNL A   1      40.942  24.504  26.767  1.00  0.00     0.251 C 
ATOM     27  H   UNL A   1      40.207  22.957  25.734  1.00  0.00     0.163 HD
ATOM     28  O   UNL A   1      42.096  24.265  26.439  1.00  0.00    -0.269 OA
BRANCH  26  29
ATOM     29  C   UNL A   1      40.645  25.673  27.628  1.00  0.00     0.039 A 
ATOM     30  C   UNL A   1      39.607  25.582  28.558  1.00  0.00     0.014 A 
ATOM     31  C   UNL A   1      41.409  26.836  27.552  1.00  0.00     0.014 A 
ATOM     32  C   UNL A   1      39.425  26.602  29.497  1.00  0.00     0.010 A 
ATOM     33  C   UNL A   1      41.301  27.797  28.552  1.00  0.00     0.010 A 
ATOM     34  C   UNL A   1      40.317  27.686  29.547  1.00  0.00    -0.014 A 
BRANCH  34  35
ATOM     35  C   UNL A   1      40.264  28.696  30.638  1.00  0.00     0.031 A 
ATOM     36  C   UNL A   1      41.167  28.567  31.837  1.00  0.00     0.074 A 
ATOM     37  C   UNL A   1      39.334  29.673  30.601  1.00  0.00     0.049 A 
ATOM     38  N   UNL A   1      41.196  29.286  32.930  1.00  0.00    -0.248 NA
ATOM     39  C   UNL A   1      42.139  27.462  31.822  1.00  0.00     0.031 C 
ATOM     40  C   UNL A   1      38.358  29.881  29.528  1.00  0.00     0.029 A 
ATOM     41  N   UNL A   1      39.049  30.674  31.498  1.00  0.00    -0.354 N 
ATOM     42  C   UNL A   1      42.157  28.699  33.744  1.00  0.00     0.074 A 
ATOM     43  C   UNL A   1      42.656  27.540  33.040  1.00  0.00     0.031 C 
ATOM     44  C   UNL A   1      37.615  30.964  29.808  1.00  0.00     0.029 A 
ATOM     45  C   UNL A   1      38.024  31.501  31.101  1.00  0.00     0.049 A 
ATOM     46  H   UNL A   1      39.535  30.790  32.347  1.00  0.00     0.167 HD
ATOM     47  C   UNL A   1      42.601  29.098  34.960  1.00  0.00     0.031 A 
ATOM     48  C   UNL A   1      37.470  32.569  31.708  1.00  0.00     0.031 A 
ATOM     49  C   UNL A   1      42.132  30.273  35.644  1.00  0.00     0.049 A 
ATOM     50  C   UNL A   1      37.993  33.006  33.049  1.00  0.00     0.074 A 
ATOM     51  C   UNL A   1      42.581  30.811  36.838  1.00  0.00     0.029 A 
ATOM     52  N   UNL A   1      41.108  31.094  35.196  1.00  0.00    -0.354 N 
ATOM     53  N   UNL A   1      38.956  32.480  33.767  1.00  0.00    -0.248 NA
ATOM     54  C   UNL A   1      37.359  34.183  33.656  1.00  0.00     0.031 C 
ATOM     55  C   UNL A   1      41.798  31.932  37.134  1.00  0.00     0.029 A 
ATOM     56  C   UNL A   1      40.896  32.121  36.100  1.00  0.00     0.049 A 
ATOM     57  H   UNL A   1      40.607  30.965  34.358  1.00  0.00     0.167 HD
ATOM     58  C   UNL A   1      39.065  33.282  34.897  1.00  0.00     0.074 A 
ATOM     59  C   UNL A   1      38.076  34.332  34.764  1.00  0.00     0.031 C 
ATOM     60  C   UNL A   1      39.910  33.161  35.951  1.00  0.00     0.031 A 
BRANCH  47  61
ATOM     61  C   UNL A   1      43.649  28.249  35.630  1.00  0.00    -0.014 A 
ATOM     62  C   UNL A   1      43.292  27.206  36.505  1.00  0.00     0.010 A 
ATOM     63  C   UNL A   1      45.011  28.483  35.364  1.00  0.00     0.010 A 
ATOM     64  C   UNL A   1      44.277  26.450  37.144  1.00  0.00     0.020 A 
ATOM     65  C   UNL A   1      46.000  27.708  35.980  1.00  0.00     0.020 A 
ATOM     66  C   UNL A   1      45.626  26.711  36.883  1.00  0.00     0.054 A 
BRANCH  66  67
ATOM     67  S   UNL A   1      46.885  25.710  37.720  1.00  0.00     0.124 S 
ATOM     68  O   UNL A   1      47.938  26.694  37.962  1.00  0.00    -0.237 OA
ATOM     69  O   UNL A   1      46.182  25.237  38.910  1.00  0.00    -0.237 OA
ATOM     70  O   UNL A   1      47.212  24.675  36.741  1.00  0.00    -0.744 OA
ENDBRANCH  66  67
ENDBRANCH  47  61
BRANCH  48  71
ATOM     71  C   UNL A   1      36.379  33.327  31.035  1.00  0.00    -0.014 A 
ATOM     72  C   UNL A   1      35.054  33.211  31.494  1.00  0.00     0.010 A 
ATOM     73  C   UNL A   1      36.655  34.175  29.948  1.00  0.00     0.010 A 
ATOM     74  C   UNL A   1      34.023  33.917  30.868  1.00  0.00     0.020 A 
ATOM     75  C   UNL A   1      35.628  34.903  29.335  1.00  0.00     0.020 A 
ATOM     76  C   UNL A   1      34.317  34.761  29.794  1.00  0.00     0.054 A 
BRANCH  76  77
ATOM     77  S   UNL A   1      32.969  35.710  29.034  1.00  0.00     0.124 S 
ATOM     78  O   UNL A   1      32.379  34.729  28.130  1.00  0.00    -0.237 OA
ATOM     79  O   UNL A   1      32.154  36.080  30.188  1.00  0.00    -0.237 OA
ATOM     80  O   UNL A   1      33.661  36.824  28.388  1.00  0.00    -0.744 OA
ENDBRANCH  76  77
ENDBRANCH  48  71
BRANCH  60  81
ATOM     81  C   UNL A   1      39.832  34.210  37.026  1.00  0.00    -0.014 A 
ATOM     82  C   UNL A   1      40.483  35.448  36.885  1.00  0.00     0.010 A 
ATOM     83  C   UNL A   1      39.048  33.973  38.170  1.00  0.00     0.010 A 
ATOM     84  C   UNL A   1      40.373  36.420  37.883  1.00  0.00     0.020 A 
ATOM     85  C   UNL A   1      38.914  34.951  39.156  1.00  0.00     0.020 A 
ATOM     86  C   UNL A   1      39.589  36.166  39.013  1.00  0.00     0.054 A 
BRANCH  86  87
ATOM     87  S   UNL A   1      39.421  37.461  40.272  1.00  0.00     0.124 S 
ATOM     88  O   UNL A   1      38.794  36.735  41.372  1.00  0.00    -0.237 OA
ATOM     89  O   UNL A   1      40.805  37.873  40.496  1.00  0.00    -0.237 OA
ATOM     90  O   UNL A   1      38.577  38.464  39.625  1.00  0.00    -0.744 OA
ENDBRANCH  86  87
ENDBRANCH  60  81
ENDBRANCH  34  35
ENDBRANCH  26  29
ENDBRANCH  24  25
ENDBRANCH   1  24
TORSDOF 16
ENDMDL
MODEL 3
REMARK VINA RESULT:     -10.6      1.461      2.393
REMARK SMILES COc1c(C(=O)NCCCCNC(=O)c2ccc(-c3c4nc(c(-c5ccc(S(=O)(=O)[O-])cc5)c5ccc([nH]5)c(-c5ccc(S(=O)(=O)[O-])cc5)c5nc(c(-c6ccc(S(=O)(=O)[O-])cc6)c6ccc3[nH]6)C=C5)C=C4)cc2)cccc1-c1cc(C)ccc1C
REMARK SMILES IDX 10 1 9 2 8 3 7 4 5 5 6 6 4 8 3 9 78 10 75 11 77 12 76 13
REMARK SMILES IDX 2 14 1 15 79 16 80 17 85 18 81 19 84 20 86 21 82 22 83 23
REMARK SMILES IDX 11 24 12 25 13 26 14 28 15 29 16 30 74 31 17 32 73 33 18 34
REMARK SMILES IDX 19 35 20 36 67 37 21 38 72 39 66 40 68 41 22 42 71 43 65 44
REMARK SMILES IDX 64 45 23 47 53 48 34 49 52 50 35 51 38 52 51 53 69 54 36 55
REMARK SMILES IDX 37 56 50 58 70 59 39 60 24 61 25 62 33 63 26 64 32 65 27 66
REMARK SMILES IDX 28 67 29 68 30 69 31 70 54 71 55 72 63 73 56 74 62 75 57 76
REMARK SMILES IDX 58 77 59 78 60 79 61 80 40 81 41 82 49 83 42 84 48 85 43 86
REMARK SMILES IDX 44 87 45 88 46 89 47 90
REMARK H PARENT 7 7 12 27 68 46 38 57
REMARK Flexibility Score: inf
ROOT
ATOM      1  C   UNL A   1      32.023  28.280  26.817  1.00  0.00     0.023 C 
ENDROOT
BRANCH   1   2
ATOM      2  C   UNL A   1      31.930  26.798  26.466  1.00  0.00     0.023 C 
BRANCH   2   3
ATOM      3  C   UNL A   1      30.598  26.314  25.919  1.00  0.00     0.116 C 
BRANCH   3   4
ATOM      4  N   UNL A   1      29.939  25.237  26.600  1.00  0.00    -0.352 N 
ATOM      5  C   UNL A   1      30.262  23.898  26.553  1.00  0.00     0.255 C 
ATOM      6  O   UNL A   1      29.671  23.141  27.329  1.00  0.00    -0.269 OA
ATOM      7  H   UNL A   1      29.170  25.482  27.163  1.00  0.00     0.163 HD
BRANCH   5   8
ATOM      8  C   UNL A   1      31.186  23.293  25.536  1.00  0.00     0.082 A 
ATOM      9  C   UNL A   1      32.305  22.455  25.764  1.00  0.00     0.139 A 
ATOM     10  C   UNL A   1      33.028  21.918  24.658  1.00  0.00     0.025 A 
ATOM     11  C   UNL A   1      30.818  23.590  24.207  1.00  0.00     0.018 A 
ATOM     12  C   UNL A   1      32.620  22.256  23.351  1.00  0.00     0.012 A 
ATOM     13  C   UNL A   1      31.528  23.083  23.124  1.00  0.00     0.002 A 
BRANCH   9  14
ATOM     14  O   UNL A   1      32.598  22.075  27.056  1.00  0.00    -0.495 OA
ATOM     15  C   UNL A   1      33.528  22.923  27.748  1.00  0.00     0.278 C 
ENDBRANCH   9  14
BRANCH  10  16
ATOM     16  C   UNL A   1      34.217  21.049  24.802  1.00  0.00    -0.011 A 
ATOM     17  C   UNL A   1      34.019  19.651  24.732  1.00  0.00     0.012 A 
ATOM     18  C   UNL A   1      35.538  21.537  24.907  1.00  0.00    -0.043 A 
ATOM     19  C   UNL A   1      35.091  18.752  24.690  1.00  0.00    -0.050 A 
ATOM     20  C   UNL A   1      36.610  20.629  24.845  1.00  0.00     0.004 A 
ATOM     21  C   UNL A   1      35.864  23.007  24.950  1.00  0.00     0.045 C 
ATOM     22  C   UNL A   1      34.824  17.281  24.565  1.00  0.00     0.044 C 
ATOM     23  C   UNL A   1      36.390  19.255  24.730  1.00  0.00     0.004 A 
ENDBRANCH  10  16
ENDBRANCH   5   8
ENDBRANCH   3   4
ENDBRANCH   2   3
ENDBRANCH   1   2
BRANCH   1  24
ATOM     24  C   UNL A   1      33.422  28.887  26.897  1.00  0.00     0.116 C 
BRANCH  24  25
ATOM     25  N   UNL A   1      33.480  30.205  27.518  1.00  0.00    -0.352 N 
ATOM     26  C   UNL A   1      34.492  30.832  28.216  1.00  0.00     0.251 C 
ATOM     27  H   UNL A   1      32.657  30.738  27.425  1.00  0.00     0.163 HD
ATOM     28  O   UNL A   1      34.299  31.936  28.707  1.00  0.00    -0.269 OA
BRANCH  26  29
ATOM     29  C   UNL A   1      35.790  30.148  28.421  1.00  0.00     0.039 A 
ATOM     30  C   UNL A   1      36.754  30.209  27.412  1.00  0.00     0.014 A 
ATOM     31  C   UNL A   1      36.075  29.487  29.615  1.00  0.00     0.014 A 
ATOM     32  C   UNL A   1      38.043  29.724  27.654  1.00  0.00     0.010 A 
ATOM     33  C   UNL A   1      37.384  29.108  29.896  1.00  0.00     0.010 A 
ATOM     34  C   UNL A   1      38.389  29.234  28.925  1.00  0.00    -0.014 A 
BRANCH  34  35
ATOM     35  C   UNL A   1      39.791  28.876  29.273  1.00  0.00     0.031 A 
ATOM     36  C   UNL A   1      40.684  29.881  29.953  1.00  0.00     0.074 A 
ATOM     37  C   UNL A   1      40.294  27.685  28.886  1.00  0.00     0.049 A 
ATOM     38  N   UNL A   1      41.957  29.789  30.243  1.00  0.00    -0.248 NA
ATOM     39  C   UNL A   1      40.077  31.169  30.323  1.00  0.00     0.031 C 
ATOM     40  C   UNL A   1      39.556  26.641  28.169  1.00  0.00     0.029 A 
ATOM     41  N   UNL A   1      41.551  27.152  29.034  1.00  0.00    -0.354 N 
ATOM     42  C   UNL A   1      42.309  31.017  30.791  1.00  0.00     0.074 A 
ATOM     43  C   UNL A   1      41.128  31.851  30.752  1.00  0.00     0.031 C 
ATOM     44  C   UNL A   1      40.359  25.582  27.979  1.00  0.00     0.029 A 
ATOM     45  C   UNL A   1      41.682  25.885  28.515  1.00  0.00     0.049 A 
ATOM     46  H   UNL A   1      42.291  27.632  29.473  1.00  0.00     0.167 HD
ATOM     47  C   UNL A   1      43.500  31.412  31.300  1.00  0.00     0.031 A 
ATOM     48  C   UNL A   1      42.745  25.059  28.469  1.00  0.00     0.031 A 
ATOM     49  C   UNL A   1      44.664  30.571  31.374  1.00  0.00     0.049 A 
ATOM     50  C   UNL A   1      44.053  25.511  29.059  1.00  0.00     0.074 A 
ATOM     51  C   UNL A   1      45.891  30.847  31.952  1.00  0.00     0.029 A 
ATOM     52  N   UNL A   1      44.747  29.287  30.856  1.00  0.00    -0.354 N 
ATOM     53  N   UNL A   1      44.344  26.650  29.641  1.00  0.00    -0.248 NA
ATOM     54  C   UNL A   1      45.174  24.564  28.991  1.00  0.00     0.031 C 
ATOM     55  C   UNL A   1      46.730  29.748  31.742  1.00  0.00     0.029 A 
ATOM     56  C   UNL A   1      46.010  28.767  31.080  1.00  0.00     0.049 A 
ATOM     57  H   UNL A   1      44.014  28.815  30.397  1.00  0.00     0.167 HD
ATOM     58  C   UNL A   1      45.672  26.544  30.037  1.00  0.00     0.074 A 
ATOM     59  C   UNL A   1      46.125  25.228  29.636  1.00  0.00     0.031 C 
ATOM     60  C   UNL A   1      46.446  27.454  30.678  1.00  0.00     0.031 A 
BRANCH  47  61
ATOM     61  C   UNL A   1      43.602  32.824  31.815  1.00  0.00    -0.014 A 
ATOM     62  C   UNL A   1      43.243  33.146  33.137  1.00  0.00     0.010 A 
ATOM     63  C   UNL A   1      44.083  33.841  30.970  1.00  0.00     0.010 A 
ATOM     64  C   UNL A   1      43.312  34.466  33.588  1.00  0.00     0.020 A 
ATOM     65  C   UNL A   1      44.181  35.159  31.426  1.00  0.00     0.020 A 
ATOM     66  C   UNL A   1      43.774  35.466  32.726  1.00  0.00     0.054 A 
BRANCH  66  67
ATOM     67  S   UNL A   1      43.860  37.171  33.338  1.00  0.00     0.124 S 
ATOM     68  O   UNL A   1      43.779  37.940  32.098  1.00  0.00    -0.237 OA
ATOM     69  O   UNL A   1      42.690  37.260  34.209  1.00  0.00    -0.237 OA
ATOM     70  O   UNL A   1      45.149  37.229  34.024  1.00  0.00    -0.744 OA
ENDBRANCH  66  67
ENDBRANCH  47  61
BRANCH  48  71
ATOM     71  C   UNL A   1      42.610  23.700  27.875  1.00  0.00    -0.014 A 
ATOM     72  C   UNL A   1      42.128  22.634  28.656  1.00  0.00     0.010 A 
ATOM     73  C   UNL A   1      42.947  23.465  26.530  1.00  0.00     0.010 A 
ATOM     74  C   UNL A   1      41.999  21.355  28.108  1.00  0.00     0.020 A 
ATOM     75  C   UNL A   1      42.795  22.191  25.971  1.00  0.00     0.020 A 
ATOM     76  C   UNL A   1      42.331  21.142  26.768  1.00  0.00     0.054 A 
BRANCH  76  77
ATOM     77  S   UNL A   1      42.102  19.484  26.063  1.00  0.00     0.124 S 
ATOM     78  O   UNL A   1      42.895  19.562  24.841  1.00  0.00    -0.237 OA
ATOM     79  O   UNL A   1      42.636  18.619  27.112  1.00  0.00    -0.237 OA
ATOM     80  O   UNL A   1      40.657  19.394  25.870  1.00  0.00    -0.744 OA
ENDBRANCH  76  77
ENDBRANCH  48  71
BRANCH  60  81
ATOM     81  C   UNL A   1      47.853  27.048  31.022  1.00  0.00    -0.014 A 
ATOM     82  C   UNL A   1      48.228  26.774  32.350  1.00  0.00     0.010 A 
ATOM     83  C   UNL A   1      48.797  26.884  29.993  1.00  0.00     0.010 A 
ATOM     84  C   UNL A   1      49.533  26.369  32.643  1.00  0.00     0.020 A 
ATOM     85  C   UNL A   1      50.094  26.454  30.280  1.00  0.00     0.020 A 
ATOM     86  C   UNL A   1      50.458  26.211  31.607  1.00  0.00     0.054 A 
BRANCH  86  87
ATOM     87  S   UNL A   1      52.132  25.637  32.007  1.00  0.00     0.124 S 
ATOM     88  O   UNL A   1      52.916  26.201  30.913  1.00  0.00    -0.237 OA
ATOM     89  O   UNL A   1      52.369  26.230  33.322  1.00  0.00    -0.237 OA
ATOM     90  O   UNL A   1      52.008  24.181  32.001  1.00  0.00    -0.744 OA
ENDBRANCH  86  87
ENDBRANCH  60  81
ENDBRANCH  34  35
ENDBRANCH  26  29
ENDBRANCH  24  25
ENDBRANCH   1  24
TORSDOF 16
ENDMDL
