MODEL 1
REMARK VINA RESULT:     -11.6      0.000      0.000
REMARK SMILES O=C(NCCCCNC(=O)[C@H]1CCCN1S(=O)(=O)c1cccc([N+](=O)[O-])c1)c1ccc(-c2c3nc(c(-c4ccc(S(=O)(=O)[O-])cc4)c4ccc([nH]4)c(-c4ccc(S(=O)(=O)[O-])cc4)c4nc(c(-c5ccc(S(=O)(=O)[O-])cc5)c5ccc2[nH]5)C=C4)C=C3)cc1
REMARK SMILES IDX 5 1 4 2 3 3 1 4 2 5 28 7 29 8 87 9 30 10 86 11 31 12 32 13
REMARK SMILES IDX 33 14 80 15 34 16 85 17 79 18 81 19 35 20 84 21 78 22 77 23
REMARK SMILES IDX 36 25 66 26 47 27 65 28 48 29 51 30 64 31 82 32 49 33 50 34
REMARK SMILES IDX 63 36 83 37 52 38 37 39 38 40 46 41 39 42 45 43 40 44 41 45
REMARK SMILES IDX 42 46 43 47 44 48 67 49 68 50 76 51 69 52 75 53 70 54 71 55
REMARK SMILES IDX 72 56 73 57 74 58 53 59 54 60 62 61 55 62 61 63 56 64 57 65
REMARK SMILES IDX 58 66 59 67 60 68 6 69 7 70 8 71 9 72 10 74 11 75 12 76
REMARK SMILES IDX 15 77 13 78 14 79 16 80 17 81 18 82 19 83 20 84 27 85 21 86
REMARK SMILES IDX 23 87 22 88 24 89 25 90 26 91
REMARK H PARENT 3 6 81 24 51 35 8 73
REMARK Flexibility Score: inf
ROOT
ATOM      1  C   UNL A   1      41.566  22.421  28.088  1.00  0.00     0.023 C 
ENDROOT
BRANCH   1   2
ATOM      2  C   UNL A   1      40.393  23.170  27.467  1.00  0.00     0.116 C 
BRANCH   2   3
ATOM      3  N   UNL A   1      40.773  23.934  26.289  1.00  0.00    -0.352 N 
ATOM      4  O   UNL A   1      41.099  25.782  25.042  1.00  0.00    -0.269 OA
ATOM      5  C   UNL A   1      40.931  25.293  26.155  1.00  0.00     0.251 C 
ATOM      6  H   UNL A   1      40.941  23.405  25.476  1.00  0.00     0.163 HD
BRANCH   5   7
ATOM      7  C   UNL A   1      40.863  26.160  27.352  1.00  0.00     0.039 A 
ATOM      8  C   UNL A   1      39.854  25.984  28.301  1.00  0.00     0.014 A 
ATOM      9  C   UNL A   1      41.817  27.169  27.518  1.00  0.00     0.014 A 
ATOM     10  C   UNL A   1      39.716  26.899  29.340  1.00  0.00     0.010 A 
ATOM     11  C   UNL A   1      41.721  28.040  28.607  1.00  0.00     0.010 A 
ATOM     12  C   UNL A   1      40.652  27.931  29.509  1.00  0.00    -0.014 A 
BRANCH  12  13
ATOM     13  C   UNL A   1      40.528  28.846  30.671  1.00  0.00     0.031 A 
ATOM     14  C   UNL A   1      41.431  28.720  31.867  1.00  0.00     0.074 A 
ATOM     15  C   UNL A   1      39.588  29.812  30.633  1.00  0.00     0.049 A 
ATOM     16  N   UNL A   1      41.459  29.447  32.954  1.00  0.00    -0.248 NA
ATOM     17  C   UNL A   1      42.425  27.636  31.843  1.00  0.00     0.031 C 
ATOM     18  C   UNL A   1      38.641  30.022  29.534  1.00  0.00     0.029 A 
ATOM     19  N   UNL A   1      39.278  30.799  31.533  1.00  0.00    -0.354 N 
ATOM     20  C   UNL A   1      42.453  28.899  33.757  1.00  0.00     0.074 A 
ATOM     21  C   UNL A   1      42.992  27.765  33.036  1.00  0.00     0.031 C 
ATOM     22  C   UNL A   1      37.880  31.090  29.810  1.00  0.00     0.029 A 
ATOM     23  C   UNL A   1      38.244  31.606  31.125  1.00  0.00     0.049 A 
ATOM     24  H   UNL A   1      39.751  30.918  32.388  1.00  0.00     0.167 HD
ATOM     25  C   UNL A   1      42.875  29.304  34.979  1.00  0.00     0.031 A 
ATOM     26  C   UNL A   1      37.637  32.635  31.744  1.00  0.00     0.031 A 
ATOM     27  C   UNL A   1      42.333  30.431  35.691  1.00  0.00     0.049 A 
ATOM     28  C   UNL A   1      38.116  33.059  33.099  1.00  0.00     0.074 A 
ATOM     29  C   UNL A   1      42.725  30.947  36.915  1.00  0.00     0.029 A 
ATOM     30  N   UNL A   1      41.278  31.215  35.249  1.00  0.00    -0.354 N 
ATOM     31  N   UNL A   1      39.090  32.555  33.819  1.00  0.00    -0.248 NA
ATOM     32  C   UNL A   1      37.419  34.190  33.725  1.00  0.00     0.031 C 
ATOM     33  C   UNL A   1      41.876  32.012  37.234  1.00  0.00     0.029 A 
ATOM     34  C   UNL A   1      40.986  32.193  36.187  1.00  0.00     0.049 A 
ATOM     35  H   UNL A   1      40.805  31.096  34.393  1.00  0.00     0.167 HD
ATOM     36  C   UNL A   1      39.128  33.312  34.983  1.00  0.00     0.074 A 
ATOM     37  C   UNL A   1      38.094  34.320  34.861  1.00  0.00     0.031 C 
ATOM     38  C   UNL A   1      39.944  33.180  36.057  1.00  0.00     0.031 A 
BRANCH  25  39
ATOM     39  C   UNL A   1      43.960  28.494  35.641  1.00  0.00    -0.014 A 
ATOM     40  C   UNL A   1      43.654  27.389  36.456  1.00  0.00     0.010 A 
ATOM     41  C   UNL A   1      45.309  28.828  35.419  1.00  0.00     0.010 A 
ATOM     42  C   UNL A   1      44.675  26.663  37.076  1.00  0.00     0.020 A 
ATOM     43  C   UNL A   1      46.334  28.089  36.019  1.00  0.00     0.020 A 
ATOM     44  C   UNL A   1      46.009  27.024  36.862  1.00  0.00     0.054 A 
BRANCH  44  45
ATOM     45  S   UNL A   1      47.317  26.069  37.682  1.00  0.00     0.124 S 
ATOM     46  O   UNL A   1      48.502  26.869  37.380  1.00  0.00    -0.237 OA
ATOM     47  O   UNL A   1      46.895  26.077  39.080  1.00  0.00    -0.237 OA
ATOM     48  O   UNL A   1      47.259  24.767  37.024  1.00  0.00    -0.744 OA
ENDBRANCH  44  45
ENDBRANCH  25  39
BRANCH  26  49
ATOM     49  C   UNL A   1      36.494  33.310  31.074  1.00  0.00    -0.014 A 
ATOM     50  C   UNL A   1      35.258  33.447  31.728  1.00  0.00     0.010 A 
ATOM     51  C   UNL A   1      36.666  33.882  29.800  1.00  0.00     0.010 A 
ATOM     52  C   UNL A   1      34.214  34.148  31.119  1.00  0.00     0.020 A 
ATOM     53  C   UNL A   1      35.632  34.604  29.200  1.00  0.00     0.020 A 
ATOM     54  C   UNL A   1      34.409  34.727  29.862  1.00  0.00     0.054 A 
BRANCH  54  55
ATOM     55  S   UNL A   1      33.071  35.710  29.128  1.00  0.00     0.124 S 
ATOM     56  O   UNL A   1      32.329  36.138  30.309  1.00  0.00    -0.237 OA
ATOM     57  O   UNL A   1      33.799  36.761  28.421  1.00  0.00    -0.237 OA
ATOM     58  O   UNL A   1      32.382  34.753  28.264  1.00  0.00    -0.744 OA
ENDBRANCH  54  55
ENDBRANCH  26  49
BRANCH  38  59
ATOM     59  C   UNL A   1      39.757  34.159  37.183  1.00  0.00    -0.014 A 
ATOM     60  C   UNL A   1      40.113  35.510  37.034  1.00  0.00     0.010 A 
ATOM     61  C   UNL A   1      39.174  33.730  38.389  1.00  0.00     0.010 A 
ATOM     62  C   UNL A   1      39.916  36.412  38.082  1.00  0.00     0.020 A 
ATOM     63  C   UNL A   1      38.954  34.633  39.432  1.00  0.00     0.020 A 
ATOM     64  C   UNL A   1      39.339  35.967  39.276  1.00  0.00     0.054 A 
BRANCH  64  65
ATOM     65  S   UNL A   1      39.051  37.163  40.608  1.00  0.00     0.124 S 
ATOM     66  O   UNL A   1      38.259  38.186  39.932  1.00  0.00    -0.237 OA
ATOM     67  O   UNL A   1      38.337  36.370  41.606  1.00  0.00    -0.237 OA
ATOM     68  O   UNL A   1      40.399  37.576  40.999  1.00  0.00    -0.744 OA
ENDBRANCH  64  65
ENDBRANCH  38  59
ENDBRANCH  12  13
ENDBRANCH   5   7
ENDBRANCH   2   3
ENDBRANCH   1   2
BRANCH   1  69
ATOM     69  C   UNL A   1      42.456  23.258  29.007  1.00  0.00     0.023 C 
BRANCH  69  70
ATOM     70  C   UNL A   1      43.953  23.038  28.816  1.00  0.00     0.116 C 
BRANCH  70  71
ATOM     71  N   UNL A   1      44.707  24.266  28.869  1.00  0.00    -0.355 N 
ATOM     72  C   UNL A   1      44.991  25.140  27.860  1.00  0.00     0.238 C 
ATOM     73  H   UNL A   1      45.065  24.507  29.754  1.00  0.00     0.163 HD
ATOM     74  O   UNL A   1      45.646  26.144  28.152  1.00  0.00    -0.273 OA
BRANCH  72  75
ATOM     75  C   UNL A   1      44.498  24.860  26.422  1.00  0.00     0.162 C 
ATOM     76  C   UNL A   1      44.795  26.055  25.517  1.00  0.00     0.032 C 
ATOM     77  N   UNL A   1      45.289  23.739  25.805  1.00  0.00    -0.185 NA
ATOM     78  C   UNL A   1      46.248  25.867  25.112  1.00  0.00     0.019 C 
ATOM     79  C   UNL A   1      46.562  24.391  25.342  1.00  0.00     0.103 C 
BRANCH  77  80
ATOM     80  S   UNL A   1      44.535  22.817  24.574  1.00  0.00     0.244 S 
ATOM     81  O   UNL A   1      43.106  23.026  24.646  1.00  0.00    -0.207 OA
ATOM     82  O   UNL A   1      45.255  23.058  23.340  1.00  0.00    -0.207 OA
BRANCH  80  83
ATOM     83  C   UNL A   1      44.838  21.119  25.015  1.00  0.00     0.089 A 
ATOM     84  C   UNL A   1      46.117  20.572  24.846  1.00  0.00     0.022 A 
ATOM     85  C   UNL A   1      43.781  20.319  25.458  1.00  0.00     0.107 A 
ATOM     86  C   UNL A   1      46.353  19.232  25.169  1.00  0.00     0.008 A 
ATOM     87  C   UNL A   1      44.045  18.997  25.832  1.00  0.00     0.270 A 
ATOM     88  C   UNL A   1      45.322  18.443  25.682  1.00  0.00     0.086 A 
BRANCH  87  89
ATOM     89  N   UNL A   1      42.982  18.205  26.452  1.00  0.00     0.062 N 
ATOM     90  O   UNL A   1      42.712  18.430  27.638  1.00  0.00    -0.258 OA
ATOM     91  O   UNL A   1      42.407  17.375  25.734  1.00  0.00    -0.258 OA
ENDBRANCH  87  89
ENDBRANCH  80  83
ENDBRANCH  77  80
ENDBRANCH  72  75
ENDBRANCH  70  71
ENDBRANCH  69  70
ENDBRANCH   1  69
TORSDOF 17
ENDMDL
MODEL 2
REMARK VINA RESULT:     -11.1      4.840     11.817
REMARK SMILES O=C(NCCCCNC(=O)[C@H]1CCCN1S(=O)(=O)c1cccc([N+](=O)[O-])c1)c1ccc(-c2c3nc(c(-c4ccc(S(=O)(=O)[O-])cc4)c4ccc([nH]4)c(-c4ccc(S(=O)(=O)[O-])cc4)c4nc(c(-c5ccc(S(=O)(=O)[O-])cc5)c5ccc2[nH]5)C=C4)C=C3)cc1
REMARK SMILES IDX 5 1 4 2 3 3 1 4 2 5 28 7 29 8 87 9 30 10 86 11 31 12 32 13
REMARK SMILES IDX 33 14 80 15 34 16 85 17 79 18 81 19 35 20 84 21 78 22 77 23
REMARK SMILES IDX 36 25 66 26 47 27 65 28 48 29 51 30 64 31 82 32 49 33 50 34
REMARK SMILES IDX 63 36 83 37 52 38 37 39 38 40 46 41 39 42 45 43 40 44 41 45
REMARK SMILES IDX 42 46 43 47 44 48 67 49 68 50 76 51 69 52 75 53 70 54 71 55
REMARK SMILES IDX 72 56 73 57 74 58 53 59 54 60 62 61 55 62 61 63 56 64 57 65
REMARK SMILES IDX 58 66 59 67 60 68 6 69 7 70 8 71 9 72 10 74 11 75 12 76
REMARK SMILES IDX 15 77 13 78 14 79 16 80 17 81 18 82 19 83 20 84 27 85 21 86
REMARK SMILES IDX 23 87 22 88 24 89 25 90 26 91
REMARK H PARENT 3 6 81 24 51 35 8 73
REMARK Flexibility Score: inf
ROOT
ATOM      1  C   UNL A   1      31.730  32.468  26.558  1.00  0.00     0.023 C 
ENDROOT
BRANCH   1   2
ATOM      2  C   UNL A   1      32.732  32.969  27.591  1.00  0.00     0.116 C 
BRANCH   2   3
ATOM      3  N   UNL A   1      32.534  34.369  27.936  1.00  0.00    -0.352 N 
ATOM      4  O   UNL A   1      32.740  36.241  29.172  1.00  0.00    -0.269 OA
ATOM      5  C   UNL A   1      33.147  35.112  28.916  1.00  0.00     0.251 C 
ATOM      6  H   UNL A   1      31.869  34.849  27.392  1.00  0.00     0.163 HD
BRANCH   5   7
ATOM      7  C   UNL A   1      34.275  34.532  29.678  1.00  0.00     0.039 A 
ATOM      8  C   UNL A   1      35.574  34.571  29.167  1.00  0.00     0.014 A 
ATOM      9  C   UNL A   1      34.024  33.931  30.916  1.00  0.00     0.014 A 
ATOM     10  C   UNL A   1      36.596  33.892  29.823  1.00  0.00     0.010 A 
ATOM     11  C   UNL A   1      35.069  33.317  31.612  1.00  0.00     0.010 A 
ATOM     12  C   UNL A   1      36.357  33.266  31.056  1.00  0.00    -0.014 A 
BRANCH  12  13
ATOM     13  C   UNL A   1      37.481  32.616  31.775  1.00  0.00     0.031 A 
ATOM     14  C   UNL A   1      37.964  33.133  33.102  1.00  0.00     0.074 A 
ATOM     15  C   UNL A   1      38.063  31.535  31.218  1.00  0.00     0.049 A 
ATOM     16  N   UNL A   1      38.925  32.671  33.861  1.00  0.00    -0.248 NA
ATOM     17  C   UNL A   1      37.290  34.323  33.642  1.00  0.00     0.031 C 
ATOM     18  C   UNL A   1      37.693  30.952  29.925  1.00  0.00     0.029 A 
ATOM     19  N   UNL A   1      39.079  30.731  31.667  1.00  0.00    -0.354 N 
ATOM     20  C   UNL A   1      38.989  33.523  34.957  1.00  0.00     0.074 A 
ATOM     21  C   UNL A   1      37.981  34.542  34.754  1.00  0.00     0.031 C 
ATOM     22  C   UNL A   1      38.447  29.867  29.702  1.00  0.00     0.029 A 
ATOM     23  C   UNL A   1      39.390  29.709  30.803  1.00  0.00     0.049 A 
ATOM     24  H   UNL A   1      39.541  30.873  32.524  1.00  0.00     0.167 HD
ATOM     25  C   UNL A   1      39.812  33.461  36.032  1.00  0.00     0.031 A 
ATOM     26  C   UNL A   1      40.341  28.759  30.873  1.00  0.00     0.031 A 
ATOM     27  C   UNL A   1      40.814  32.446  36.228  1.00  0.00     0.049 A 
ATOM     28  C   UNL A   1      41.245  28.716  32.067  1.00  0.00     0.074 A 
ATOM     29  C   UNL A   1      41.666  32.273  37.306  1.00  0.00     0.029 A 
ATOM     30  N   UNL A   1      41.106  31.435  35.324  1.00  0.00    -0.354 N 
ATOM     31  N   UNL A   1      41.257  29.505  33.116  1.00  0.00    -0.248 NA
ATOM     32  C   UNL A   1      42.261  27.657  32.092  1.00  0.00     0.031 C 
ATOM     33  C   UNL A   1      42.505  31.188  37.031  1.00  0.00     0.029 A 
ATOM     34  C   UNL A   1      42.143  30.652  35.805  1.00  0.00     0.049 A 
ATOM     35  H   UNL A   1      40.644  31.294  34.466  1.00  0.00     0.167 HD
ATOM     36  C   UNL A   1      42.278  29.033  33.930  1.00  0.00     0.074 A 
ATOM     37  C   UNL A   1      42.846  27.878  33.263  1.00  0.00     0.031 C 
ATOM     38  C   UNL A   1      42.708  29.515  35.122  1.00  0.00     0.031 A 
BRANCH  25  39
ATOM     39  C   UNL A   1      39.684  34.548  37.068  1.00  0.00    -0.014 A 
ATOM     40  C   UNL A   1      40.343  35.782  36.918  1.00  0.00     0.010 A 
ATOM     41  C   UNL A   1      38.867  34.342  38.194  1.00  0.00     0.010 A 
ATOM     42  C   UNL A   1      40.226  36.770  37.900  1.00  0.00     0.020 A 
ATOM     43  C   UNL A   1      38.728  35.337  39.167  1.00  0.00     0.020 A 
ATOM     44  C   UNL A   1      39.428  36.538  39.023  1.00  0.00     0.054 A 
BRANCH  44  45
ATOM     45  S   UNL A   1      39.295  37.834  40.287  1.00  0.00     0.124 S 
ATOM     46  O   UNL A   1      40.564  38.539  40.124  1.00  0.00    -0.237 OA
ATOM     47  O   UNL A   1      38.109  38.574  39.867  1.00  0.00    -0.237 OA
ATOM     48  O   UNL A   1      39.151  37.089  41.534  1.00  0.00    -0.744 OA
ENDBRANCH  44  45
ENDBRANCH  25  39
BRANCH  26  49
ATOM     49  C   UNL A   1      40.481  27.792  29.753  1.00  0.00    -0.014 A 
ATOM     50  C   UNL A   1      39.643  26.668  29.666  1.00  0.00     0.010 A 
ATOM     51  C   UNL A   1      41.414  28.036  28.727  1.00  0.00     0.010 A 
ATOM     52  C   UNL A   1      39.733  25.805  28.571  1.00  0.00     0.020 A 
ATOM     53  C   UNL A   1      41.489  27.190  27.619  1.00  0.00     0.020 A 
ATOM     54  C   UNL A   1      40.651  26.075  27.551  1.00  0.00     0.054 A 
BRANCH  54  55
ATOM     55  S   UNL A   1      40.690  24.994  26.095  1.00  0.00     0.124 S 
ATOM     56  O   UNL A   1      39.286  24.619  25.958  1.00  0.00    -0.237 OA
ATOM     57  O   UNL A   1      41.214  25.878  25.056  1.00  0.00    -0.237 OA
ATOM     58  O   UNL A   1      41.593  23.916  26.495  1.00  0.00    -0.744 OA
ENDBRANCH  54  55
ENDBRANCH  26  49
BRANCH  38  59
ATOM     59  C   UNL A   1      43.843  28.787  35.785  1.00  0.00    -0.014 A 
ATOM     60  C   UNL A   1      45.173  29.210  35.613  1.00  0.00     0.010 A 
ATOM     61  C   UNL A   1      43.572  27.695  36.629  1.00  0.00     0.010 A 
ATOM     62  C   UNL A   1      46.216  28.535  36.252  1.00  0.00     0.020 A 
ATOM     63  C   UNL A   1      44.610  27.031  37.288  1.00  0.00     0.020 A 
ATOM     64  C   UNL A   1      45.928  27.448  37.084  1.00  0.00     0.054 A 
BRANCH  64  65
ATOM     65  S   UNL A   1      47.293  26.614  37.938  1.00  0.00     0.124 S 
ATOM     66  O   UNL A   1      47.003  25.208  37.672  1.00  0.00    -0.237 OA
ATOM     67  O   UNL A   1      48.473  27.151  37.264  1.00  0.00    -0.237 OA
ATOM     68  O   UNL A   1      47.135  27.031  39.330  1.00  0.00    -0.744 OA
ENDBRANCH  64  65
ENDBRANCH  38  59
ENDBRANCH  12  13
ENDBRANCH   5   7
ENDBRANCH   2   3
ENDBRANCH   1   2
BRANCH   1  69
ATOM     69  C   UNL A   1      31.497  30.957  26.559  1.00  0.00     0.023 C 
BRANCH  69  70
ATOM     70  C   UNL A   1      32.635  30.139  27.157  1.00  0.00     0.116 C 
BRANCH  70  71
ATOM     71  N   UNL A   1      32.246  28.784  27.465  1.00  0.00    -0.355 N 
ATOM     72  C   UNL A   1      32.163  27.707  26.632  1.00  0.00     0.238 C 
ATOM     73  H   UNL A   1      32.010  28.614  28.406  1.00  0.00     0.163 HD
ATOM     74  O   UNL A   1      31.820  26.633  27.133  1.00  0.00    -0.273 OA
BRANCH  72  75
ATOM     75  C   UNL A   1      32.493  27.854  25.129  1.00  0.00     0.162 C 
ATOM     76  C   UNL A   1      33.537  26.821  24.711  1.00  0.00     0.032 C 
ATOM     77  N   UNL A   1      31.292  27.508  24.291  1.00  0.00    -0.185 NA
ATOM     78  C   UNL A   1      32.734  25.553  24.464  1.00  0.00     0.019 C 
ATOM     79  C   UNL A   1      31.293  26.005  24.241  1.00  0.00     0.103 C 
BRANCH  77  80
ATOM     80  S   UNL A   1      31.172  28.220  22.738  1.00  0.00     0.244 S 
ATOM     81  O   UNL A   1      32.257  29.162  22.575  1.00  0.00    -0.207 OA
ATOM     82  O   UNL A   1      30.971  27.152  21.779  1.00  0.00    -0.207 OA
BRANCH  80  83
ATOM     83  C   UNL A   1      29.662  29.161  22.774  1.00  0.00     0.089 A 
ATOM     84  C   UNL A   1      28.458  28.536  23.124  1.00  0.00     0.022 A 
ATOM     85  C   UNL A   1      29.673  30.503  22.383  1.00  0.00     0.107 A 
ATOM     86  C   UNL A   1      27.265  29.266  23.131  1.00  0.00     0.008 A 
ATOM     87  C   UNL A   1      28.482  31.236  22.450  1.00  0.00     0.270 A 
ATOM     88  C   UNL A   1      27.275  30.625  22.812  1.00  0.00     0.086 A 
BRANCH  87  89
ATOM     89  N   UNL A   1      28.518  32.678  22.202  1.00  0.00     0.062 N 
ATOM     90  O   UNL A   1      27.899  33.110  21.222  1.00  0.00    -0.258 OA
ATOM     91  O   UNL A   1      29.151  33.372  23.011  1.00  0.00    -0.258 OA
ENDBRANCH  87  89
ENDBRANCH  80  83
ENDBRANCH  77  80
ENDBRANCH  72  75
ENDBRANCH  70  71
ENDBRANCH  69  70
ENDBRANCH   1  69
TORSDOF 17
ENDMDL
MODEL 3
REMARK VINA RESULT:     -11.1      6.623     14.191
REMARK SMILES O=C(NCCCCNC(=O)[C@H]1CCCN1S(=O)(=O)c1cccc([N+](=O)[O-])c1)c1ccc(-c2c3nc(c(-c4ccc(S(=O)(=O)[O-])cc4)c4ccc([nH]4)c(-c4ccc(S(=O)(=O)[O-])cc4)c4nc(c(-c5ccc(S(=O)(=O)[O-])cc5)c5ccc2[nH]5)C=C4)C=C3)cc1
REMARK SMILES IDX 5 1 4 2 3 3 1 4 2 5 28 7 29 8 87 9 30 10 86 11 31 12 32 13
REMARK SMILES IDX 33 14 80 15 34 16 85 17 79 18 81 19 35 20 84 21 78 22 77 23
REMARK SMILES IDX 36 25 66 26 47 27 65 28 48 29 51 30 64 31 82 32 49 33 50 34
REMARK SMILES IDX 63 36 83 37 52 38 37 39 38 40 46 41 39 42 45 43 40 44 41 45
REMARK SMILES IDX 42 46 43 47 44 48 67 49 68 50 76 51 69 52 75 53 70 54 71 55
REMARK SMILES IDX 72 56 73 57 74 58 53 59 54 60 62 61 55 62 61 63 56 64 57 65
REMARK SMILES IDX 58 66 59 67 60 68 6 69 7 70 8 71 9 72 10 74 11 75 12 76
REMARK SMILES IDX 15 77 13 78 14 79 16 80 17 81 18 82 19 83 20 84 27 85 21 86
REMARK SMILES IDX 23 87 22 88 24 89 25 90 26 91
REMARK H PARENT 3 6 81 24 51 35 8 73
REMARK Flexibility Score: inf
ROOT
ATOM      1  C   UNL A   1      34.922  32.235  28.218  1.00  0.00     0.023 C 
ENDROOT
BRANCH   1   2
ATOM      2  C   UNL A   1      36.015  32.438  29.260  1.00  0.00     0.116 C 
BRANCH   2   3
ATOM      3  N   UNL A   1      35.766  31.700  30.489  1.00  0.00    -0.352 N 
ATOM      4  O   UNL A   1      36.090  30.095  32.036  1.00  0.00    -0.269 OA
ATOM      5  C   UNL A   1      36.535  30.727  31.083  1.00  0.00     0.251 C 
ATOM      6  H   UNL A   1      34.932  31.928  30.959  1.00  0.00     0.163 HD
BRANCH   5   7
ATOM      7  C   UNL A   1      37.881  30.428  30.547  1.00  0.00     0.039 A 
ATOM      8  C   UNL A   1      38.089  30.313  29.171  1.00  0.00     0.014 A 
ATOM      9  C   UNL A   1      38.944  30.249  31.436  1.00  0.00     0.014 A 
ATOM     10  C   UNL A   1      39.324  29.886  28.692  1.00  0.00     0.010 A 
ATOM     11  C   UNL A   1      40.205  29.895  30.947  1.00  0.00     0.010 A 
ATOM     12  C   UNL A   1      40.396  29.681  29.573  1.00  0.00    -0.014 A 
BRANCH  12  13
ATOM     13  C   UNL A   1      41.725  29.302  29.030  1.00  0.00     0.031 A 
ATOM     14  C   UNL A   1      42.847  30.299  28.940  1.00  0.00     0.074 A 
ATOM     15  C   UNL A   1      41.916  28.031  28.624  1.00  0.00     0.049 A 
ATOM     16  N   UNL A   1      44.068  30.123  28.503  1.00  0.00    -0.248 NA
ATOM     17  C   UNL A   1      42.562  31.670  29.391  1.00  0.00     0.031 C 
ATOM     18  C   UNL A   1      40.897  26.978  28.646  1.00  0.00     0.029 A 
ATOM     19  N   UNL A   1      43.029  27.407  28.123  1.00  0.00    -0.354 N 
ATOM     20  C   UNL A   1      44.692  31.362  28.601  1.00  0.00     0.074 A 
ATOM     21  C   UNL A   1      43.707  32.285  29.124  1.00  0.00     0.031 C 
ATOM     22  C   UNL A   1      41.441  25.833  28.211  1.00  0.00     0.029 A 
ATOM     23  C   UNL A   1      42.826  26.081  27.826  1.00  0.00     0.049 A 
ATOM     24  H   UNL A   1      43.890  27.865  27.988  1.00  0.00     0.167 HD
ATOM     25  C   UNL A   1      45.967  31.695  28.286  1.00  0.00     0.031 A 
ATOM     26  C   UNL A   1      43.651  25.165  27.286  1.00  0.00     0.031 A 
ATOM     27  C   UNL A   1      46.941  30.772  27.765  1.00  0.00     0.049 A 
ATOM     28  C   UNL A   1      45.054  25.561  26.937  1.00  0.00     0.074 A 
ATOM     29  C   UNL A   1      48.271  31.006  27.457  1.00  0.00     0.029 A 
ATOM     30  N   UNL A   1      46.692  29.441  27.467  1.00  0.00    -0.354 N 
ATOM     31  N   UNL A   1      45.638  26.727  27.083  1.00  0.00    -0.248 NA
ATOM     32  C   UNL A   1      45.911  24.521  26.354  1.00  0.00     0.031 C 
ATOM     33  C   UNL A   1      48.811  29.829  26.928  1.00  0.00     0.029 A 
ATOM     34  C   UNL A   1      47.833  28.847  26.953  1.00  0.00     0.049 A 
ATOM     35  H   UNL A   1      45.830  28.984  27.602  1.00  0.00     0.167 HD
ATOM     36  C   UNL A   1      46.934  26.560  26.615  1.00  0.00     0.074 A 
ATOM     37  C   UNL A   1      47.055  25.175  26.202  1.00  0.00     0.031 C 
ATOM     38  C   UNL A   1      47.933  27.471  26.532  1.00  0.00     0.031 A 
BRANCH  25  39
ATOM     39  C   UNL A   1      46.371  33.136  28.464  1.00  0.00    -0.014 A 
ATOM     40  C   UNL A   1      46.930  33.595  29.671  1.00  0.00     0.010 A 
ATOM     41  C   UNL A   1      46.216  34.038  27.396  1.00  0.00     0.010 A 
ATOM     42  C   UNL A   1      47.281  34.939  29.821  1.00  0.00     0.020 A 
ATOM     43  C   UNL A   1      46.587  35.380  27.535  1.00  0.00     0.020 A 
ATOM     44  C   UNL A   1      47.097  35.826  28.756  1.00  0.00     0.054 A 
BRANCH  44  45
ATOM     45  S   UNL A   1      47.556  37.568  28.978  1.00  0.00     0.124 S 
ATOM     46  O   UNL A   1      49.002  37.473  29.168  1.00  0.00    -0.237 OA
ATOM     47  O   UNL A   1      47.127  38.177  27.723  1.00  0.00    -0.237 OA
ATOM     48  O   UNL A   1      46.799  37.978  30.157  1.00  0.00    -0.744 OA
ENDBRANCH  44  45
ENDBRANCH  25  39
BRANCH  26  49
ATOM     49  C   UNL A   1      43.141  23.793  27.031  1.00  0.00    -0.014 A 
ATOM     50  C   UNL A   1      42.812  23.379  25.729  1.00  0.00     0.010 A 
ATOM     51  C   UNL A   1      43.052  22.869  28.090  1.00  0.00     0.010 A 
ATOM     52  C   UNL A   1      42.405  22.064  25.491  1.00  0.00     0.020 A 
ATOM     53  C   UNL A   1      42.670  21.548  27.850  1.00  0.00     0.020 A 
ATOM     54  C   UNL A   1      42.342  21.155  26.551  1.00  0.00     0.054 A 
BRANCH  54  55
ATOM     55  S   UNL A   1      41.898  19.430  26.206  1.00  0.00     0.124 S 
ATOM     56  O   UNL A   1      40.453  19.519  26.027  1.00  0.00    -0.237 OA
ATOM     57  O   UNL A   1      42.670  19.138  25.001  1.00  0.00    -0.237 OA
ATOM     58  O   UNL A   1      42.341  18.719  27.405  1.00  0.00    -0.744 OA
ENDBRANCH  54  55
ENDBRANCH  26  49
BRANCH  38  59
ATOM     59  C   UNL A   1      49.249  26.997  25.982  1.00  0.00    -0.014 A 
ATOM     60  C   UNL A   1      49.571  27.171  24.625  1.00  0.00     0.010 A 
ATOM     61  C   UNL A   1      50.195  26.413  26.844  1.00  0.00     0.010 A 
ATOM     62  C   UNL A   1      50.806  26.742  24.132  1.00  0.00     0.020 A 
ATOM     63  C   UNL A   1      51.440  26.004  26.360  1.00  0.00     0.020 A 
ATOM     64  C   UNL A   1      51.732  26.159  25.002  1.00  0.00     0.054 A 
BRANCH  64  65
ATOM     65  S   UNL A   1      53.346  25.650  24.351  1.00  0.00     0.124 S 
ATOM     66  O   UNL A   1      53.208  25.953  22.929  1.00  0.00    -0.237 OA
ATOM     67  O   UNL A   1      54.276  26.502  25.088  1.00  0.00    -0.237 OA
ATOM     68  O   UNL A   1      53.419  24.228  24.680  1.00  0.00    -0.744 OA
ENDBRANCH  64  65
ENDBRANCH  38  59
ENDBRANCH  12  13
ENDBRANCH   5   7
ENDBRANCH   2   3
ENDBRANCH   1   2
BRANCH   1  69
ATOM     69  C   UNL A   1      34.644  30.779  27.844  1.00  0.00     0.023 C 
BRANCH  69  70
ATOM     70  C   UNL A   1      33.348  30.555  27.074  1.00  0.00     0.116 C 
BRANCH  70  71
ATOM     71  N   UNL A   1      32.548  29.489  27.625  1.00  0.00    -0.355 N 
ATOM     72  C   UNL A   1      32.054  28.379  27.002  1.00  0.00     0.238 C 
ATOM     73  H   UNL A   1      32.331  29.572  28.582  1.00  0.00     0.163 HD
ATOM     74  O   UNL A   1      31.405  27.589  27.692  1.00  0.00    -0.273 OA
BRANCH  72  75
ATOM     75  C   UNL A   1      32.315  28.147  25.497  1.00  0.00     0.162 C 
ATOM     76  C   UNL A   1      33.695  27.525  25.288  1.00  0.00     0.032 C 
ATOM     77  N   UNL A   1      31.369  27.111  24.953  1.00  0.00    -0.185 NA
ATOM     78  C   UNL A   1      33.478  26.040  25.533  1.00  0.00     0.019 C 
ATOM     79  C   UNL A   1      31.980  25.799  25.358  1.00  0.00     0.103 C 
BRANCH  77  80
ATOM     80  S   UNL A   1      30.992  27.175  23.284  1.00  0.00     0.244 S 
ATOM     81  O   UNL A   1      31.998  27.967  22.611  1.00  0.00    -0.207 OA
ATOM     82  O   UNL A   1      30.700  25.826  22.846  1.00  0.00    -0.207 OA
BRANCH  80  83
ATOM     83  C   UNL A   1      29.463  28.083  23.189  1.00  0.00     0.089 A 
ATOM     84  C   UNL A   1      28.259  27.460  23.542  1.00  0.00     0.022 A 
ATOM     85  C   UNL A   1      29.463  29.389  22.692  1.00  0.00     0.107 A 
ATOM     86  C   UNL A   1      27.053  28.161  23.445  1.00  0.00     0.008 A 
ATOM     87  C   UNL A   1      28.257  30.098  22.656  1.00  0.00     0.270 A 
ATOM     88  C   UNL A   1      27.049  29.491  23.020  1.00  0.00     0.086 A 
BRANCH  87  89
ATOM     89  N   UNL A   1      28.274  31.516  22.295  1.00  0.00     0.062 N 
ATOM     90  O   UNL A   1      27.849  32.328  23.127  1.00  0.00    -0.258 OA
ATOM     91  O   UNL A   1      28.737  31.809  21.183  1.00  0.00    -0.258 OA
ENDBRANCH  87  89
ENDBRANCH  80  83
ENDBRANCH  77  80
ENDBRANCH  72  75
ENDBRANCH  70  71
ENDBRANCH  69  70
ENDBRANCH   1  69
TORSDOF 17
ENDMDL
