MODEL 1
REMARK VINA RESULT:      -9.7      0.000      0.000
REMARK SMILES CCC(CC)([NH2+]Cc1ccc(I)cc1)C(=O)NCCCCNC(=O)c1ccc(-c2c3nc(c(-c4ccc(S(=O)(=O)[O-])cc4)c4ccc([nH]4)c(-c4ccc(S(=O)(=O)[O-])cc4)c4nc(c(-c5ccc(S(=O)(=O)[O-])cc5)c5ccc2[nH]5)C=C4)C=C3)cc1
REMARK SMILES IDX 19 1 18 2 17 3 15 4 16 5 3 7 2 8 1 9 4 10 5 11 6 12 7 15
REMARK SMILES IDX 8 16 9 17 14 18 10 19 13 20 11 21 12 22 20 23 21 24 22 25
REMARK SMILES IDX 23 26 24 28 25 29 26 30 84 31 27 32 83 33 28 34 29 35 30 36
REMARK SMILES IDX 77 37 31 38 82 39 76 40 78 41 32 42 81 43 75 44 74 45 33 47
REMARK SMILES IDX 63 48 44 49 62 50 45 51 48 52 61 53 79 54 46 55 47 56 60 58
REMARK SMILES IDX 80 59 49 60 34 61 35 62 43 63 36 64 42 65 37 66 38 67 39 68
REMARK SMILES IDX 40 69 41 70 64 71 65 72 73 73 66 74 72 75 67 76 68 77 69 78
REMARK SMILES IDX 70 79 71 80 50 81 51 82 59 83 52 84 58 85 53 86 54 87 55 88
REMARK SMILES IDX 56 89 57 90
REMARK H PARENT 17 6 6 13 6 14 22 27 78 46 48 57
REMARK Flexibility Score: inf
ROOT
ATOM      1  C   UNL A   1      35.684  21.644  24.342  1.00  0.00     0.023 C 
ENDROOT
BRANCH   1   2
ATOM      2  C   UNL A   1      34.336  21.660  25.068  1.00  0.00     0.116 C 
BRANCH   2   3
ATOM      3  N   UNL A   1      33.220  21.893  24.190  1.00  0.00    -0.351 N 
ATOM      4  C   UNL A   1      32.311  22.872  23.993  1.00  0.00     0.281 C 
ATOM      5  O   UNL A   1      31.624  22.628  22.983  1.00  0.00    -0.268 OA
ATOM      6  H   UNL A   1      33.082  21.140  23.569  1.00  0.00     0.163 HD
BRANCH   4   7
ATOM      7  C   UNL A   1      32.084  24.238  24.787  1.00  0.00     0.175 C 
BRANCH   7   8
ATOM      8  C   UNL A   1      33.442  25.044  24.519  1.00  0.00     0.076 C 
ATOM      9  C   UNL A   1      33.619  25.683  23.131  1.00  0.00     0.011 C 
ENDBRANCH   7   8
BRANCH   7  10
ATOM     10  C   UNL A   1      31.958  24.060  26.319  1.00  0.00     0.076 C 
ATOM     11  C   UNL A   1      30.824  23.123  26.760  1.00  0.00     0.011 C 
ENDBRANCH   7  10
BRANCH   7  12
ATOM     12  N   UNL A   1      31.066  25.158  24.211  1.00  0.00    -0.330 N 
ATOM     13  H   UNL A   1      30.293  24.545  23.952  1.00  0.00     0.347 HD
ATOM     14  H   UNL A   1      31.676  25.656  23.563  1.00  0.00     0.347 HD
BRANCH  12  15
ATOM     15  C   UNL A   1      30.424  26.313  24.812  1.00  0.00     0.298 C 
BRANCH  15  16
ATOM     16  C   UNL A   1      31.193  27.477  25.434  1.00  0.00     0.006 A 
ATOM     17  C   UNL A   1      31.442  27.467  26.820  1.00  0.00     0.010 A 
ATOM     18  C   UNL A   1      31.857  28.473  24.703  1.00  0.00     0.010 A 
ATOM     19  C   UNL A   1      32.287  28.411  27.428  1.00  0.00     0.015 A 
ATOM     20  C   UNL A   1      32.686  29.432  25.297  1.00  0.00     0.015 A 
ATOM     21  C   UNL A   1      32.902  29.396  26.664  1.00  0.00     0.013 A 
ATOM     22  I   UNL A   1      34.172  30.782  27.538  1.00  0.00    -0.044 I 
ENDBRANCH  15  16
ENDBRANCH  12  15
ENDBRANCH   7  12
ENDBRANCH   4   7
ENDBRANCH   2   3
ENDBRANCH   1   2
BRANCH   1  23
ATOM     23  C   UNL A   1      36.248  23.019  24.009  1.00  0.00     0.023 C 
BRANCH  23  24
ATOM     24  C   UNL A   1      37.240  23.574  25.025  1.00  0.00     0.116 C 
BRANCH  24  25
ATOM     25  N   UNL A   1      38.349  22.684  25.349  1.00  0.00    -0.352 N 
ATOM     26  C   UNL A   1      39.430  22.960  26.159  1.00  0.00     0.251 C 
ATOM     27  H   UNL A   1      38.321  21.785  24.946  1.00  0.00     0.163 HD
ATOM     28  O   UNL A   1      40.332  22.143  26.314  1.00  0.00    -0.269 OA
BRANCH  26  29
ATOM     29  C   UNL A   1      39.501  24.294  26.791  1.00  0.00     0.039 A 
ATOM     30  C   UNL A   1      39.002  24.457  28.085  1.00  0.00     0.014 A 
ATOM     31  C   UNL A   1      40.197  25.327  26.158  1.00  0.00     0.014 A 
ATOM     32  C   UNL A   1      39.292  25.630  28.786  1.00  0.00     0.010 A 
ATOM     33  C   UNL A   1      40.558  26.452  26.889  1.00  0.00     0.010 A 
ATOM     34  C   UNL A   1      40.121  26.611  28.214  1.00  0.00    -0.014 A 
BRANCH  34  35
ATOM     35  C   UNL A   1      40.558  27.804  28.986  1.00  0.00     0.031 A 
ATOM     36  C   UNL A   1      41.903  27.809  29.659  1.00  0.00     0.074 A 
ATOM     37  C   UNL A   1      39.714  28.843  29.154  1.00  0.00     0.049 A 
ATOM     38  N   UNL A   1      42.427  28.712  30.446  1.00  0.00    -0.248 NA
ATOM     39  C   UNL A   1      42.756  26.628  29.448  1.00  0.00     0.031 C 
ATOM     40  C   UNL A   1      38.358  28.938  28.607  1.00  0.00     0.029 A 
ATOM     41  N   UNL A   1      39.872  30.019  29.846  1.00  0.00    -0.354 N 
ATOM     42  C   UNL A   1      43.657  28.199  30.842  1.00  0.00     0.074 A 
ATOM     43  C   UNL A   1      43.776  26.882  30.254  1.00  0.00     0.031 C 
ATOM     44  C   UNL A   1      37.821  30.117  28.958  1.00  0.00     0.029 A 
ATOM     45  C   UNL A   1      38.776  30.848  29.786  1.00  0.00     0.049 A 
ATOM     46  H   UNL A   1      40.693  30.247  30.339  1.00  0.00     0.167 HD
ATOM     47  C   UNL A   1      44.615  28.778  31.604  1.00  0.00     0.031 A 
ATOM     48  C   UNL A   1      38.560  32.059  30.337  1.00  0.00     0.031 A 
ATOM     49  C   UNL A   1      44.508  30.097  32.166  1.00  0.00     0.049 A 
ATOM     50  C   UNL A   1      39.647  32.694  31.159  1.00  0.00     0.074 A 
ATOM     51  C   UNL A   1      45.448  30.797  32.902  1.00  0.00     0.029 A 
ATOM     52  N   UNL A   1      43.398  30.918  32.049  1.00  0.00    -0.354 N 
ATOM     53  N   UNL A   1      40.830  32.218  31.468  1.00  0.00    -0.248 NA
ATOM     54  C   UNL A   1      39.377  34.035  31.697  1.00  0.00     0.031 C 
ATOM     55  C   UNL A   1      44.890  32.029  33.262  1.00  0.00     0.029 A 
ATOM     56  C   UNL A   1      43.623  32.113  32.708  1.00  0.00     0.049 A 
ATOM     57  H   UNL A   1      42.571  30.685  31.568  1.00  0.00     0.167 HD
ATOM     58  C   UNL A   1      41.454  33.211  32.215  1.00  0.00     0.074 A 
ATOM     59  C   UNL A   1      40.524  34.319  32.299  1.00  0.00     0.031 C 
ATOM     60  C   UNL A   1      42.687  33.207  32.779  1.00  0.00     0.031 A 
BRANCH  47  61
ATOM     61  C   UNL A   1      45.866  27.982  31.861  1.00  0.00    -0.014 A 
ATOM     62  C   UNL A   1      46.946  28.022  30.960  1.00  0.00     0.010 A 
ATOM     63  C   UNL A   1      45.972  27.198  33.024  1.00  0.00     0.010 A 
ATOM     64  C   UNL A   1      48.089  27.254  31.191  1.00  0.00     0.020 A 
ATOM     65  C   UNL A   1      47.127  26.450  33.274  1.00  0.00     0.020 A 
ATOM     66  C   UNL A   1      48.169  26.468  32.344  1.00  0.00     0.054 A 
BRANCH  66  67
ATOM     67  S   UNL A   1      49.670  25.488  32.624  1.00  0.00     0.124 S 
ATOM     68  O   UNL A   1      50.508  26.429  33.362  1.00  0.00    -0.237 OA
ATOM     69  O   UNL A   1      49.173  24.351  33.395  1.00  0.00    -0.237 OA
ATOM     70  O   UNL A   1      50.131  25.167  31.275  1.00  0.00    -0.744 OA
ENDBRANCH  66  67
ENDBRANCH  47  61
BRANCH  48  71
ATOM     71  C   UNL A   1      37.268  32.763  30.107  1.00  0.00    -0.014 A 
ATOM     72  C   UNL A   1      37.145  33.700  29.065  1.00  0.00     0.010 A 
ATOM     73  C   UNL A   1      36.153  32.493  30.919  1.00  0.00     0.010 A 
ATOM     74  C   UNL A   1      35.934  34.366  28.851  1.00  0.00     0.020 A 
ATOM     75  C   UNL A   1      34.933  33.139  30.693  1.00  0.00     0.020 A 
ATOM     76  C   UNL A   1      34.836  34.081  29.666  1.00  0.00     0.054 A 
BRANCH  76  77
ATOM     77  S   UNL A   1      33.259  34.917  29.337  1.00  0.00     0.124 S 
ATOM     78  O   UNL A   1      32.754  35.154  30.684  1.00  0.00    -0.237 OA
ATOM     79  O   UNL A   1      33.679  36.106  28.599  1.00  0.00    -0.237 OA
ATOM     80  O   UNL A   1      32.513  33.938  28.549  1.00  0.00    -0.744 OA
ENDBRANCH  76  77
ENDBRANCH  48  71
BRANCH  60  81
ATOM     81  C   UNL A   1      43.119  34.448  33.511  1.00  0.00    -0.014 A 
ATOM     82  C   UNL A   1      42.943  34.572  34.900  1.00  0.00     0.010 A 
ATOM     83  C   UNL A   1      43.766  35.478  32.804  1.00  0.00     0.010 A 
ATOM     84  C   UNL A   1      43.384  35.719  35.566  1.00  0.00     0.020 A 
ATOM     85  C   UNL A   1      44.230  36.615  33.472  1.00  0.00     0.020 A 
ATOM     86  C   UNL A   1      44.024  36.733  34.847  1.00  0.00     0.054 A 
BRANCH  86  87
ATOM     87  S   UNL A   1      44.633  38.190  35.742  1.00  0.00     0.124 S 
ATOM     88  O   UNL A   1      44.282  39.274  34.828  1.00  0.00    -0.237 OA
ATOM     89  O   UNL A   1      43.870  38.145  36.986  1.00  0.00    -0.237 OA
ATOM     90  O   UNL A   1      46.064  37.934  35.886  1.00  0.00    -0.744 OA
ENDBRANCH  86  87
ENDBRANCH  60  81
ENDBRANCH  34  35
ENDBRANCH  26  29
ENDBRANCH  24  25
ENDBRANCH  23  24
ENDBRANCH   1  23
TORSDOF 19
ENDMDL
MODEL 2
REMARK VINA RESULT:      -9.6      3.215      9.588
REMARK SMILES CCC(CC)([NH2+]Cc1ccc(I)cc1)C(=O)NCCCCNC(=O)c1ccc(-c2c3nc(c(-c4ccc(S(=O)(=O)[O-])cc4)c4ccc([nH]4)c(-c4ccc(S(=O)(=O)[O-])cc4)c4nc(c(-c5ccc(S(=O)(=O)[O-])cc5)c5ccc2[nH]5)C=C4)C=C3)cc1
REMARK SMILES IDX 19 1 18 2 17 3 15 4 16 5 3 7 2 8 1 9 4 10 5 11 6 12 7 15
REMARK SMILES IDX 8 16 9 17 14 18 10 19 13 20 11 21 12 22 20 23 21 24 22 25
REMARK SMILES IDX 23 26 24 28 25 29 26 30 84 31 27 32 83 33 28 34 29 35 30 36
REMARK SMILES IDX 77 37 31 38 82 39 76 40 78 41 32 42 81 43 75 44 74 45 33 47
REMARK SMILES IDX 63 48 44 49 62 50 45 51 48 52 61 53 79 54 46 55 47 56 60 58
REMARK SMILES IDX 80 59 49 60 34 61 35 62 43 63 36 64 42 65 37 66 38 67 39 68
REMARK SMILES IDX 40 69 41 70 64 71 65 72 73 73 66 74 72 75 67 76 68 77 69 78
REMARK SMILES IDX 70 79 71 80 50 81 51 82 59 83 52 84 58 85 53 86 54 87 55 88
REMARK SMILES IDX 56 89 57 90
REMARK H PARENT 17 6 6 13 6 14 22 27 78 46 48 57
REMARK Flexibility Score: inf
ROOT
ATOM      1  C   UNL A   1      33.642  27.325  25.384  1.00  0.00     0.023 C 
ENDROOT
BRANCH   1   2
ATOM      2  C   UNL A   1      33.497  27.214  23.863  1.00  0.00     0.116 C 
BRANCH   2   3
ATOM      3  N   UNL A   1      32.313  26.506  23.455  1.00  0.00    -0.351 N 
ATOM      4  C   UNL A   1      31.832  25.249  23.562  1.00  0.00     0.281 C 
ATOM      5  O   UNL A   1      30.662  25.196  23.141  1.00  0.00    -0.268 OA
ATOM      6  H   UNL A   1      31.688  27.093  22.968  1.00  0.00     0.163 HD
BRANCH   4   7
ATOM      7  C   UNL A   1      32.502  23.944  24.192  1.00  0.00     0.175 C 
BRANCH   7   8
ATOM      8  C   UNL A   1      32.272  24.139  25.765  1.00  0.00     0.076 C 
ATOM      9  C   UNL A   1      31.355  23.127  26.473  1.00  0.00     0.011 C 
ENDBRANCH   7   8
BRANCH   7  10
ATOM     10  C   UNL A   1      34.031  23.852  23.966  1.00  0.00     0.076 C 
ATOM     11  C   UNL A   1      34.865  23.836  25.255  1.00  0.00     0.011 C 
ENDBRANCH   7  10
BRANCH   7  12
ATOM     12  N   UNL A   1      31.787  22.665  23.936  1.00  0.00    -0.330 N 
ATOM     13  H   UNL A   1      30.864  22.954  23.610  1.00  0.00     0.347 HD
ATOM     14  H   UNL A   1      31.990  22.209  24.826  1.00  0.00     0.347 HD
BRANCH  12  15
ATOM     15  C   UNL A   1      32.150  21.566  23.059  1.00  0.00     0.298 C 
BRANCH  15  16
ATOM     16  C   UNL A   1      32.476  20.160  23.559  1.00  0.00     0.006 A 
ATOM     17  C   UNL A   1      32.663  19.952  24.939  1.00  0.00     0.010 A 
ATOM     18  C   UNL A   1      32.406  19.000  22.772  1.00  0.00     0.010 A 
ATOM     19  C   UNL A   1      32.792  18.663  25.484  1.00  0.00     0.015 A 
ATOM     20  C   UNL A   1      32.552  17.711  23.298  1.00  0.00     0.015 A 
ATOM     21  C   UNL A   1      32.742  17.546  24.658  1.00  0.00     0.013 A 
ATOM     22  I   UNL A   1      32.905  15.634  25.447  1.00  0.00    -0.044 I 
ENDBRANCH  15  16
ENDBRANCH  12  15
ENDBRANCH   7  12
ENDBRANCH   4   7
ENDBRANCH   2   3
ENDBRANCH   1   2
BRANCH   1  23
ATOM     23  C   UNL A   1      33.858  28.740  25.905  1.00  0.00     0.023 C 
BRANCH  23  24
ATOM     24  C   UNL A   1      33.692  28.906  27.411  1.00  0.00     0.116 C 
BRANCH  24  25
ATOM     25  N   UNL A   1      33.745  30.283  27.886  1.00  0.00    -0.352 N 
ATOM     26  C   UNL A   1      34.827  30.932  28.442  1.00  0.00     0.251 C 
ATOM     27  H   UNL A   1      32.916  30.809  27.799  1.00  0.00     0.163 HD
ATOM     28  O   UNL A   1      34.733  32.083  28.855  1.00  0.00    -0.269 OA
BRANCH  26  29
ATOM     29  C   UNL A   1      36.092  30.181  28.578  1.00  0.00     0.039 A 
ATOM     30  C   UNL A   1      36.998  30.181  27.515  1.00  0.00     0.014 A 
ATOM     31  C   UNL A   1      36.435  29.615  29.808  1.00  0.00     0.014 A 
ATOM     32  C   UNL A   1      38.292  29.699  27.721  1.00  0.00     0.010 A 
ATOM     33  C   UNL A   1      37.748  29.221  30.034  1.00  0.00     0.010 A 
ATOM     34  C   UNL A   1      38.695  29.269  28.998  1.00  0.00    -0.014 A 
BRANCH  34  35
ATOM     35  C   UNL A   1      40.101  28.881  29.279  1.00  0.00     0.031 A 
ATOM     36  C   UNL A   1      41.044  29.878  29.896  1.00  0.00     0.074 A 
ATOM     37  C   UNL A   1      40.554  27.668  28.901  1.00  0.00     0.049 A 
ATOM     38  N   UNL A   1      42.324  29.762  30.136  1.00  0.00    -0.248 NA
ATOM     39  C   UNL A   1      40.481  31.189  30.257  1.00  0.00     0.031 C 
ATOM     40  C   UNL A   1      39.759  26.631  28.237  1.00  0.00     0.029 A 
ATOM     41  N   UNL A   1      41.801  27.104  29.015  1.00  0.00    -0.354 N 
ATOM     42  C   UNL A   1      42.723  30.989  30.653  1.00  0.00     0.074 A 
ATOM     43  C   UNL A   1      41.562  31.853  30.639  1.00  0.00     0.031 C 
ATOM     44  C   UNL A   1      40.529  25.550  28.030  1.00  0.00     0.029 A 
ATOM     45  C   UNL A   1      41.879  25.827  28.510  1.00  0.00     0.049 A 
ATOM     46  H   UNL A   1      42.568  27.570  29.420  1.00  0.00     0.167 HD
ATOM     47  C   UNL A   1      43.938  31.360  31.123  1.00  0.00     0.031 A 
ATOM     48  C   UNL A   1      42.920  24.974  28.438  1.00  0.00     0.031 A 
ATOM     49  C   UNL A   1      45.085  30.494  31.162  1.00  0.00     0.049 A 
ATOM     50  C   UNL A   1      44.255  25.398  28.988  1.00  0.00     0.074 A 
ATOM     51  C   UNL A   1      46.343  30.756  31.674  1.00  0.00     0.029 A 
ATOM     52  N   UNL A   1      45.111  29.196  30.676  1.00  0.00    -0.354 N 
ATOM     53  N   UNL A   1      44.594  26.542  29.532  1.00  0.00    -0.248 NA
ATOM     54  C   UNL A   1      45.343  24.412  28.927  1.00  0.00     0.031 C 
ATOM     55  C   UNL A   1      47.143  29.626  31.463  1.00  0.00     0.029 A 
ATOM     56  C   UNL A   1      46.366  28.647  30.865  1.00  0.00     0.049 A 
ATOM     57  H   UNL A   1      44.349  28.733  30.259  1.00  0.00     0.167 HD
ATOM     58  C   UNL A   1      45.928  26.404  29.901  1.00  0.00     0.074 A 
ATOM     59  C   UNL A   1      46.328  25.061  29.530  1.00  0.00     0.031 C 
ATOM     60  C   UNL A   1      46.747  27.307  30.493  1.00  0.00     0.031 A 
BRANCH  47  61
ATOM     61  C   UNL A   1      44.077  32.767  31.641  1.00  0.00    -0.014 A 
ATOM     62  C   UNL A   1      43.932  33.050  33.011  1.00  0.00     0.010 A 
ATOM     63  C   UNL A   1      44.372  33.816  30.752  1.00  0.00     0.010 A 
ATOM     64  C   UNL A   1      44.030  34.363  33.477  1.00  0.00     0.020 A 
ATOM     65  C   UNL A   1      44.500  35.128  31.219  1.00  0.00     0.020 A 
ATOM     66  C   UNL A   1      44.307  35.394  32.576  1.00  0.00     0.054 A 
BRANCH  66  67
ATOM     67  S   UNL A   1      44.439  37.089  33.210  1.00  0.00     0.124 S 
ATOM     68  O   UNL A   1      45.167  37.755  32.133  1.00  0.00    -0.237 OA
ATOM     69  O   UNL A   1      43.041  37.485  33.363  1.00  0.00    -0.237 OA
ATOM     70  O   UNL A   1      45.179  36.934  34.460  1.00  0.00    -0.744 OA
ENDBRANCH  66  67
ENDBRANCH  47  61
BRANCH  48  71
ATOM     71  C   UNL A   1      42.736  23.622  27.843  1.00  0.00    -0.014 A 
ATOM     72  C   UNL A   1      42.272  22.555  28.634  1.00  0.00     0.010 A 
ATOM     73  C   UNL A   1      43.011  23.395  26.483  1.00  0.00     0.010 A 
ATOM     74  C   UNL A   1      42.104  21.282  28.078  1.00  0.00     0.020 A 
ATOM     75  C   UNL A   1      42.820  22.130  25.918  1.00  0.00     0.020 A 
ATOM     76  C   UNL A   1      42.378  21.078  26.724  1.00  0.00     0.054 A 
BRANCH  76  77
ATOM     77  S   UNL A   1      42.101  19.433  26.011  1.00  0.00     0.124 S 
ATOM     78  O   UNL A   1      42.574  18.556  27.077  1.00  0.00    -0.237 OA
ATOM     79  O   UNL A   1      40.658  19.427  25.779  1.00  0.00    -0.237 OA
ATOM     80  O   UNL A   1      42.918  19.445  24.799  1.00  0.00    -0.744 OA
ENDBRANCH  76  77
ENDBRANCH  48  71
BRANCH  60  81
ATOM     81  C   UNL A   1      48.150  26.867  30.810  1.00  0.00    -0.014 A 
ATOM     82  C   UNL A   1      49.201  27.075  29.899  1.00  0.00     0.010 A 
ATOM     83  C   UNL A   1      48.429  26.294  32.064  1.00  0.00     0.010 A 
ATOM     84  C   UNL A   1      50.504  26.691  30.228  1.00  0.00     0.020 A 
ATOM     85  C   UNL A   1      49.735  25.933  32.405  1.00  0.00     0.020 A 
ATOM     86  C   UNL A   1      50.762  26.122  31.479  1.00  0.00     0.054 A 
BRANCH  86  87
ATOM     87  S   UNL A   1      52.470  25.678  31.902  1.00  0.00     0.124 S 
ATOM     88  O   UNL A   1      53.178  25.989  30.663  1.00  0.00    -0.237 OA
ATOM     89  O   UNL A   1      52.760  26.559  33.031  1.00  0.00    -0.237 OA
ATOM     90  O   UNL A   1      52.387  24.258  32.233  1.00  0.00    -0.744 OA
ENDBRANCH  86  87
ENDBRANCH  60  81
ENDBRANCH  34  35
ENDBRANCH  26  29
ENDBRANCH  24  25
ENDBRANCH  23  24
ENDBRANCH   1  23
TORSDOF 19
ENDMDL
MODEL 3
REMARK VINA RESULT:      -9.6      4.659     10.498
REMARK SMILES CCC(CC)([NH2+]Cc1ccc(I)cc1)C(=O)NCCCCNC(=O)c1ccc(-c2c3nc(c(-c4ccc(S(=O)(=O)[O-])cc4)c4ccc([nH]4)c(-c4ccc(S(=O)(=O)[O-])cc4)c4nc(c(-c5ccc(S(=O)(=O)[O-])cc5)c5ccc2[nH]5)C=C4)C=C3)cc1
REMARK SMILES IDX 19 1 18 2 17 3 15 4 16 5 3 7 2 8 1 9 4 10 5 11 6 12 7 15
REMARK SMILES IDX 8 16 9 17 14 18 10 19 13 20 11 21 12 22 20 23 21 24 22 25
REMARK SMILES IDX 23 26 24 28 25 29 26 30 84 31 27 32 83 33 28 34 29 35 30 36
REMARK SMILES IDX 77 37 31 38 82 39 76 40 78 41 32 42 81 43 75 44 74 45 33 47
REMARK SMILES IDX 63 48 44 49 62 50 45 51 48 52 61 53 79 54 46 55 47 56 60 58
REMARK SMILES IDX 80 59 49 60 34 61 35 62 43 63 36 64 42 65 37 66 38 67 39 68
REMARK SMILES IDX 40 69 41 70 64 71 65 72 73 73 66 74 72 75 67 76 68 77 69 78
REMARK SMILES IDX 70 79 71 80 50 81 51 82 59 83 52 84 58 85 53 86 54 87 55 88
REMARK SMILES IDX 56 89 57 90
REMARK H PARENT 17 6 6 13 6 14 22 27 78 46 48 57
REMARK Flexibility Score: inf
ROOT
ATOM      1  C   UNL A   1      32.794  29.772  27.104  1.00  0.00     0.023 C 
ENDROOT
BRANCH   1   2
ATOM      2  C   UNL A   1      31.946  29.949  25.841  1.00  0.00     0.116 C 
BRANCH   2   3
ATOM      3  N   UNL A   1      32.674  29.695  24.627  1.00  0.00    -0.351 N 
ATOM      4  C   UNL A   1      32.794  28.678  23.746  1.00  0.00     0.281 C 
ATOM      5  O   UNL A   1      33.471  29.034  22.763  1.00  0.00    -0.268 OA
ATOM      6  H   UNL A   1      33.232  30.465  24.369  1.00  0.00     0.163 HD
BRANCH   4   7
ATOM      7  C   UNL A   1      32.154  27.216  23.772  1.00  0.00     0.175 C 
BRANCH   7   8
ATOM      8  C   UNL A   1      30.587  27.502  23.602  1.00  0.00     0.076 C 
ATOM      9  C   UNL A   1      29.615  26.484  24.222  1.00  0.00     0.011 C 
ENDBRANCH   7   8
BRANCH   7  10
ATOM     10  C   UNL A   1      32.335  26.475  25.119  1.00  0.00     0.076 C 
ATOM     11  C   UNL A   1      33.770  26.490  25.666  1.00  0.00     0.011 C 
ENDBRANCH   7  10
BRANCH   7  12
ATOM     12  N   UNL A   1      32.438  26.366  22.585  1.00  0.00    -0.330 N 
ATOM     13  H   UNL A   1      32.539  27.031  21.818  1.00  0.00     0.347 HD
ATOM     14  H   UNL A   1      31.674  25.700  22.700  1.00  0.00     0.347 HD
BRANCH  12  15
ATOM     15  C   UNL A   1      33.509  25.408  22.373  1.00  0.00     0.298 C 
BRANCH  15  16
ATOM     16  C   UNL A   1      33.435  23.948  22.816  1.00  0.00     0.006 A 
ATOM     17  C   UNL A   1      34.498  23.409  23.565  1.00  0.00     0.010 A 
ATOM     18  C   UNL A   1      32.292  23.141  22.711  1.00  0.00     0.010 A 
ATOM     19  C   UNL A   1      34.420  22.134  24.152  1.00  0.00     0.015 A 
ATOM     20  C   UNL A   1      32.207  21.862  23.273  1.00  0.00     0.015 A 
ATOM     21  C   UNL A   1      33.275  21.361  23.997  1.00  0.00     0.013 A 
ATOM     22  I   UNL A   1      33.130  19.488  24.875  1.00  0.00    -0.044 I 
ENDBRANCH  15  16
ENDBRANCH  12  15
ENDBRANCH   7  12
ENDBRANCH   4   7
ENDBRANCH   2   3
ENDBRANCH   1   2
BRANCH   1  23
ATOM     23  C   UNL A   1      34.281  30.045  26.919  1.00  0.00     0.023 C 
BRANCH  23  24
ATOM     24  C   UNL A   1      35.179  29.508  28.028  1.00  0.00     0.116 C 
BRANCH  24  25
ATOM     25  N   UNL A   1      35.366  30.410  29.158  1.00  0.00    -0.352 N 
ATOM     26  C   UNL A   1      36.526  30.620  29.873  1.00  0.00     0.251 C 
ATOM     27  H   UNL A   1      34.576  30.927  29.441  1.00  0.00     0.163 HD
ATOM     28  O   UNL A   1      36.546  31.370  30.844  1.00  0.00    -0.269 OA
BRANCH  26  29
ATOM     29  C   UNL A   1      37.735  29.871  29.472  1.00  0.00     0.039 A 
ATOM     30  C   UNL A   1      38.124  29.882  28.131  1.00  0.00     0.014 A 
ATOM     31  C   UNL A   1      38.552  29.296  30.448  1.00  0.00     0.014 A 
ATOM     32  C   UNL A   1      39.389  29.403  27.783  1.00  0.00     0.010 A 
ATOM     33  C   UNL A   1      39.841  28.903  30.112  1.00  0.00     0.010 A 
ATOM     34  C   UNL A   1      40.279  28.963  28.779  1.00  0.00    -0.014 A 
BRANCH  34  35
ATOM     35  C   UNL A   1      41.677  28.577  28.455  1.00  0.00     0.031 A 
ATOM     36  C   UNL A   1      42.756  29.625  28.426  1.00  0.00     0.074 A 
ATOM     37  C   UNL A   1      41.960  27.306  28.102  1.00  0.00     0.049 A 
ATOM     38  N   UNL A   1      44.012  29.505  28.082  1.00  0.00    -0.248 NA
ATOM     39  C   UNL A   1      42.364  30.993  28.800  1.00  0.00     0.031 C 
ATOM     40  C   UNL A   1      40.994  26.207  28.028  1.00  0.00     0.029 A 
ATOM     41  N   UNL A   1      43.147  26.725  27.727  1.00  0.00    -0.354 N 
ATOM     42  C   UNL A   1      44.551  30.783  28.174  1.00  0.00     0.074 A 
ATOM     43  C   UNL A   1      43.474  31.671  28.552  1.00  0.00     0.031 C 
ATOM     44  C   UNL A   1      41.631  25.082  27.663  1.00  0.00     0.029 A 
ATOM     45  C   UNL A   1      43.041  25.385  27.440  1.00  0.00     0.049 A 
ATOM     46  H   UNL A   1      43.995  27.223  27.671  1.00  0.00     0.167 HD
ATOM     47  C   UNL A   1      45.832  31.180  27.988  1.00  0.00     0.031 A 
ATOM     48  C   UNL A   1      43.973  24.497  27.038  1.00  0.00     0.031 A 
ATOM     49  C   UNL A   1      46.909  30.293  27.639  1.00  0.00     0.049 A 
ATOM     50  C   UNL A   1      45.394  24.956  26.861  1.00  0.00     0.074 A 
ATOM     51  C   UNL A   1      48.252  30.589  27.487  1.00  0.00     0.029 A 
ATOM     52  N   UNL A   1      46.765  28.937  27.394  1.00  0.00    -0.354 N 
ATOM     53  N   UNL A   1      45.897  26.158  27.017  1.00  0.00    -0.248 NA
ATOM     54  C   UNL A   1      46.378  23.937  26.467  1.00  0.00     0.031 C 
ATOM     55  C   UNL A   1      48.916  29.415  27.113  1.00  0.00     0.029 A 
ATOM     56  C   UNL A   1      47.994  28.382  27.081  1.00  0.00     0.049 A 
ATOM     57  H   UNL A   1      45.916  28.441  27.437  1.00  0.00     0.167 HD
ATOM     58  C   UNL A   1      47.258  26.034  26.764  1.00  0.00     0.074 A 
ATOM     59  C   UNL A   1      47.503  24.639  26.460  1.00  0.00     0.031 C 
ATOM     60  C   UNL A   1      48.220  26.990  26.784  1.00  0.00     0.031 A 
BRANCH  47  61
ATOM     61  C   UNL A   1      46.133  32.644  28.171  1.00  0.00    -0.014 A 
ATOM     62  C   UNL A   1      46.497  33.156  29.430  1.00  0.00     0.010 A 
ATOM     63  C   UNL A   1      46.068  33.517  27.070  1.00  0.00     0.010 A 
ATOM     64  C   UNL A   1      46.742  34.520  29.596  1.00  0.00     0.020 A 
ATOM     65  C   UNL A   1      46.341  34.879  27.226  1.00  0.00     0.020 A 
ATOM     66  C   UNL A   1      46.655  35.374  28.494  1.00  0.00     0.054 A 
BRANCH  66  67
ATOM     67  S   UNL A   1      46.988  37.141  28.736  1.00  0.00     0.124 S 
ATOM     68  O   UNL A   1      47.706  37.139  30.008  1.00  0.00    -0.237 OA
ATOM     69  O   UNL A   1      47.790  37.481  27.563  1.00  0.00    -0.237 OA
ATOM     70  O   UNL A   1      45.657  37.743  28.771  1.00  0.00    -0.744 OA
ENDBRANCH  66  67
ENDBRANCH  47  61
BRANCH  48  71
ATOM     71  C   UNL A   1      43.595  23.077  26.799  1.00  0.00    -0.014 A 
ATOM     72  C   UNL A   1      42.862  22.365  27.766  1.00  0.00     0.010 A 
ATOM     73  C   UNL A   1      43.956  22.432  25.603  1.00  0.00     0.010 A 
ATOM     74  C   UNL A   1      42.511  21.029  27.546  1.00  0.00     0.020 A 
ATOM     75  C   UNL A   1      43.585  21.104  25.369  1.00  0.00     0.020 A 
ATOM     76  C   UNL A   1      42.874  20.407  26.349  1.00  0.00     0.054 A 
BRANCH  76  77
ATOM     77  S   UNL A   1      42.362  18.691  26.062  1.00  0.00     0.124 S 
ATOM     78  O   UNL A   1      42.613  18.077  27.362  1.00  0.00    -0.237 OA
ATOM     79  O   UNL A   1      40.956  18.837  25.692  1.00  0.00    -0.237 OA
ATOM     80  O   UNL A   1      43.239  18.250  24.979  1.00  0.00    -0.744 OA
ENDBRANCH  76  77
ENDBRANCH  48  71
BRANCH  60  81
ATOM     81  C   UNL A   1      49.633  26.557  26.500  1.00  0.00    -0.014 A 
ATOM     82  C   UNL A   1      50.459  26.055  27.521  1.00  0.00     0.010 A 
ATOM     83  C   UNL A   1      50.116  26.597  25.180  1.00  0.00     0.010 A 
ATOM     84  C   UNL A   1      51.756  25.625  27.230  1.00  0.00     0.020 A 
ATOM     85  C   UNL A   1      51.404  26.144  24.882  1.00  0.00     0.020 A 
ATOM     86  C   UNL A   1      52.220  25.674  25.911  1.00  0.00     0.054 A 
BRANCH  86  87
ATOM     87  S   UNL A   1      53.890  25.062  25.549  1.00  0.00     0.124 S 
ATOM     88  O   UNL A   1      54.220  25.793  24.328  1.00  0.00    -0.237 OA
ATOM     89  O   UNL A   1      54.641  25.454  26.739  1.00  0.00    -0.237 OA
ATOM     90  O   UNL A   1      53.703  23.623  25.384  1.00  0.00    -0.744 OA
ENDBRANCH  86  87
ENDBRANCH  60  81
ENDBRANCH  34  35
ENDBRANCH  26  29
ENDBRANCH  24  25
ENDBRANCH  23  24
ENDBRANCH   1  23
TORSDOF 19
ENDMDL
