MODEL 1
REMARK VINA RESULT:      -9.2      0.000      0.000
REMARK SMILES COCCS(=O)(=O)Cc1c(C(=O)NCCCCNC(=O)c2ccc(-c3c4nc(c(-c5ccc(S(=O)(=O)[O-])cc5)c5ccc([nH]5)c(-c5ccc(S(=O)(=O)[O-])cc5)c5nc(c(-c6ccc(S(=O)(=O)[O-])cc6)c6ccc3[nH]6)C=C5)C=C4)cc2)oc2ccccc12
REMARK SMILES IDX 14 1 13 2 11 3 12 4 10 6 9 7 87 8 81 9 82 10 86 11 83 12
REMARK SMILES IDX 85 13 84 14 8 15 5 16 6 17 7 18 4 19 3 20 2 21 1 22 15 23
REMARK SMILES IDX 16 24 17 25 18 26 19 27 20 29 21 30 22 31 80 32 23 33 79 34
REMARK SMILES IDX 24 35 25 36 26 37 73 38 27 39 78 40 72 41 74 42 28 43 77 44
REMARK SMILES IDX 71 45 70 46 29 48 59 49 40 50 58 51 41 52 44 53 57 54 75 55
REMARK SMILES IDX 42 56 43 57 56 59 76 60 45 61 30 62 31 63 39 64 32 65 38 66
REMARK SMILES IDX 33 67 34 68 35 69 36 70 37 71 60 72 61 73 69 74 62 75 68 76
REMARK SMILES IDX 63 77 64 78 65 79 66 80 67 81 46 82 47 83 55 84 48 85 54 86
REMARK SMILES IDX 49 87 50 88 51 89 52 90 53 91
REMARK H PARENT 13 5 18 28 74 47 44 58
REMARK Flexibility Score: inf
ROOT
ATOM      1  C   UNL A   1      33.649  35.432  30.078  1.00  0.00     0.116 C 
ENDROOT
BRANCH   1   2
ATOM      2  N   UNL A   1      33.556  34.282  30.961  1.00  0.00    -0.349 N 
ATOM      3  C   UNL A   1      34.526  33.538  31.594  1.00  0.00     0.287 C 
ATOM      4  O   UNL A   1      34.127  32.666  32.368  1.00  0.00    -0.266 OA
ATOM      5  H   UNL A   1      32.636  33.980  31.137  1.00  0.00     0.163 HD
BRANCH   3   6
ATOM      6  C   UNL A   1      35.946  33.796  31.392  1.00  0.00     0.196 A 
ATOM      7  C   UNL A   1      36.967  34.051  32.319  1.00  0.00     0.027 A 
ATOM      8  C   UNL A   1      38.128  34.366  31.528  1.00  0.00     0.025 A 
ATOM      9  O   UNL A   1      36.468  33.759  30.135  1.00  0.00    -0.451 OA
ATOM     10  C   UNL A   1      37.769  34.115  30.211  1.00  0.00     0.135 A 
ATOM     11  C   UNL A   1      39.450  34.803  31.758  1.00  0.00     0.012 A 
ATOM     12  C   UNL A   1      38.622  34.219  29.114  1.00  0.00     0.048 A 
ATOM     13  C   UNL A   1      40.342  34.905  30.678  1.00  0.00     0.001 A 
ATOM     14  C   UNL A   1      39.935  34.611  29.379  1.00  0.00     0.004 A 
BRANCH   7  15
ATOM     15  C   UNL A   1      36.764  34.034  33.808  1.00  0.00     0.177 C 
BRANCH  15  16
ATOM     16  S   UNL A   1      37.811  33.021  34.850  1.00  0.00     0.156 S 
ATOM     17  O   UNL A   1      36.944  32.313  35.777  1.00  0.00    -0.228 OA
ATOM     18  O   UNL A   1      38.844  33.884  35.401  1.00  0.00    -0.228 OA
BRANCH  16  19
ATOM     19  C   UNL A   1      38.632  31.810  33.815  1.00  0.00     0.165 C 
BRANCH  19  20
ATOM     20  C   UNL A   1      39.064  30.545  34.530  1.00  0.00     0.176 C 
BRANCH  20  21
ATOM     21  O   UNL A   1      39.387  29.489  33.622  1.00  0.00    -0.384 OA
ATOM     22  C   UNL A   1      40.696  28.965  33.790  1.00  0.00     0.194 C 
ENDBRANCH  20  21
ENDBRANCH  19  20
ENDBRANCH  16  19
ENDBRANCH  15  16
ENDBRANCH   7  15
ENDBRANCH   3   6
ENDBRANCH   1   2
BRANCH   1  23
ATOM     23  C   UNL A   1      34.040  35.021  28.660  1.00  0.00     0.023 C 
BRANCH  23  24
ATOM     24  C   UNL A   1      33.460  33.676  28.207  1.00  0.00     0.023 C 
BRANCH  24  25
ATOM     25  C   UNL A   1      34.468  32.536  28.066  1.00  0.00     0.116 C 
BRANCH  25  26
ATOM     26  N   UNL A   1      33.875  31.301  27.575  1.00  0.00    -0.352 N 
ATOM     27  C   UNL A   1      34.449  30.058  27.446  1.00  0.00     0.251 C 
ATOM     28  H   UNL A   1      32.933  31.365  27.295  1.00  0.00     0.163 HD
ATOM     29  O   UNL A   1      33.828  29.151  26.900  1.00  0.00    -0.269 OA
BRANCH  27  30
ATOM     30  C   UNL A   1      35.827  29.830  27.934  1.00  0.00     0.039 A 
ATOM     31  C   UNL A   1      36.015  29.408  29.253  1.00  0.00     0.014 A 
ATOM     32  C   UNL A   1      36.926  30.008  27.091  1.00  0.00     0.014 A 
ATOM     33  C   UNL A   1      37.299  29.096  29.705  1.00  0.00     0.010 A 
ATOM     34  C   UNL A   1      38.196  29.632  27.521  1.00  0.00     0.010 A 
ATOM     35  C   UNL A   1      38.396  29.167  28.830  1.00  0.00    -0.014 A 
BRANCH  35  36
ATOM     36  C   UNL A   1      39.754  28.744  29.260  1.00  0.00     0.031 A 
ATOM     37  C   UNL A   1      40.642  29.695  30.016  1.00  0.00     0.074 A 
ATOM     38  C   UNL A   1      40.217  27.529  28.904  1.00  0.00     0.049 A 
ATOM     39  N   UNL A   1      41.877  29.528  30.415  1.00  0.00    -0.248 NA
ATOM     40  C   UNL A   1      40.079  31.014  30.342  1.00  0.00     0.031 C 
ATOM     41  C   UNL A   1      39.472  26.530  28.133  1.00  0.00     0.029 A 
ATOM     42  N   UNL A   1      41.430  26.929  29.137  1.00  0.00    -0.354 N 
ATOM     43  C   UNL A   1      42.244  30.723  31.022  1.00  0.00     0.074 A 
ATOM     44  C   UNL A   1      41.118  31.622  30.895  1.00  0.00     0.031 C 
ATOM     45  C   UNL A   1      40.233  25.436  27.979  1.00  0.00     0.029 A 
ATOM     46  C   UNL A   1      41.533  25.667  28.602  1.00  0.00     0.049 A 
ATOM     47  H   UNL A   1      42.157  27.362  29.639  1.00  0.00     0.167 HD
ATOM     48  C   UNL A   1      43.406  31.039  31.645  1.00  0.00     0.031 A 
ATOM     49  C   UNL A   1      42.559  24.794  28.603  1.00  0.00     0.031 A 
ATOM     50  C   UNL A   1      44.521  30.140  31.777  1.00  0.00     0.049 A 
ATOM     51  C   UNL A   1      43.840  25.166  29.297  1.00  0.00     0.074 A 
ATOM     52  C   UNL A   1      45.719  30.347  32.439  1.00  0.00     0.029 A 
ATOM     53  N   UNL A   1      44.579  28.865  31.233  1.00  0.00    -0.354 N 
ATOM     54  N   UNL A   1      44.144  26.278  29.923  1.00  0.00    -0.248 NA
ATOM     55  C   UNL A   1      44.913  24.162  29.295  1.00  0.00     0.031 C 
ATOM     56  C   UNL A   1      46.522  29.216  32.253  1.00  0.00     0.029 A 
ATOM     57  C   UNL A   1      45.801  28.281  31.526  1.00  0.00     0.049 A 
ATOM     58  H   UNL A   1      43.859  28.437  30.717  1.00  0.00     0.167 HD
ATOM     59  C   UNL A   1      45.432  26.096  30.414  1.00  0.00     0.074 A 
ATOM     60  C   UNL A   1      45.845  24.764  30.021  1.00  0.00     0.031 C 
ATOM     61  C   UNL A   1      46.201  26.955  31.128  1.00  0.00     0.031 A 
BRANCH  48  62
ATOM     62  C   UNL A   1      43.527  32.426  32.222  1.00  0.00    -0.014 A 
ATOM     63  C   UNL A   1      42.976  32.742  33.478  1.00  0.00     0.010 A 
ATOM     64  C   UNL A   1      44.224  33.421  31.513  1.00  0.00     0.010 A 
ATOM     65  C   UNL A   1      43.071  34.039  33.987  1.00  0.00     0.020 A 
ATOM     66  C   UNL A   1      44.349  34.712  32.033  1.00  0.00     0.020 A 
ATOM     67  C   UNL A   1      43.753  35.018  33.258  1.00  0.00     0.054 A 
BRANCH  67  68
ATOM     68  S   UNL A   1      43.865  36.692  33.946  1.00  0.00     0.124 S 
ATOM     69  O   UNL A   1      44.777  36.494  35.069  1.00  0.00    -0.237 OA
ATOM     70  O   UNL A   1      44.404  37.464  32.829  1.00  0.00    -0.237 OA
ATOM     71  O   UNL A   1      42.487  37.011  34.312  1.00  0.00    -0.744 OA
ENDBRANCH  67  68
ENDBRANCH  48  62
BRANCH  49  72
ATOM     72  C   UNL A   1      42.404  23.469  27.941  1.00  0.00    -0.014 A 
ATOM     73  C   UNL A   1      42.888  23.263  26.638  1.00  0.00     0.010 A 
ATOM     74  C   UNL A   1      41.798  22.397  28.623  1.00  0.00     0.010 A 
ATOM     75  C   UNL A   1      42.760  22.013  26.023  1.00  0.00     0.020 A 
ATOM     76  C   UNL A   1      41.694  21.140  28.023  1.00  0.00     0.020 A 
ATOM     77  C   UNL A   1      42.168  20.958  26.723  1.00  0.00     0.054 A 
BRANCH  77  78
ATOM     78  S   UNL A   1      42.074  19.328  25.931  1.00  0.00     0.124 S 
ATOM     79  O   UNL A   1      40.644  19.201  25.666  1.00  0.00    -0.237 OA
ATOM     80  O   UNL A   1      42.924  19.500  24.754  1.00  0.00    -0.237 OA
ATOM     81  O   UNL A   1      42.608  18.424  26.947  1.00  0.00    -0.744 OA
ENDBRANCH  77  78
ENDBRANCH  49  72
BRANCH  61  82
ATOM     82  C   UNL A   1      47.558  26.471  31.568  1.00  0.00    -0.014 A 
ATOM     83  C   UNL A   1      47.749  25.875  32.826  1.00  0.00     0.010 A 
ATOM     84  C   UNL A   1      48.646  26.562  30.679  1.00  0.00     0.010 A 
ATOM     85  C   UNL A   1      49.011  25.403  33.199  1.00  0.00     0.020 A 
ATOM     86  C   UNL A   1      49.901  26.067  31.037  1.00  0.00     0.020 A 
ATOM     87  C   UNL A   1      50.079  25.502  32.302  1.00  0.00     0.054 A 
BRANCH  87  88
ATOM     88  S   UNL A   1      51.695  24.838  32.791  1.00  0.00     0.124 S 
ATOM     89  O   UNL A   1      52.614  25.733  32.094  1.00  0.00    -0.237 OA
ATOM     90  O   UNL A   1      51.670  24.970  34.246  1.00  0.00    -0.237 OA
ATOM     91  O   UNL A   1      51.669  23.463  32.296  1.00  0.00    -0.744 OA
ENDBRANCH  87  88
ENDBRANCH  61  82
ENDBRANCH  35  36
ENDBRANCH  27  30
ENDBRANCH  25  26
ENDBRANCH  24  25
ENDBRANCH  23  24
ENDBRANCH   1  23
TORSDOF 19
ENDMDL
MODEL 2
REMARK VINA RESULT:      -9.1      5.245     12.565
REMARK SMILES COCCS(=O)(=O)Cc1c(C(=O)NCCCCNC(=O)c2ccc(-c3c4nc(c(-c5ccc(S(=O)(=O)[O-])cc5)c5ccc([nH]5)c(-c5ccc(S(=O)(=O)[O-])cc5)c5nc(c(-c6ccc(S(=O)(=O)[O-])cc6)c6ccc3[nH]6)C=C5)C=C4)cc2)oc2ccccc12
REMARK SMILES IDX 14 1 13 2 11 3 12 4 10 6 9 7 87 8 81 9 82 10 86 11 83 12
REMARK SMILES IDX 85 13 84 14 8 15 5 16 6 17 7 18 4 19 3 20 2 21 1 22 15 23
REMARK SMILES IDX 16 24 17 25 18 26 19 27 20 29 21 30 22 31 80 32 23 33 79 34
REMARK SMILES IDX 24 35 25 36 26 37 73 38 27 39 78 40 72 41 74 42 28 43 77 44
REMARK SMILES IDX 71 45 70 46 29 48 59 49 40 50 58 51 41 52 44 53 57 54 75 55
REMARK SMILES IDX 42 56 43 57 56 59 76 60 45 61 30 62 31 63 39 64 32 65 38 66
REMARK SMILES IDX 33 67 34 68 35 69 36 70 37 71 60 72 61 73 69 74 62 75 68 76
REMARK SMILES IDX 63 77 64 78 65 79 66 80 67 81 46 82 47 83 55 84 48 85 54 86
REMARK SMILES IDX 49 87 50 88 51 89 52 90 53 91
REMARK H PARENT 13 5 18 28 74 47 44 58
REMARK Flexibility Score: inf
ROOT
ATOM      1  C   UNL A   1      36.807  22.543  25.309  1.00  0.00     0.116 C 
ENDROOT
BRANCH   1   2
ATOM      2  N   UNL A   1      35.876  22.456  26.422  1.00  0.00    -0.349 N 
ATOM      3  C   UNL A   1      34.735  21.708  26.598  1.00  0.00     0.287 C 
ATOM      4  O   UNL A   1      34.202  21.778  27.706  1.00  0.00    -0.266 OA
ATOM      5  H   UNL A   1      36.103  23.035  27.185  1.00  0.00     0.163 HD
BRANCH   3   6
ATOM      6  C   UNL A   1      34.210  20.848  25.545  1.00  0.00     0.196 A 
ATOM      7  C   UNL A   1      33.218  21.088  24.583  1.00  0.00     0.027 A 
ATOM      8  C   UNL A   1      33.031  19.830  23.908  1.00  0.00     0.025 A 
ATOM      9  O   UNL A   1      34.739  19.608  25.358  1.00  0.00    -0.451 OA
ATOM     10  C   UNL A   1      34.026  18.991  24.390  1.00  0.00     0.135 A 
ATOM     11  C   UNL A   1      32.167  19.299  22.928  1.00  0.00     0.012 A 
ATOM     12  C   UNL A   1      34.259  17.689  23.950  1.00  0.00     0.048 A 
ATOM     13  C   UNL A   1      32.381  17.996  22.448  1.00  0.00     0.001 A 
ATOM     14  C   UNL A   1      33.415  17.208  22.948  1.00  0.00     0.004 A 
BRANCH   7  15
ATOM     15  C   UNL A   1      32.515  22.406  24.420  1.00  0.00     0.177 C 
BRANCH  15  16
ATOM     16  S   UNL A   1      33.328  23.764  23.579  1.00  0.00     0.156 S 
ATOM     17  O   UNL A   1      34.003  23.211  22.417  1.00  0.00    -0.228 OA
ATOM     18  O   UNL A   1      34.129  24.470  24.566  1.00  0.00    -0.228 OA
BRANCH  16  19
ATOM     19  C   UNL A   1      32.070  24.905  23.007  1.00  0.00     0.165 C 
BRANCH  19  20
ATOM     20  C   UNL A   1      30.642  24.457  23.249  1.00  0.00     0.176 C 
BRANCH  20  21
ATOM     21  O   UNL A   1      29.812  25.517  23.729  1.00  0.00    -0.384 OA
ATOM     22  C   UNL A   1      30.318  26.815  23.453  1.00  0.00     0.194 C 
ENDBRANCH  20  21
ENDBRANCH  19  20
ENDBRANCH  16  19
ENDBRANCH  15  16
ENDBRANCH   7  15
ENDBRANCH   3   6
ENDBRANCH   1   2
BRANCH   1  23
ATOM     23  C   UNL A   1      38.257  22.451  25.782  1.00  0.00     0.023 C 
BRANCH  23  24
ATOM     24  C   UNL A   1      38.794  23.730  26.435  1.00  0.00     0.023 C 
BRANCH  24  25
ATOM     25  C   UNL A   1      40.248  23.673  26.902  1.00  0.00     0.116 C 
BRANCH  25  26
ATOM     26  N   UNL A   1      41.182  24.247  25.945  1.00  0.00    -0.352 N 
ATOM     27  C   UNL A   1      41.694  25.523  25.895  1.00  0.00     0.251 C 
ATOM     28  H   UNL A   1      41.489  23.639  25.234  1.00  0.00     0.163 HD
ATOM     29  O   UNL A   1      42.386  25.868  24.942  1.00  0.00    -0.269 OA
BRANCH  27  30
ATOM     30  C   UNL A   1      41.379  26.484  26.975  1.00  0.00     0.039 A 
ATOM     31  C   UNL A   1      40.452  26.119  27.954  1.00  0.00     0.014 A 
ATOM     32  C   UNL A   1      42.010  27.729  27.034  1.00  0.00     0.014 A 
ATOM     33  C   UNL A   1      40.211  26.973  29.033  1.00  0.00     0.010 A 
ATOM     34  C   UNL A   1      41.821  28.548  28.145  1.00  0.00     0.010 A 
ATOM     35  C   UNL A   1      40.923  28.178  29.158  1.00  0.00    -0.014 A 
BRANCH  35  36
ATOM     36  C   UNL A   1      40.757  29.052  30.348  1.00  0.00     0.031 A 
ATOM     37  C   UNL A   1      41.614  28.846  31.567  1.00  0.00     0.074 A 
ATOM     38  C   UNL A   1      39.783  29.983  30.359  1.00  0.00     0.049 A 
ATOM     39  N   UNL A   1      41.570  29.465  32.719  1.00  0.00    -0.248 NA
ATOM     40  C   UNL A   1      42.637  27.791  31.491  1.00  0.00     0.031 C 
ATOM     41  C   UNL A   1      38.855  30.253  29.258  1.00  0.00     0.029 A 
ATOM     42  N   UNL A   1      39.404  30.872  31.336  1.00  0.00    -0.354 N 
ATOM     43  C   UNL A   1      42.543  28.864  33.510  1.00  0.00     0.074 A 
ATOM     44  C   UNL A   1      43.126  27.800  32.722  1.00  0.00     0.031 C 
ATOM     45  C   UNL A   1      38.033  31.254  29.610  1.00  0.00     0.029 A 
ATOM     46  C   UNL A   1      38.345  31.671  30.975  1.00  0.00     0.049 A 
ATOM     47  H   UNL A   1      39.849  30.931  32.211  1.00  0.00     0.167 HD
ATOM     48  C   UNL A   1      42.928  29.179  34.770  1.00  0.00     0.031 A 
ATOM     49  C   UNL A   1      37.691  32.627  31.663  1.00  0.00     0.031 A 
ATOM     50  C   UNL A   1      42.352  30.242  35.549  1.00  0.00     0.049 A 
ATOM     51  C   UNL A   1      38.133  32.958  33.062  1.00  0.00     0.074 A 
ATOM     52  C   UNL A   1      42.712  30.676  36.813  1.00  0.00     0.029 A 
ATOM     53  N   UNL A   1      41.291  31.038  35.140  1.00  0.00    -0.354 N 
ATOM     54  N   UNL A   1      39.099  32.421  33.768  1.00  0.00    -0.248 NA
ATOM     55  C   UNL A   1      37.405  34.031  33.752  1.00  0.00     0.031 C 
ATOM     56  C   UNL A   1      41.836  31.700  37.189  1.00  0.00     0.029 A 
ATOM     57  C   UNL A   1      40.969  31.945  36.136  1.00  0.00     0.049 A 
ATOM     58  H   UNL A   1      40.835  30.969  34.271  1.00  0.00     0.167 HD
ATOM     59  C   UNL A   1      39.114  33.111  34.976  1.00  0.00     0.074 A 
ATOM     60  C   UNL A   1      38.066  34.110  34.899  1.00  0.00     0.031 C 
ATOM     61  C   UNL A   1      39.924  32.933  36.048  1.00  0.00     0.031 A 
BRANCH  48  62
ATOM     62  C   UNL A   1      44.024  28.348  35.387  1.00  0.00    -0.014 A 
ATOM     63  C   UNL A   1      45.378  28.706  35.242  1.00  0.00     0.010 A 
ATOM     64  C   UNL A   1      43.697  27.209  36.144  1.00  0.00     0.010 A 
ATOM     65  C   UNL A   1      46.384  27.910  35.795  1.00  0.00     0.020 A 
ATOM     66  C   UNL A   1      44.699  26.428  36.726  1.00  0.00     0.020 A 
ATOM     67  C   UNL A   1      46.038  26.772  36.529  1.00  0.00     0.054 A 
BRANCH  67  68
ATOM     68  S   UNL A   1      47.365  25.761  37.240  1.00  0.00     0.124 S 
ATOM     69  O   UNL A   1      47.848  26.617  38.320  1.00  0.00    -0.237 OA
ATOM     70  O   UNL A   1      46.659  24.554  37.664  1.00  0.00    -0.237 OA
ATOM     71  O   UNL A   1      48.295  25.577  36.128  1.00  0.00    -0.744 OA
ENDBRANCH  67  68
ENDBRANCH  48  62
BRANCH  49  72
ATOM     72  C   UNL A   1      36.559  33.355  31.025  1.00  0.00    -0.014 A 
ATOM     73  C   UNL A   1      36.781  34.175  29.906  1.00  0.00     0.010 A 
ATOM     74  C   UNL A   1      35.249  33.206  31.516  1.00  0.00     0.010 A 
ATOM     75  C   UNL A   1      35.715  34.843  29.294  1.00  0.00     0.020 A 
ATOM     76  C   UNL A   1      34.178  33.850  30.891  1.00  0.00     0.020 A 
ATOM     77  C   UNL A   1      34.419  34.672  29.788  1.00  0.00     0.054 A 
BRANCH  77  78
ATOM     78  S   UNL A   1      33.044  35.494  28.938  1.00  0.00     0.124 S 
ATOM     79  O   UNL A   1      32.253  35.999  30.056  1.00  0.00    -0.237 OA
ATOM     80  O   UNL A   1      33.729  36.507  28.138  1.00  0.00    -0.237 OA
ATOM     81  O   UNL A   1      32.426  34.417  28.167  1.00  0.00    -0.744 OA
ENDBRANCH  77  78
ENDBRANCH  49  72
BRANCH  61  82
ATOM     82  C   UNL A   1      39.739  33.862  37.219  1.00  0.00    -0.014 A 
ATOM     83  C   UNL A   1      40.325  35.140  37.238  1.00  0.00     0.010 A 
ATOM     84  C   UNL A   1      38.913  33.471  38.290  1.00  0.00     0.010 A 
ATOM     85  C   UNL A   1      40.112  35.998  38.320  1.00  0.00     0.020 A 
ATOM     86  C   UNL A   1      38.676  34.336  39.360  1.00  0.00     0.020 A 
ATOM     87  C   UNL A   1      39.288  35.591  39.374  1.00  0.00     0.054 A 
BRANCH  87  88
ATOM     88  S   UNL A   1      38.989  36.742  40.744  1.00  0.00     0.124 S 
ATOM     89  O   UNL A   1      40.340  36.976  41.245  1.00  0.00    -0.237 OA
ATOM     90  O   UNL A   1      38.359  37.879  40.077  1.00  0.00    -0.237 OA
ATOM     91  O   UNL A   1      38.113  35.991  41.642  1.00  0.00    -0.744 OA
ENDBRANCH  87  88
ENDBRANCH  61  82
ENDBRANCH  35  36
ENDBRANCH  27  30
ENDBRANCH  25  26
ENDBRANCH  24  25
ENDBRANCH  23  24
ENDBRANCH   1  23
TORSDOF 19
ENDMDL
MODEL 3
REMARK VINA RESULT:      -9.1      5.069     11.850
REMARK SMILES COCCS(=O)(=O)Cc1c(C(=O)NCCCCNC(=O)c2ccc(-c3c4nc(c(-c5ccc(S(=O)(=O)[O-])cc5)c5ccc([nH]5)c(-c5ccc(S(=O)(=O)[O-])cc5)c5nc(c(-c6ccc(S(=O)(=O)[O-])cc6)c6ccc3[nH]6)C=C5)C=C4)cc2)oc2ccccc12
REMARK SMILES IDX 14 1 13 2 11 3 12 4 10 6 9 7 87 8 81 9 82 10 86 11 83 12
REMARK SMILES IDX 85 13 84 14 8 15 5 16 6 17 7 18 4 19 3 20 2 21 1 22 15 23
REMARK SMILES IDX 16 24 17 25 18 26 19 27 20 29 21 30 22 31 80 32 23 33 79 34
REMARK SMILES IDX 24 35 25 36 26 37 73 38 27 39 78 40 72 41 74 42 28 43 77 44
REMARK SMILES IDX 71 45 70 46 29 48 59 49 40 50 58 51 41 52 44 53 57 54 75 55
REMARK SMILES IDX 42 56 43 57 56 59 76 60 45 61 30 62 31 63 39 64 32 65 38 66
REMARK SMILES IDX 33 67 34 68 35 69 36 70 37 71 60 72 61 73 69 74 62 75 68 76
REMARK SMILES IDX 63 77 64 78 65 79 66 80 67 81 46 82 47 83 55 84 48 85 54 86
REMARK SMILES IDX 49 87 50 88 51 89 52 90 53 91
REMARK H PARENT 13 5 18 28 74 47 44 58
REMARK Flexibility Score: inf
ROOT
ATOM      1  C   UNL A   1      37.955  22.217  25.826  1.00  0.00     0.116 C 
ENDROOT
BRANCH   1   2
ATOM      2  N   UNL A   1      37.647  22.331  24.411  1.00  0.00    -0.349 N 
ATOM      3  C   UNL A   1      36.533  22.804  23.757  1.00  0.00     0.287 C 
ATOM      4  O   UNL A   1      36.605  22.864  22.528  1.00  0.00    -0.266 OA
ATOM      5  H   UNL A   1      38.362  22.012  23.814  1.00  0.00     0.163 HD
BRANCH   3   6
ATOM      6  C   UNL A   1      35.349  23.250  24.479  1.00  0.00     0.196 A 
ATOM      7  C   UNL A   1      34.288  22.517  25.031  1.00  0.00     0.027 A 
ATOM      8  C   UNL A   1      33.346  23.501  25.496  1.00  0.00     0.025 A 
ATOM      9  O   UNL A   1      35.181  24.573  24.752  1.00  0.00    -0.451 OA
ATOM     10  C   UNL A   1      33.977  24.728  25.346  1.00  0.00     0.135 A 
ATOM     11  C   UNL A   1      32.051  23.513  26.053  1.00  0.00     0.012 A 
ATOM     12  C   UNL A   1      33.447  25.955  25.742  1.00  0.00     0.048 A 
ATOM     13  C   UNL A   1      31.491  24.728  26.479  1.00  0.00     0.001 A 
ATOM     14  C   UNL A   1      32.183  25.929  26.331  1.00  0.00     0.004 A 
BRANCH   7  15
ATOM     15  C   UNL A   1      34.221  21.015  25.026  1.00  0.00     0.177 C 
BRANCH  15  16
ATOM     16  S   UNL A   1      32.787  20.178  24.353  1.00  0.00     0.156 S 
ATOM     17  O   UNL A   1      32.439  20.846  23.111  1.00  0.00    -0.228 OA
ATOM     18  O   UNL A   1      31.784  20.121  25.405  1.00  0.00    -0.228 OA
BRANCH  16  19
ATOM     19  C   UNL A   1      33.248  18.489  23.972  1.00  0.00     0.165 C 
BRANCH  19  20
ATOM     20  C   UNL A   1      32.661  17.441  24.897  1.00  0.00     0.176 C 
BRANCH  20  21
ATOM     21  O   UNL A   1      33.243  16.150  24.698  1.00  0.00    -0.384 OA
ATOM     22  C   UNL A   1      32.523  15.093  25.314  1.00  0.00     0.194 C 
ENDBRANCH  20  21
ENDBRANCH  19  20
ENDBRANCH  16  19
ENDBRANCH  15  16
ENDBRANCH   7  15
ENDBRANCH   3   6
ENDBRANCH   1   2
BRANCH   1  23
ATOM     23  C   UNL A   1      39.424  21.862  26.054  1.00  0.00     0.023 C 
BRANCH  23  24
ATOM     24  C   UNL A   1      40.043  22.493  27.306  1.00  0.00     0.023 C 
BRANCH  24  25
ATOM     25  C   UNL A   1      41.456  23.049  27.136  1.00  0.00     0.116 C 
BRANCH  25  26
ATOM     26  N   UNL A   1      41.575  23.991  26.033  1.00  0.00    -0.352 N 
ATOM     27  C   UNL A   1      41.514  25.365  26.059  1.00  0.00     0.251 C 
ATOM     28  H   UNL A   1      41.718  23.589  25.145  1.00  0.00     0.163 HD
ATOM     29  O   UNL A   1      41.519  25.998  25.008  1.00  0.00    -0.269 OA
BRANCH  27  30
ATOM     30  C   UNL A   1      41.406  26.071  27.355  1.00  0.00     0.039 A 
ATOM     31  C   UNL A   1      42.474  26.865  27.782  1.00  0.00     0.014 A 
ATOM     32  C   UNL A   1      40.251  25.971  28.133  1.00  0.00     0.014 A 
ATOM     33  C   UNL A   1      42.355  27.615  28.954  1.00  0.00     0.010 A 
ATOM     34  C   UNL A   1      40.106  26.771  29.264  1.00  0.00     0.010 A 
ATOM     35  C   UNL A   1      41.155  27.605  29.684  1.00  0.00    -0.014 A 
BRANCH  35  36
ATOM     36  C   UNL A   1      40.970  28.471  30.877  1.00  0.00     0.031 A 
ATOM     37  C   UNL A   1      39.893  29.522  30.893  1.00  0.00     0.074 A 
ATOM     38  C   UNL A   1      41.820  28.364  31.917  1.00  0.00     0.049 A 
ATOM     39  N   UNL A   1      39.624  30.413  31.813  1.00  0.00    -0.248 NA
ATOM     40  C   UNL A   1      39.022  29.600  29.709  1.00  0.00     0.031 C 
ATOM     41  C   UNL A   1      42.934  27.415  32.008  1.00  0.00     0.029 A 
ATOM     42  N   UNL A   1      41.887  29.065  33.097  1.00  0.00    -0.354 N 
ATOM     43  C   UNL A   1      38.567  31.166  31.315  1.00  0.00     0.074 A 
ATOM     44  C   UNL A   1      38.279  30.660  29.990  1.00  0.00     0.031 C 
ATOM     45  C   UNL A   1      43.555  27.577  33.186  1.00  0.00     0.029 A 
ATOM     46  C   UNL A   1      42.914  28.665  33.919  1.00  0.00     0.049 A 
ATOM     47  H   UNL A   1      41.259  29.785  33.330  1.00  0.00     0.167 HD
ATOM     48  C   UNL A   1      37.888  32.176  31.910  1.00  0.00     0.031 A 
ATOM     49  C   UNL A   1      43.303  29.125  35.124  1.00  0.00     0.031 A 
ATOM     50  C   UNL A   1      38.172  32.673  33.230  1.00  0.00     0.049 A 
ATOM     51  C   UNL A   1      42.538  30.249  35.765  1.00  0.00     0.074 A 
ATOM     52  C   UNL A   1      37.505  33.654  33.942  1.00  0.00     0.029 A 
ATOM     53  N   UNL A   1      39.212  32.230  34.035  1.00  0.00    -0.354 N 
ATOM     54  N   UNL A   1      41.500  30.905  35.304  1.00  0.00    -0.248 NA
ATOM     55  C   UNL A   1      42.988  30.687  37.093  1.00  0.00     0.031 C 
ATOM     56  C   UNL A   1      38.171  33.840  35.158  1.00  0.00     0.029 A 
ATOM     57  C   UNL A   1      39.217  32.934  35.229  1.00  0.00     0.049 A 
ATOM     58  H   UNL A   1      39.850  31.521  33.795  1.00  0.00     0.167 HD
ATOM     59  C   UNL A   1      41.154  31.814  36.298  1.00  0.00     0.074 A 
ATOM     60  C   UNL A   1      42.088  31.616  37.388  1.00  0.00     0.031 C 
ATOM     61  C   UNL A   1      40.152  32.728  36.306  1.00  0.00     0.031 A 
BRANCH  48  62
ATOM     62  C   UNL A   1      36.773  32.818  31.125  1.00  0.00    -0.014 A 
ATOM     63  C   UNL A   1      35.424  32.550  31.425  1.00  0.00     0.010 A 
ATOM     64  C   UNL A   1      37.075  33.720  30.089  1.00  0.00     0.010 A 
ATOM     65  C   UNL A   1      34.402  33.130  30.670  1.00  0.00     0.020 A 
ATOM     66  C   UNL A   1      36.055  34.327  29.352  1.00  0.00     0.020 A 
ATOM     67  C   UNL A   1      34.724  34.010  29.633  1.00  0.00     0.054 A 
BRANCH  67  68
ATOM     68  S   UNL A   1      33.376  34.752  28.673  1.00  0.00     0.124 S 
ATOM     69  O   UNL A   1      32.439  35.141  29.724  1.00  0.00    -0.237 OA
ATOM     70  O   UNL A   1      34.041  35.856  27.984  1.00  0.00    -0.237 OA
ATOM     71  O   UNL A   1      32.926  33.664  27.809  1.00  0.00    -0.744 OA
ENDBRANCH  67  68
ENDBRANCH  48  62
BRANCH  49  72
ATOM     72  C   UNL A   1      44.468  28.502  35.812  1.00  0.00    -0.014 A 
ATOM     73  C   UNL A   1      45.749  29.070  35.701  1.00  0.00     0.010 A 
ATOM     74  C   UNL A   1      44.296  27.354  36.607  1.00  0.00     0.010 A 
ATOM     75  C   UNL A   1      46.839  28.497  36.363  1.00  0.00     0.020 A 
ATOM     76  C   UNL A   1      45.377  26.794  37.292  1.00  0.00     0.020 A 
ATOM     77  C   UNL A   1      46.644  27.365  37.159  1.00  0.00     0.054 A 
BRANCH  77  78
ATOM     78  S   UNL A   1      48.060  26.679  38.063  1.00  0.00     0.124 S 
ATOM     79  O   UNL A   1      47.485  25.479  38.663  1.00  0.00    -0.237 OA
ATOM     80  O   UNL A   1      49.033  26.450  36.997  1.00  0.00    -0.237 OA
ATOM     81  O   UNL A   1      48.415  27.742  39.000  1.00  0.00    -0.744 OA
ENDBRANCH  77  78
ENDBRANCH  49  72
BRANCH  61  82
ATOM     82  C   UNL A   1      39.985  33.563  37.548  1.00  0.00    -0.014 A 
ATOM     83  C   UNL A   1      39.146  33.150  38.598  1.00  0.00     0.010 A 
ATOM     84  C   UNL A   1      40.727  34.750  37.688  1.00  0.00     0.010 A 
ATOM     85  C   UNL A   1      39.033  33.926  39.756  1.00  0.00     0.020 A 
ATOM     86  C   UNL A   1      40.637  35.513  38.855  1.00  0.00     0.020 A 
ATOM     87  C   UNL A   1      39.779  35.102  39.877  1.00  0.00     0.054 A 
BRANCH  87  88
ATOM     88  S   UNL A   1      39.650  36.065  41.409  1.00  0.00     0.124 S 
ATOM     89  O   UNL A   1      40.965  36.695  41.483  1.00  0.00    -0.237 OA
ATOM     90  O   UNL A   1      38.535  36.966  41.130  1.00  0.00    -0.237 OA
ATOM     91  O   UNL A   1      39.385  35.054  42.431  1.00  0.00    -0.744 OA
ENDBRANCH  87  88
ENDBRANCH  61  82
ENDBRANCH  35  36
ENDBRANCH  27  30
ENDBRANCH  25  26
ENDBRANCH  24  25
ENDBRANCH  23  24
ENDBRANCH   1  23
TORSDOF 19
ENDMDL
