MODEL 1
REMARK VINA RESULT:     -10.7      0.000      0.000
REMARK SMILES CSCC[C@@H](C(=O)NCCCCNC(=O)c1ccc(-c2c3nc(c(-c4ccc(S(=O)(=O)[O-])cc4)c4ccc([nH]4)c(-c4ccc(S(=O)(=O)[O-])cc4)c4nc(c(-c5ccc(S(=O)(=O)[O-])cc5)c5ccc2[nH]5)C=C4)C=C3)cc1)N1C(=O)/C(=C/c2ccc(-c3ccccc3Cl)o2)SC1=S
REMARK SMILES IDX 10 1 9 2 8 3 6 4 7 5 5 7 4 8 3 9 2 10 1 11 76 12 77 13 94 14
REMARK SMILES IDX 78 15 79 16 93 17 95 18 80 19 81 20 82 21 92 22 83 23 84 24
REMARK SMILES IDX 85 25 86 26 90 27 87 28 89 29 91 30 88 31 11 32 12 33 13 34
REMARK SMILES IDX 14 35 15 37 16 38 17 39 75 40 18 41 74 42 19 43 20 44 21 45
REMARK SMILES IDX 68 46 22 47 73 48 67 49 69 50 23 51 72 52 66 53 65 54 24 56
REMARK SMILES IDX 54 57 35 58 53 59 36 60 39 61 52 62 70 63 37 64 38 65 51 67
REMARK SMILES IDX 71 68 40 69 25 70 26 71 34 72 27 73 33 74 28 75 29 76 30 77
REMARK SMILES IDX 31 78 32 79 55 80 56 81 64 82 57 83 63 84 58 85 59 86 60 87
REMARK SMILES IDX 61 88 62 89 41 90 42 91 50 92 43 93 49 94 44 95 45 96 46 97
REMARK SMILES IDX 47 98 48 99
REMARK H PARENT 8 6 13 36 69 55 39 66
REMARK Flexibility Score: inf
ROOT
ATOM      1  C   UNL A   1      35.802  29.306  27.077  1.00  0.00     0.023 C 
ENDROOT
BRANCH   1   2
ATOM      2  C   UNL A   1      34.603  28.906  26.218  1.00  0.00     0.116 C 
BRANCH   2   3
ATOM      3  N   UNL A   1      33.385  29.498  26.715  1.00  0.00    -0.354 N 
ATOM      4  C   UNL A   1      32.133  29.522  26.182  1.00  0.00     0.243 C 
ATOM      5  O   UNL A   1      31.249  30.010  26.894  1.00  0.00    -0.273 OA
ATOM      6  H   UNL A   1      33.473  29.959  27.581  1.00  0.00     0.163 HD
BRANCH   4   7
ATOM      7  C   UNL A   1      31.820  28.924  24.780  1.00  0.00     0.182 C 
BRANCH   7   8
ATOM      8  C   UNL A   1      30.370  29.080  24.269  1.00  0.00     0.046 C 
BRANCH   8   9
ATOM      9  C   UNL A   1      29.999  30.302  23.421  1.00  0.00     0.072 C 
BRANCH   9  10
ATOM     10  S   UNL A   1      28.772  29.995  22.109  1.00  0.00    -0.165 SA
ATOM     11  C   UNL A   1      27.279  29.702  23.096  1.00  0.00     0.085 C 
ENDBRANCH   9  10
ENDBRANCH   8   9
ENDBRANCH   7   8
BRANCH   7  12
ATOM     12  N   UNL A   1      32.242  27.494  24.858  1.00  0.00    -0.280 N 
ATOM     13  C   UNL A   1      31.736  26.720  25.895  1.00  0.00     0.267 C 
ATOM     14  C   UNL A   1      32.967  26.808  23.894  1.00  0.00     0.149 C 
ATOM     15  O   UNL A   1      31.010  27.113  26.799  1.00  0.00    -0.268 OA
ATOM     16  C   UNL A   1      32.226  25.317  25.795  1.00  0.00     0.084 C 
ATOM     17  S   UNL A   1      33.250  25.156  24.425  1.00  0.00    -0.054 SA
ATOM     18  S   UNL A   1      33.578  27.323  22.425  1.00  0.00    -0.052 S 
ATOM     19  C   UNL A   1      31.890  24.361  26.673  1.00  0.00     0.068 C 
BRANCH  19  20
ATOM     20  C   UNL A   1      32.474  23.064  26.629  1.00  0.00     0.128 A 
ATOM     21  C   UNL A   1      33.523  22.567  27.396  1.00  0.00     0.051 A 
ATOM     22  O   UNL A   1      32.074  22.062  25.772  1.00  0.00    -0.457 OA
ATOM     23  C   UNL A   1      33.802  21.257  26.955  1.00  0.00     0.051 A 
ATOM     24  C   UNL A   1      32.911  20.998  25.938  1.00  0.00     0.136 A 
BRANCH  24  25
ATOM     25  C   UNL A   1      32.714  19.838  25.078  1.00  0.00     0.036 A 
ATOM     26  C   UNL A   1      32.830  18.559  25.655  1.00  0.00     0.013 A 
ATOM     27  C   UNL A   1      32.500  19.924  23.692  1.00  0.00     0.052 A 
ATOM     28  C   UNL A   1      32.741  17.402  24.877  1.00  0.00     0.001 A 
ATOM     29  C   UNL A   1      32.412  18.761  22.915  1.00  0.00     0.021 A 
ATOM     30  Cl  UNL A   1      32.410  21.434  22.852  1.00  0.00    -0.084 Cl
ATOM     31  C   UNL A   1      32.535  17.502  23.505  1.00  0.00     0.002 A 
ENDBRANCH  24  25
ENDBRANCH  19  20
ENDBRANCH   7  12
ENDBRANCH   4   7
ENDBRANCH   2   3
ENDBRANCH   1   2
BRANCH   1  32
ATOM     32  C   UNL A   1      35.424  30.115  28.320  1.00  0.00     0.023 C 
BRANCH  32  33
ATOM     33  C   UNL A   1      36.055  29.614  29.616  1.00  0.00     0.116 C 
BRANCH  33  34
ATOM     34  N   UNL A   1      35.933  30.552  30.726  1.00  0.00    -0.352 N 
ATOM     35  C   UNL A   1      36.943  31.161  31.434  1.00  0.00     0.251 C 
ATOM     36  H   UNL A   1      35.014  30.777  31.001  1.00  0.00     0.163 HD
ATOM     37  O   UNL A   1      36.686  31.866  32.405  1.00  0.00    -0.269 OA
BRANCH  35  38
ATOM     38  C   UNL A   1      38.341  30.908  31.034  1.00  0.00     0.039 A 
ATOM     39  C   UNL A   1      39.198  30.271  31.934  1.00  0.00     0.014 A 
ATOM     40  C   UNL A   1      38.767  31.216  29.740  1.00  0.00     0.014 A 
ATOM     41  C   UNL A   1      40.462  29.864  31.504  1.00  0.00     0.010 A 
ATOM     42  C   UNL A   1      39.996  30.742  29.293  1.00  0.00     0.010 A 
ATOM     43  C   UNL A   1      40.852  30.054  30.168  1.00  0.00    -0.014 A 
BRANCH  43  44
ATOM     44  C   UNL A   1      42.143  29.531  29.656  1.00  0.00     0.031 A 
ATOM     45  C   UNL A   1      43.344  30.433  29.583  1.00  0.00     0.074 A 
ATOM     46  C   UNL A   1      42.213  28.271  29.180  1.00  0.00     0.049 A 
ATOM     47  N   UNL A   1      44.530  30.188  29.088  1.00  0.00    -0.248 NA
ATOM     48  C   UNL A   1      43.180  31.799  30.106  1.00  0.00     0.031 C 
ATOM     49  C   UNL A   1      41.104  27.313  29.143  1.00  0.00     0.029 A 
ATOM     50  N   UNL A   1      43.262  27.582  28.626  1.00  0.00    -0.354 N 
ATOM     51  C   UNL A   1      45.244  31.374  29.218  1.00  0.00     0.074 A 
ATOM     52  C   UNL A   1      44.343  32.350  29.791  1.00  0.00     0.031 C 
ATOM     53  C   UNL A   1      41.540  26.156  28.618  1.00  0.00     0.029 A 
ATOM     54  C   UNL A   1      42.945  26.297  28.250  1.00  0.00     0.049 A 
ATOM     55  H   UNL A   1      44.159  27.970  28.509  1.00  0.00     0.167 HD
ATOM     56  C   UNL A   1      46.539  31.623  28.910  1.00  0.00     0.031 A 
ATOM     57  C   UNL A   1      43.698  25.342  27.671  1.00  0.00     0.031 A 
ATOM     58  C   UNL A   1      47.438  30.646  28.363  1.00  0.00     0.049 A 
ATOM     59  C   UNL A   1      45.140  25.634  27.360  1.00  0.00     0.074 A 
ATOM     60  C   UNL A   1      48.784  30.783  28.068  1.00  0.00     0.029 A 
ATOM     61  N   UNL A   1      47.087  29.346  28.033  1.00  0.00    -0.354 N 
ATOM     62  N   UNL A   1      45.813  26.744  27.546  1.00  0.00    -0.248 NA
ATOM     63  C   UNL A   1      45.927  24.541  26.773  1.00  0.00     0.031 C 
ATOM     64  C   UNL A   1      49.238  29.575  27.528  1.00  0.00     0.029 A 
ATOM     65  C   UNL A   1      48.187  28.672  27.528  1.00  0.00     0.049 A 
ATOM     66  H   UNL A   1      46.188  28.959  28.141  1.00  0.00     0.167 HD
ATOM     67  C   UNL A   1      47.109  26.475  27.123  1.00  0.00     0.074 A 
ATOM     68  C   UNL A   1      47.128  25.095  26.683  1.00  0.00     0.031 C 
ATOM     69  C   UNL A   1      48.187  27.297  27.099  1.00  0.00     0.031 A 
BRANCH  56  70
ATOM     70  C   UNL A   1      47.052  33.015  29.167  1.00  0.00    -0.014 A 
ATOM     71  C   UNL A   1      47.623  33.356  30.407  1.00  0.00     0.010 A 
ATOM     72  C   UNL A   1      46.981  33.988  28.155  1.00  0.00     0.010 A 
ATOM     73  C   UNL A   1      48.066  34.658  30.648  1.00  0.00     0.020 A 
ATOM     74  C   UNL A   1      47.450  35.286  28.382  1.00  0.00     0.020 A 
ATOM     75  C   UNL A   1      47.971  35.617  29.635  1.00  0.00     0.054 A 
BRANCH  75  76
ATOM     76  S   UNL A   1      48.561  37.298  29.971  1.00  0.00     0.124 S 
ATOM     77  O   UNL A   1      49.671  37.048  30.889  1.00  0.00    -0.237 OA
ATOM     78  O   UNL A   1      48.938  37.779  28.645  1.00  0.00    -0.237 OA
ATOM     79  O   UNL A   1      47.401  37.961  30.563  1.00  0.00    -0.744 OA
ENDBRANCH  75  76
ENDBRANCH  56  70
BRANCH  57  80
ATOM     80  C   UNL A   1      43.107  24.011  27.371  1.00  0.00    -0.014 A 
ATOM     81  C   UNL A   1      42.602  23.729  26.089  1.00  0.00     0.010 A 
ATOM     82  C   UNL A   1      43.060  23.010  28.360  1.00  0.00     0.010 A 
ATOM     83  C   UNL A   1      42.047  22.478  25.804  1.00  0.00     0.020 A 
ATOM     84  C   UNL A   1      42.527  21.750  28.072  1.00  0.00     0.020 A 
ATOM     85  C   UNL A   1      42.013  21.496  26.799  1.00  0.00     0.054 A 
BRANCH  85  86
ATOM     86  S   UNL A   1      41.339  19.861  26.392  1.00  0.00     0.124 S 
ATOM     87  O   UNL A   1      42.252  19.409  25.346  1.00  0.00    -0.237 OA
ATOM     88  O   UNL A   1      41.432  19.152  27.665  1.00  0.00    -0.237 OA
ATOM     89  O   UNL A   1      39.977  20.155  25.952  1.00  0.00    -0.744 OA
ENDBRANCH  85  86
ENDBRANCH  57  80
BRANCH  69  90
ATOM     90  C   UNL A   1      49.487  26.719  26.612  1.00  0.00    -0.014 A 
ATOM     91  C   UNL A   1      49.828  26.745  25.248  1.00  0.00     0.010 A 
ATOM     92  C   UNL A   1      50.405  26.198  27.542  1.00  0.00     0.010 A 
ATOM     93  C   UNL A   1      51.056  26.233  24.820  1.00  0.00     0.020 A 
ATOM     94  C   UNL A   1      51.643  25.708  27.120  1.00  0.00     0.020 A 
ATOM     95  C   UNL A   1      51.956  25.717  25.759  1.00  0.00     0.054 A 
BRANCH  95  96
ATOM     96  S   UNL A   1      53.563  25.103  25.185  1.00  0.00     0.124 S 
ATOM     97  O   UNL A   1      53.402  23.659  25.319  1.00  0.00    -0.237 OA
ATOM     98  O   UNL A   1      53.629  25.605  23.814  1.00  0.00    -0.237 OA
ATOM     99  O   UNL A   1      54.515  25.714  26.110  1.00  0.00    -0.744 OA
ENDBRANCH  95  96
ENDBRANCH  69  90
ENDBRANCH  43  44
ENDBRANCH  35  38
ENDBRANCH  33  34
ENDBRANCH  32  33
ENDBRANCH   1  32
TORSDOF 20
ENDMDL
MODEL 2
REMARK VINA RESULT:     -10.7      5.449      9.618
REMARK SMILES CSCC[C@@H](C(=O)NCCCCNC(=O)c1ccc(-c2c3nc(c(-c4ccc(S(=O)(=O)[O-])cc4)c4ccc([nH]4)c(-c4ccc(S(=O)(=O)[O-])cc4)c4nc(c(-c5ccc(S(=O)(=O)[O-])cc5)c5ccc2[nH]5)C=C4)C=C3)cc1)N1C(=O)/C(=C/c2ccc(-c3ccccc3Cl)o2)SC1=S
REMARK SMILES IDX 10 1 9 2 8 3 6 4 7 5 5 7 4 8 3 9 2 10 1 11 76 12 77 13 94 14
REMARK SMILES IDX 78 15 79 16 93 17 95 18 80 19 81 20 82 21 92 22 83 23 84 24
REMARK SMILES IDX 85 25 86 26 90 27 87 28 89 29 91 30 88 31 11 32 12 33 13 34
REMARK SMILES IDX 14 35 15 37 16 38 17 39 75 40 18 41 74 42 19 43 20 44 21 45
REMARK SMILES IDX 68 46 22 47 73 48 67 49 69 50 23 51 72 52 66 53 65 54 24 56
REMARK SMILES IDX 54 57 35 58 53 59 36 60 39 61 52 62 70 63 37 64 38 65 51 67
REMARK SMILES IDX 71 68 40 69 25 70 26 71 34 72 27 73 33 74 28 75 29 76 30 77
REMARK SMILES IDX 31 78 32 79 55 80 56 81 64 82 57 83 63 84 58 85 59 86 60 87
REMARK SMILES IDX 61 88 62 89 41 90 42 91 50 92 43 93 49 94 44 95 45 96 46 97
REMARK SMILES IDX 47 98 48 99
REMARK H PARENT 8 6 13 36 69 55 39 66
REMARK Flexibility Score: inf
ROOT
ATOM      1  C   UNL A   1      33.943  30.207  27.094  1.00  0.00     0.023 C 
ENDROOT
BRANCH   1   2
ATOM      2  C   UNL A   1      32.542  30.213  26.484  1.00  0.00     0.116 C 
BRANCH   2   3
ATOM      3  N   UNL A   1      31.790  29.052  26.893  1.00  0.00    -0.354 N 
ATOM      4  C   UNL A   1      31.501  27.905  26.219  1.00  0.00     0.243 C 
ATOM      5  O   UNL A   1      30.928  27.024  26.870  1.00  0.00    -0.273 OA
ATOM      6  H   UNL A   1      31.428  29.095  27.808  1.00  0.00     0.163 HD
BRANCH   4   7
ATOM      7  C   UNL A   1      31.913  27.693  24.734  1.00  0.00     0.182 C 
BRANCH   7   8
ATOM      8  C   UNL A   1      30.827  27.970  23.669  1.00  0.00     0.046 C 
BRANCH   8   9
ATOM      9  C   UNL A   1      30.273  29.390  23.512  1.00  0.00     0.072 C 
BRANCH   9  10
ATOM     10  S   UNL A   1      28.621  29.502  22.751  1.00  0.00    -0.165 SA
ATOM     11  C   UNL A   1      28.643  31.206  22.131  1.00  0.00     0.085 C 
ENDBRANCH   9  10
ENDBRANCH   8   9
ENDBRANCH   7   8
BRANCH   7  12
ATOM     12  N   UNL A   1      32.430  26.294  24.663  1.00  0.00    -0.280 N 
ATOM     13  C   UNL A   1      33.636  26.012  25.292  1.00  0.00     0.267 C 
ATOM     14  C   UNL A   1      31.740  25.198  24.167  1.00  0.00     0.149 C 
ATOM     15  O   UNL A   1      34.359  26.820  25.861  1.00  0.00    -0.268 OA
ATOM     16  C   UNL A   1      33.978  24.569  25.156  1.00  0.00     0.084 C 
ATOM     17  S   UNL A   1      32.751  23.764  24.263  1.00  0.00    -0.054 SA
ATOM     18  S   UNL A   1      30.203  25.087  23.517  1.00  0.00    -0.052 S 
ATOM     19  C   UNL A   1      35.092  24.029  25.670  1.00  0.00     0.068 C 
BRANCH  19  20
ATOM     20  C   UNL A   1      35.458  22.677  25.416  1.00  0.00     0.128 A 
ATOM     21  C   UNL A   1      36.731  22.155  25.213  1.00  0.00     0.051 A 
ATOM     22  O   UNL A   1      34.561  21.636  25.318  1.00  0.00    -0.457 OA
ATOM     23  C   UNL A   1      36.598  20.781  24.930  1.00  0.00     0.051 A 
ATOM     24  C   UNL A   1      35.249  20.510  24.974  1.00  0.00     0.136 A 
BRANCH  24  25
ATOM     25  C   UNL A   1      34.485  19.290  24.748  1.00  0.00     0.036 A 
ATOM     26  C   UNL A   1      35.193  18.111  24.447  1.00  0.00     0.013 A 
ATOM     27  C   UNL A   1      33.080  19.243  24.731  1.00  0.00     0.052 A 
ATOM     28  C   UNL A   1      34.526  16.924  24.133  1.00  0.00     0.001 A 
ATOM     29  C   UNL A   1      32.415  18.051  24.414  1.00  0.00     0.021 A 
ATOM     30  Cl  UNL A   1      32.094  20.637  25.015  1.00  0.00    -0.084 Cl
ATOM     31  C   UNL A   1      33.136  16.895  24.113  1.00  0.00     0.002 A 
ENDBRANCH  24  25
ENDBRANCH  19  20
ENDBRANCH   7  12
ENDBRANCH   4   7
ENDBRANCH   2   3
ENDBRANCH   1   2
BRANCH   1  32
ATOM     32  C   UNL A   1      34.145  31.266  28.180  1.00  0.00     0.023 C 
BRANCH  32  33
ATOM     33  C   UNL A   1      34.354  32.682  27.650  1.00  0.00     0.116 C 
BRANCH  33  34
ATOM     34  N   UNL A   1      33.447  33.664  28.232  1.00  0.00    -0.352 N 
ATOM     35  C   UNL A   1      33.532  34.268  29.466  1.00  0.00     0.251 C 
ATOM     36  H   UNL A   1      32.680  33.926  27.674  1.00  0.00     0.163 HD
ATOM     37  O   UNL A   1      32.642  35.015  29.856  1.00  0.00    -0.269 OA
BRANCH  35  38
ATOM     38  C   UNL A   1      34.690  33.958  30.327  1.00  0.00     0.039 A 
ATOM     39  C   UNL A   1      34.578  32.933  31.268  1.00  0.00     0.014 A 
ATOM     40  C   UNL A   1      35.906  34.618  30.133  1.00  0.00     0.014 A 
ATOM     41  C   UNL A   1      35.716  32.510  31.958  1.00  0.00     0.010 A 
ATOM     42  C   UNL A   1      37.050  34.144  30.765  1.00  0.00     0.010 A 
ATOM     43  C   UNL A   1      36.968  33.080  31.678  1.00  0.00    -0.014 A 
BRANCH  43  44
ATOM     44  C   UNL A   1      38.210  32.573  32.314  1.00  0.00     0.031 A 
ATOM     45  C   UNL A   1      39.135  31.672  31.544  1.00  0.00     0.074 A 
ATOM     46  C   UNL A   1      38.462  32.855  33.608  1.00  0.00     0.049 A 
ATOM     47  N   UNL A   1      40.217  31.060  31.951  1.00  0.00    -0.248 NA
ATOM     48  C   UNL A   1      38.780  31.398  30.142  1.00  0.00     0.031 C 
ATOM     49  C   UNL A   1      37.614  33.672  34.482  1.00  0.00     0.029 A 
ATOM     50  N   UNL A   1      39.502  32.476  34.420  1.00  0.00    -0.354 N 
ATOM     51  C   UNL A   1      40.657  30.312  30.865  1.00  0.00     0.074 A 
ATOM     52  C   UNL A   1      39.698  30.507  29.800  1.00  0.00     0.031 C 
ATOM     53  C   UNL A   1      38.181  33.751  35.697  1.00  0.00     0.029 A 
ATOM     54  C   UNL A   1      39.411  32.966  35.702  1.00  0.00     0.049 A 
ATOM     55  H   UNL A   1      40.244  31.908  34.113  1.00  0.00     0.167 HD
ATOM     56  C   UNL A   1      41.771  29.549  30.755  1.00  0.00     0.031 A 
ATOM     57  C   UNL A   1      40.223  32.799  36.764  1.00  0.00     0.031 A 
ATOM     58  C   UNL A   1      42.735  29.375  31.807  1.00  0.00     0.049 A 
ATOM     59  C   UNL A   1      41.467  31.967  36.611  1.00  0.00     0.074 A 
ATOM     60  C   UNL A   1      43.924  28.668  31.776  1.00  0.00     0.029 A 
ATOM     61  N   UNL A   1      42.624  29.919  33.077  1.00  0.00    -0.354 N 
ATOM     62  N   UNL A   1      41.896  31.315  35.557  1.00  0.00    -0.248 NA
ATOM     63  C   UNL A   1      42.341  31.858  37.787  1.00  0.00     0.031 C 
ATOM     64  C   UNL A   1      44.517  28.757  33.041  1.00  0.00     0.029 A 
ATOM     65  C   UNL A   1      43.719  29.556  33.844  1.00  0.00     0.049 A 
ATOM     66  H   UNL A   1      41.878  30.481  33.388  1.00  0.00     0.167 HD
ATOM     67  C   UNL A   1      43.104  30.740  35.935  1.00  0.00     0.074 A 
ATOM     68  C   UNL A   1      43.342  31.131  37.309  1.00  0.00     0.031 C 
ATOM     69  C   UNL A   1      43.940  29.958  35.209  1.00  0.00     0.031 A 
BRANCH  56  70
ATOM     70  C   UNL A   1      42.000  28.850  29.442  1.00  0.00    -0.014 A 
ATOM     71  C   UNL A   1      42.751  29.461  28.420  1.00  0.00     0.010 A 
ATOM     72  C   UNL A   1      41.476  27.563  29.231  1.00  0.00     0.010 A 
ATOM     73  C   UNL A   1      42.930  28.818  27.193  1.00  0.00     0.020 A 
ATOM     74  C   UNL A   1      41.677  26.903  28.014  1.00  0.00     0.020 A 
ATOM     75  C   UNL A   1      42.386  27.546  26.996  1.00  0.00     0.054 A 
BRANCH  75  76
ATOM     76  S   UNL A   1      42.640  26.731  25.396  1.00  0.00     0.124 S 
ATOM     77  O   UNL A   1      41.426  25.926  25.274  1.00  0.00    -0.237 OA
ATOM     78  O   UNL A   1      42.742  27.857  24.472  1.00  0.00    -0.237 OA
ATOM     79  O   UNL A   1      43.874  25.972  25.586  1.00  0.00    -0.744 OA
ENDBRANCH  75  76
ENDBRANCH  56  70
BRANCH  57  80
ATOM     80  C   UNL A   1      39.898  33.455  38.058  1.00  0.00    -0.014 A 
ATOM     81  C   UNL A   1      40.328  34.767  38.318  1.00  0.00     0.010 A 
ATOM     82  C   UNL A   1      39.141  32.777  39.032  1.00  0.00     0.010 A 
ATOM     83  C   UNL A   1      40.024  35.387  39.534  1.00  0.00     0.020 A 
ATOM     84  C   UNL A   1      38.814  33.401  40.240  1.00  0.00     0.020 A 
ATOM     85  C   UNL A   1      39.268  34.698  40.488  1.00  0.00     0.054 A 
BRANCH  85  86
ATOM     86  S   UNL A   1      38.835  35.541  42.036  1.00  0.00     0.124 S 
ATOM     87  O   UNL A   1      37.416  35.224  42.167  1.00  0.00    -0.237 OA
ATOM     88  O   UNL A   1      39.720  34.899  43.005  1.00  0.00    -0.237 OA
ATOM     89  O   UNL A   1      39.142  36.942  41.758  1.00  0.00    -0.744 OA
ENDBRANCH  85  86
ENDBRANCH  57  80
BRANCH  69  90
ATOM     90  C   UNL A   1      45.208  29.498  35.875  1.00  0.00    -0.014 A 
ATOM     91  C   UNL A   1      45.260  28.278  36.573  1.00  0.00     0.010 A 
ATOM     92  C   UNL A   1      46.377  30.270  35.747  1.00  0.00     0.010 A 
ATOM     93  C   UNL A   1      46.457  27.852  37.155  1.00  0.00     0.020 A 
ATOM     94  C   UNL A   1      47.580  29.834  36.308  1.00  0.00     0.020 A 
ATOM     95  C   UNL A   1      47.609  28.634  37.020  1.00  0.00     0.054 A 
BRANCH  95  96
ATOM     96  S   UNL A   1      49.162  28.036  37.743  1.00  0.00     0.124 S 
ATOM     97  O   UNL A   1      50.109  28.258  36.654  1.00  0.00    -0.237 OA
ATOM     98  O   UNL A   1      49.328  28.901  38.909  1.00  0.00    -0.237 OA
ATOM     99  O   UNL A   1      48.881  26.635  38.050  1.00  0.00    -0.744 OA
ENDBRANCH  95  96
ENDBRANCH  69  90
ENDBRANCH  43  44
ENDBRANCH  35  38
ENDBRANCH  33  34
ENDBRANCH  32  33
ENDBRANCH   1  32
TORSDOF 20
ENDMDL
MODEL 3
REMARK VINA RESULT:     -10.2      5.489      7.121
REMARK SMILES CSCC[C@@H](C(=O)NCCCCNC(=O)c1ccc(-c2c3nc(c(-c4ccc(S(=O)(=O)[O-])cc4)c4ccc([nH]4)c(-c4ccc(S(=O)(=O)[O-])cc4)c4nc(c(-c5ccc(S(=O)(=O)[O-])cc5)c5ccc2[nH]5)C=C4)C=C3)cc1)N1C(=O)/C(=C/c2ccc(-c3ccccc3Cl)o2)SC1=S
REMARK SMILES IDX 10 1 9 2 8 3 6 4 7 5 5 7 4 8 3 9 2 10 1 11 76 12 77 13 94 14
REMARK SMILES IDX 78 15 79 16 93 17 95 18 80 19 81 20 82 21 92 22 83 23 84 24
REMARK SMILES IDX 85 25 86 26 90 27 87 28 89 29 91 30 88 31 11 32 12 33 13 34
REMARK SMILES IDX 14 35 15 37 16 38 17 39 75 40 18 41 74 42 19 43 20 44 21 45
REMARK SMILES IDX 68 46 22 47 73 48 67 49 69 50 23 51 72 52 66 53 65 54 24 56
REMARK SMILES IDX 54 57 35 58 53 59 36 60 39 61 52 62 70 63 37 64 38 65 51 67
REMARK SMILES IDX 71 68 40 69 25 70 26 71 34 72 27 73 33 74 28 75 29 76 30 77
REMARK SMILES IDX 31 78 32 79 55 80 56 81 64 82 57 83 63 84 58 85 59 86 60 87
REMARK SMILES IDX 61 88 62 89 41 90 42 91 50 92 43 93 49 94 44 95 45 96 46 97
REMARK SMILES IDX 47 98 48 99
REMARK H PARENT 8 6 13 36 69 55 39 66
REMARK Flexibility Score: inf
ROOT
ATOM      1  C   UNL A   1      38.294  34.356  33.295  1.00  0.00     0.023 C 
ENDROOT
BRANCH   1   2
ATOM      2  C   UNL A   1      37.342  34.625  32.128  1.00  0.00     0.116 C 
BRANCH   2   3
ATOM      3  N   UNL A   1      36.307  33.621  32.059  1.00  0.00    -0.354 N 
ATOM      4  C   UNL A   1      35.764  32.987  30.985  1.00  0.00     0.243 C 
ATOM      5  O   UNL A   1      34.965  32.079  31.238  1.00  0.00    -0.273 OA
ATOM      6  H   UNL A   1      35.935  33.351  32.929  1.00  0.00     0.163 HD
BRANCH   4   7
ATOM      7  C   UNL A   1      36.164  33.345  29.524  1.00  0.00     0.182 C 
BRANCH   7   8
ATOM      8  C   UNL A   1      35.029  33.838  28.598  1.00  0.00     0.046 C 
BRANCH   8   9
ATOM      9  C   UNL A   1      33.708  34.311  29.213  1.00  0.00     0.072 C 
BRANCH   9  10
ATOM     10  S   UNL A   1      33.357  36.091  29.034  1.00  0.00    -0.165 SA
ATOM     11  C   UNL A   1      33.091  36.564  30.764  1.00  0.00     0.085 C 
ENDBRANCH   9  10
ENDBRANCH   8   9
ENDBRANCH   7   8
BRANCH   7  12
ATOM     12  N   UNL A   1      36.840  32.126  28.989  1.00  0.00    -0.280 N 
ATOM     13  C   UNL A   1      38.149  31.880  29.383  1.00  0.00     0.267 C 
ATOM     14  C   UNL A   1      36.232  31.115  28.259  1.00  0.00     0.149 C 
ATOM     15  O   UNL A   1      38.836  32.604  30.093  1.00  0.00    -0.268 OA
ATOM     16  C   UNL A   1      38.650  30.609  28.791  1.00  0.00     0.084 C 
ATOM     17  S   UNL A   1      37.422  29.896  27.824  1.00  0.00    -0.054 SA
ATOM     18  S   UNL A   1      34.645  30.940  27.761  1.00  0.00    -0.052 S 
ATOM     19  C   UNL A   1      39.886  30.137  29.009  1.00  0.00     0.068 C 
BRANCH  19  20
ATOM     20  C   UNL A   1      40.381  28.989  28.328  1.00  0.00     0.128 A 
ATOM     21  C   UNL A   1      40.355  28.721  26.964  1.00  0.00     0.051 A 
ATOM     22  O   UNL A   1      40.981  27.917  28.952  1.00  0.00    -0.457 OA
ATOM     23  C   UNL A   1      40.897  27.435  26.763  1.00  0.00     0.051 A 
ATOM     24  C   UNL A   1      41.241  26.965  28.010  1.00  0.00     0.136 A 
BRANCH  24  25
ATOM     25  C   UNL A   1      41.820  25.705  28.459  1.00  0.00     0.036 A 
ATOM     26  C   UNL A   1      43.098  25.737  29.049  1.00  0.00     0.013 A 
ATOM     27  C   UNL A   1      41.212  24.454  28.259  1.00  0.00     0.052 A 
ATOM     28  C   UNL A   1      43.753  24.561  29.423  1.00  0.00     0.001 A 
ATOM     29  C   UNL A   1      41.872  23.277  28.635  1.00  0.00     0.021 A 
ATOM     30  Cl  UNL A   1      39.675  24.274  27.483  1.00  0.00    -0.084 Cl
ATOM     31  C   UNL A   1      43.142  23.329  29.214  1.00  0.00     0.002 A 
ENDBRANCH  24  25
ENDBRANCH  19  20
ENDBRANCH   7  12
ENDBRANCH   4   7
ENDBRANCH   2   3
ENDBRANCH   1   2
BRANCH   1  32
ATOM     32  C   UNL A   1      37.625  33.668  34.487  1.00  0.00     0.023 C 
BRANCH  32  33
ATOM     33  C   UNL A   1      37.988  34.263  35.845  1.00  0.00     0.116 C 
BRANCH  33  34
ATOM     34  N   UNL A   1      37.610  33.419  36.971  1.00  0.00    -0.352 N 
ATOM     35  C   UNL A   1      38.120  32.188  37.315  1.00  0.00     0.251 C 
ATOM     36  H   UNL A   1      36.903  33.773  37.558  1.00  0.00     0.163 HD
ATOM     37  O   UNL A   1      37.640  31.552  38.248  1.00  0.00    -0.269 OA
BRANCH  35  38
ATOM     38  C   UNL A   1      39.221  31.627  36.507  1.00  0.00     0.039 A 
ATOM     39  C   UNL A   1      38.917  30.740  35.472  1.00  0.00     0.014 A 
ATOM     40  C   UNL A   1      40.534  32.055  36.716  1.00  0.00     0.014 A 
ATOM     41  C   UNL A   1      39.925  30.348  34.589  1.00  0.00     0.010 A 
ATOM     42  C   UNL A   1      41.518  31.723  35.791  1.00  0.00     0.010 A 
ATOM     43  C   UNL A   1      41.221  30.873  34.714  1.00  0.00    -0.014 A 
BRANCH  43  44
ATOM     44  C   UNL A   1      42.282  30.561  33.723  1.00  0.00     0.031 A 
ATOM     45  C   UNL A   1      42.621  31.555  32.648  1.00  0.00     0.074 A 
ATOM     46  C   UNL A   1      42.879  29.352  33.741  1.00  0.00     0.049 A 
ATOM     47  N   UNL A   1      43.452  31.432  31.644  1.00  0.00    -0.248 NA
ATOM     48  C   UNL A   1      41.912  32.844  32.687  1.00  0.00     0.031 C 
ATOM     49  C   UNL A   1      42.599  28.278  34.699  1.00  0.00     0.029 A 
ATOM     50  N   UNL A   1      43.842  28.818  32.921  1.00  0.00    -0.354 N 
ATOM     51  C   UNL A   1      43.346  32.614  30.921  1.00  0.00     0.074 A 
ATOM     52  C   UNL A   1      42.336  33.420  31.572  1.00  0.00     0.031 C 
ATOM     53  C   UNL A   1      43.388  27.227  34.425  1.00  0.00     0.029 A 
ATOM     54  C   UNL A   1      44.205  27.535  33.255  1.00  0.00     0.049 A 
ATOM     55  H   UNL A   1      44.236  29.309  32.164  1.00  0.00     0.167 HD
ATOM     56  C   UNL A   1      44.042  33.006  29.827  1.00  0.00     0.031 A 
ATOM     57  C   UNL A   1      45.093  26.698  32.684  1.00  0.00     0.031 A 
ATOM     58  C   UNL A   1      45.062  32.215  29.197  1.00  0.00     0.049 A 
ATOM     59  C   UNL A   1      45.872  27.164  31.485  1.00  0.00     0.074 A 
ATOM     60  C   UNL A   1      45.864  32.545  28.118  1.00  0.00     0.029 A 
ATOM     61  N   UNL A   1      45.426  30.936  29.590  1.00  0.00    -0.354 N 
ATOM     62  N   UNL A   1      45.800  28.310  30.852  1.00  0.00    -0.248 NA
ATOM     63  C   UNL A   1      46.860  26.228  30.931  1.00  0.00     0.031 C 
ATOM     64  C   UNL A   1      46.691  31.451  27.838  1.00  0.00     0.029 A 
ATOM     65  C   UNL A   1      46.435  30.458  28.770  1.00  0.00     0.049 A 
ATOM     66  H   UNL A   1      45.027  30.441  30.341  1.00  0.00     0.167 HD
ATOM     67  C   UNL A   1      46.751  28.243  29.841  1.00  0.00     0.074 A 
ATOM     68  C   UNL A   1      47.393  26.950  29.955  1.00  0.00     0.031 C 
ATOM     69  C   UNL A   1      47.064  29.170  28.902  1.00  0.00     0.031 A 
BRANCH  56  70
ATOM     70  C   UNL A   1      43.718  34.359  29.253  1.00  0.00    -0.014 A 
ATOM     71  C   UNL A   1      42.756  34.501  28.236  1.00  0.00     0.010 A 
ATOM     72  C   UNL A   1      44.368  35.505  29.745  1.00  0.00     0.010 A 
ATOM     73  C   UNL A   1      42.487  35.755  27.686  1.00  0.00     0.020 A 
ATOM     74  C   UNL A   1      44.080  36.768  29.217  1.00  0.00     0.020 A 
ATOM     75  C   UNL A   1      43.156  36.881  28.176  1.00  0.00     0.054 A 
BRANCH  75  76
ATOM     76  S   UNL A   1      42.781  38.500  27.450  1.00  0.00     0.124 S 
ATOM     77  O   UNL A   1      41.630  38.190  26.606  1.00  0.00    -0.237 OA
ATOM     78  O   UNL A   1      42.497  39.321  28.623  1.00  0.00    -0.237 OA
ATOM     79  O   UNL A   1      44.005  38.849  26.732  1.00  0.00    -0.744 OA
ENDBRANCH  75  76
ENDBRANCH  56  70
BRANCH  57  80
ATOM     80  C   UNL A   1      45.310  25.342  33.256  1.00  0.00    -0.014 A 
ATOM     81  C   UNL A   1      44.470  24.275  32.894  1.00  0.00     0.010 A 
ATOM     82  C   UNL A   1      46.368  25.106  34.152  1.00  0.00     0.010 A 
ATOM     83  C   UNL A   1      44.672  22.999  33.429  1.00  0.00     0.020 A 
ATOM     84  C   UNL A   1      46.588  23.827  34.672  1.00  0.00     0.020 A 
ATOM     85  C   UNL A   1      45.731  22.783  34.315  1.00  0.00     0.054 A 
BRANCH  85  86
ATOM     86  S   UNL A   1      46.010  21.108  34.955  1.00  0.00     0.124 S 
ATOM     87  O   UNL A   1      46.426  21.373  36.329  1.00  0.00    -0.237 OA
ATOM     88  O   UNL A   1      44.698  20.485  34.798  1.00  0.00    -0.237 OA
ATOM     89  O   UNL A   1      47.050  20.578  34.076  1.00  0.00    -0.744 OA
ENDBRANCH  85  86
ENDBRANCH  57  80
BRANCH  69  90
ATOM     90  C   UNL A   1      48.172  28.833  27.941  1.00  0.00    -0.014 A 
ATOM     91  C   UNL A   1      49.514  29.108  28.256  1.00  0.00     0.010 A 
ATOM     92  C   UNL A   1      47.867  28.179  26.734  1.00  0.00     0.010 A 
ATOM     93  C   UNL A   1      50.532  28.756  27.365  1.00  0.00     0.020 A 
ATOM     94  C   UNL A   1      48.884  27.804  25.853  1.00  0.00     0.020 A 
ATOM     95  C   UNL A   1      50.210  28.107  26.168  1.00  0.00     0.054 A 
BRANCH  95  96
ATOM     96  S   UNL A   1      51.551  27.617  25.050  1.00  0.00     0.124 S 
ATOM     97  O   UNL A   1      52.728  28.123  25.749  1.00  0.00    -0.237 OA
ATOM     98  O   UNL A   1      51.421  26.163  25.007  1.00  0.00    -0.237 OA
ATOM     99  O   UNL A   1      51.226  28.301  23.801  1.00  0.00    -0.744 OA
ENDBRANCH  95  96
ENDBRANCH  69  90
ENDBRANCH  43  44
ENDBRANCH  35  38
ENDBRANCH  33  34
ENDBRANCH  32  33
ENDBRANCH   1  32
TORSDOF 20
ENDMDL
