MODEL 1
REMARK VINA RESULT:     -11.1      0.000      0.000
REMARK SMILES O=C(NCCCCNC(=O)c1ccccc1OCC[S@@](=O)c1cccc(F)c1)c1ccc(-c2c3nc(c(-c4ccc(S(=O)(=O)[O-])cc4)c4ccc([nH]4)c(-c4ccc(S(=O)(=O)[O-])cc4)c4nc(c(-c5ccc(S(=O)(=O)[O-])cc5)c5ccc2[nH]5)C=C4)C=C3)cc1
REMARK SMILES IDX 6 1 5 2 4 3 3 4 1 5 2 6 29 8 30 9 88 10 31 11 87 12 32 13
REMARK SMILES IDX 33 14 34 15 81 16 35 17 86 18 80 19 82 20 36 21 85 22 79 23
REMARK SMILES IDX 78 24 37 26 67 27 48 28 66 29 49 30 52 31 65 32 83 33 50 34
REMARK SMILES IDX 51 35 64 37 84 38 53 39 38 40 39 41 47 42 40 43 46 44 41 45
REMARK SMILES IDX 42 46 43 47 44 48 45 49 68 50 69 51 77 52 70 53 76 54 71 55
REMARK SMILES IDX 72 56 73 57 74 58 75 59 54 60 55 61 63 62 56 63 62 64 57 65
REMARK SMILES IDX 58 66 59 67 60 68 61 69 7 70 8 71 9 72 10 74 11 75 12 76
REMARK SMILES IDX 16 77 13 78 15 79 14 80 17 81 18 82 19 83 20 84 21 85 22 86
REMARK SMILES IDX 23 87 28 88 24 89 26 90 25 91 27 92
REMARK H PARENT 3 7 82 25 52 36 8 73
REMARK Flexibility Score: inf
ROOT
ATOM      1  C   UNL A   1      35.265  22.180  26.274  1.00  0.00     0.023 C 
ENDROOT
BRANCH   1   2
ATOM      2  C   UNL A   1      35.571  23.513  25.540  1.00  0.00     0.023 C 
BRANCH   2   3
ATOM      3  C   UNL A   1      36.944  23.608  24.866  1.00  0.00     0.116 C 
BRANCH   3   4
ATOM      4  N   UNL A   1      37.869  22.650  25.447  1.00  0.00    -0.352 N 
ATOM      5  O   UNL A   1      39.751  21.893  26.380  1.00  0.00    -0.269 OA
ATOM      6  C   UNL A   1      39.005  22.834  26.207  1.00  0.00     0.251 C 
ATOM      7  H   UNL A   1      37.648  21.708  25.266  1.00  0.00     0.163 HD
BRANCH   6   8
ATOM      8  C   UNL A   1      39.324  24.154  26.816  1.00  0.00     0.039 A 
ATOM      9  C   UNL A   1      38.988  24.463  28.136  1.00  0.00     0.014 A 
ATOM     10  C   UNL A   1      40.093  25.059  26.070  1.00  0.00     0.014 A 
ATOM     11  C   UNL A   1      39.370  25.689  28.687  1.00  0.00     0.010 A 
ATOM     12  C   UNL A   1      40.516  26.265  26.639  1.00  0.00     0.010 A 
ATOM     13  C   UNL A   1      40.154  26.595  27.953  1.00  0.00    -0.014 A 
BRANCH  13  14
ATOM     14  C   UNL A   1      40.666  27.835  28.598  1.00  0.00     0.031 A 
ATOM     15  C   UNL A   1      42.094  27.943  29.059  1.00  0.00     0.074 A 
ATOM     16  C   UNL A   1      39.824  28.872  28.777  1.00  0.00     0.049 A 
ATOM     17  N   UNL A   1      42.698  28.952  29.635  1.00  0.00    -0.248 NA
ATOM     18  C   UNL A   1      42.953  26.767  28.854  1.00  0.00     0.031 C 
ATOM     19  C   UNL A   1      38.410  28.885  28.392  1.00  0.00     0.029 A 
ATOM     20  N   UNL A   1      40.030  30.116  29.320  1.00  0.00    -0.354 N 
ATOM     21  C   UNL A   1      44.002  28.532  29.875  1.00  0.00     0.074 A 
ATOM     22  C   UNL A   1      44.094  27.166  29.403  1.00  0.00     0.031 C 
ATOM     23  C   UNL A   1      37.887  30.089  28.675  1.00  0.00     0.029 A 
ATOM     24  C   UNL A   1      38.910  30.914  29.307  1.00  0.00     0.049 A 
ATOM     25  H   UNL A   1      40.897  30.410  29.682  1.00  0.00     0.167 HD
ATOM     26  C   UNL A   1      45.027  29.222  30.433  1.00  0.00     0.031 A 
ATOM     27  C   UNL A   1      38.718  32.167  29.764  1.00  0.00     0.031 A 
ATOM     28  C   UNL A   1      44.931  30.579  30.909  1.00  0.00     0.049 A 
ATOM     29  C   UNL A   1      39.865  32.901  30.399  1.00  0.00     0.074 A 
ATOM     30  C   UNL A   1      45.925  31.371  31.459  1.00  0.00     0.029 A 
ATOM     31  N   UNL A   1      43.774  31.344  30.898  1.00  0.00    -0.354 N 
ATOM     32  N   UNL A   1      41.100  32.498  30.579  1.00  0.00    -0.248 NA
ATOM     33  C   UNL A   1      39.592  34.259  30.888  1.00  0.00     0.031 C 
ATOM     34  C   UNL A   1      45.357  32.598  31.824  1.00  0.00     0.029 A 
ATOM     35  C   UNL A   1      44.023  32.590  31.452  1.00  0.00     0.049 A 
ATOM     36  H   UNL A   1      42.903  31.046  30.548  1.00  0.00     0.167 HD
ATOM     37  C   UNL A   1      41.757  33.560  31.188  1.00  0.00     0.074 A 
ATOM     38  C   UNL A   1      40.788  34.629  31.327  1.00  0.00     0.031 C 
ATOM     39  C   UNL A   1      43.048  33.641  31.595  1.00  0.00     0.031 A 
BRANCH  26  40
ATOM     40  C   UNL A   1      46.347  28.509  30.584  1.00  0.00    -0.014 A 
ATOM     41  C   UNL A   1      47.336  28.589  29.586  1.00  0.00     0.010 A 
ATOM     42  C   UNL A   1      46.621  27.790  31.761  1.00  0.00     0.010 A 
ATOM     43  C   UNL A   1      48.558  27.929  29.747  1.00  0.00     0.020 A 
ATOM     44  C   UNL A   1      47.851  27.149  31.936  1.00  0.00     0.020 A 
ATOM     45  C   UNL A   1      48.806  27.208  30.919  1.00  0.00     0.054 A 
BRANCH  45  46
ATOM     46  S   UNL A   1      50.407  26.376  31.110  1.00  0.00     0.124 S 
ATOM     47  O   UNL A   1      50.954  27.042  32.289  1.00  0.00    -0.237 OA
ATOM     48  O   UNL A   1      50.024  24.979  31.300  1.00  0.00    -0.237 OA
ATOM     49  O   UNL A   1      51.099  26.663  29.857  1.00  0.00    -0.744 OA
ENDBRANCH  45  46
ENDBRANCH  26  40
BRANCH  27  50
ATOM     50  C   UNL A   1      37.379  32.803  29.633  1.00  0.00    -0.014 A 
ATOM     51  C   UNL A   1      36.464  32.768  30.699  1.00  0.00     0.010 A 
ATOM     52  C   UNL A   1      37.026  33.474  28.449  1.00  0.00     0.010 A 
ATOM     53  C   UNL A   1      35.216  33.386  30.580  1.00  0.00     0.020 A 
ATOM     54  C   UNL A   1      35.791  34.117  28.335  1.00  0.00     0.020 A 
ATOM     55  C   UNL A   1      34.888  34.060  29.399  1.00  0.00     0.054 A 
BRANCH  55  56
ATOM     56  S   UNL A   1      33.290  34.912  29.290  1.00  0.00     0.124 S 
ATOM     57  O   UNL A   1      32.596  34.125  28.276  1.00  0.00    -0.237 OA
ATOM     58  O   UNL A   1      32.773  34.792  30.651  1.00  0.00    -0.237 OA
ATOM     59  O   UNL A   1      33.655  36.270  28.890  1.00  0.00    -0.744 OA
ENDBRANCH  55  56
ENDBRANCH  27  50
BRANCH  39  60
ATOM     60  C   UNL A   1      43.494  34.943  32.206  1.00  0.00    -0.014 A 
ATOM     61  C   UNL A   1      43.999  35.986  31.408  1.00  0.00     0.010 A 
ATOM     62  C   UNL A   1      43.377  35.135  33.594  1.00  0.00     0.010 A 
ATOM     63  C   UNL A   1      44.414  37.185  31.994  1.00  0.00     0.020 A 
ATOM     64  C   UNL A   1      43.767  36.342  34.180  1.00  0.00     0.020 A 
ATOM     65  C   UNL A   1      44.299  37.354  33.378  1.00  0.00     0.054 A 
BRANCH  65  66
ATOM     66  S   UNL A   1      44.816  38.929  34.114  1.00  0.00     0.124 S 
ATOM     67  O   UNL A   1      45.760  38.490  35.138  1.00  0.00    -0.237 OA
ATOM     68  O   UNL A   1      45.403  39.638  32.979  1.00  0.00    -0.237 OA
ATOM     69  O   UNL A   1      43.570  39.500  34.618  1.00  0.00    -0.744 OA
ENDBRANCH  65  66
ENDBRANCH  39  60
ENDBRANCH  13  14
ENDBRANCH   6   8
ENDBRANCH   3   4
ENDBRANCH   2   3
ENDBRANCH   1   2
BRANCH   1  70
ATOM     70  C   UNL A   1      33.780  21.744  26.416  1.00  0.00     0.116 C 
BRANCH  70  71
ATOM     71  N   UNL A   1      33.282  21.109  25.185  1.00  0.00    -0.352 N 
ATOM     72  C   UNL A   1      32.666  21.492  23.994  1.00  0.00     0.255 C 
ATOM     73  H   UNL A   1      33.424  20.135  25.208  1.00  0.00     0.163 HD
ATOM     74  O   UNL A   1      32.433  20.812  23.000  1.00  0.00    -0.269 OA
BRANCH  72  75
ATOM     75  C   UNL A   1      32.451  22.851  23.709  1.00  0.00     0.081 A 
ATOM     76  C   UNL A   1      33.371  23.497  22.886  1.00  0.00     0.018 A 
ATOM     77  C   UNL A   1      31.279  23.352  24.203  1.00  0.00     0.132 A 
ATOM     78  C   UNL A   1      32.924  24.601  22.214  1.00  0.00     0.001 A 
ATOM     79  C   UNL A   1      30.775  24.380  23.420  1.00  0.00     0.047 A 
ATOM     80  C   UNL A   1      31.589  24.976  22.405  1.00  0.00     0.004 A 
BRANCH  77  81
ATOM     81  O   UNL A   1      30.639  22.710  25.254  1.00  0.00    -0.492 OA
BRANCH  81  82
ATOM     82  C   UNL A   1      30.601  23.404  26.617  1.00  0.00     0.243 C 
BRANCH  82  83
ATOM     83  C   UNL A   1      31.420  24.768  26.903  1.00  0.00     0.152 C 
BRANCH  83  84
ATOM     84  S   UNL A   1      31.010  26.688  26.390  1.00  0.00     0.056 S 
ATOM     85  O   UNL A   1      31.419  27.457  27.617  1.00  0.00    -0.254 OA
BRANCH  84  86
ATOM     86  C   UNL A   1      32.044  27.647  25.008  1.00  0.00     0.042 A 
ATOM     87  C   UNL A   1      33.441  27.670  24.777  1.00  0.00     0.018 A 
ATOM     88  C   UNL A   1      31.290  28.372  24.072  1.00  0.00     0.057 A 
ATOM     89  C   UNL A   1      33.994  28.001  23.517  1.00  0.00     0.004 A 
ATOM     90  C   UNL A   1      31.874  28.858  22.887  1.00  0.00     0.124 A 
ATOM     91  C   UNL A   1      33.197  28.596  22.558  1.00  0.00     0.039 A 
ATOM     92  F   UNL A   1      31.134  29.571  22.027  1.00  0.00    -0.207 F 
ENDBRANCH  84  86
ENDBRANCH  83  84
ENDBRANCH  82  83
ENDBRANCH  81  82
ENDBRANCH  77  81
ENDBRANCH  72  75
ENDBRANCH  70  71
ENDBRANCH   1  70
TORSDOF 19
ENDMDL
MODEL 2
REMARK VINA RESULT:     -10.9      4.289      5.732
REMARK SMILES O=C(NCCCCNC(=O)c1ccccc1OCC[S@@](=O)c1cccc(F)c1)c1ccc(-c2c3nc(c(-c4ccc(S(=O)(=O)[O-])cc4)c4ccc([nH]4)c(-c4ccc(S(=O)(=O)[O-])cc4)c4nc(c(-c5ccc(S(=O)(=O)[O-])cc5)c5ccc2[nH]5)C=C4)C=C3)cc1
REMARK SMILES IDX 6 1 5 2 4 3 3 4 1 5 2 6 29 8 30 9 88 10 31 11 87 12 32 13
REMARK SMILES IDX 33 14 34 15 81 16 35 17 86 18 80 19 82 20 36 21 85 22 79 23
REMARK SMILES IDX 78 24 37 26 67 27 48 28 66 29 49 30 52 31 65 32 83 33 50 34
REMARK SMILES IDX 51 35 64 37 84 38 53 39 38 40 39 41 47 42 40 43 46 44 41 45
REMARK SMILES IDX 42 46 43 47 44 48 45 49 68 50 69 51 77 52 70 53 76 54 71 55
REMARK SMILES IDX 72 56 73 57 74 58 75 59 54 60 55 61 63 62 56 63 62 64 57 65
REMARK SMILES IDX 58 66 59 67 60 68 61 69 7 70 8 71 9 72 10 74 11 75 12 76
REMARK SMILES IDX 16 77 13 78 15 79 14 80 17 81 18 82 19 83 20 84 21 85 22 86
REMARK SMILES IDX 23 87 28 88 24 89 26 90 25 91 27 92
REMARK H PARENT 3 7 82 25 52 36 8 73
REMARK Flexibility Score: inf
ROOT
ATOM      1  C   UNL A   1      37.812  23.892  26.048  1.00  0.00     0.023 C 
ENDROOT
BRANCH   1   2
ATOM      2  C   UNL A   1      38.825  22.766  26.388  1.00  0.00     0.023 C 
BRANCH   2   3
ATOM      3  C   UNL A   1      40.114  23.210  27.087  1.00  0.00     0.116 C 
BRANCH   3   4
ATOM      4  N   UNL A   1      40.994  23.895  26.155  1.00  0.00    -0.352 N 
ATOM      5  O   UNL A   1      41.903  25.602  25.039  1.00  0.00    -0.269 OA
ATOM      6  C   UNL A   1      41.337  25.226  26.045  1.00  0.00     0.251 C 
ATOM      7  H   UNL A   1      41.417  23.308  25.487  1.00  0.00     0.163 HD
BRANCH   6   8
ATOM      8  C   UNL A   1      41.031  26.197  27.130  1.00  0.00     0.039 A 
ATOM      9  C   UNL A   1      40.122  25.908  28.150  1.00  0.00     0.014 A 
ATOM     10  C   UNL A   1      41.776  27.384  27.185  1.00  0.00     0.014 A 
ATOM     11  C   UNL A   1      39.919  26.824  29.186  1.00  0.00     0.010 A 
ATOM     12  C   UNL A   1      41.606  28.277  28.249  1.00  0.00     0.010 A 
ATOM     13  C   UNL A   1      40.672  28.008  29.259  1.00  0.00    -0.014 A 
BRANCH  13  14
ATOM     14  C   UNL A   1      40.541  28.907  30.438  1.00  0.00     0.031 A 
ATOM     15  C   UNL A   1      41.446  28.766  31.631  1.00  0.00     0.074 A 
ATOM     16  C   UNL A   1      39.583  29.856  30.432  1.00  0.00     0.049 A 
ATOM     17  N   UNL A   1      41.467  29.470  32.736  1.00  0.00    -0.248 NA
ATOM     18  C   UNL A   1      42.454  27.696  31.583  1.00  0.00     0.031 C 
ATOM     19  C   UNL A   1      38.628  30.081  29.343  1.00  0.00     0.029 A 
ATOM     20  N   UNL A   1      39.256  30.811  31.361  1.00  0.00    -0.354 N 
ATOM     21  C   UNL A   1      42.476  28.922  33.520  1.00  0.00     0.074 A 
ATOM     22  C   UNL A   1      43.029  27.812  32.774  1.00  0.00     0.031 C 
ATOM     23  C   UNL A   1      37.850  31.131  29.650  1.00  0.00     0.029 A 
ATOM     24  C   UNL A   1      38.214  31.620  30.976  1.00  0.00     0.049 A 
ATOM     25  H   UNL A   1      39.725  30.909  32.222  1.00  0.00     0.167 HD
ATOM     26  C   UNL A   1      42.903  29.311  34.747  1.00  0.00     0.031 A 
ATOM     27  C   UNL A   1      37.604  32.636  31.617  1.00  0.00     0.031 A 
ATOM     28  C   UNL A   1      42.346  30.413  35.491  1.00  0.00     0.049 A 
ATOM     29  C   UNL A   1      38.083  33.033  32.985  1.00  0.00     0.074 A 
ATOM     30  C   UNL A   1      42.735  30.901  36.727  1.00  0.00     0.029 A 
ATOM     31  N   UNL A   1      41.276  31.192  35.075  1.00  0.00    -0.354 N 
ATOM     32  N   UNL A   1      39.065  32.526  33.690  1.00  0.00    -0.248 NA
ATOM     33  C   UNL A   1      37.373  34.140  33.640  1.00  0.00     0.031 C 
ATOM     34  C   UNL A   1      41.872  31.946  37.078  1.00  0.00     0.029 A 
ATOM     35  C   UNL A   1      40.979  32.143  36.038  1.00  0.00     0.049 A 
ATOM     36  H   UNL A   1      40.800  31.086  34.220  1.00  0.00     0.167 HD
ATOM     37  C   UNL A   1      39.102  33.264  34.868  1.00  0.00     0.074 A 
ATOM     38  C   UNL A   1      38.057  34.263  34.769  1.00  0.00     0.031 C 
ATOM     39  C   UNL A   1      39.929  33.125  35.934  1.00  0.00     0.031 A 
BRANCH  26  40
ATOM     40  C   UNL A   1      44.021  28.522  35.379  1.00  0.00    -0.014 A 
ATOM     41  C   UNL A   1      45.366  28.890  35.197  1.00  0.00     0.010 A 
ATOM     42  C   UNL A   1      43.720  27.425  36.206  1.00  0.00     0.010 A 
ATOM     43  C   UNL A   1      46.390  28.153  35.798  1.00  0.00     0.020 A 
ATOM     44  C   UNL A   1      44.740  26.699  36.829  1.00  0.00     0.020 A 
ATOM     45  C   UNL A   1      46.071  27.057  36.606  1.00  0.00     0.054 A 
BRANCH  45  46
ATOM     46  S   UNL A   1      47.417  26.127  37.389  1.00  0.00     0.124 S 
ATOM     47  O   UNL A   1      47.106  24.756  36.993  1.00  0.00    -0.237 OA
ATOM     48  O   UNL A   1      48.609  26.702  36.770  1.00  0.00    -0.237 OA
ATOM     49  O   UNL A   1      47.258  26.416  38.811  1.00  0.00    -0.744 OA
ENDBRANCH  45  46
ENDBRANCH  26  40
BRANCH  27  50
ATOM     50  C   UNL A   1      36.472  33.347  30.965  1.00  0.00    -0.014 A 
ATOM     51  C   UNL A   1      35.222  33.437  31.601  1.00  0.00     0.010 A 
ATOM     52  C   UNL A   1      36.651  33.967  29.715  1.00  0.00     0.010 A 
ATOM     53  C   UNL A   1      34.168  34.126  30.995  1.00  0.00     0.020 A 
ATOM     54  C   UNL A   1      35.608  34.680  29.118  1.00  0.00     0.020 A 
ATOM     55  C   UNL A   1      34.368  34.746  29.758  1.00  0.00     0.054 A 
BRANCH  55  56
ATOM     56  S   UNL A   1      33.007  35.692  29.019  1.00  0.00     0.124 S 
ATOM     57  O   UNL A   1      33.720  36.764  28.333  1.00  0.00    -0.237 OA
ATOM     58  O   UNL A   1      32.366  34.702  28.156  1.00  0.00    -0.237 OA
ATOM     59  O   UNL A   1      32.213  36.104  30.174  1.00  0.00    -0.744 OA
ENDBRANCH  55  56
ENDBRANCH  27  50
BRANCH  39  60
ATOM     60  C   UNL A   1      39.753  34.097  37.069  1.00  0.00    -0.014 A 
ATOM     61  C   UNL A   1      39.085  33.723  38.250  1.00  0.00     0.010 A 
ATOM     62  C   UNL A   1      40.290  35.393  36.965  1.00  0.00     0.010 A 
ATOM     63  C   UNL A   1      38.925  34.642  39.291  1.00  0.00     0.020 A 
ATOM     64  C   UNL A   1      40.154  36.306  38.014  1.00  0.00     0.020 A 
ATOM     65  C   UNL A   1      39.458  35.930  39.165  1.00  0.00     0.054 A 
BRANCH  65  66
ATOM     66  S   UNL A   1      39.265  37.096  40.540  1.00  0.00     0.124 S 
ATOM     67  O   UNL A   1      38.652  38.245  39.880  1.00  0.00    -0.237 OA
ATOM     68  O   UNL A   1      38.400  36.365  41.463  1.00  0.00    -0.237 OA
ATOM     69  O   UNL A   1      40.632  37.304  41.012  1.00  0.00    -0.744 OA
ENDBRANCH  65  66
ENDBRANCH  39  60
ENDBRANCH  13  14
ENDBRANCH   6   8
ENDBRANCH   3   4
ENDBRANCH   2   3
ENDBRANCH   1   2
BRANCH   1  70
ATOM     70  C   UNL A   1      36.296  23.586  26.198  1.00  0.00     0.116 C 
BRANCH  70  71
ATOM     71  N   UNL A   1      35.565  23.847  24.947  1.00  0.00    -0.352 N 
ATOM     72  C   UNL A   1      34.465  24.591  24.521  1.00  0.00     0.255 C 
ATOM     73  H   UNL A   1      35.968  23.355  24.195  1.00  0.00     0.163 HD
ATOM     74  O   UNL A   1      34.071  24.787  23.376  1.00  0.00    -0.269 OA
BRANCH  72  75
ATOM     75  C   UNL A   1      33.794  25.442  25.414  1.00  0.00     0.081 A 
ATOM     76  C   UNL A   1      34.144  26.791  25.416  1.00  0.00     0.018 A 
ATOM     77  C   UNL A   1      32.782  24.843  26.112  1.00  0.00     0.132 A 
ATOM     78  C   UNL A   1      33.199  27.670  25.870  1.00  0.00     0.001 A 
ATOM     79  C   UNL A   1      31.768  25.732  26.437  1.00  0.00     0.047 A 
ATOM     80  C   UNL A   1      31.970  27.141  26.281  1.00  0.00     0.004 A 
BRANCH  77  81
ATOM     81  O   UNL A   1      32.761  23.462  26.254  1.00  0.00    -0.492 OA
BRANCH  81  82
ATOM     82  C   UNL A   1      31.629  22.679  25.588  1.00  0.00     0.243 C 
BRANCH  82  83
ATOM     83  C   UNL A   1      31.823  21.151  25.096  1.00  0.00     0.152 C 
BRANCH  83  84
ATOM     84  S   UNL A   1      33.440  20.211  24.309  1.00  0.00     0.056 S 
ATOM     85  O   UNL A   1      34.572  20.727  25.156  1.00  0.00    -0.254 OA
BRANCH  84  86
ATOM     86  C   UNL A   1      33.715  18.265  24.496  1.00  0.00     0.042 A 
ATOM     87  C   UNL A   1      34.888  17.494  24.303  1.00  0.00     0.018 A 
ATOM     88  C   UNL A   1      32.605  17.530  24.942  1.00  0.00     0.057 A 
ATOM     89  C   UNL A   1      35.066  16.226  24.906  1.00  0.00     0.004 A 
ATOM     90  C   UNL A   1      32.744  16.201  25.385  1.00  0.00     0.124 A 
ATOM     91  C   UNL A   1      33.980  15.575  25.459  1.00  0.00     0.039 A 
ATOM     92  F   UNL A   1      31.661  15.516  25.778  1.00  0.00    -0.207 F 
ENDBRANCH  84  86
ENDBRANCH  83  84
ENDBRANCH  82  83
ENDBRANCH  81  82
ENDBRANCH  77  81
ENDBRANCH  72  75
ENDBRANCH  70  71
ENDBRANCH   1  70
TORSDOF 19
ENDMDL
MODEL 3
REMARK VINA RESULT:     -10.9      1.259      2.050
REMARK SMILES O=C(NCCCCNC(=O)c1ccccc1OCC[S@@](=O)c1cccc(F)c1)c1ccc(-c2c3nc(c(-c4ccc(S(=O)(=O)[O-])cc4)c4ccc([nH]4)c(-c4ccc(S(=O)(=O)[O-])cc4)c4nc(c(-c5ccc(S(=O)(=O)[O-])cc5)c5ccc2[nH]5)C=C4)C=C3)cc1
REMARK SMILES IDX 6 1 5 2 4 3 3 4 1 5 2 6 29 8 30 9 88 10 31 11 87 12 32 13
REMARK SMILES IDX 33 14 34 15 81 16 35 17 86 18 80 19 82 20 36 21 85 22 79 23
REMARK SMILES IDX 78 24 37 26 67 27 48 28 66 29 49 30 52 31 65 32 83 33 50 34
REMARK SMILES IDX 51 35 64 37 84 38 53 39 38 40 39 41 47 42 40 43 46 44 41 45
REMARK SMILES IDX 42 46 43 47 44 48 45 49 68 50 69 51 77 52 70 53 76 54 71 55
REMARK SMILES IDX 72 56 73 57 74 58 75 59 54 60 55 61 63 62 56 63 62 64 57 65
REMARK SMILES IDX 58 66 59 67 60 68 61 69 7 70 8 71 9 72 10 74 11 75 12 76
REMARK SMILES IDX 16 77 13 78 15 79 14 80 17 81 18 82 19 83 20 84 21 85 22 86
REMARK SMILES IDX 23 87 28 88 24 89 26 90 25 91 27 92
REMARK H PARENT 3 7 82 25 52 36 8 73
REMARK Flexibility Score: inf
ROOT
ATOM      1  C   UNL A   1      34.860  23.240  26.231  1.00  0.00     0.023 C 
ENDROOT
BRANCH   1   2
ATOM      2  C   UNL A   1      35.637  22.996  24.910  1.00  0.00     0.023 C 
BRANCH   2   3
ATOM      3  C   UNL A   1      37.065  23.548  24.860  1.00  0.00     0.116 C 
BRANCH   3   4
ATOM      4  N   UNL A   1      37.999  22.615  25.468  1.00  0.00    -0.352 N 
ATOM      5  O   UNL A   1      39.872  21.909  26.456  1.00  0.00    -0.269 OA
ATOM      6  C   UNL A   1      39.105  22.830  26.261  1.00  0.00     0.251 C 
ATOM      7  H   UNL A   1      37.809  21.667  25.279  1.00  0.00     0.163 HD
BRANCH   6   8
ATOM      8  C   UNL A   1      39.369  24.157  26.881  1.00  0.00     0.039 A 
ATOM      9  C   UNL A   1      38.977  24.457  28.187  1.00  0.00     0.014 A 
ATOM     10  C   UNL A   1      40.143  25.080  26.164  1.00  0.00     0.014 A 
ATOM     11  C   UNL A   1      39.308  25.692  28.751  1.00  0.00     0.010 A 
ATOM     12  C   UNL A   1      40.515  26.297  26.747  1.00  0.00     0.010 A 
ATOM     13  C   UNL A   1      40.097  26.617  28.046  1.00  0.00    -0.014 A 
BRANCH  13  14
ATOM     14  C   UNL A   1      40.554  27.869  28.709  1.00  0.00     0.031 A 
ATOM     15  C   UNL A   1      41.953  28.003  29.245  1.00  0.00     0.074 A 
ATOM     16  C   UNL A   1      39.687  28.894  28.835  1.00  0.00     0.049 A 
ATOM     17  N   UNL A   1      42.510  29.025  29.845  1.00  0.00    -0.248 NA
ATOM     18  C   UNL A   1      42.840  26.839  29.095  1.00  0.00     0.031 C 
ATOM     19  C   UNL A   1      38.295  28.882  28.375  1.00  0.00     0.029 A 
ATOM     20  N   UNL A   1      39.844  30.144  29.379  1.00  0.00    -0.354 N 
ATOM     21  C   UNL A   1      43.805  28.628  30.157  1.00  0.00     0.074 A 
ATOM     22  C   UNL A   1      43.943  27.261  29.701  1.00  0.00     0.031 C 
ATOM     23  C   UNL A   1      37.740  30.078  28.621  1.00  0.00     0.029 A 
ATOM     24  C   UNL A   1      38.714  30.924  29.301  1.00  0.00     0.049 A 
ATOM     25  H   UNL A   1      40.686  30.454  29.785  1.00  0.00     0.167 HD
ATOM     26  C   UNL A   1      44.788  29.337  30.765  1.00  0.00     0.031 A 
ATOM     27  C   UNL A   1      38.478  32.177  29.738  1.00  0.00     0.031 A 
ATOM     28  C   UNL A   1      44.645  30.696  31.225  1.00  0.00     0.049 A 
ATOM     29  C   UNL A   1      39.578  32.933  30.428  1.00  0.00     0.074 A 
ATOM     30  C   UNL A   1      45.595  31.506  31.822  1.00  0.00     0.029 A 
ATOM     31  N   UNL A   1      43.478  31.442  31.147  1.00  0.00    -0.354 N 
ATOM     32  N   UNL A   1      40.807  32.551  30.677  1.00  0.00    -0.248 NA
ATOM     33  C   UNL A   1      39.258  34.290  30.892  1.00  0.00     0.031 C 
ATOM     34  C   UNL A   1      44.990  32.726  32.148  1.00  0.00     0.029 A 
ATOM     35  C   UNL A   1      43.678  32.695  31.705  1.00  0.00     0.049 A 
ATOM     36  H   UNL A   1      42.632  31.128  30.753  1.00  0.00     0.167 HD
ATOM     37  C   UNL A   1      41.414  33.627  31.313  1.00  0.00     0.074 A 
ATOM     38  C   UNL A   1      40.422  34.681  31.392  1.00  0.00     0.031 C 
ATOM     39  C   UNL A   1      42.680  33.732  31.788  1.00  0.00     0.031 A 
BRANCH  26  40
ATOM     40  C   UNL A   1      46.108  28.647  30.992  1.00  0.00    -0.014 A 
ATOM     41  C   UNL A   1      46.350  27.903  32.161  1.00  0.00     0.010 A 
ATOM     42  C   UNL A   1      47.104  28.702  30.000  1.00  0.00     0.010 A 
ATOM     43  C   UNL A   1      47.577  27.260  32.351  1.00  0.00     0.020 A 
ATOM     44  C   UNL A   1      48.324  28.041  30.175  1.00  0.00     0.020 A 
ATOM     45  C   UNL A   1      48.559  27.338  31.359  1.00  0.00     0.054 A 
BRANCH  45  46
ATOM     46  S   UNL A   1      50.136  26.482  31.622  1.00  0.00     0.124 S 
ATOM     47  O   UNL A   1      50.794  26.657  30.330  1.00  0.00    -0.237 OA
ATOM     48  O   UNL A   1      50.726  27.226  32.732  1.00  0.00    -0.237 OA
ATOM     49  O   UNL A   1      49.739  25.112  31.938  1.00  0.00    -0.744 OA
ENDBRANCH  45  46
ENDBRANCH  26  40
BRANCH  27  50
ATOM     50  C   UNL A   1      37.139  32.790  29.531  1.00  0.00    -0.014 A 
ATOM     51  C   UNL A   1      36.139  32.671  30.511  1.00  0.00     0.010 A 
ATOM     52  C   UNL A   1      36.868  33.524  28.362  1.00  0.00     0.010 A 
ATOM     53  C   UNL A   1      34.889  33.268  30.323  1.00  0.00     0.020 A 
ATOM     54  C   UNL A   1      35.630  34.145  28.182  1.00  0.00     0.020 A 
ATOM     55  C   UNL A   1      34.643  34.005  29.160  1.00  0.00     0.054 A 
BRANCH  55  56
ATOM     56  S   UNL A   1      33.038  34.827  28.965  1.00  0.00     0.124 S 
ATOM     57  O   UNL A   1      33.429  36.139  28.460  1.00  0.00    -0.237 OA
ATOM     58  O   UNL A   1      32.351  33.959  28.012  1.00  0.00    -0.237 OA
ATOM     59  O   UNL A   1      32.482  34.815  30.316  1.00  0.00    -0.744 OA
ENDBRANCH  55  56
ENDBRANCH  27  50
BRANCH  39  60
ATOM     60  C   UNL A   1      43.072  35.044  32.412  1.00  0.00    -0.014 A 
ATOM     61  C   UNL A   1      43.797  36.007  31.687  1.00  0.00     0.010 A 
ATOM     62  C   UNL A   1      42.683  35.329  33.734  1.00  0.00     0.010 A 
ATOM     63  C   UNL A   1      44.157  37.217  32.286  1.00  0.00     0.020 A 
ATOM     64  C   UNL A   1      43.019  36.547  34.327  1.00  0.00     0.020 A 
ATOM     65  C   UNL A   1      43.769  37.478  33.605  1.00  0.00     0.054 A 
BRANCH  65  66
ATOM     66  S   UNL A   1      44.222  39.067  34.353  1.00  0.00     0.124 S 
ATOM     67  O   UNL A   1      45.462  39.391  33.652  1.00  0.00    -0.237 OA
ATOM     68  O   UNL A   1      43.077  39.914  34.029  1.00  0.00    -0.237 OA
ATOM     69  O   UNL A   1      44.373  38.751  35.772  1.00  0.00    -0.744 OA
ENDBRANCH  65  66
ENDBRANCH  39  60
ENDBRANCH  13  14
ENDBRANCH   6   8
ENDBRANCH   3   4
ENDBRANCH   2   3
ENDBRANCH   1   2
BRANCH   1  70
ATOM     70  C   UNL A   1      33.755  24.333  26.242  1.00  0.00     0.116 C 
BRANCH  70  71
ATOM     71  N   UNL A   1      32.412  23.746  26.386  1.00  0.00    -0.352 N 
ATOM     72  C   UNL A   1      31.634  22.769  25.768  1.00  0.00     0.255 C 
ATOM     73  H   UNL A   1      31.925  24.163  27.133  1.00  0.00     0.163 HD
ATOM     74  O   UNL A   1      30.549  22.318  26.122  1.00  0.00    -0.269 OA
BRANCH  72  75
ATOM     75  C   UNL A   1      32.168  21.982  24.734  1.00  0.00     0.081 A 
ATOM     76  C   UNL A   1      32.485  20.656  25.021  1.00  0.00     0.018 A 
ATOM     77  C   UNL A   1      32.212  22.604  23.518  1.00  0.00     0.132 A 
ATOM     78  C   UNL A   1      32.508  19.788  23.965  1.00  0.00     0.001 A 
ATOM     79  C   UNL A   1      32.091  21.710  22.464  1.00  0.00     0.047 A 
ATOM     80  C   UNL A   1      32.205  20.303  22.700  1.00  0.00     0.004 A 
BRANCH  77  81
ATOM     81  O   UNL A   1      32.178  23.990  23.446  1.00  0.00    -0.492 OA
BRANCH  81  82
ATOM     82  C   UNL A   1      32.676  24.666  22.167  1.00  0.00     0.243 C 
BRANCH  82  83
ATOM     83  C   UNL A   1      32.479  26.249  21.905  1.00  0.00     0.152 C 
BRANCH  83  84
ATOM     84  S   UNL A   1      31.257  27.595  22.807  1.00  0.00     0.056 S 
ATOM     85  O   UNL A   1      29.983  26.817  22.996  1.00  0.00    -0.254 OA
BRANCH  84  86
ATOM     86  C   UNL A   1      31.568  28.221  24.652  1.00  0.00     0.042 A 
ATOM     87  C   UNL A   1      32.069  27.517  25.775  1.00  0.00     0.018 A 
ATOM     88  C   UNL A   1      31.314  29.582  24.889  1.00  0.00     0.057 A 
ATOM     89  C   UNL A   1      32.669  28.175  26.875  1.00  0.00     0.004 A 
ATOM     90  C   UNL A   1      31.760  30.211  26.067  1.00  0.00     0.124 A 
ATOM     91  C   UNL A   1      32.517  29.541  27.017  1.00  0.00     0.039 A 
ATOM     92  F   UNL A   1      31.476  31.504  26.276  1.00  0.00    -0.207 F 
ENDBRANCH  84  86
ENDBRANCH  83  84
ENDBRANCH  82  83
ENDBRANCH  81  82
ENDBRANCH  77  81
ENDBRANCH  72  75
ENDBRANCH  70  71
ENDBRANCH   1  70
TORSDOF 19
ENDMDL
