MODEL 1
REMARK VINA RESULT:      -9.7      0.000      0.000
REMARK SMILES CC[C@@](C)(NC(=O)c1cccc2ccccc12)C(=O)NCCCCNC(=O)c1ccc(-c2c3nc(c(-c4ccc(S(=O)(=O)[O-])cc4)c4ccc([nH]4)c(-c4ccc(S(=O)(=O)[O-])cc4)c4nc(c(-c5ccc(S(=O)(=O)[O-])cc5)c5ccc2[nH]5)C=C4)C=C3)cc1
REMARK SMILES IDX 23 1 22 2 21 3 20 4 18 5 19 6 3 8 4 9 2 10 1 11 5 12 6 13
REMARK SMILES IDX 7 15 8 16 9 17 17 18 10 19 12 20 16 21 11 22 13 23 15 24
REMARK SMILES IDX 14 25 24 26 25 27 26 28 27 30 28 31 29 32 87 33 30 34 86 35
REMARK SMILES IDX 31 36 32 37 33 38 80 39 34 40 85 41 79 42 81 43 35 44 84 45
REMARK SMILES IDX 78 46 77 47 36 49 66 50 47 51 65 52 48 53 51 54 64 55 82 56
REMARK SMILES IDX 49 57 50 58 63 60 83 61 52 62 37 63 38 64 46 65 39 66 45 67
REMARK SMILES IDX 40 68 41 69 42 70 43 71 44 72 67 73 68 74 76 75 69 76 75 77
REMARK SMILES IDX 70 78 71 79 72 80 73 81 74 82 53 83 54 84 62 85 55 86 61 87
REMARK SMILES IDX 56 88 57 89 58 90 59 91 60 92
REMARK H PARENT 20 7 5 14 25 29 81 48 51 59
REMARK Flexibility Score: inf
ROOT
ATOM      1  C   UNL A   1      40.849  20.071  26.467  1.00  0.00     0.023 C 
ENDROOT
BRANCH   1   2
ATOM      2  C   UNL A   1      42.356  19.949  26.253  1.00  0.00     0.023 C 
BRANCH   2   3
ATOM      3  C   UNL A   1      43.227  21.188  26.463  1.00  0.00     0.116 C 
BRANCH   3   4
ATOM      4  N   UNL A   1      44.492  21.271  25.754  1.00  0.00    -0.354 N 
ATOM      5  C   UNL A   1      45.366  22.295  25.503  1.00  0.00     0.245 C 
ATOM      6  O   UNL A   1      46.504  21.946  25.167  1.00  0.00    -0.272 OA
ATOM      7  H   UNL A   1      44.783  20.410  25.375  1.00  0.00     0.163 HD
BRANCH   5   8
ATOM      8  C   UNL A   1      45.004  23.801  25.700  1.00  0.00     0.116 C 
ATOM      9  C   UNL A   1      43.656  23.968  24.947  1.00  0.00     0.045 C 
BRANCH   8  10
ATOM     10  C   UNL A   1      44.773  24.237  27.177  1.00  0.00     0.035 C 
ATOM     11  C   UNL A   1      45.924  24.087  28.165  1.00  0.00     0.007 C 
ENDBRANCH   8  10
BRANCH   8  12
ATOM     12  N   UNL A   1      45.985  24.764  25.120  1.00  0.00    -0.338 N 
ATOM     13  C   UNL A   1      46.157  26.140  25.098  1.00  0.00     0.252 C 
ATOM     14  H   UNL A   1      46.695  24.302  24.620  1.00  0.00     0.164 HD
ATOM     15  O   UNL A   1      46.851  26.517  24.149  1.00  0.00    -0.269 OA
BRANCH  13  16
ATOM     16  C   UNL A   1      45.685  27.147  26.133  1.00  0.00     0.047 A 
ATOM     17  C   UNL A   1      46.577  27.628  27.093  1.00  0.00     0.014 A 
ATOM     18  C   UNL A   1      44.395  27.785  26.064  1.00  0.00    -0.006 A 
ATOM     19  C   UNL A   1      46.293  28.680  27.958  1.00  0.00     0.001 A 
ATOM     20  C   UNL A   1      44.124  28.876  26.950  1.00  0.00    -0.018 A 
ATOM     21  C   UNL A   1      43.340  27.455  25.171  1.00  0.00     0.009 A 
ATOM     22  C   UNL A   1      45.069  29.304  27.880  1.00  0.00     0.009 A 
ATOM     23  C   UNL A   1      42.911  29.575  26.904  1.00  0.00     0.009 A 
ATOM     24  C   UNL A   1      42.132  28.165  25.134  1.00  0.00     0.001 A 
ATOM     25  C   UNL A   1      41.921  29.229  25.996  1.00  0.00     0.001 A 
ENDBRANCH  13  16
ENDBRANCH   8  12
ENDBRANCH   5   8
ENDBRANCH   3   4
ENDBRANCH   2   3
ENDBRANCH   1   2
BRANCH   1  26
ATOM     26  C   UNL A   1      40.326  21.447  26.835  1.00  0.00     0.116 C 
BRANCH  26  27
ATOM     27  N   UNL A   1      39.233  21.875  25.979  1.00  0.00    -0.352 N 
ATOM     28  C   UNL A   1      38.580  23.080  25.947  1.00  0.00     0.251 C 
ATOM     29  H   UNL A   1      38.916  21.205  25.332  1.00  0.00     0.163 HD
ATOM     30  O   UNL A   1      37.560  23.195  25.259  1.00  0.00    -0.269 OA
BRANCH  28  31
ATOM     31  C   UNL A   1      39.071  24.229  26.739  1.00  0.00     0.039 A 
ATOM     32  C   UNL A   1      39.962  25.127  26.143  1.00  0.00     0.014 A 
ATOM     33  C   UNL A   1      38.680  24.415  28.067  1.00  0.00     0.014 A 
ATOM     34  C   UNL A   1      40.425  26.230  26.863  1.00  0.00     0.010 A 
ATOM     35  C   UNL A   1      39.081  25.557  28.758  1.00  0.00     0.010 A 
ATOM     36  C   UNL A   1      39.970  26.469  28.170  1.00  0.00    -0.014 A 
BRANCH  36  37
ATOM     37  C   UNL A   1      40.431  27.649  28.947  1.00  0.00     0.031 A 
ATOM     38  C   UNL A   1      41.778  27.628  29.619  1.00  0.00     0.074 A 
ATOM     39  C   UNL A   1      39.619  28.714  29.092  1.00  0.00     0.049 A 
ATOM     40  N   UNL A   1      42.334  28.534  30.382  1.00  0.00    -0.248 NA
ATOM     41  C   UNL A   1      42.599  26.419  29.431  1.00  0.00     0.031 C 
ATOM     42  C   UNL A   1      38.277  28.842  28.521  1.00  0.00     0.029 A 
ATOM     43  N   UNL A   1      39.803  29.893  29.771  1.00  0.00    -0.354 N 
ATOM     44  C   UNL A   1      43.553  27.998  30.782  1.00  0.00     0.074 A 
ATOM     45  C   UNL A   1      43.637  26.669  30.216  1.00  0.00     0.031 C 
ATOM     46  C   UNL A   1      37.772  30.044  28.847  1.00  0.00     0.029 A 
ATOM     47  C   UNL A   1      38.733  30.755  29.684  1.00  0.00     0.049 A 
ATOM     48  H   UNL A   1      40.623  30.104  30.273  1.00  0.00     0.167 HD
ATOM     49  C   UNL A   1      44.525  28.566  31.536  1.00  0.00     0.031 A 
ATOM     50  C   UNL A   1      38.545  31.976  30.221  1.00  0.00     0.031 A 
ATOM     51  C   UNL A   1      44.448  29.896  32.078  1.00  0.00     0.049 A 
ATOM     52  C   UNL A   1      39.638  32.584  31.058  1.00  0.00     0.074 A 
ATOM     53  C   UNL A   1      45.405  30.587  32.801  1.00  0.00     0.029 A 
ATOM     54  N   UNL A   1      43.351  30.736  31.960  1.00  0.00    -0.354 N 
ATOM     55  N   UNL A   1      40.811  32.086  31.369  1.00  0.00    -0.248 NA
ATOM     56  C   UNL A   1      39.385  33.923  31.607  1.00  0.00     0.031 C 
ATOM     57  C   UNL A   1      44.867  31.825  33.165  1.00  0.00     0.029 A 
ATOM     58  C   UNL A   1      43.598  31.930  32.618  1.00  0.00     0.049 A 
ATOM     59  H   UNL A   1      42.520  30.518  31.480  1.00  0.00     0.167 HD
ATOM     60  C   UNL A   1      41.448  33.064  32.126  1.00  0.00     0.074 A 
ATOM     61  C   UNL A   1      40.535  34.186  32.213  1.00  0.00     0.031 C 
ATOM     62  C   UNL A   1      42.678  33.037  32.694  1.00  0.00     0.031 A 
BRANCH  49  63
ATOM     63  C   UNL A   1      45.757  27.746  31.823  1.00  0.00    -0.014 A 
ATOM     64  C   UNL A   1      45.754  26.747  32.812  1.00  0.00     0.010 A 
ATOM     65  C   UNL A   1      46.924  27.950  31.062  1.00  0.00     0.010 A 
ATOM     66  C   UNL A   1      46.906  25.997  33.066  1.00  0.00     0.020 A 
ATOM     67  C   UNL A   1      48.068  27.183  31.293  1.00  0.00     0.020 A 
ATOM     68  C   UNL A   1      48.057  26.222  32.306  1.00  0.00     0.054 A 
BRANCH  68  69
ATOM     69  S   UNL A   1      49.531  25.219  32.641  1.00  0.00     0.124 S 
ATOM     70  O   UNL A   1      50.416  26.189  33.281  1.00  0.00    -0.237 OA
ATOM     71  O   UNL A   1      49.012  24.170  33.516  1.00  0.00    -0.237 OA
ATOM     72  O   UNL A   1      49.954  24.768  31.318  1.00  0.00    -0.744 OA
ENDBRANCH  68  69
ENDBRANCH  49  63
BRANCH  50  73
ATOM     73  C   UNL A   1      37.278  32.714  29.968  1.00  0.00    -0.014 A 
ATOM     74  C   UNL A   1      36.227  32.667  30.901  1.00  0.00     0.010 A 
ATOM     75  C   UNL A   1      37.116  33.476  28.795  1.00  0.00     0.010 A 
ATOM     76  C   UNL A   1      35.031  33.350  30.659  1.00  0.00     0.020 A 
ATOM     77  C   UNL A   1      35.933  34.184  28.563  1.00  0.00     0.020 A 
ATOM     78  C   UNL A   1      34.893  34.105  29.491  1.00  0.00     0.054 A 
BRANCH  78  79
ATOM     79  S   UNL A   1      33.350  35.021  29.220  1.00  0.00     0.124 S 
ATOM     80  O   UNL A   1      32.777  35.054  30.562  1.00  0.00    -0.237 OA
ATOM     81  O   UNL A   1      33.828  36.301  28.703  1.00  0.00    -0.237 OA
ATOM     82  O   UNL A   1      32.629  34.197  28.252  1.00  0.00    -0.744 OA
ENDBRANCH  78  79
ENDBRANCH  50  73
BRANCH  62  83
ATOM     83  C   UNL A   1      43.129  34.270  33.433  1.00  0.00    -0.014 A 
ATOM     84  C   UNL A   1      43.201  34.294  34.837  1.00  0.00     0.010 A 
ATOM     85  C   UNL A   1      43.541  35.400  32.704  1.00  0.00     0.010 A 
ATOM     86  C   UNL A   1      43.647  35.440  35.499  1.00  0.00     0.020 A 
ATOM     87  C   UNL A   1      44.015  36.538  33.362  1.00  0.00     0.020 A 
ATOM     88  C   UNL A   1      44.053  36.555  34.757  1.00  0.00     0.054 A 
BRANCH  88  89
ATOM     89  S   UNL A   1      44.672  38.013  35.640  1.00  0.00     0.124 S 
ATOM     90  O   UNL A   1      46.036  37.612  35.970  1.00  0.00    -0.237 OA
ATOM     91  O   UNL A   1      44.552  39.070  34.638  1.00  0.00    -0.237 OA
ATOM     92  O   UNL A   1      43.766  38.139  36.780  1.00  0.00    -0.744 OA
ENDBRANCH  88  89
ENDBRANCH  62  83
ENDBRANCH  36  37
ENDBRANCH  28  31
ENDBRANCH  26  27
ENDBRANCH   1  26
TORSDOF 17
ENDMDL
MODEL 2
REMARK VINA RESULT:      -9.6      3.586      6.578
REMARK SMILES CC[C@@](C)(NC(=O)c1cccc2ccccc12)C(=O)NCCCCNC(=O)c1ccc(-c2c3nc(c(-c4ccc(S(=O)(=O)[O-])cc4)c4ccc([nH]4)c(-c4ccc(S(=O)(=O)[O-])cc4)c4nc(c(-c5ccc(S(=O)(=O)[O-])cc5)c5ccc2[nH]5)C=C4)C=C3)cc1
REMARK SMILES IDX 23 1 22 2 21 3 20 4 18 5 19 6 3 8 4 9 2 10 1 11 5 12 6 13
REMARK SMILES IDX 7 15 8 16 9 17 17 18 10 19 12 20 16 21 11 22 13 23 15 24
REMARK SMILES IDX 14 25 24 26 25 27 26 28 27 30 28 31 29 32 87 33 30 34 86 35
REMARK SMILES IDX 31 36 32 37 33 38 80 39 34 40 85 41 79 42 81 43 35 44 84 45
REMARK SMILES IDX 78 46 77 47 36 49 66 50 47 51 65 52 48 53 51 54 64 55 82 56
REMARK SMILES IDX 49 57 50 58 63 60 83 61 52 62 37 63 38 64 46 65 39 66 45 67
REMARK SMILES IDX 40 68 41 69 42 70 43 71 44 72 67 73 68 74 76 75 69 76 75 77
REMARK SMILES IDX 70 78 71 79 72 80 73 81 74 82 53 83 54 84 62 85 55 86 61 87
REMARK SMILES IDX 56 88 57 89 58 90 59 91 60 92
REMARK H PARENT 20 7 5 14 25 29 81 48 51 59
REMARK Flexibility Score: inf
ROOT
ATOM      1  C   UNL A   1      35.528  23.674  25.883  1.00  0.00     0.023 C 
ENDROOT
BRANCH   1   2
ATOM      2  C   UNL A   1      35.142  22.203  26.027  1.00  0.00     0.023 C 
BRANCH   2   3
ATOM      3  C   UNL A   1      33.670  21.852  26.250  1.00  0.00     0.116 C 
BRANCH   3   4
ATOM      4  N   UNL A   1      32.887  21.402  25.112  1.00  0.00    -0.354 N 
ATOM      5  C   UNL A   1      32.270  22.053  24.077  1.00  0.00     0.245 C 
ATOM      6  O   UNL A   1      31.984  21.344  23.105  1.00  0.00    -0.272 OA
ATOM      7  H   UNL A   1      32.778  20.425  25.077  1.00  0.00     0.163 HD
BRANCH   5   8
ATOM      8  C   UNL A   1      32.009  23.592  24.064  1.00  0.00     0.116 C 
ATOM      9  C   UNL A   1      30.664  23.742  23.303  1.00  0.00     0.045 C 
BRANCH   8  10
ATOM     10  C   UNL A   1      31.828  24.242  25.467  1.00  0.00     0.035 C 
ATOM     11  C   UNL A   1      30.528  24.982  25.762  1.00  0.00     0.007 C 
ENDBRANCH   8  10
BRANCH   8  12
ATOM     12  N   UNL A   1      33.042  24.399  23.351  1.00  0.00    -0.338 N 
ATOM     13  C   UNL A   1      33.126  25.665  22.792  1.00  0.00     0.252 C 
ATOM     14  H   UNL A   1      33.885  23.900  23.250  1.00  0.00     0.164 HD
ATOM     15  O   UNL A   1      34.015  25.749  21.939  1.00  0.00    -0.269 OA
BRANCH  13  16
ATOM     16  C   UNL A   1      32.342  26.904  23.188  1.00  0.00     0.047 A 
ATOM     17  C   UNL A   1      31.217  27.281  22.453  1.00  0.00     0.014 A 
ATOM     18  C   UNL A   1      32.590  27.621  24.414  1.00  0.00    -0.006 A 
ATOM     19  C   UNL A   1      30.335  28.283  22.843  1.00  0.00     0.001 A 
ATOM     20  C   UNL A   1      31.665  28.640  24.808  1.00  0.00    -0.018 A 
ATOM     21  C   UNL A   1      33.672  27.407  25.309  1.00  0.00     0.009 A 
ATOM     22  C   UNL A   1      30.559  28.956  24.022  1.00  0.00     0.009 A 
ATOM     23  C   UNL A   1      31.815  29.342  26.011  1.00  0.00     0.009 A 
ATOM     24  C   UNL A   1      33.809  28.115  26.511  1.00  0.00     0.001 A 
ATOM     25  C   UNL A   1      32.877  29.078  26.865  1.00  0.00     0.001 A 
ENDBRANCH  13  16
ENDBRANCH   8  12
ENDBRANCH   5   8
ENDBRANCH   3   4
ENDBRANCH   2   3
ENDBRANCH   1   2
BRANCH   1  26
ATOM     26  C   UNL A   1      36.853  23.964  25.203  1.00  0.00     0.116 C 
BRANCH  26  27
ATOM     27  N   UNL A   1      37.846  22.934  25.456  1.00  0.00    -0.352 N 
ATOM     28  C   UNL A   1      39.057  23.036  26.091  1.00  0.00     0.251 C 
ATOM     29  H   UNL A   1      37.618  22.036  25.124  1.00  0.00     0.163 HD
ATOM     30  O   UNL A   1      39.837  22.080  26.058  1.00  0.00    -0.269 OA
BRANCH  28  31
ATOM     31  C   UNL A   1      39.441  24.282  26.791  1.00  0.00     0.039 A 
ATOM     32  C   UNL A   1      39.003  24.480  28.104  1.00  0.00     0.014 A 
ATOM     33  C   UNL A   1      40.210  25.263  26.159  1.00  0.00     0.014 A 
ATOM     34  C   UNL A   1      39.369  25.638  28.793  1.00  0.00     0.010 A 
ATOM     35  C   UNL A   1      40.638  26.380  26.872  1.00  0.00     0.010 A 
ATOM     36  C   UNL A   1      40.211  26.588  28.191  1.00  0.00    -0.014 A 
BRANCH  36  37
ATOM     37  C   UNL A   1      40.631  27.817  28.914  1.00  0.00     0.031 A 
ATOM     38  C   UNL A   1      41.990  27.883  29.559  1.00  0.00     0.074 A 
ATOM     39  C   UNL A   1      39.774  28.849  29.037  1.00  0.00     0.049 A 
ATOM     40  N   UNL A   1      42.518  28.841  30.277  1.00  0.00    -0.248 NA
ATOM     41  C   UNL A   1      42.862  26.706  29.399  1.00  0.00     0.031 C 
ATOM     42  C   UNL A   1      38.416  28.894  28.489  1.00  0.00     0.029 A 
ATOM     43  N   UNL A   1      39.915  30.060  29.668  1.00  0.00    -0.354 N 
ATOM     44  C   UNL A   1      43.768  28.377  30.671  1.00  0.00     0.074 A 
ATOM     45  C   UNL A   1      43.902  27.032  30.153  1.00  0.00     0.031 C 
ATOM     46  C   UNL A   1      37.863  30.083  28.781  1.00  0.00     0.029 A 
ATOM     47  C   UNL A   1      38.806  30.868  29.572  1.00  0.00     0.049 A 
ATOM     48  H   UNL A   1      40.734  30.326  30.145  1.00  0.00     0.167 HD
ATOM     49  C   UNL A   1      44.726  29.016  31.383  1.00  0.00     0.031 A 
ATOM     50  C   UNL A   1      38.572  32.098  30.067  1.00  0.00     0.031 A 
ATOM     51  C   UNL A   1      44.598  30.361  31.878  1.00  0.00     0.049 A 
ATOM     52  C   UNL A   1      39.651  32.787  30.858  1.00  0.00     0.074 A 
ATOM     53  C   UNL A   1      45.536  31.121  32.555  1.00  0.00     0.029 A 
ATOM     54  N   UNL A   1      43.462  31.145  31.752  1.00  0.00    -0.354 N 
ATOM     55  N   UNL A   1      40.852  32.355  31.164  1.00  0.00    -0.248 NA
ATOM     56  C   UNL A   1      39.347  34.133  31.363  1.00  0.00     0.031 C 
ATOM     57  C   UNL A   1      44.948  32.346  32.885  1.00  0.00     0.029 A 
ATOM     58  C   UNL A   1      43.665  32.372  32.361  1.00  0.00     0.049 A 
ATOM     59  H   UNL A   1      42.633  30.871  31.297  1.00  0.00     0.167 HD
ATOM     60  C   UNL A   1      41.457  33.388  31.871  1.00  0.00     0.074 A 
ATOM     61  C   UNL A   1      40.495  34.470  31.935  1.00  0.00     0.031 C 
ATOM     62  C   UNL A   1      42.697  33.439  32.415  1.00  0.00     0.031 A 
BRANCH  49  63
ATOM     63  C   UNL A   1      46.000  28.264  31.675  1.00  0.00    -0.014 A 
ATOM     64  C   UNL A   1      47.124  28.379  30.838  1.00  0.00     0.010 A 
ATOM     65  C   UNL A   1      46.087  27.462  32.829  1.00  0.00     0.010 A 
ATOM     66  C   UNL A   1      48.295  27.673  31.123  1.00  0.00     0.020 A 
ATOM     67  C   UNL A   1      47.267  26.778  33.134  1.00  0.00     0.020 A 
ATOM     68  C   UNL A   1      48.359  26.874  32.269  1.00  0.00     0.054 A 
BRANCH  68  69
ATOM     69  S   UNL A   1      49.900  25.987  32.627  1.00  0.00     0.124 S 
ATOM     70  O   UNL A   1      50.570  26.012  31.329  1.00  0.00    -0.237 OA
ATOM     71  O   UNL A   1      50.512  26.813  33.665  1.00  0.00    -0.237 OA
ATOM     72  O   UNL A   1      49.448  24.670  33.069  1.00  0.00    -0.744 OA
ENDBRANCH  68  69
ENDBRANCH  49  63
BRANCH  50  73
ATOM     73  C   UNL A   1      37.267  32.768  29.813  1.00  0.00    -0.014 A 
ATOM     74  C   UNL A   1      37.077  33.544  28.655  1.00  0.00     0.010 A 
ATOM     75  C   UNL A   1      36.202  32.628  30.723  1.00  0.00     0.010 A 
ATOM     76  C   UNL A   1      35.856  34.184  28.422  1.00  0.00     0.020 A 
ATOM     77  C   UNL A   1      34.970  33.242  30.478  1.00  0.00     0.020 A 
ATOM     78  C   UNL A   1      34.810  34.028  29.335  1.00  0.00     0.054 A 
BRANCH  78  79
ATOM     79  S   UNL A   1      33.219  34.829  28.988  1.00  0.00     0.124 S 
ATOM     80  O   UNL A   1      33.640  36.138  28.498  1.00  0.00    -0.237 OA
ATOM     81  O   UNL A   1      32.627  33.940  27.992  1.00  0.00    -0.237 OA
ATOM     82  O   UNL A   1      32.549  34.832  30.287  1.00  0.00    -0.744 OA
ENDBRANCH  78  79
ENDBRANCH  50  73
BRANCH  62  83
ATOM     83  C   UNL A   1      43.104  34.717  33.098  1.00  0.00    -0.014 A 
ATOM     84  C   UNL A   1      42.861  34.923  34.467  1.00  0.00     0.010 A 
ATOM     85  C   UNL A   1      43.793  35.703  32.367  1.00  0.00     0.010 A 
ATOM     86  C   UNL A   1      43.271  36.107  35.086  1.00  0.00     0.020 A 
ATOM     87  C   UNL A   1      44.230  36.875  32.988  1.00  0.00     0.020 A 
ATOM     88  C   UNL A   1      43.954  37.075  34.342  1.00  0.00     0.054 A 
BRANCH  88  89
ATOM     89  S   UNL A   1      44.517  38.582  35.179  1.00  0.00     0.124 S 
ATOM     90  O   UNL A   1      45.943  38.590  34.867  1.00  0.00    -0.237 OA
ATOM     91  O   UNL A   1      43.726  39.625  34.530  1.00  0.00    -0.237 OA
ATOM     92  O   UNL A   1      44.188  38.342  36.583  1.00  0.00    -0.744 OA
ENDBRANCH  88  89
ENDBRANCH  62  83
ENDBRANCH  36  37
ENDBRANCH  28  31
ENDBRANCH  26  27
ENDBRANCH   1  26
TORSDOF 17
ENDMDL
MODEL 3
REMARK VINA RESULT:      -9.5      3.937     10.927
REMARK SMILES CC[C@@](C)(NC(=O)c1cccc2ccccc12)C(=O)NCCCCNC(=O)c1ccc(-c2c3nc(c(-c4ccc(S(=O)(=O)[O-])cc4)c4ccc([nH]4)c(-c4ccc(S(=O)(=O)[O-])cc4)c4nc(c(-c5ccc(S(=O)(=O)[O-])cc5)c5ccc2[nH]5)C=C4)C=C3)cc1
REMARK SMILES IDX 23 1 22 2 21 3 20 4 18 5 19 6 3 8 4 9 2 10 1 11 5 12 6 13
REMARK SMILES IDX 7 15 8 16 9 17 17 18 10 19 12 20 16 21 11 22 13 23 15 24
REMARK SMILES IDX 14 25 24 26 25 27 26 28 27 30 28 31 29 32 87 33 30 34 86 35
REMARK SMILES IDX 31 36 32 37 33 38 80 39 34 40 85 41 79 42 81 43 35 44 84 45
REMARK SMILES IDX 78 46 77 47 36 49 66 50 47 51 65 52 48 53 51 54 64 55 82 56
REMARK SMILES IDX 49 57 50 58 63 60 83 61 52 62 37 63 38 64 46 65 39 66 45 67
REMARK SMILES IDX 40 68 41 69 42 70 43 71 44 72 67 73 68 74 76 75 69 76 75 77
REMARK SMILES IDX 70 78 71 79 72 80 73 81 74 82 53 83 54 84 62 85 55 86 61 87
REMARK SMILES IDX 56 88 57 89 58 90 59 91 60 92
REMARK H PARENT 20 7 5 14 25 29 81 48 51 59
REMARK Flexibility Score: inf
ROOT
ATOM      1  C   UNL A   1      33.437  27.382  26.478  1.00  0.00     0.023 C 
ENDROOT
BRANCH   1   2
ATOM      2  C   UNL A   1      32.015  27.590  26.994  1.00  0.00     0.023 C 
BRANCH   2   3
ATOM      3  C   UNL A   1      30.854  26.990  26.200  1.00  0.00     0.116 C 
BRANCH   3   4
ATOM      4  N   UNL A   1      30.913  27.036  24.749  1.00  0.00    -0.354 N 
ATOM      5  C   UNL A   1      31.154  26.094  23.786  1.00  0.00     0.245 C 
ATOM      6  O   UNL A   1      30.792  26.402  22.644  1.00  0.00    -0.272 OA
ATOM      7  H   UNL A   1      30.742  27.933  24.382  1.00  0.00     0.163 HD
BRANCH   5   8
ATOM      8  C   UNL A   1      31.765  24.690  24.092  1.00  0.00     0.116 C 
ATOM      9  C   UNL A   1      30.754  23.692  23.465  1.00  0.00     0.045 C 
BRANCH   8  10
ATOM     10  C   UNL A   1      33.155  24.419  23.443  1.00  0.00     0.035 C 
ATOM     11  C   UNL A   1      34.187  25.540  23.444  1.00  0.00     0.007 C 
ENDBRANCH   8  10
BRANCH   8  12
ATOM     12  N   UNL A   1      31.903  24.367  25.542  1.00  0.00    -0.338 N 
ATOM     13  C   UNL A   1      32.265  23.265  26.302  1.00  0.00     0.252 C 
ATOM     14  H   UNL A   1      31.674  25.139  26.109  1.00  0.00     0.164 HD
ATOM     15  O   UNL A   1      31.824  23.317  27.454  1.00  0.00    -0.269 OA
BRANCH  13  16
ATOM     16  C   UNL A   1      33.185  22.126  25.898  1.00  0.00     0.047 A 
ATOM     17  C   UNL A   1      32.644  20.927  25.429  1.00  0.00     0.014 A 
ATOM     18  C   UNL A   1      34.614  22.281  25.794  1.00  0.00    -0.006 A 
ATOM     19  C   UNL A   1      33.399  19.904  24.866  1.00  0.00     0.001 A 
ATOM     20  C   UNL A   1      35.374  21.225  25.198  1.00  0.00    -0.018 A 
ATOM     21  C   UNL A   1      35.369  23.410  26.210  1.00  0.00     0.009 A 
ATOM     22  C   UNL A   1      34.761  20.058  24.747  1.00  0.00     0.009 A 
ATOM     23  C   UNL A   1      36.759  21.328  25.018  1.00  0.00     0.009 A 
ATOM     24  C   UNL A   1      36.756  23.502  26.022  1.00  0.00     0.001 A 
ATOM     25  C   UNL A   1      37.449  22.464  25.420  1.00  0.00     0.001 A 
ENDBRANCH  13  16
ENDBRANCH   8  12
ENDBRANCH   5   8
ENDBRANCH   3   4
ENDBRANCH   2   3
ENDBRANCH   1   2
BRANCH   1  26
ATOM     26  C   UNL A   1      34.150  28.609  25.942  1.00  0.00     0.116 C 
BRANCH  26  27
ATOM     27  N   UNL A   1      33.750  29.828  26.623  1.00  0.00    -0.352 N 
ATOM     28  C   UNL A   1      34.406  30.527  27.603  1.00  0.00     0.251 C 
ATOM     29  H   UNL A   1      32.886  30.206  26.342  1.00  0.00     0.163 HD
ATOM     30  O   UNL A   1      33.824  31.451  28.178  1.00  0.00    -0.269 OA
BRANCH  28  31
ATOM     31  C   UNL A   1      35.790  30.172  27.989  1.00  0.00     0.039 A 
ATOM     32  C   UNL A   1      36.020  29.637  29.260  1.00  0.00     0.014 A 
ATOM     33  C   UNL A   1      36.863  30.381  27.118  1.00  0.00     0.014 A 
ATOM     34  C   UNL A   1      37.315  29.276  29.640  1.00  0.00     0.010 A 
ATOM     35  C   UNL A   1      38.141  29.949  27.469  1.00  0.00     0.010 A 
ATOM     36  C   UNL A   1      38.384  29.406  28.739  1.00  0.00    -0.014 A 
BRANCH  36  37
ATOM     37  C   UNL A   1      39.765  29.006  29.114  1.00  0.00     0.031 A 
ATOM     38  C   UNL A   1      40.669  29.986  29.813  1.00  0.00     0.074 A 
ATOM     39  C   UNL A   1      40.223  27.784  28.779  1.00  0.00     0.049 A 
ATOM     40  N   UNL A   1      41.919  29.845  30.172  1.00  0.00    -0.248 NA
ATOM     41  C   UNL A   1      40.103  31.310  30.126  1.00  0.00     0.031 C 
ATOM     42  C   UNL A   1      39.457  26.756  28.070  1.00  0.00     0.029 A 
ATOM     43  N   UNL A   1      41.447  27.198  28.988  1.00  0.00    -0.354 N 
ATOM     44  C   UNL A   1      42.294  31.062  30.730  1.00  0.00     0.074 A 
ATOM     45  C   UNL A   1      41.155  31.947  30.619  1.00  0.00     0.031 C 
ATOM     46  C   UNL A   1      40.219  25.657  27.931  1.00  0.00     0.029 A 
ATOM     47  C   UNL A   1      41.537  25.915  28.500  1.00  0.00     0.049 A 
ATOM     48  H   UNL A   1      42.191  27.654  29.444  1.00  0.00     0.167 HD
ATOM     49  C   UNL A   1      43.473  31.408  31.300  1.00  0.00     0.031 A 
ATOM     50  C   UNL A   1      42.566  25.046  28.506  1.00  0.00     0.031 A 
ATOM     51  C   UNL A   1      44.597  30.519  31.428  1.00  0.00     0.049 A 
ATOM     52  C   UNL A   1      43.867  25.455  29.142  1.00  0.00     0.074 A 
ATOM     53  C   UNL A   1      45.813  30.753  32.046  1.00  0.00     0.029 A 
ATOM     54  N   UNL A   1      44.643  29.227  30.928  1.00  0.00    -0.354 N 
ATOM     55  N   UNL A   1      44.180  26.590  29.723  1.00  0.00    -0.248 NA
ATOM     56  C   UNL A   1      44.951  24.463  29.132  1.00  0.00     0.031 C 
ATOM     57  C   UNL A   1      46.615  29.621  31.874  1.00  0.00     0.029 A 
ATOM     58  C   UNL A   1      45.877  28.659  31.201  1.00  0.00     0.049 A 
ATOM     59  H   UNL A   1      43.909  28.778  30.449  1.00  0.00     0.167 HD
ATOM     60  C   UNL A   1      45.486  26.436  30.174  1.00  0.00     0.074 A 
ATOM     61  C   UNL A   1      45.899  25.095  29.811  1.00  0.00     0.031 C 
ATOM     62  C   UNL A   1      46.271  27.322  30.833  1.00  0.00     0.031 A 
BRANCH  49  63
ATOM     63  C   UNL A   1      43.610  32.814  31.826  1.00  0.00    -0.014 A 
ATOM     64  C   UNL A   1      43.283  33.131  33.157  1.00  0.00     0.010 A 
ATOM     65  C   UNL A   1      44.112  33.827  30.987  1.00  0.00     0.010 A 
ATOM     66  C   UNL A   1      43.415  34.441  33.626  1.00  0.00     0.020 A 
ATOM     67  C   UNL A   1      44.272  35.132  31.461  1.00  0.00     0.020 A 
ATOM     68  C   UNL A   1      43.907  35.434  32.774  1.00  0.00     0.054 A 
BRANCH  68  69
ATOM     69  S   UNL A   1      44.088  37.120  33.417  1.00  0.00     0.124 S 
ATOM     70  O   UNL A   1      45.305  37.009  34.216  1.00  0.00    -0.237 OA
ATOM     71  O   UNL A   1      44.209  37.917  32.198  1.00  0.00    -0.237 OA
ATOM     72  O   UNL A   1      42.860  37.336  34.178  1.00  0.00    -0.744 OA
ENDBRANCH  68  69
ENDBRANCH  49  63
BRANCH  50  73
ATOM     73  C   UNL A   1      42.403  23.693  27.906  1.00  0.00    -0.014 A 
ATOM     74  C   UNL A   1      42.772  23.457  26.569  1.00  0.00     0.010 A 
ATOM     75  C   UNL A   1      41.885  22.630  28.669  1.00  0.00     0.010 A 
ATOM     76  C   UNL A   1      42.607  22.190  26.001  1.00  0.00     0.020 A 
ATOM     77  C   UNL A   1      41.746  21.355  28.113  1.00  0.00     0.020 A 
ATOM     78  C   UNL A   1      42.096  21.147  26.777  1.00  0.00     0.054 A 
BRANCH  78  79
ATOM     79  S   UNL A   1      41.935  19.500  26.032  1.00  0.00     0.124 S 
ATOM     80  O   UNL A   1      42.450  18.637  27.091  1.00  0.00    -0.237 OA
ATOM     81  O   UNL A   1      40.500  19.406  25.779  1.00  0.00    -0.237 OA
ATOM     82  O   UNL A   1      42.767  19.585  24.834  1.00  0.00    -0.744 OA
ENDBRANCH  78  79
ENDBRANCH  50  73
BRANCH  62  83
ATOM     83  C   UNL A   1      47.647  26.864  31.238  1.00  0.00    -0.014 A 
ATOM     84  C   UNL A   1      47.860  26.169  32.441  1.00  0.00     0.010 A 
ATOM     85  C   UNL A   1      48.733  27.085  30.370  1.00  0.00     0.010 A 
ATOM     86  C   UNL A   1      49.142  25.731  32.785  1.00  0.00     0.020 A 
ATOM     87  C   UNL A   1      50.010  26.623  30.697  1.00  0.00     0.020 A 
ATOM     88  C   UNL A   1      50.209  25.960  31.909  1.00  0.00     0.054 A 
BRANCH  88  89
ATOM     89  S   UNL A   1      51.853  25.340  32.356  1.00  0.00     0.124 S 
ATOM     90  O   UNL A   1      51.571  23.949  32.699  1.00  0.00    -0.237 OA
ATOM     91  O   UNL A   1      52.619  25.542  31.128  1.00  0.00    -0.237 OA
ATOM     92  O   UNL A   1      52.251  26.190  33.477  1.00  0.00    -0.744 OA
ENDBRANCH  88  89
ENDBRANCH  62  83
ENDBRANCH  36  37
ENDBRANCH  28  31
ENDBRANCH  26  27
ENDBRANCH   1  26
TORSDOF 17
ENDMDL
