MODEL 1
REMARK VINA RESULT:     -12.6      0.000      0.000
REMARK SMILES C[C@@H](NC(=O)[C@H]1CC=CC[C@@H]1C(=O)NCCCCNC(=O)c1ccc(-c2c3nc(c(-c4ccc(S(=O)(=O)[O-])cc4)c4ccc([nH]4)c(-c4ccc(S(=O)(=O)[O-])cc4)c4nc(c(-c5ccc(S(=O)(=O)[O-])cc5)c5ccc2[nH]5)C=C4)C=C3)cc1)c1ccc(-n2ccnc2)cc1
REMARK SMILES IDX 16 1 15 2 14 3 12 4 13 5 11 7 6 8 7 9 8 10 10 11 9 12 4 13
REMARK SMILES IDX 3 14 5 16 2 17 1 18 82 19 83 20 92 21 84 22 91 23 85 24
REMARK SMILES IDX 86 25 87 26 90 27 88 28 89 29 17 30 18 31 19 32 20 33 21 35
REMARK SMILES IDX 22 36 23 37 81 38 24 39 80 40 25 41 26 42 27 43 74 44 28 45
REMARK SMILES IDX 79 46 73 47 75 48 29 49 78 50 72 51 71 52 30 54 60 55 41 56
REMARK SMILES IDX 59 57 42 58 45 59 58 60 76 61 43 62 44 63 57 65 77 66 46 67
REMARK SMILES IDX 31 68 32 69 40 70 33 71 39 72 34 73 35 74 36 75 37 76 38 77
REMARK SMILES IDX 61 78 62 79 70 80 63 81 69 82 64 83 65 84 66 85 67 86 68 87
REMARK SMILES IDX 47 88 48 89 56 90 49 91 55 92 50 93 51 94 52 95 53 96 54 97
REMARK H PARENT 14 6 3 15 19 34 75 53 45 64
REMARK Flexibility Score: inf
ROOT
ATOM      1  C   UNL A   1      33.681  29.939  26.689  1.00  0.00     0.023 C 
ENDROOT
BRANCH   1   2
ATOM      2  C   UNL A   1      32.576  29.736  25.645  1.00  0.00     0.116 C 
BRANCH   2   3
ATOM      3  N   UNL A   1      33.136  29.641  24.313  1.00  0.00    -0.356 N 
ATOM      4  C   UNL A   1      33.624  28.607  23.576  1.00  0.00     0.224 C 
ATOM      5  O   UNL A   1      34.202  28.951  22.536  1.00  0.00    -0.275 OA
ATOM      6  H   UNL A   1      33.170  30.504  23.843  1.00  0.00     0.163 HD
BRANCH   4   7
ATOM      7  C   UNL A   1      33.492  26.991  24.045  1.00  0.00     0.095 C 
ATOM      8  C   UNL A   1      31.787  26.805  23.104  1.00  0.00     0.095 C 
ATOM      9  C   UNL A   1      30.303  26.332  24.185  1.00  0.00     0.041 C 
ATOM     10  C   UNL A   1      30.467  25.625  25.885  1.00  0.00    -0.030 C 
ATOM     11  C   UNL A   1      33.445  25.971  26.019  1.00  0.00     0.041 C 
ATOM     12  C   UNL A   1      31.685  25.449  26.646  1.00  0.00    -0.030 C 
BRANCH   8  13
ATOM     13  C   UNL A   1      31.961  25.752  21.943  1.00  0.00     0.224 C 
ATOM     14  N   UNL A   1      32.452  24.470  22.094  1.00  0.00    -0.349 N 
ATOM     15  H   UNL A   1      32.263  23.909  21.308  1.00  0.00     0.164 HD
ATOM     16  O   UNL A   1      31.518  26.026  20.819  1.00  0.00    -0.275 OA
BRANCH  14  17
ATOM     17  C   UNL A   1      33.202  23.718  23.156  1.00  0.00     0.109 C 
ATOM     18  C   UNL A   1      34.626  23.419  22.712  1.00  0.00     0.036 C 
BRANCH  17  19
ATOM     19  C   UNL A   1      32.491  22.439  23.547  1.00  0.00    -0.026 A 
ATOM     20  C   UNL A   1      32.944  21.965  25.134  1.00  0.00     0.008 A 
ATOM     21  C   UNL A   1      32.146  21.175  22.422  1.00  0.00     0.008 A 
ATOM     22  C   UNL A   1      33.278  20.081  25.554  1.00  0.00     0.027 A 
ATOM     23  C   UNL A   1      32.326  19.487  22.794  1.00  0.00     0.027 A 
ATOM     24  C   UNL A   1      32.889  18.897  24.314  1.00  0.00     0.046 A 
BRANCH  24  25
ATOM     25  N   UNL A   1      32.908  17.520  24.569  1.00  0.00    -0.306 N 
ATOM     26  C   UNL A   1      32.152  16.845  25.490  1.00  0.00     0.113 A 
ATOM     27  C   UNL A   1      33.869  16.646  24.134  1.00  0.00     0.204 A 
ATOM     28  C   UNL A   1      32.656  15.567  25.517  1.00  0.00     0.131 A 
ATOM     29  N   UNL A   1      33.736  15.458  24.682  1.00  0.00    -0.245 NA
ENDBRANCH  24  25
ENDBRANCH  17  19
ENDBRANCH  14  17
ENDBRANCH   8  13
ENDBRANCH   4   7
ENDBRANCH   2   3
ENDBRANCH   1   2
BRANCH   1  30
ATOM     30  C   UNL A   1      33.907  31.396  27.123  1.00  0.00     0.023 C 
BRANCH  30  31
ATOM     31  C   UNL A   1      32.693  32.083  27.743  1.00  0.00     0.116 C 
BRANCH  31  32
ATOM     32  N   UNL A   1      32.794  33.531  27.662  1.00  0.00    -0.352 N 
ATOM     33  C   UNL A   1      33.568  34.393  28.399  1.00  0.00     0.251 C 
ATOM     34  H   UNL A   1      32.224  33.955  26.981  1.00  0.00     0.163 HD
ATOM     35  O   UNL A   1      33.293  35.589  28.409  1.00  0.00    -0.269 OA
BRANCH  33  36
ATOM     36  C   UNL A   1      34.719  33.889  29.182  1.00  0.00     0.039 A 
ATOM     37  C   UNL A   1      34.477  33.078  30.293  1.00  0.00     0.014 A 
ATOM     38  C   UNL A   1      36.028  34.252  28.854  1.00  0.00     0.014 A 
ATOM     39  C   UNL A   1      35.552  32.591  31.042  1.00  0.00     0.010 A 
ATOM     40  C   UNL A   1      37.102  33.706  29.559  1.00  0.00     0.010 A 
ATOM     41  C   UNL A   1      36.876  32.873  30.664  1.00  0.00    -0.014 A 
BRANCH  41  42
ATOM     42  C   UNL A   1      38.020  32.279  31.408  1.00  0.00     0.031 A 
ATOM     43  C   UNL A   1      38.417  32.803  32.763  1.00  0.00     0.074 A 
ATOM     44  C   UNL A   1      38.717  31.269  30.847  1.00  0.00     0.049 A 
ATOM     45  N   UNL A   1      39.373  32.389  33.558  1.00  0.00    -0.248 NA
ATOM     46  C   UNL A   1      37.657  33.949  33.290  1.00  0.00     0.031 C 
ATOM     47  C   UNL A   1      38.463  30.700  29.520  1.00  0.00     0.029 A 
ATOM     48  N   UNL A   1      39.778  30.538  31.320  1.00  0.00    -0.354 N 
ATOM     49  C   UNL A   1      39.327  33.218  34.674  1.00  0.00     0.074 A 
ATOM     50  C   UNL A   1      38.288  34.194  34.431  1.00  0.00     0.031 C 
ATOM     51  C   UNL A   1      39.315  29.686  29.305  1.00  0.00     0.029 A 
ATOM     52  C   UNL A   1      40.205  29.559  30.453  1.00  0.00     0.049 A 
ATOM     53  H   UNL A   1      40.195  30.699  32.197  1.00  0.00     0.167 HD
ATOM     54  C   UNL A   1      40.069  33.159  35.807  1.00  0.00     0.031 A 
ATOM     55  C   UNL A   1      41.203  28.660  30.565  1.00  0.00     0.031 A 
ATOM     56  C   UNL A   1      41.106  32.189  36.046  1.00  0.00     0.049 A 
ATOM     57  C   UNL A   1      42.026  28.636  31.824  1.00  0.00     0.074 A 
ATOM     58  C   UNL A   1      41.884  32.024  37.180  1.00  0.00     0.029 A 
ATOM     59  N   UNL A   1      41.516  31.224  35.139  1.00  0.00    -0.354 N 
ATOM     60  N   UNL A   1      41.916  29.382  32.898  1.00  0.00    -0.248 NA
ATOM     61  C   UNL A   1      43.101  27.636  31.892  1.00  0.00     0.031 C 
ATOM     62  C   UNL A   1      42.801  30.997  36.937  1.00  0.00     0.029 A 
ATOM     63  C   UNL A   1      42.551  30.477  35.678  1.00  0.00     0.049 A 
ATOM     64  H   UNL A   1      41.127  31.088  34.245  1.00  0.00     0.167 HD
ATOM     65  C   UNL A   1      42.891  28.924  33.777  1.00  0.00     0.074 A 
ATOM     66  C   UNL A   1      43.557  27.817  33.123  1.00  0.00     0.031 C 
ATOM     67  C   UNL A   1      43.211  29.382  35.013  1.00  0.00     0.031 A 
BRANCH  54  68
ATOM     68  C   UNL A   1      39.783  34.170  36.889  1.00  0.00    -0.014 A 
ATOM     69  C   UNL A   1      39.091  33.802  38.057  1.00  0.00     0.010 A 
ATOM     70  C   UNL A   1      40.282  35.481  36.777  1.00  0.00     0.010 A 
ATOM     71  C   UNL A   1      38.884  34.729  39.082  1.00  0.00     0.020 A 
ATOM     72  C   UNL A   1      40.102  36.405  37.813  1.00  0.00     0.020 A 
ATOM     73  C   UNL A   1      39.395  36.025  38.955  1.00  0.00     0.054 A 
BRANCH  73  74
ATOM     74  S   UNL A   1      39.158  37.187  40.327  1.00  0.00     0.124 S 
ATOM     75  O   UNL A   1      40.531  37.417  40.769  1.00  0.00    -0.237 OA
ATOM     76  O   UNL A   1      38.510  38.322  39.675  1.00  0.00    -0.237 OA
ATOM     77  O   UNL A   1      38.317  36.449  41.267  1.00  0.00    -0.744 OA
ENDBRANCH  73  74
ENDBRANCH  54  68
BRANCH  55  78
ATOM     78  C   UNL A   1      41.487  27.708  29.454  1.00  0.00    -0.014 A 
ATOM     79  C   UNL A   1      40.613  26.641  29.180  1.00  0.00     0.010 A 
ATOM     80  C   UNL A   1      42.654  27.849  28.680  1.00  0.00     0.010 A 
ATOM     81  C   UNL A   1      40.921  25.710  28.183  1.00  0.00     0.020 A 
ATOM     82  C   UNL A   1      42.946  26.942  27.658  1.00  0.00     0.020 A 
ATOM     83  C   UNL A   1      42.088  25.866  27.429  1.00  0.00     0.054 A 
BRANCH  83  84
ATOM     84  S   UNL A   1      42.461  24.655  26.131  1.00  0.00     0.124 S 
ATOM     85  O   UNL A   1      42.239  25.433  24.917  1.00  0.00    -0.237 OA
ATOM     86  O   UNL A   1      43.850  24.305  26.416  1.00  0.00    -0.237 OA
ATOM     87  O   UNL A   1      41.495  23.586  26.375  1.00  0.00    -0.744 OA
ENDBRANCH  83  84
ENDBRANCH  55  78
BRANCH  67  88
ATOM     88  C   UNL A   1      44.313  28.662  35.749  1.00  0.00    -0.014 A 
ATOM     89  C   UNL A   1      45.656  29.067  35.632  1.00  0.00     0.010 A 
ATOM     90  C   UNL A   1      43.997  27.574  36.583  1.00  0.00     0.010 A 
ATOM     91  C   UNL A   1      46.666  28.362  36.291  1.00  0.00     0.020 A 
ATOM     92  C   UNL A   1      45.001  26.891  37.274  1.00  0.00     0.020 A 
ATOM     93  C   UNL A   1      46.332  27.275  37.105  1.00  0.00     0.054 A 
BRANCH  93  94
ATOM     94  S   UNL A   1      47.662  26.385  37.959  1.00  0.00     0.124 S 
ATOM     95  O   UNL A   1      47.514  26.861  39.331  1.00  0.00    -0.237 OA
ATOM     96  O   UNL A   1      47.306  24.985  37.736  1.00  0.00    -0.237 OA
ATOM     97  O   UNL A   1      48.873  26.830  37.272  1.00  0.00    -0.744 OA
ENDBRANCH  93  94
ENDBRANCH  67  88
ENDBRANCH  41  42
ENDBRANCH  33  36
ENDBRANCH  31  32
ENDBRANCH  30  31
ENDBRANCH   1  30
TORSDOF 18
ENDMDL
MODEL 2
REMARK VINA RESULT:     -12.6      5.799     10.169
REMARK SMILES C[C@@H](NC(=O)[C@H]1CC=CC[C@@H]1C(=O)NCCCCNC(=O)c1ccc(-c2c3nc(c(-c4ccc(S(=O)(=O)[O-])cc4)c4ccc([nH]4)c(-c4ccc(S(=O)(=O)[O-])cc4)c4nc(c(-c5ccc(S(=O)(=O)[O-])cc5)c5ccc2[nH]5)C=C4)C=C3)cc1)c1ccc(-n2ccnc2)cc1
REMARK SMILES IDX 16 1 15 2 14 3 12 4 13 5 11 7 6 8 7 9 8 10 10 11 9 12 4 13
REMARK SMILES IDX 3 14 5 16 2 17 1 18 82 19 83 20 92 21 84 22 91 23 85 24
REMARK SMILES IDX 86 25 87 26 90 27 88 28 89 29 17 30 18 31 19 32 20 33 21 35
REMARK SMILES IDX 22 36 23 37 81 38 24 39 80 40 25 41 26 42 27 43 74 44 28 45
REMARK SMILES IDX 79 46 73 47 75 48 29 49 78 50 72 51 71 52 30 54 60 55 41 56
REMARK SMILES IDX 59 57 42 58 45 59 58 60 76 61 43 62 44 63 57 65 77 66 46 67
REMARK SMILES IDX 31 68 32 69 40 70 33 71 39 72 34 73 35 74 36 75 37 76 38 77
REMARK SMILES IDX 61 78 62 79 70 80 63 81 69 82 64 83 65 84 66 85 67 86 68 87
REMARK SMILES IDX 47 88 48 89 56 90 49 91 55 92 50 93 51 94 52 95 53 96 54 97
REMARK H PARENT 14 6 3 15 19 34 75 53 45 64
REMARK Flexibility Score: inf
ROOT
ATOM      1  C   UNL A   1      33.103  29.331  26.740  1.00  0.00     0.023 C 
ENDROOT
BRANCH   1   2
ATOM      2  C   UNL A   1      32.140  29.621  25.583  1.00  0.00     0.116 C 
BRANCH   2   3
ATOM      3  N   UNL A   1      32.831  29.569  24.311  1.00  0.00    -0.356 N 
ATOM      4  C   UNL A   1      33.431  28.568  23.613  1.00  0.00     0.224 C 
ATOM      5  O   UNL A   1      34.092  28.951  22.640  1.00  0.00    -0.275 OA
ATOM      6  H   UNL A   1      32.875  30.441  23.857  1.00  0.00     0.163 HD
BRANCH   4   7
ATOM      7  C   UNL A   1      33.319  26.941  24.048  1.00  0.00     0.095 C 
ATOM      8  C   UNL A   1      31.630  26.746  23.081  1.00  0.00     0.095 C 
ATOM      9  C   UNL A   1      30.140  26.227  24.132  1.00  0.00     0.041 C 
ATOM     10  C   UNL A   1      30.294  25.487  25.820  1.00  0.00    -0.030 C 
ATOM     11  C   UNL A   1      33.264  25.880  26.001  1.00  0.00     0.041 C 
ATOM     12  C   UNL A   1      31.504  25.316  26.593  1.00  0.00    -0.030 C 
BRANCH   8  13
ATOM     13  C   UNL A   1      31.836  25.720  21.902  1.00  0.00     0.224 C 
ATOM     14  N   UNL A   1      32.348  24.444  22.033  1.00  0.00    -0.349 N 
ATOM     15  H   UNL A   1      32.179  23.896  21.233  1.00  0.00     0.164 HD
ATOM     16  O   UNL A   1      31.403  26.009  20.778  1.00  0.00    -0.275 OA
BRANCH  14  17
ATOM     17  C   UNL A   1      33.097  23.683  23.089  1.00  0.00     0.109 C 
ATOM     18  C   UNL A   1      34.524  23.394  22.646  1.00  0.00     0.036 C 
BRANCH  17  19
ATOM     19  C   UNL A   1      32.390  22.397  23.464  1.00  0.00    -0.026 A 
ATOM     20  C   UNL A   1      32.773  21.954  25.079  1.00  0.00     0.008 A 
ATOM     21  C   UNL A   1      32.122  21.111  22.343  1.00  0.00     0.008 A 
ATOM     22  C   UNL A   1      33.118  20.083  25.542  1.00  0.00     0.027 A 
ATOM     23  C   UNL A   1      32.312  19.433  22.749  1.00  0.00     0.027 A 
ATOM     24  C   UNL A   1      32.811  18.874  24.304  1.00  0.00     0.046 A 
BRANCH  24  25
ATOM     25  N   UNL A   1      32.840  17.502  24.580  1.00  0.00    -0.306 N 
ATOM     26  C   UNL A   1      32.163  16.849  25.575  1.00  0.00     0.113 A 
ATOM     27  C   UNL A   1      33.752  16.611  24.077  1.00  0.00     0.204 A 
ATOM     28  C   UNL A   1      32.657  15.567  25.581  1.00  0.00     0.131 A 
ATOM     29  N   UNL A   1      33.659  15.434  24.656  1.00  0.00    -0.245 NA
ENDBRANCH  24  25
ENDBRANCH  17  19
ENDBRANCH  14  17
ENDBRANCH   8  13
ENDBRANCH   4   7
ENDBRANCH   2   3
ENDBRANCH   1   2
BRANCH   1  30
ATOM     30  C   UNL A   1      33.894  30.546  27.250  1.00  0.00     0.023 C 
BRANCH  30  31
ATOM     31  C   UNL A   1      35.232  30.218  27.908  1.00  0.00     0.116 C 
BRANCH  31  32
ATOM     32  N   UNL A   1      35.282  30.679  29.285  1.00  0.00    -0.352 N 
ATOM     33  C   UNL A   1      36.261  30.495  30.231  1.00  0.00     0.251 C 
ATOM     34  H   UNL A   1      34.501  31.196  29.585  1.00  0.00     0.163 HD
ATOM     35  O   UNL A   1      35.996  30.680  31.415  1.00  0.00    -0.269 OA
BRANCH  33  36
ATOM     36  C   UNL A   1      37.622  30.072  29.832  1.00  0.00     0.039 A 
ATOM     37  C   UNL A   1      37.978  30.124  28.482  1.00  0.00     0.014 A 
ATOM     38  C   UNL A   1      38.530  29.580  30.774  1.00  0.00     0.014 A 
ATOM     39  C   UNL A   1      39.260  29.731  28.088  1.00  0.00     0.010 A 
ATOM     40  C   UNL A   1      39.831  29.256  30.389  1.00  0.00     0.010 A 
ATOM     41  C   UNL A   1      40.210  29.324  29.041  1.00  0.00    -0.014 A 
BRANCH  41  42
ATOM     42  C   UNL A   1      41.602  28.993  28.629  1.00  0.00     0.031 A 
ATOM     43  C   UNL A   1      41.970  27.597  28.201  1.00  0.00     0.074 A 
ATOM     44  C   UNL A   1      42.544  29.957  28.661  1.00  0.00     0.049 A 
ATOM     45  N   UNL A   1      43.128  27.140  27.792  1.00  0.00    -0.248 NA
ATOM     46  C   UNL A   1      40.910  26.576  28.251  1.00  0.00     0.031 C 
ATOM     47  C   UNL A   1      42.327  31.339  29.100  1.00  0.00     0.029 A 
ATOM     48  N   UNL A   1      43.872  29.928  28.314  1.00  0.00    -0.354 N 
ATOM     49  C   UNL A   1      42.936  25.786  27.536  1.00  0.00     0.074 A 
ATOM     50  C   UNL A   1      41.567  25.482  27.888  1.00  0.00     0.031 C 
ATOM     51  C   UNL A   1      43.467  32.031  28.958  1.00  0.00     0.029 A 
ATOM     52  C   UNL A   1      44.509  31.139  28.462  1.00  0.00     0.049 A 
ATOM     53  H   UNL A   1      44.327  29.117  27.990  1.00  0.00     0.167 HD
ATOM     54  C   UNL A   1      43.814  24.884  27.033  1.00  0.00     0.031 A 
ATOM     55  C   UNL A   1      45.789  31.493  28.229  1.00  0.00     0.031 A 
ATOM     56  C   UNL A   1      45.178  25.188  26.686  1.00  0.00     0.049 A 
ATOM     57  C   UNL A   1      46.746  30.462  27.696  1.00  0.00     0.074 A 
ATOM     58  C   UNL A   1      46.131  24.350  26.131  1.00  0.00     0.029 A 
ATOM     59  N   UNL A   1      45.787  26.420  26.863  1.00  0.00    -0.354 N 
ATOM     60  N   UNL A   1      46.522  29.205  27.391  1.00  0.00    -0.248 NA
ATOM     61  C   UNL A   1      48.128  30.903  27.461  1.00  0.00     0.031 C 
ATOM     62  C   UNL A   1      47.331  25.060  26.026  1.00  0.00     0.029 A 
ATOM     63  C   UNL A   1      47.109  26.359  26.452  1.00  0.00     0.049 A 
ATOM     64  H   UNL A   1      45.345  27.223  27.225  1.00  0.00     0.167 HD
ATOM     65  C   UNL A   1      47.730  28.715  26.905  1.00  0.00     0.074 A 
ATOM     66  C   UNL A   1      48.668  29.817  26.927  1.00  0.00     0.031 C 
ATOM     67  C   UNL A   1      48.036  27.462  26.485  1.00  0.00     0.031 A 
BRANCH  54  68
ATOM     68  C   UNL A   1      43.326  23.474  26.816  1.00  0.00    -0.014 A 
ATOM     69  C   UNL A   1      43.064  22.990  25.521  1.00  0.00     0.010 A 
ATOM     70  C   UNL A   1      43.208  22.594  27.908  1.00  0.00     0.010 A 
ATOM     71  C   UNL A   1      42.672  21.664  25.324  1.00  0.00     0.020 A 
ATOM     72  C   UNL A   1      42.844  21.257  27.713  1.00  0.00     0.020 A 
ATOM     73  C   UNL A   1      42.568  20.803  26.422  1.00  0.00     0.054 A 
BRANCH  73  74
ATOM     74  S   UNL A   1      42.112  19.074  26.125  1.00  0.00     0.124 S 
ATOM     75  O   UNL A   1      40.705  19.191  25.750  1.00  0.00    -0.237 OA
ATOM     76  O   UNL A   1      43.018  18.684  25.048  1.00  0.00    -0.237 OA
ATOM     77  O   UNL A   1      42.360  18.422  27.410  1.00  0.00    -0.744 OA
ENDBRANCH  73  74
ENDBRANCH  54  68
BRANCH  55  78
ATOM     78  C   UNL A   1      46.245  32.885  28.501  1.00  0.00    -0.014 A 
ATOM     79  C   UNL A   1      46.224  33.860  27.488  1.00  0.00     0.010 A 
ATOM     80  C   UNL A   1      46.733  33.235  29.774  1.00  0.00     0.010 A 
ATOM     81  C   UNL A   1      46.720  35.145  27.729  1.00  0.00     0.020 A 
ATOM     82  C   UNL A   1      47.195  34.529  30.029  1.00  0.00     0.020 A 
ATOM     83  C   UNL A   1      47.206  35.470  29.000  1.00  0.00     0.054 A 
BRANCH  83  84
ATOM     84  S   UNL A   1      47.831  37.147  29.296  1.00  0.00     0.124 S 
ATOM     85  O   UNL A   1      47.111  37.921  28.291  1.00  0.00    -0.237 OA
ATOM     86  O   UNL A   1      47.442  37.388  30.683  1.00  0.00    -0.237 OA
ATOM     87  O   UNL A   1      49.270  37.018  29.074  1.00  0.00    -0.744 OA
ENDBRANCH  83  84
ENDBRANCH  55  78
BRANCH  67  88
ATOM     88  C   UNL A   1      49.439  27.228  25.985  1.00  0.00    -0.014 A 
ATOM     89  C   UNL A   1      49.766  27.391  24.625  1.00  0.00     0.010 A 
ATOM     90  C   UNL A   1      50.448  26.855  26.891  1.00  0.00     0.010 A 
ATOM     91  C   UNL A   1      51.063  27.131  24.175  1.00  0.00     0.020 A 
ATOM     92  C   UNL A   1      51.754  26.631  26.449  1.00  0.00     0.020 A 
ATOM     93  C   UNL A   1      52.048  26.748  25.090  1.00  0.00     0.054 A 
BRANCH  93  94
ATOM     94  S   UNL A   1      53.726  26.428  24.480  1.00  0.00     0.124 S 
ATOM     95  O   UNL A   1      54.218  27.778  24.223  1.00  0.00    -0.237 OA
ATOM     96  O   UNL A   1      54.349  25.735  25.605  1.00  0.00    -0.237 OA
ATOM     97  O   UNL A   1      53.511  25.606  23.291  1.00  0.00    -0.744 OA
ENDBRANCH  93  94
ENDBRANCH  67  88
ENDBRANCH  41  42
ENDBRANCH  33  36
ENDBRANCH  31  32
ENDBRANCH  30  31
ENDBRANCH   1  30
TORSDOF 18
ENDMDL
MODEL 3
REMARK VINA RESULT:     -12.5      1.173      8.033
REMARK SMILES C[C@@H](NC(=O)[C@H]1CC=CC[C@@H]1C(=O)NCCCCNC(=O)c1ccc(-c2c3nc(c(-c4ccc(S(=O)(=O)[O-])cc4)c4ccc([nH]4)c(-c4ccc(S(=O)(=O)[O-])cc4)c4nc(c(-c5ccc(S(=O)(=O)[O-])cc5)c5ccc2[nH]5)C=C4)C=C3)cc1)c1ccc(-n2ccnc2)cc1
REMARK SMILES IDX 16 1 15 2 14 3 12 4 13 5 11 7 6 8 7 9 8 10 10 11 9 12 4 13
REMARK SMILES IDX 3 14 5 16 2 17 1 18 82 19 83 20 92 21 84 22 91 23 85 24
REMARK SMILES IDX 86 25 87 26 90 27 88 28 89 29 17 30 18 31 19 32 20 33 21 35
REMARK SMILES IDX 22 36 23 37 81 38 24 39 80 40 25 41 26 42 27 43 74 44 28 45
REMARK SMILES IDX 79 46 73 47 75 48 29 49 78 50 72 51 71 52 30 54 60 55 41 56
REMARK SMILES IDX 59 57 42 58 45 59 58 60 76 61 43 62 44 63 57 65 77 66 46 67
REMARK SMILES IDX 31 68 32 69 40 70 33 71 39 72 34 73 35 74 36 75 37 76 38 77
REMARK SMILES IDX 61 78 62 79 70 80 63 81 69 82 64 83 65 84 66 85 67 86 68 87
REMARK SMILES IDX 47 88 48 89 56 90 49 91 55 92 50 93 51 94 52 95 53 96 54 97
REMARK H PARENT 14 6 3 15 19 34 75 53 45 64
REMARK Flexibility Score: inf
ROOT
ATOM      1  C   UNL A   1      32.240  30.033  26.298  1.00  0.00     0.023 C 
ENDROOT
BRANCH   1   2
ATOM      2  C   UNL A   1      31.342  29.551  25.153  1.00  0.00     0.116 C 
BRANCH   2   3
ATOM      3  N   UNL A   1      32.054  29.578  23.891  1.00  0.00    -0.356 N 
ATOM      4  C   UNL A   1      32.901  28.708  23.278  1.00  0.00     0.224 C 
ATOM      5  O   UNL A   1      33.469  29.170  22.280  1.00  0.00    -0.275 OA
ATOM      6  H   UNL A   1      31.889  30.396  23.370  1.00  0.00     0.163 HD
BRANCH   4   7
ATOM      7  C   UNL A   1      33.188  27.143  23.840  1.00  0.00     0.095 C 
ATOM      8  C   UNL A   1      31.637  26.455  22.866  1.00  0.00     0.095 C 
ATOM      9  C   UNL A   1      30.291  25.653  23.934  1.00  0.00     0.041 C 
ATOM     10  C   UNL A   1      30.568  25.103  25.677  1.00  0.00    -0.030 C 
ATOM     11  C   UNL A   1      33.335  26.249  25.870  1.00  0.00     0.041 C 
ATOM     12  C   UNL A   1      31.755  25.302  26.479  1.00  0.00    -0.030 C 
BRANCH   8  13
ATOM     13  C   UNL A   1      32.136  25.430  21.776  1.00  0.00     0.224 C 
ATOM     14  N   UNL A   1      32.733  24.213  22.037  1.00  0.00    -0.349 N 
ATOM     15  H   UNL A   1      32.754  23.636  21.240  1.00  0.00     0.164 HD
ATOM     16  O   UNL A   1      31.876  25.654  20.586  1.00  0.00    -0.275 OA
BRANCH  14  17
ATOM     17  C   UNL A   1      33.357  23.549  23.230  1.00  0.00     0.109 C 
ATOM     18  C   UNL A   1      34.828  23.246  22.980  1.00  0.00     0.036 C 
BRANCH  17  19
ATOM     19  C   UNL A   1      32.617  22.288  23.624  1.00  0.00    -0.026 A 
ATOM     20  C   UNL A   1      33.053  21.811  25.216  1.00  0.00     0.008 A 
ATOM     21  C   UNL A   1      32.249  21.027  22.503  1.00  0.00     0.008 A 
ATOM     22  C   UNL A   1      33.343  19.923  25.645  1.00  0.00     0.027 A 
ATOM     23  C   UNL A   1      32.391  19.337  22.884  1.00  0.00     0.027 A 
ATOM     24  C   UNL A   1      32.935  18.741  24.409  1.00  0.00     0.046 A 
BRANCH  24  25
ATOM     25  N   UNL A   1      32.922  17.366  24.670  1.00  0.00    -0.306 N 
ATOM     26  C   UNL A   1      32.055  16.693  25.488  1.00  0.00     0.113 A 
ATOM     27  C   UNL A   1      33.932  16.492  24.367  1.00  0.00     0.204 A 
ATOM     28  C   UNL A   1      32.553  15.416  25.586  1.00  0.00     0.131 A 
ATOM     29  N   UNL A   1      33.732  15.306  24.898  1.00  0.00    -0.245 NA
ENDBRANCH  24  25
ENDBRANCH  17  19
ENDBRANCH  14  17
ENDBRANCH   8  13
ENDBRANCH   4   7
ENDBRANCH   2   3
ENDBRANCH   1   2
BRANCH   1  30
ATOM     30  C   UNL A   1      32.050  31.505  26.699  1.00  0.00     0.023 C 
BRANCH  30  31
ATOM     31  C   UNL A   1      33.275  32.170  27.321  1.00  0.00     0.116 C 
BRANCH  31  32
ATOM     32  N   UNL A   1      32.973  33.504  27.812  1.00  0.00    -0.352 N 
ATOM     33  C   UNL A   1      33.468  34.160  28.913  1.00  0.00     0.251 C 
ATOM     34  H   UNL A   1      32.318  34.010  27.281  1.00  0.00     0.163 HD
ATOM     35  O   UNL A   1      32.872  35.143  29.345  1.00  0.00    -0.269 OA
BRANCH  33  36
ATOM     36  C   UNL A   1      34.702  33.687  29.579  1.00  0.00     0.039 A 
ATOM     37  C   UNL A   1      35.932  34.207  29.171  1.00  0.00     0.014 A 
ATOM     38  C   UNL A   1      34.655  32.699  30.567  1.00  0.00     0.014 A 
ATOM     39  C   UNL A   1      37.107  33.775  29.791  1.00  0.00     0.010 A 
ATOM     40  C   UNL A   1      35.821  32.321  31.233  1.00  0.00     0.010 A 
ATOM     41  C   UNL A   1      37.062  32.851  30.850  1.00  0.00    -0.014 A 
BRANCH  41  42
ATOM     42  C   UNL A   1      38.305  32.461  31.569  1.00  0.00     0.031 A 
ATOM     43  C   UNL A   1      39.260  31.459  30.974  1.00  0.00     0.074 A 
ATOM     44  C   UNL A   1      38.564  33.000  32.778  1.00  0.00     0.049 A 
ATOM     45  N   UNL A   1      40.398  31.022  31.454  1.00  0.00    -0.248 NA
ATOM     46  C   UNL A   1      38.887  30.859  29.682  1.00  0.00     0.031 C 
ATOM     47  C   UNL A   1      37.696  33.947  33.485  1.00  0.00     0.029 A 
ATOM     48  N   UNL A   1      39.630  32.837  33.626  1.00  0.00    -0.354 N 
ATOM     49  C   UNL A   1      40.874  30.101  30.527  1.00  0.00     0.074 A 
ATOM     50  C   UNL A   1      39.878  30.000  29.483  1.00  0.00     0.031 C 
ATOM     51  C   UNL A   1      38.284  34.309  34.636  1.00  0.00     0.029 A 
ATOM     52  C   UNL A   1      39.545  33.590  34.774  1.00  0.00     0.049 A 
ATOM     53  H   UNL A   1      40.386  32.237  33.431  1.00  0.00     0.167 HD
ATOM     54  C   UNL A   1      42.045  29.418  30.533  1.00  0.00     0.031 A 
ATOM     55  C   UNL A   1      40.385  33.691  35.824  1.00  0.00     0.031 A 
ATOM     56  C   UNL A   1      43.036  29.517  31.574  1.00  0.00     0.049 A 
ATOM     57  C   UNL A   1      41.664  32.899  35.814  1.00  0.00     0.074 A 
ATOM     58  C   UNL A   1      44.271  28.895  31.648  1.00  0.00     0.029 A 
ATOM     59  N   UNL A   1      42.905  30.279  32.724  1.00  0.00    -0.354 N 
ATOM     60  N   UNL A   1      42.129  32.090  34.890  1.00  0.00    -0.248 NA
ATOM     61  C   UNL A   1      42.541  33.046  36.983  1.00  0.00     0.031 C 
ATOM     62  C   UNL A   1      44.862  29.237  32.868  1.00  0.00     0.029 A 
ATOM     63  C   UNL A   1      44.026  30.125  33.525  1.00  0.00     0.049 A 
ATOM     64  H   UNL A   1      42.132  30.849  32.940  1.00  0.00     0.167 HD
ATOM     65  C   UNL A   1      43.363  31.653  35.358  1.00  0.00     0.074 A 
ATOM     66  C   UNL A   1      43.586  32.312  36.629  1.00  0.00     0.031 C 
ATOM     67  C   UNL A   1      44.233  30.780  34.791  1.00  0.00     0.031 A 
BRANCH  54  68
ATOM     68  C   UNL A   1      42.332  28.502  29.370  1.00  0.00    -0.014 A 
ATOM     69  C   UNL A   1      41.888  27.167  29.374  1.00  0.00     0.010 A 
ATOM     70  C   UNL A   1      42.979  29.000  28.224  1.00  0.00     0.010 A 
ATOM     71  C   UNL A   1      42.104  26.343  28.267  1.00  0.00     0.020 A 
ATOM     72  C   UNL A   1      43.171  28.187  27.101  1.00  0.00     0.020 A 
ATOM     73  C   UNL A   1      42.741  26.860  27.134  1.00  0.00     0.054 A 
BRANCH  73  74
ATOM     74  S   UNL A   1      42.955  25.780  25.693  1.00  0.00     0.124 S 
ATOM     75  O   UNL A   1      41.775  26.102  24.895  1.00  0.00    -0.237 OA
ATOM     76  O   UNL A   1      44.229  26.234  25.141  1.00  0.00    -0.237 OA
ATOM     77  O   UNL A   1      42.972  24.435  26.265  1.00  0.00    -0.744 OA
ENDBRANCH  73  74
ENDBRANCH  54  68
BRANCH  55  78
ATOM     78  C   UNL A   1      40.045  34.570  36.977  1.00  0.00    -0.014 A 
ATOM     79  C   UNL A   1      40.460  35.913  37.006  1.00  0.00     0.010 A 
ATOM     80  C   UNL A   1      39.325  34.056  38.072  1.00  0.00     0.010 A 
ATOM     81  C   UNL A   1      40.200  36.714  38.122  1.00  0.00     0.020 A 
ATOM     82  C   UNL A   1      39.030  34.864  39.175  1.00  0.00     0.020 A 
ATOM     83  C   UNL A   1      39.488  36.182  39.202  1.00  0.00     0.054 A 
BRANCH  83  84
ATOM     84  S   UNL A   1      39.148  37.241  40.634  1.00  0.00     0.124 S 
ATOM     85  O   UNL A   1      38.304  38.278  40.052  1.00  0.00    -0.237 OA
ATOM     86  O   UNL A   1      38.483  36.323  41.555  1.00  0.00    -0.237 OA
ATOM     87  O   UNL A   1      40.477  37.679  41.057  1.00  0.00    -0.744 OA
ENDBRANCH  83  84
ENDBRANCH  55  78
BRANCH  67  88
ATOM     88  C   UNL A   1      45.519  30.513  35.529  1.00  0.00    -0.014 A 
ATOM     89  C   UNL A   1      46.661  31.309  35.320  1.00  0.00     0.010 A 
ATOM     90  C   UNL A   1      45.583  29.458  36.458  1.00  0.00     0.010 A 
ATOM     91  C   UNL A   1      47.856  31.020  35.984  1.00  0.00     0.020 A 
ATOM     92  C   UNL A   1      46.765  29.191  37.152  1.00  0.00     0.020 A 
ATOM     93  C   UNL A   1      47.901  29.959  36.894  1.00  0.00     0.054 A 
BRANCH  93  94
ATOM     94  S   UNL A   1      49.462  29.613  37.751  1.00  0.00     0.124 S 
ATOM     95  O   UNL A   1      50.450  29.955  36.733  1.00  0.00    -0.237 OA
ATOM     96  O   UNL A   1      49.403  30.515  38.899  1.00  0.00    -0.237 OA
ATOM     97  O   UNL A   1      49.369  28.191  38.078  1.00  0.00    -0.744 OA
ENDBRANCH  93  94
ENDBRANCH  67  88
ENDBRANCH  41  42
ENDBRANCH  33  36
ENDBRANCH  31  32
ENDBRANCH  30  31
ENDBRANCH   1  30
TORSDOF 18
ENDMDL
