MODEL 1
REMARK VINA RESULT:     -11.4      0.000      0.000
REMARK SMILES CC1=C(C(=O)NCCCCNC(=O)c2ccc(-c3c4nc(c(-c5ccc(S(=O)(=O)[O-])cc5)c5ccc([nH]5)c(-c5ccc(S(=O)(=O)[O-])cc5)c5nc(c(-c6ccc(S(=O)(=O)[O-])cc6)c6ccc3[nH]6)C=C5)C=C4)cc2)N2C(=O)[C@@H](NC(=O)c3ccn(C)n3)[C@H]2SC1
REMARK SMILES IDX 9 1 8 2 7 3 6 4 4 5 5 6 3 8 1 9 2 10 89 11 74 12 88 13 75 14
REMARK SMILES IDX 87 15 76 16 77 17 78 18 79 19 80 21 81 22 82 23 86 24 83 25
REMARK SMILES IDX 84 26 85 27 10 28 11 29 12 30 13 32 14 33 15 34 73 35 16 36
REMARK SMILES IDX 72 37 17 38 18 39 19 40 66 41 20 42 71 43 65 44 67 45 21 46
REMARK SMILES IDX 70 47 64 48 63 49 22 51 52 52 33 53 51 54 34 55 37 56 50 57
REMARK SMILES IDX 68 58 35 59 36 60 49 62 69 63 38 64 23 65 24 66 32 67 25 68
REMARK SMILES IDX 31 69 26 70 27 71 28 72 29 73 30 74 53 75 54 76 62 77 55 78
REMARK SMILES IDX 61 79 56 80 57 81 58 82 59 83 60 84 39 85 40 86 48 87 41 88
REMARK SMILES IDX 47 89 42 90 43 91 44 92 45 93 46 94
REMARK H PARENT 6 7 78 20 11 31 67 50 37 61
REMARK Flexibility Score: inf
ROOT
ATOM      1  C   UNL A   1      33.168  28.963  25.603  1.00  0.00     0.023 C 
ENDROOT
BRANCH   1   2
ATOM      2  C   UNL A   1      34.351  28.675  24.683  1.00  0.00     0.023 C 
BRANCH   2   3
ATOM      3  C   UNL A   1      34.038  28.489  23.206  1.00  0.00     0.116 C 
BRANCH   3   4
ATOM      4  N   UNL A   1      34.291  27.179  22.643  1.00  0.00    -0.351 N 
ATOM      5  C   UNL A   1      33.558  26.029  22.778  1.00  0.00     0.268 C 
ATOM      6  O   UNL A   1      33.805  25.072  22.043  1.00  0.00    -0.268 OA
ATOM      7  H   UNL A   1      35.101  27.106  22.086  1.00  0.00     0.163 HD
BRANCH   5   8
ATOM      8  C   UNL A   1      32.491  25.900  23.844  1.00  0.00     0.110 C 
ATOM      9  C   UNL A   1      33.958  25.018  25.711  1.00  0.00     0.043 C 
ATOM     10  C   UNL A   1      32.633  25.343  25.074  1.00  0.00    -0.034 C 
ATOM     11  C   UNL A   1      31.458  25.022  26.002  1.00  0.00     0.104 C 
ATOM     12  N   UNL A   1      31.331  26.570  23.602  1.00  0.00    -0.290 N 
ATOM     13  S   UNL A   1      29.815  25.593  25.441  1.00  0.00    -0.129 SA
ATOM     14  C   UNL A   1      30.640  27.135  22.594  1.00  0.00     0.253 C 
ATOM     15  C   UNL A   1      30.519  27.073  24.687  1.00  0.00     0.181 C 
ATOM     16  O   UNL A   1      30.718  27.085  21.388  1.00  0.00    -0.272 OA
ATOM     17  C   UNL A   1      29.737  27.869  23.627  1.00  0.00     0.206 C 
BRANCH  17  18
ATOM     18  N   UNL A   1      28.269  27.698  23.568  1.00  0.00    -0.336 N 
ATOM     19  C   UNL A   1      27.338  28.662  23.221  1.00  0.00     0.272 C 
ATOM     20  H   UNL A   1      27.917  26.808  23.798  1.00  0.00     0.164 HD
ATOM     21  O   UNL A   1      26.143  28.433  23.407  1.00  0.00    -0.267 OA
BRANCH  19  22
ATOM     22  C   UNL A   1      27.836  29.932  22.663  1.00  0.00     0.150 A 
ATOM     23  C   UNL A   1      28.164  30.214  21.306  1.00  0.00     0.056 A 
ATOM     24  N   UNL A   1      28.081  31.006  23.439  1.00  0.00    -0.168 NA
ATOM     25  C   UNL A   1      28.669  31.491  21.306  1.00  0.00     0.109 A 
ATOM     26  N   UNL A   1      28.558  31.933  22.589  1.00  0.00    -0.275 N 
ATOM     27  C   UNL A   1      28.921  33.243  23.071  1.00  0.00     0.173 C 
ENDBRANCH  19  22
ENDBRANCH  17  18
ENDBRANCH   5   8
ENDBRANCH   3   4
ENDBRANCH   2   3
ENDBRANCH   1   2
BRANCH   1  28
ATOM     28  C   UNL A   1      33.454  28.976  27.102  1.00  0.00     0.116 C 
BRANCH  28  29
ATOM     29  N   UNL A   1      33.440  30.306  27.698  1.00  0.00    -0.352 N 
ATOM     30  C   UNL A   1      34.419  30.976  28.399  1.00  0.00     0.251 C 
ATOM     31  H   UNL A   1      32.599  30.804  27.580  1.00  0.00     0.163 HD
ATOM     32  O   UNL A   1      34.166  32.066  28.906  1.00  0.00    -0.269 OA
BRANCH  30  33
ATOM     33  C   UNL A   1      35.756  30.367  28.580  1.00  0.00     0.039 A 
ATOM     34  C   UNL A   1      36.684  30.441  27.538  1.00  0.00     0.014 A 
ATOM     35  C   UNL A   1      36.107  29.757  29.784  1.00  0.00     0.014 A 
ATOM     36  C   UNL A   1      37.993  29.998  27.744  1.00  0.00     0.010 A 
ATOM     37  C   UNL A   1      37.435  29.411  30.021  1.00  0.00     0.010 A 
ATOM     38  C   UNL A   1      38.396  29.530  29.007  1.00  0.00    -0.014 A 
BRANCH  38  39
ATOM     39  C   UNL A   1      39.813  29.170  29.287  1.00  0.00     0.031 A 
ATOM     40  C   UNL A   1      40.747  30.184  29.895  1.00  0.00     0.074 A 
ATOM     41  C   UNL A   1      40.279  27.953  28.936  1.00  0.00     0.049 A 
ATOM     42  N   UNL A   1      42.024  30.075  30.158  1.00  0.00    -0.248 NA
ATOM     43  C   UNL A   1      40.179  31.502  30.226  1.00  0.00     0.031 C 
ATOM     44  C   UNL A   1      39.492  26.893  28.300  1.00  0.00     0.029 A 
ATOM     45  N   UNL A   1      41.531  27.401  29.060  1.00  0.00    -0.354 N 
ATOM     46  C   UNL A   1      42.413  31.309  30.669  1.00  0.00     0.074 A 
ATOM     47  C   UNL A   1      41.252  32.170  30.622  1.00  0.00     0.031 C 
ATOM     48  C   UNL A   1      40.269  25.811  28.124  1.00  0.00     0.029 A 
ATOM     49  C   UNL A   1      41.620  26.113  28.583  1.00  0.00     0.049 A 
ATOM     50  H   UNL A   1      42.295  27.883  29.452  1.00  0.00     0.167 HD
ATOM     51  C   UNL A   1      43.618  31.686  31.157  1.00  0.00     0.031 A 
ATOM     52  C   UNL A   1      42.670  25.271  28.512  1.00  0.00     0.031 A 
ATOM     53  C   UNL A   1      44.770  30.825  31.209  1.00  0.00     0.049 A 
ATOM     54  C   UNL A   1      44.008  25.724  29.034  1.00  0.00     0.074 A 
ATOM     55  C   UNL A   1      46.021  31.096  31.734  1.00  0.00     0.029 A 
ATOM     56  N   UNL A   1      44.817  29.530  30.716  1.00  0.00    -0.354 N 
ATOM     57  N   UNL A   1      44.335  26.869  29.583  1.00  0.00    -0.248 NA
ATOM     58  C   UNL A   1      45.119  24.765  28.937  1.00  0.00     0.031 C 
ATOM     59  C   UNL A   1      46.843  29.992  31.497  1.00  0.00     0.029 A 
ATOM     60  C   UNL A   1      46.084  29.001  30.896  1.00  0.00     0.049 A 
ATOM     61  H   UNL A   1      44.060  29.056  30.300  1.00  0.00     0.167 HD
ATOM     62  C   UNL A   1      45.679  26.757  29.925  1.00  0.00     0.074 A 
ATOM     63  C   UNL A   1      46.098  25.427  29.538  1.00  0.00     0.031 C 
ATOM     64  C   UNL A   1      46.489  27.673  30.509  1.00  0.00     0.031 A 
BRANCH  51  65
ATOM     65  C   UNL A   1      43.756  33.096  31.671  1.00  0.00    -0.014 A 
ATOM     66  C   UNL A   1      44.178  34.141  30.826  1.00  0.00     0.010 A 
ATOM     67  C   UNL A   1      43.411  33.393  33.001  1.00  0.00     0.010 A 
ATOM     68  C   UNL A   1      44.289  35.446  31.314  1.00  0.00     0.020 A 
ATOM     69  C   UNL A   1      43.488  34.702  33.484  1.00  0.00     0.020 A 
ATOM     70  C   UNL A   1      43.942  35.718  32.641  1.00  0.00     0.054 A 
BRANCH  70  71
ATOM     71  S   UNL A   1      44.065  37.427  33.234  1.00  0.00     0.124 S 
ATOM     72  O   UNL A   1      45.371  37.424  33.891  1.00  0.00    -0.237 OA
ATOM     73  O   UNL A   1      43.987  38.200  31.998  1.00  0.00    -0.237 OA
ATOM     74  O   UNL A   1      42.921  37.569  34.129  1.00  0.00    -0.744 OA
ENDBRANCH  70  71
ENDBRANCH  51  65
BRANCH  52  75
ATOM     75  C   UNL A   1      42.502  23.908  27.930  1.00  0.00    -0.014 A 
ATOM     76  C   UNL A   1      42.279  22.795  28.761  1.00  0.00     0.010 A 
ATOM     77  C   UNL A   1      42.570  23.714  26.538  1.00  0.00     0.010 A 
ATOM     78  C   UNL A   1      42.155  21.513  28.214  1.00  0.00     0.020 A 
ATOM     79  C   UNL A   1      42.412  22.440  25.985  1.00  0.00     0.020 A 
ATOM     80  C   UNL A   1      42.219  21.346  26.828  1.00  0.00     0.054 A 
BRANCH  80  81
ATOM     81  S   UNL A   1      42.014  19.679  26.140  1.00  0.00     0.124 S 
ATOM     82  O   UNL A   1      42.956  19.693  25.025  1.00  0.00    -0.237 OA
ATOM     83  O   UNL A   1      42.381  18.827  27.268  1.00  0.00    -0.237 OA
ATOM     84  O   UNL A   1      40.602  19.634  25.766  1.00  0.00    -0.744 OA
ENDBRANCH  80  81
ENDBRANCH  52  75
BRANCH  64  85
ATOM     85  C   UNL A   1      47.908  27.262  30.809  1.00  0.00    -0.014 A 
ATOM     86  C   UNL A   1      48.241  26.586  31.996  1.00  0.00     0.010 A 
ATOM     87  C   UNL A   1      48.913  27.499  29.852  1.00  0.00     0.010 A 
ATOM     88  C   UNL A   1      49.558  26.181  32.233  1.00  0.00     0.020 A 
ATOM     89  C   UNL A   1      50.222  27.065  30.070  1.00  0.00     0.020 A 
ATOM     90  C   UNL A   1      50.539  26.419  31.266  1.00  0.00     0.054 A 
BRANCH  90  91
ATOM     91  S   UNL A   1      52.228  25.834  31.574  1.00  0.00     0.124 S 
ATOM     92  O   UNL A   1      52.003  24.444  31.959  1.00  0.00    -0.237 OA
ATOM     93  O   UNL A   1      52.874  26.031  30.278  1.00  0.00    -0.237 OA
ATOM     94  O   UNL A   1      52.709  26.706  32.642  1.00  0.00    -0.744 OA
ENDBRANCH  90  91
ENDBRANCH  64  85
ENDBRANCH  38  39
ENDBRANCH  30  33
ENDBRANCH  28  29
ENDBRANCH   1  28
TORSDOF 16
ENDMDL
MODEL 2
REMARK VINA RESULT:     -11.2      2.154      4.286
REMARK SMILES CC1=C(C(=O)NCCCCNC(=O)c2ccc(-c3c4nc(c(-c5ccc(S(=O)(=O)[O-])cc5)c5ccc([nH]5)c(-c5ccc(S(=O)(=O)[O-])cc5)c5nc(c(-c6ccc(S(=O)(=O)[O-])cc6)c6ccc3[nH]6)C=C5)C=C4)cc2)N2C(=O)[C@@H](NC(=O)c3ccn(C)n3)[C@H]2SC1
REMARK SMILES IDX 9 1 8 2 7 3 6 4 4 5 5 6 3 8 1 9 2 10 89 11 74 12 88 13 75 14
REMARK SMILES IDX 87 15 76 16 77 17 78 18 79 19 80 21 81 22 82 23 86 24 83 25
REMARK SMILES IDX 84 26 85 27 10 28 11 29 12 30 13 32 14 33 15 34 73 35 16 36
REMARK SMILES IDX 72 37 17 38 18 39 19 40 66 41 20 42 71 43 65 44 67 45 21 46
REMARK SMILES IDX 70 47 64 48 63 49 22 51 52 52 33 53 51 54 34 55 37 56 50 57
REMARK SMILES IDX 68 58 35 59 36 60 49 62 69 63 38 64 23 65 24 66 32 67 25 68
REMARK SMILES IDX 31 69 26 70 27 71 28 72 29 73 30 74 53 75 54 76 62 77 55 78
REMARK SMILES IDX 61 79 56 80 57 81 58 82 59 83 60 84 39 85 40 86 48 87 41 88
REMARK SMILES IDX 47 89 42 90 43 91 44 92 45 93 46 94
REMARK H PARENT 6 7 78 20 11 31 67 50 37 61
REMARK Flexibility Score: inf
ROOT
ATOM      1  C   UNL A   1      32.594  28.365  25.800  1.00  0.00     0.023 C 
ENDROOT
BRANCH   1   2
ATOM      2  C   UNL A   1      33.158  28.604  24.403  1.00  0.00     0.023 C 
BRANCH   2   3
ATOM      3  C   UNL A   1      32.153  28.921  23.305  1.00  0.00     0.116 C 
BRANCH   3   4
ATOM      4  N   UNL A   1      32.055  27.976  22.213  1.00  0.00    -0.351 N 
ATOM      5  C   UNL A   1      31.534  26.708  22.218  1.00  0.00     0.268 C 
ATOM      6  O   UNL A   1      31.331  26.140  21.144  1.00  0.00    -0.268 OA
ATOM      7  H   UNL A   1      32.411  28.287  21.349  1.00  0.00     0.163 HD
BRANCH   5   8
ATOM      8  C   UNL A   1      31.254  25.981  23.515  1.00  0.00     0.110 C 
ATOM      9  C   UNL A   1      28.849  26.714  23.821  1.00  0.00     0.043 C 
ATOM     10  C   UNL A   1      30.137  26.083  24.280  1.00  0.00    -0.034 C 
ATOM     11  C   UNL A   1      30.022  25.515  25.697  1.00  0.00     0.104 C 
ATOM     12  N   UNL A   1      32.138  24.999  23.845  1.00  0.00    -0.290 N 
ATOM     13  S   UNL A   1      31.437  24.514  26.276  1.00  0.00    -0.129 SA
ATOM     14  C   UNL A   1      33.383  24.575  23.561  1.00  0.00     0.253 C 
ATOM     15  C   UNL A   1      31.725  23.853  24.623  1.00  0.00     0.181 C 
ATOM     16  O   UNL A   1      34.330  25.065  22.991  1.00  0.00    -0.272 OA
ATOM     17  C   UNL A   1      33.074  23.214  24.250  1.00  0.00     0.206 C 
BRANCH  17  18
ATOM     18  N   UNL A   1      33.946  22.733  25.345  1.00  0.00    -0.336 N 
ATOM     19  C   UNL A   1      34.158  21.416  25.714  1.00  0.00     0.272 C 
ATOM     20  H   UNL A   1      34.423  23.420  25.863  1.00  0.00     0.164 HD
ATOM     21  O   UNL A   1      34.752  21.178  26.765  1.00  0.00    -0.267 OA
BRANCH  19  22
ATOM     22  C   UNL A   1      33.638  20.359  24.829  1.00  0.00     0.150 A 
ATOM     23  C   UNL A   1      32.409  20.357  24.108  1.00  0.00     0.056 A 
ATOM     24  N   UNL A   1      34.298  19.201  24.634  1.00  0.00    -0.168 NA
ATOM     25  C   UNL A   1      32.333  19.123  23.511  1.00  0.00     0.109 A 
ATOM     26  N   UNL A   1      33.498  18.491  23.818  1.00  0.00    -0.275 N 
ATOM     27  C   UNL A   1      33.896  17.177  23.374  1.00  0.00     0.173 C 
ENDBRANCH  19  22
ENDBRANCH  17  18
ENDBRANCH   5   8
ENDBRANCH   3   4
ENDBRANCH   2   3
ENDBRANCH   1   2
BRANCH   1  28
ATOM     28  C   UNL A   1      33.542  28.605  26.972  1.00  0.00     0.116 C 
BRANCH  28  29
ATOM     29  N   UNL A   1      33.532  29.973  27.473  1.00  0.00    -0.352 N 
ATOM     30  C   UNL A   1      34.510  30.686  28.132  1.00  0.00     0.251 C 
ATOM     31  H   UNL A   1      32.694  30.466  27.316  1.00  0.00     0.163 HD
ATOM     32  O   UNL A   1      34.260  31.810  28.559  1.00  0.00    -0.269 OA
BRANCH  30  33
ATOM     33  C   UNL A   1      35.843  30.085  28.362  1.00  0.00     0.039 A 
ATOM     34  C   UNL A   1      36.796  30.131  27.343  1.00  0.00     0.014 A 
ATOM     35  C   UNL A   1      36.165  29.509  29.592  1.00  0.00     0.014 A 
ATOM     36  C   UNL A   1      38.101  29.696  27.594  1.00  0.00     0.010 A 
ATOM     37  C   UNL A   1      37.487  29.172  29.872  1.00  0.00     0.010 A 
ATOM     38  C   UNL A   1      38.472  29.264  28.878  1.00  0.00    -0.014 A 
BRANCH  38  39
ATOM     39  C   UNL A   1      39.882  28.915  29.205  1.00  0.00     0.031 A 
ATOM     40  C   UNL A   1      40.785  29.932  29.853  1.00  0.00     0.074 A 
ATOM     41  C   UNL A   1      40.372  27.705  28.859  1.00  0.00     0.049 A 
ATOM     42  N   UNL A   1      42.053  29.832  30.159  1.00  0.00    -0.248 NA
ATOM     43  C   UNL A   1      40.193  31.241  30.177  1.00  0.00     0.031 C 
ATOM     44  C   UNL A   1      39.617  26.644  28.186  1.00  0.00     0.029 A 
ATOM     45  N   UNL A   1      41.624  27.164  29.020  1.00  0.00    -0.354 N 
ATOM     46  C   UNL A   1      42.413  31.064  30.694  1.00  0.00     0.074 A 
ATOM     47  C   UNL A   1      41.246  31.915  30.615  1.00  0.00     0.031 C 
ATOM     48  C   UNL A   1      40.409  25.571  28.027  1.00  0.00     0.029 A 
ATOM     49  C   UNL A   1      41.741  25.881  28.535  1.00  0.00     0.049 A 
ATOM     50  H   UNL A   1      42.370  27.649  29.443  1.00  0.00     0.167 HD
ATOM     51  C   UNL A   1      43.597  31.448  31.226  1.00  0.00     0.031 A 
ATOM     52  C   UNL A   1      42.801  25.049  28.493  1.00  0.00     0.031 A 
ATOM     53  C   UNL A   1      44.754  30.597  31.310  1.00  0.00     0.049 A 
ATOM     54  C   UNL A   1      44.116  25.509  29.064  1.00  0.00     0.074 A 
ATOM     55  C   UNL A   1      45.985  30.875  31.880  1.00  0.00     0.029 A 
ATOM     56  N   UNL A   1      44.830  29.307  30.808  1.00  0.00    -0.354 N 
ATOM     57  N   UNL A   1      44.413  26.653  29.635  1.00  0.00    -0.248 NA
ATOM     58  C   UNL A   1      45.239  24.562  28.997  1.00  0.00     0.031 C 
ATOM     59  C   UNL A   1      46.825  29.780  31.662  1.00  0.00     0.029 A 
ATOM     60  C   UNL A   1      46.096  28.788  31.026  1.00  0.00     0.049 A 
ATOM     61  H   UNL A   1      44.093  28.830  30.362  1.00  0.00     0.167 HD
ATOM     62  C   UNL A   1      45.745  26.550  30.021  1.00  0.00     0.074 A 
ATOM     63  C   UNL A   1      46.191  25.227  29.638  1.00  0.00     0.031 C 
ATOM     64  C   UNL A   1      46.527  27.467  30.641  1.00  0.00     0.031 A 
BRANCH  51  65
ATOM     65  C   UNL A   1      43.704  32.854  31.757  1.00  0.00    -0.014 A 
ATOM     66  C   UNL A   1      44.098  33.919  30.925  1.00  0.00     0.010 A 
ATOM     67  C   UNL A   1      43.357  33.126  33.093  1.00  0.00     0.010 A 
ATOM     68  C   UNL A   1      44.180  35.220  31.428  1.00  0.00     0.020 A 
ATOM     69  C   UNL A   1      43.405  34.431  33.592  1.00  0.00     0.020 A 
ATOM     70  C   UNL A   1      43.832  35.468  32.760  1.00  0.00     0.054 A 
BRANCH  70  71
ATOM     71  S   UNL A   1      43.917  37.171  33.374  1.00  0.00     0.124 S 
ATOM     72  O   UNL A   1      43.987  37.936  32.131  1.00  0.00    -0.237 OA
ATOM     73  O   UNL A   1      42.670  37.302  34.122  1.00  0.00    -0.237 OA
ATOM     74  O   UNL A   1      45.132  37.190  34.184  1.00  0.00    -0.744 OA
ENDBRANCH  70  71
ENDBRANCH  51  65
BRANCH  52  75
ATOM     75  C   UNL A   1      42.666  23.690  27.893  1.00  0.00    -0.014 A 
ATOM     76  C   UNL A   1      42.989  23.467  26.542  1.00  0.00     0.010 A 
ATOM     77  C   UNL A   1      42.208  22.611  28.670  1.00  0.00     0.010 A 
ATOM     78  C   UNL A   1      42.830  22.198  25.974  1.00  0.00     0.020 A 
ATOM     79  C   UNL A   1      42.081  21.333  28.115  1.00  0.00     0.020 A 
ATOM     80  C   UNL A   1      42.380  21.139  26.766  1.00  0.00     0.054 A 
BRANCH  80  81
ATOM     81  S   UNL A   1      42.220  19.494  26.016  1.00  0.00     0.124 S 
ATOM     82  O   UNL A   1      40.788  19.420  25.748  1.00  0.00    -0.237 OA
ATOM     83  O   UNL A   1      43.081  19.601  24.841  1.00  0.00    -0.237 OA
ATOM     84  O   UNL A   1      42.709  18.594  27.058  1.00  0.00    -0.744 OA
ENDBRANCH  80  81
ENDBRANCH  52  75
BRANCH  64  85
ATOM     85  C   UNL A   1      47.938  27.066  30.986  1.00  0.00    -0.014 A 
ATOM     86  C   UNL A   1      48.250  26.464  32.218  1.00  0.00     0.010 A 
ATOM     87  C   UNL A   1      48.958  27.237  30.030  1.00  0.00     0.010 A 
ATOM     88  C   UNL A   1      49.560  26.066  32.498  1.00  0.00     0.020 A 
ATOM     89  C   UNL A   1      50.261  26.809  30.293  1.00  0.00     0.020 A 
ATOM     90  C   UNL A   1      50.557  26.237  31.531  1.00  0.00     0.054 A 
BRANCH  90  91
ATOM     91  S   UNL A   1      52.236  25.661  31.899  1.00  0.00     0.124 S 
ATOM     92  O   UNL A   1      52.573  26.442  33.085  1.00  0.00    -0.237 OA
ATOM     93  O   UNL A   1      52.040  24.230  32.124  1.00  0.00    -0.237 OA
ATOM     94  O   UNL A   1      52.991  25.998  30.695  1.00  0.00    -0.744 OA
ENDBRANCH  90  91
ENDBRANCH  64  85
ENDBRANCH  38  39
ENDBRANCH  30  33
ENDBRANCH  28  29
ENDBRANCH   1  28
TORSDOF 16
ENDMDL
MODEL 3
REMARK VINA RESULT:     -11.0      3.143      5.083
REMARK SMILES CC1=C(C(=O)NCCCCNC(=O)c2ccc(-c3c4nc(c(-c5ccc(S(=O)(=O)[O-])cc5)c5ccc([nH]5)c(-c5ccc(S(=O)(=O)[O-])cc5)c5nc(c(-c6ccc(S(=O)(=O)[O-])cc6)c6ccc3[nH]6)C=C5)C=C4)cc2)N2C(=O)[C@@H](NC(=O)c3ccn(C)n3)[C@H]2SC1
REMARK SMILES IDX 9 1 8 2 7 3 6 4 4 5 5 6 3 8 1 9 2 10 89 11 74 12 88 13 75 14
REMARK SMILES IDX 87 15 76 16 77 17 78 18 79 19 80 21 81 22 82 23 86 24 83 25
REMARK SMILES IDX 84 26 85 27 10 28 11 29 12 30 13 32 14 33 15 34 73 35 16 36
REMARK SMILES IDX 72 37 17 38 18 39 19 40 66 41 20 42 71 43 65 44 67 45 21 46
REMARK SMILES IDX 70 47 64 48 63 49 22 51 52 52 33 53 51 54 34 55 37 56 50 57
REMARK SMILES IDX 68 58 35 59 36 60 49 62 69 63 38 64 23 65 24 66 32 67 25 68
REMARK SMILES IDX 31 69 26 70 27 71 28 72 29 73 30 74 53 75 54 76 62 77 55 78
REMARK SMILES IDX 61 79 56 80 57 81 58 82 59 83 60 84 39 85 40 86 48 87 41 88
REMARK SMILES IDX 47 89 42 90 43 91 44 92 45 93 46 94
REMARK H PARENT 6 7 78 20 11 31 67 50 37 61
REMARK Flexibility Score: inf
ROOT
ATOM      1  C   UNL A   1      34.169  31.170  27.638  1.00  0.00     0.023 C 
ENDROOT
BRANCH   1   2
ATOM      2  C   UNL A   1      33.448  29.929  27.120  1.00  0.00     0.023 C 
BRANCH   2   3
ATOM      3  C   UNL A   1      32.608  30.101  25.864  1.00  0.00     0.116 C 
BRANCH   3   4
ATOM      4  N   UNL A   1      33.206  29.685  24.613  1.00  0.00    -0.351 N 
ATOM      5  C   UNL A   1      32.776  28.728  23.731  1.00  0.00     0.268 C 
ATOM      6  O   UNL A   1      33.290  28.670  22.613  1.00  0.00    -0.268 OA
ATOM      7  H   UNL A   1      34.035  30.154  24.362  1.00  0.00     0.163 HD
BRANCH   5   8
ATOM      8  C   UNL A   1      31.723  27.715  24.125  1.00  0.00     0.110 C 
ATOM      9  C   UNL A   1      29.911  28.442  22.511  1.00  0.00     0.043 C 
ATOM     10  C   UNL A   1      30.437  27.668  23.691  1.00  0.00    -0.034 C 
ATOM     11  C   UNL A   1      29.361  26.774  24.315  1.00  0.00     0.104 C 
ATOM     12  N   UNL A   1      32.168  26.650  24.846  1.00  0.00    -0.290 N 
ATOM     13  S   UNL A   1      29.935  25.609  25.600  1.00  0.00    -0.129 SA
ATOM     14  C   UNL A   1      33.213  26.261  25.601  1.00  0.00     0.253 C 
ATOM     15  C   UNL A   1      31.513  25.364  24.760  1.00  0.00     0.181 C 
ATOM     16  O   UNL A   1      34.141  26.840  26.116  1.00  0.00    -0.272 OA
ATOM     17  C   UNL A   1      32.726  24.785  25.509  1.00  0.00     0.206 C 
BRANCH  17  18
ATOM     18  N   UNL A   1      32.481  24.017  26.750  1.00  0.00    -0.336 N 
ATOM     19  C   UNL A   1      33.117  22.852  27.140  1.00  0.00     0.272 C 
ATOM     20  H   UNL A   1      31.795  24.372  27.360  1.00  0.00     0.164 HD
ATOM     21  O   UNL A   1      32.672  22.219  28.097  1.00  0.00    -0.267 OA
BRANCH  19  22
ATOM     22  C   UNL A   1      34.292  22.416  26.366  1.00  0.00     0.150 A 
ATOM     23  C   UNL A   1      34.348  21.396  25.371  1.00  0.00     0.056 A 
ATOM     24  N   UNL A   1      35.515  22.945  26.563  1.00  0.00    -0.168 NA
ATOM     25  C   UNL A   1      35.670  21.299  25.015  1.00  0.00     0.109 A 
ATOM     26  N   UNL A   1      36.315  22.269  25.720  1.00  0.00    -0.275 N 
ATOM     27  C   UNL A   1      37.722  22.582  25.644  1.00  0.00     0.173 C 
ENDBRANCH  19  22
ENDBRANCH  17  18
ENDBRANCH   5   8
ENDBRANCH   3   4
ENDBRANCH   2   3
ENDBRANCH   1   2
BRANCH   1  28
ATOM     28  C   UNL A   1      35.531  30.949  28.290  1.00  0.00     0.116 C 
BRANCH  28  29
ATOM     29  N   UNL A   1      35.488  30.882  29.746  1.00  0.00    -0.352 N 
ATOM     30  C   UNL A   1      36.381  30.326  30.636  1.00  0.00     0.251 C 
ATOM     31  H   UNL A   1      34.697  31.300  30.157  1.00  0.00     0.163 HD
ATOM     32  O   UNL A   1      36.104  30.292  31.832  1.00  0.00    -0.269 OA
BRANCH  30  33
ATOM     33  C   UNL A   1      37.647  29.734  30.151  1.00  0.00     0.039 A 
ATOM     34  C   UNL A   1      37.984  29.859  28.801  1.00  0.00     0.014 A 
ATOM     35  C   UNL A   1      38.518  29.088  31.030  1.00  0.00     0.014 A 
ATOM     36  C   UNL A   1      39.239  29.430  28.358  1.00  0.00     0.010 A 
ATOM     37  C   UNL A   1      39.803  28.755  30.609  1.00  0.00     0.010 A 
ATOM     38  C   UNL A   1      40.181  28.926  29.270  1.00  0.00    -0.014 A 
BRANCH  38  39
ATOM     39  C   UNL A   1      41.566  28.579  28.846  1.00  0.00     0.031 A 
ATOM     40  C   UNL A   1      42.633  29.642  28.797  1.00  0.00     0.074 A 
ATOM     41  C   UNL A   1      41.851  27.323  28.441  1.00  0.00     0.049 A 
ATOM     42  N   UNL A   1      43.876  29.545  28.401  1.00  0.00    -0.248 NA
ATOM     43  C   UNL A   1      42.245  30.998  29.224  1.00  0.00     0.031 C 
ATOM     44  C   UNL A   1      40.899  26.209  28.398  1.00  0.00     0.029 A 
ATOM     45  N   UNL A   1      43.022  26.771  27.984  1.00  0.00    -0.354 N 
ATOM     46  C   UNL A   1      44.412  30.823  28.516  1.00  0.00     0.074 A 
ATOM     47  C   UNL A   1      43.343  31.690  28.960  1.00  0.00     0.031 C 
ATOM     48  C   UNL A   1      41.534  25.103  27.975  1.00  0.00     0.029 A 
ATOM     49  C   UNL A   1      42.920  25.435  27.667  1.00  0.00     0.049 A 
ATOM     50  H   UNL A   1      43.859  27.283  27.891  1.00  0.00     0.167 HD
ATOM     51  C   UNL A   1      45.682  31.236  28.297  1.00  0.00     0.031 A 
ATOM     52  C   UNL A   1      43.834  24.575  27.174  1.00  0.00     0.031 A 
ATOM     53  C   UNL A   1      46.745  30.370  27.861  1.00  0.00     0.049 A 
ATOM     54  C   UNL A   1      45.233  25.065  26.909  1.00  0.00     0.074 A 
ATOM     55  C   UNL A   1      48.080  30.681  27.662  1.00  0.00     0.029 A 
ATOM     56  N   UNL A   1      46.599  29.026  27.551  1.00  0.00    -0.354 N 
ATOM     57  N   UNL A   1      45.737  26.261  27.098  1.00  0.00    -0.248 NA
ATOM     58  C   UNL A   1      46.191  24.085  26.377  1.00  0.00     0.031 C 
ATOM     59  C   UNL A   1      48.724  29.545  27.167  1.00  0.00     0.029 A 
ATOM     60  C   UNL A   1      47.811  28.503  27.132  1.00  0.00     0.049 A 
ATOM     61  H   UNL A   1      45.758  28.519  27.620  1.00  0.00     0.167 HD
ATOM     62  C   UNL A   1      47.078  26.169  26.737  1.00  0.00     0.074 A 
ATOM     63  C   UNL A   1      47.309  24.797  26.337  1.00  0.00     0.031 C 
ATOM     64  C   UNL A   1      48.030  27.133  26.739  1.00  0.00     0.031 A 
BRANCH  51  65
ATOM     65  C   UNL A   1      45.994  32.694  28.520  1.00  0.00    -0.014 A 
ATOM     66  C   UNL A   1      46.397  33.167  29.783  1.00  0.00     0.010 A 
ATOM     67  C   UNL A   1      45.934  33.595  27.442  1.00  0.00     0.010 A 
ATOM     68  C   UNL A   1      46.696  34.519  29.971  1.00  0.00     0.020 A 
ATOM     69  C   UNL A   1      46.264  34.941  27.618  1.00  0.00     0.020 A 
ATOM     70  C   UNL A   1      46.628  35.398  28.886  1.00  0.00     0.054 A 
BRANCH  70  71
ATOM     71  S   UNL A   1      47.053  37.140  29.155  1.00  0.00     0.124 S 
ATOM     72  O   UNL A   1      46.841  37.710  27.826  1.00  0.00    -0.237 OA
ATOM     73  O   UNL A   1      46.089  37.549  30.174  1.00  0.00    -0.237 OA
ATOM     74  O   UNL A   1      48.443  37.096  29.598  1.00  0.00    -0.744 OA
ENDBRANCH  70  71
ENDBRANCH  51  65
BRANCH  52  75
ATOM     75  C   UNL A   1      43.460  23.157  26.901  1.00  0.00    -0.014 A 
ATOM     76  C   UNL A   1      43.040  22.312  27.944  1.00  0.00     0.010 A 
ATOM     77  C   UNL A   1      43.527  22.641  25.594  1.00  0.00     0.010 A 
ATOM     78  C   UNL A   1      42.722  20.974  27.691  1.00  0.00     0.020 A 
ATOM     79  C   UNL A   1      43.176  21.314  25.330  1.00  0.00     0.020 A 
ATOM     80  C   UNL A   1      42.789  20.485  26.383  1.00  0.00     0.054 A 
BRANCH  80  81
ATOM     81  S   UNL A   1      42.332  18.756  26.073  1.00  0.00     0.124 S 
ATOM     82  O   UNL A   1      40.936  18.879  25.667  1.00  0.00    -0.237 OA
ATOM     83  O   UNL A   1      43.266  18.370  25.018  1.00  0.00    -0.237 OA
ATOM     84  O   UNL A   1      42.555  18.106  27.362  1.00  0.00    -0.744 OA
ENDBRANCH  80  81
ENDBRANCH  52  75
BRANCH  64  85
ATOM     85  C   UNL A   1      49.427  26.738  26.337  1.00  0.00    -0.014 A 
ATOM     86  C   UNL A   1      50.270  26.027  27.209  1.00  0.00     0.010 A 
ATOM     87  C   UNL A   1      49.880  27.029  25.035  1.00  0.00     0.010 A 
ATOM     88  C   UNL A   1      51.548  25.638  26.798  1.00  0.00     0.020 A 
ATOM     89  C   UNL A   1      51.142  26.612  24.609  1.00  0.00     0.020 A 
ATOM     90  C   UNL A   1      51.974  25.929  25.498  1.00  0.00     0.054 A 
BRANCH  90  91
ATOM     91  S   UNL A   1      53.615  25.365  24.971  1.00  0.00     0.124 S 
ATOM     92  O   UNL A   1      53.574  25.611  23.533  1.00  0.00    -0.237 OA
ATOM     93  O   UNL A   1      54.510  26.234  25.733  1.00  0.00    -0.237 OA
ATOM     94  O   UNL A   1      53.641  23.958  25.362  1.00  0.00    -0.744 OA
ENDBRANCH  90  91
ENDBRANCH  64  85
ENDBRANCH  38  39
ENDBRANCH  30  33
ENDBRANCH  28  29
ENDBRANCH   1  28
TORSDOF 16
ENDMDL
