MODEL 1
REMARK VINA RESULT:      -9.7      0.000      0.000
REMARK SMILES Cc1ccc(F)c(-c2ncccc2C(=O)NCCCCNC(=O)c2ccc(-c3c4nc(c(-c5ccc(S(=O)(=O)[O-])cc5)c5ccc([nH]5)c(-c5ccc(S(=O)(=O)[O-])cc5)c5nc(c(-c6ccc(S(=O)(=O)[O-])cc6)c6ccc3[nH]6)C=C5)C=C4)cc2)c1
REMARK SMILES IDX 19 1 18 2 17 3 16 4 14 5 15 6 13 8 8 9 9 10 10 11 12 12
REMARK SMILES IDX 11 13 7 14 1 15 2 16 3 17 84 18 4 19 5 20 6 21 20 22 21 23
REMARK SMILES IDX 22 24 23 26 24 27 25 28 83 29 26 30 82 31 27 32 28 33 29 34
REMARK SMILES IDX 76 35 30 36 81 37 75 38 77 39 31 40 80 41 74 42 73 43 32 45
REMARK SMILES IDX 62 46 43 47 61 48 44 49 47 50 60 51 78 52 45 53 46 54 59 56
REMARK SMILES IDX 79 57 48 58 33 59 34 60 42 61 35 62 41 63 36 64 37 65 38 66
REMARK SMILES IDX 39 67 40 68 63 69 64 70 72 71 65 72 71 73 66 74 67 75 68 76
REMARK SMILES IDX 69 77 70 78 49 79 50 80 58 81 51 82 57 83 52 84 53 85 54 86
REMARK SMILES IDX 55 87 56 88
REMARK H PARENT 16 7 21 25 77 44 47 55
REMARK Flexibility Score: inf
ROOT
ATOM      1  C   UNL A   1      41.777  22.054  27.613  1.00  0.00     0.023 C 
ENDROOT
BRANCH   1   2
ATOM      2  C   UNL A   1      42.496  23.225  28.303  1.00  0.00     0.023 C 
BRANCH   2   3
ATOM      3  C   UNL A   1      43.563  22.799  29.311  1.00  0.00     0.116 C 
BRANCH   3   4
ATOM      4  N   UNL A   1      44.806  23.502  29.074  1.00  0.00    -0.352 N 
ATOM      5  C   UNL A   1      45.603  23.755  27.990  1.00  0.00     0.253 C 
ATOM      6  O   UNL A   1      46.586  24.445  28.261  1.00  0.00    -0.269 OA
ATOM      7  H   UNL A   1      45.170  23.896  29.900  1.00  0.00     0.163 HD
BRANCH   5   8
ATOM      8  C   UNL A   1      45.347  23.304  26.578  1.00  0.00     0.066 A 
ATOM      9  C   UNL A   1      45.113  24.244  25.548  1.00  0.00     0.086 A 
ATOM     10  N   UNL A   1      44.757  23.880  24.276  1.00  0.00    -0.255 NA
ATOM     11  C   UNL A   1      44.643  22.572  23.991  1.00  0.00     0.112 A 
ATOM     12  C   UNL A   1      45.307  21.958  26.193  1.00  0.00     0.018 A 
ATOM     13  C   UNL A   1      44.931  21.582  24.902  1.00  0.00     0.021 A 
BRANCH   9  14
ATOM     14  C   UNL A   1      45.322  25.696  25.656  1.00  0.00     0.037 A 
ATOM     15  C   UNL A   1      43.284  28.822  26.499  1.00  0.00     0.044 C 
ATOM     16  C   UNL A   1      44.441  27.933  26.148  1.00  0.00    -0.050 A 
ATOM     17  C   UNL A   1      45.688  28.486  25.841  1.00  0.00     0.006 A 
ATOM     18  C   UNL A   1      44.278  26.542  26.084  1.00  0.00     0.016 A 
ATOM     19  C   UNL A   1      46.745  27.661  25.456  1.00  0.00     0.040 A 
ATOM     20  C   UNL A   1      46.555  26.284  25.359  1.00  0.00     0.132 A 
ATOM     21  F   UNL A   1      47.589  25.528  24.954  1.00  0.00    -0.206 F 
ENDBRANCH   9  14
ENDBRANCH   5   8
ENDBRANCH   3   4
ENDBRANCH   2   3
ENDBRANCH   1   2
BRANCH   1  22
ATOM     22  C   UNL A   1      41.479  22.250  26.127  1.00  0.00     0.116 C 
BRANCH  22  23
ATOM     23  N   UNL A   1      40.064  22.148  25.808  1.00  0.00    -0.352 N 
ATOM     24  C   UNL A   1      39.047  23.021  26.112  1.00  0.00     0.251 C 
ATOM     25  H   UNL A   1      39.799  21.345  25.305  1.00  0.00     0.163 HD
ATOM     26  O   UNL A   1      37.889  22.724  25.851  1.00  0.00    -0.269 OA
BRANCH  24  27
ATOM     27  C   UNL A   1      39.359  24.297  26.790  1.00  0.00     0.039 A 
ATOM     28  C   UNL A   1      38.923  24.480  28.105  1.00  0.00     0.014 A 
ATOM     29  C   UNL A   1      40.085  25.300  26.142  1.00  0.00     0.014 A 
ATOM     30  C   UNL A   1      39.267  25.646  28.791  1.00  0.00     0.010 A 
ATOM     31  C   UNL A   1      40.477  26.434  26.846  1.00  0.00     0.010 A 
ATOM     32  C   UNL A   1      40.072  26.619  28.177  1.00  0.00    -0.014 A 
BRANCH  32  33
ATOM     33  C   UNL A   1      40.502  27.832  28.915  1.00  0.00     0.031 A 
ATOM     34  C   UNL A   1      41.857  27.880  29.567  1.00  0.00     0.074 A 
ATOM     35  C   UNL A   1      39.650  28.866  29.049  1.00  0.00     0.049 A 
ATOM     36  N   UNL A   1      42.392  28.833  30.286  1.00  0.00    -0.248 NA
ATOM     37  C   UNL A   1      42.713  26.693  29.410  1.00  0.00     0.031 C 
ATOM     38  C   UNL A   1      38.291  28.920  28.503  1.00  0.00     0.029 A 
ATOM     39  N   UNL A   1      39.797  30.069  29.691  1.00  0.00    -0.354 N 
ATOM     40  C   UNL A   1      43.636  28.357  30.682  1.00  0.00     0.074 A 
ATOM     41  C   UNL A   1      43.757  27.012  30.161  1.00  0.00     0.031 C 
ATOM     42  C   UNL A   1      37.742  30.107  28.809  1.00  0.00     0.029 A 
ATOM     43  C   UNL A   1      38.692  30.882  29.600  1.00  0.00     0.049 A 
ATOM     44  H   UNL A   1      40.617  30.326  30.172  1.00  0.00     0.167 HD
ATOM     45  C   UNL A   1      44.599  28.987  31.395  1.00  0.00     0.031 A 
ATOM     46  C   UNL A   1      38.468  32.114  30.095  1.00  0.00     0.031 A 
ATOM     47  C   UNL A   1      44.481  30.329  31.900  1.00  0.00     0.049 A 
ATOM     48  C   UNL A   1      39.556  32.799  30.876  1.00  0.00     0.074 A 
ATOM     49  C   UNL A   1      45.420  31.076  32.590  1.00  0.00     0.029 A 
ATOM     50  N   UNL A   1      43.353  31.125  31.770  1.00  0.00    -0.354 N 
ATOM     51  N   UNL A   1      40.750  32.355  31.186  1.00  0.00    -0.248 NA
ATOM     52  C   UNL A   1      39.270  34.157  31.360  1.00  0.00     0.031 C 
ATOM     53  C   UNL A   1      44.845  32.311  32.910  1.00  0.00     0.029 A 
ATOM     54  C   UNL A   1      43.566  32.351  32.378  1.00  0.00     0.049 A 
ATOM     55  H   UNL A   1      42.523  30.859  31.312  1.00  0.00     0.167 HD
ATOM     56  C   UNL A   1      41.370  33.389  31.879  1.00  0.00     0.074 A 
ATOM     57  C   UNL A   1      40.421  34.484  31.931  1.00  0.00     0.031 C 
ATOM     58  C   UNL A   1      42.612  33.429  32.422  1.00  0.00     0.031 A 
BRANCH  45  59
ATOM     59  C   UNL A   1      45.866  28.222  31.673  1.00  0.00    -0.014 A 
ATOM     60  C   UNL A   1      46.014  27.472  32.854  1.00  0.00     0.010 A 
ATOM     61  C   UNL A   1      46.914  28.237  30.736  1.00  0.00     0.010 A 
ATOM     62  C   UNL A   1      47.207  26.792  33.116  1.00  0.00     0.020 A 
ATOM     63  C   UNL A   1      48.099  27.535  30.982  1.00  0.00     0.020 A 
ATOM     64  C   UNL A   1      48.245  26.835  32.181  1.00  0.00     0.054 A 
BRANCH  64  65
ATOM     65  S   UNL A   1      49.780  25.939  32.543  1.00  0.00     0.124 S 
ATOM     66  O   UNL A   1      50.240  26.612  33.757  1.00  0.00    -0.237 OA
ATOM     67  O   UNL A   1      49.318  24.566  32.725  1.00  0.00    -0.237 OA
ATOM     68  O   UNL A   1      50.601  26.165  31.357  1.00  0.00    -0.744 OA
ENDBRANCH  64  65
ENDBRANCH  45  59
BRANCH  46  69
ATOM     69  C   UNL A   1      37.169  32.792  29.838  1.00  0.00    -0.014 A 
ATOM     70  C   UNL A   1      36.143  32.746  30.797  1.00  0.00     0.010 A 
ATOM     71  C   UNL A   1      36.959  33.504  28.643  1.00  0.00     0.010 A 
ATOM     72  C   UNL A   1      34.924  33.388  30.561  1.00  0.00     0.020 A 
ATOM     73  C   UNL A   1      35.750  34.168  28.415  1.00  0.00     0.020 A 
ATOM     74  C   UNL A   1      34.737  34.097  29.371  1.00  0.00     0.054 A 
BRANCH  74  75
ATOM     75  S   UNL A   1      33.169  34.975  29.112  1.00  0.00     0.124 S 
ATOM     76  O   UNL A   1      32.570  34.922  30.442  1.00  0.00    -0.237 OA
ATOM     77  O   UNL A   1      33.614  36.294  28.670  1.00  0.00    -0.237 OA
ATOM     78  O   UNL A   1      32.498  34.177  28.089  1.00  0.00    -0.744 OA
ENDBRANCH  74  75
ENDBRANCH  46  69
BRANCH  58  79
ATOM     79  C   UNL A   1      43.031  34.711  33.089  1.00  0.00    -0.014 A 
ATOM     80  C   UNL A   1      42.888  34.891  34.476  1.00  0.00     0.010 A 
ATOM     81  C   UNL A   1      43.623  35.730  32.321  1.00  0.00     0.010 A 
ATOM     82  C   UNL A   1      43.299  36.083  35.078  1.00  0.00     0.020 A 
ATOM     83  C   UNL A   1      44.057  36.913  32.923  1.00  0.00     0.020 A 
ATOM     84  C   UNL A   1      43.879  37.087  34.297  1.00  0.00     0.054 A 
BRANCH  84  85
ATOM     85  S   UNL A   1      44.441  38.611  35.106  1.00  0.00     0.124 S 
ATOM     86  O   UNL A   1      43.684  39.632  34.388  1.00  0.00    -0.237 OA
ATOM     87  O   UNL A   1      44.048  38.400  36.498  1.00  0.00    -0.237 OA
ATOM     88  O   UNL A   1      45.882  38.619  34.866  1.00  0.00    -0.744 OA
ENDBRANCH  84  85
ENDBRANCH  58  79
ENDBRANCH  32  33
ENDBRANCH  24  27
ENDBRANCH  22  23
ENDBRANCH   1  22
TORSDOF 15
ENDMDL
MODEL 2
REMARK VINA RESULT:      -9.6      4.129     10.743
REMARK SMILES Cc1ccc(F)c(-c2ncccc2C(=O)NCCCCNC(=O)c2ccc(-c3c4nc(c(-c5ccc(S(=O)(=O)[O-])cc5)c5ccc([nH]5)c(-c5ccc(S(=O)(=O)[O-])cc5)c5nc(c(-c6ccc(S(=O)(=O)[O-])cc6)c6ccc3[nH]6)C=C5)C=C4)cc2)c1
REMARK SMILES IDX 19 1 18 2 17 3 16 4 14 5 15 6 13 8 8 9 9 10 10 11 12 12
REMARK SMILES IDX 11 13 7 14 1 15 2 16 3 17 84 18 4 19 5 20 6 21 20 22 21 23
REMARK SMILES IDX 22 24 23 26 24 27 25 28 83 29 26 30 82 31 27 32 28 33 29 34
REMARK SMILES IDX 76 35 30 36 81 37 75 38 77 39 31 40 80 41 74 42 73 43 32 45
REMARK SMILES IDX 62 46 43 47 61 48 44 49 47 50 60 51 78 52 45 53 46 54 59 56
REMARK SMILES IDX 79 57 48 58 33 59 34 60 42 61 35 62 41 63 36 64 37 65 38 66
REMARK SMILES IDX 39 67 40 68 63 69 64 70 72 71 65 72 71 73 66 74 67 75 68 76
REMARK SMILES IDX 69 77 70 78 49 79 50 80 58 81 51 82 57 83 52 84 53 85 54 86
REMARK SMILES IDX 55 87 56 88
REMARK H PARENT 16 7 21 25 77 44 47 55
REMARK Flexibility Score: inf
ROOT
ATOM      1  C   UNL A   1      32.979  27.950  25.809  1.00  0.00     0.023 C 
ENDROOT
BRANCH   1   2
ATOM      2  C   UNL A   1      33.854  27.159  24.825  1.00  0.00     0.023 C 
BRANCH   2   3
ATOM      3  C   UNL A   1      33.303  27.104  23.400  1.00  0.00     0.116 C 
BRANCH   3   4
ATOM      4  N   UNL A   1      33.401  25.764  22.860  1.00  0.00    -0.352 N 
ATOM      5  C   UNL A   1      33.029  24.509  23.266  1.00  0.00     0.253 C 
ATOM      6  O   UNL A   1      33.297  23.635  22.442  1.00  0.00    -0.269 OA
ATOM      7  H   UNL A   1      33.845  25.751  21.983  1.00  0.00     0.163 HD
BRANCH   5   8
ATOM      8  C   UNL A   1      32.328  24.166  24.551  1.00  0.00     0.066 A 
ATOM      9  C   UNL A   1      32.896  23.245  25.462  1.00  0.00     0.086 A 
ATOM     10  N   UNL A   1      32.241  22.811  26.585  1.00  0.00    -0.255 NA
ATOM     11  C   UNL A   1      31.015  23.296  26.841  1.00  0.00     0.112 A 
ATOM     12  C   UNL A   1      31.091  24.706  24.924  1.00  0.00     0.018 A 
ATOM     13  C   UNL A   1      30.414  24.257  26.060  1.00  0.00     0.021 A 
BRANCH   9  14
ATOM     14  C   UNL A   1      34.269  22.723  25.402  1.00  0.00     0.037 A 
ATOM     15  C   UNL A   1      37.823  23.937  26.134  1.00  0.00     0.044 C 
ATOM     16  C   UNL A   1      36.677  23.046  25.756  1.00  0.00    -0.050 A 
ATOM     17  C   UNL A   1      36.916  21.757  25.269  1.00  0.00     0.006 A 
ATOM     18  C   UNL A   1      35.355  23.504  25.849  1.00  0.00     0.016 A 
ATOM     19  C   UNL A   1      35.851  20.953  24.861  1.00  0.00     0.040 A 
ATOM     20  C   UNL A   1      34.546  21.440  24.923  1.00  0.00     0.132 A 
ATOM     21  F   UNL A   1      33.553  20.646  24.491  1.00  0.00    -0.206 F 
ENDBRANCH   9  14
ENDBRANCH   5   8
ENDBRANCH   3   4
ENDBRANCH   2   3
ENDBRANCH   1   2
BRANCH   1  22
ATOM     22  C   UNL A   1      33.648  28.319  27.133  1.00  0.00     0.116 C 
BRANCH  22  23
ATOM     23  N   UNL A   1      33.505  29.725  27.475  1.00  0.00    -0.352 N 
ATOM     24  C   UNL A   1      34.423  30.569  28.052  1.00  0.00     0.251 C 
ATOM     25  H   UNL A   1      32.632  30.127  27.264  1.00  0.00     0.163 HD
ATOM     26  O   UNL A   1      34.096  31.706  28.365  1.00  0.00    -0.269 OA
BRANCH  24  27
ATOM     27  C   UNL A   1      35.791  30.080  28.328  1.00  0.00     0.039 A 
ATOM     28  C   UNL A   1      36.740  30.136  27.305  1.00  0.00     0.014 A 
ATOM     29  C   UNL A   1      36.138  29.582  29.586  1.00  0.00     0.014 A 
ATOM     30  C   UNL A   1      38.056  29.747  27.561  1.00  0.00     0.010 A 
ATOM     31  C   UNL A   1      37.464  29.252  29.857  1.00  0.00     0.010 A 
ATOM     32  C   UNL A   1      38.435  29.331  28.848  1.00  0.00    -0.014 A 
BRANCH  32  33
ATOM     33  C   UNL A   1      39.844  28.980  29.153  1.00  0.00     0.031 A 
ATOM     34  C   UNL A   1      40.753  29.990  29.798  1.00  0.00     0.074 A 
ATOM     35  C   UNL A   1      40.320  27.771  28.796  1.00  0.00     0.049 A 
ATOM     36  N   UNL A   1      42.021  29.881  30.103  1.00  0.00    -0.248 NA
ATOM     37  C   UNL A   1      40.168  31.302  30.118  1.00  0.00     0.031 C 
ATOM     38  C   UNL A   1      39.550  26.722  28.124  1.00  0.00     0.029 A 
ATOM     39  N   UNL A   1      41.569  27.222  28.945  1.00  0.00    -0.354 N 
ATOM     40  C   UNL A   1      42.389  31.112  30.634  1.00  0.00     0.074 A 
ATOM     41  C   UNL A   1      41.223  31.966  30.566  1.00  0.00     0.031 C 
ATOM     42  C   UNL A   1      40.335  25.647  27.944  1.00  0.00     0.029 A 
ATOM     43  C   UNL A   1      41.670  25.942  28.456  1.00  0.00     0.049 A 
ATOM     44  H   UNL A   1      42.321  27.701  29.362  1.00  0.00     0.167 HD
ATOM     45  C   UNL A   1      43.582  31.490  31.151  1.00  0.00     0.031 A 
ATOM     46  C   UNL A   1      42.718  25.097  28.424  1.00  0.00     0.031 A 
ATOM     47  C   UNL A   1      44.735  30.634  31.228  1.00  0.00     0.049 A 
ATOM     48  C   UNL A   1      44.031  25.535  29.012  1.00  0.00     0.074 A 
ATOM     49  C   UNL A   1      45.976  30.906  31.781  1.00  0.00     0.029 A 
ATOM     50  N   UNL A   1      44.791  29.337  30.739  1.00  0.00    -0.354 N 
ATOM     51  N   UNL A   1      44.342  26.682  29.567  1.00  0.00    -0.248 NA
ATOM     52  C   UNL A   1      45.129  24.559  28.984  1.00  0.00     0.031 C 
ATOM     53  C   UNL A   1      46.793  29.787  31.591  1.00  0.00     0.029 A 
ATOM     54  C   UNL A   1      46.048  28.801  30.964  1.00  0.00     0.049 A 
ATOM     55  H   UNL A   1      44.047  28.868  30.298  1.00  0.00     0.167 HD
ATOM     56  C   UNL A   1      45.664  26.557  29.978  1.00  0.00     0.074 A 
ATOM     57  C   UNL A   1      46.089  25.219  29.619  1.00  0.00     0.031 C 
ATOM     58  C   UNL A   1      46.454  27.468  30.599  1.00  0.00     0.031 A 
BRANCH  45  59
ATOM     59  C   UNL A   1      43.695  32.900  31.668  1.00  0.00    -0.014 A 
ATOM     60  C   UNL A   1      44.059  33.958  30.815  1.00  0.00     0.010 A 
ATOM     61  C   UNL A   1      43.417  33.176  33.019  1.00  0.00     0.010 A 
ATOM     62  C   UNL A   1      44.192  35.257  31.313  1.00  0.00     0.020 A 
ATOM     63  C   UNL A   1      43.522  34.479  33.515  1.00  0.00     0.020 A 
ATOM     64  C   UNL A   1      43.930  35.507  32.663  1.00  0.00     0.054 A 
BRANCH  64  65
ATOM     65  S   UNL A   1      44.105  37.203  33.283  1.00  0.00     0.124 S 
ATOM     66  O   UNL A   1      42.827  37.407  33.960  1.00  0.00    -0.237 OA
ATOM     67  O   UNL A   1      45.270  37.107  34.160  1.00  0.00    -0.237 OA
ATOM     68  O   UNL A   1      44.303  37.995  32.073  1.00  0.00    -0.744 OA
ENDBRANCH  64  65
ENDBRANCH  45  59
BRANCH  46  69
ATOM     69  C   UNL A   1      42.558  23.738  27.840  1.00  0.00    -0.014 A 
ATOM     70  C   UNL A   1      42.798  23.519  26.473  1.00  0.00     0.010 A 
ATOM     71  C   UNL A   1      42.185  22.651  28.653  1.00  0.00     0.010 A 
ATOM     72  C   UNL A   1      42.655  22.242  25.924  1.00  0.00     0.020 A 
ATOM     73  C   UNL A   1      42.066  21.368  28.112  1.00  0.00     0.020 A 
ATOM     74  C   UNL A   1      42.292  21.174  26.748  1.00  0.00     0.054 A 
BRANCH  74  75
ATOM     75  S   UNL A   1      42.172  19.512  26.027  1.00  0.00     0.124 S 
ATOM     76  O   UNL A   1      40.751  19.423  25.708  1.00  0.00    -0.237 OA
ATOM     77  O   UNL A   1      43.074  19.599  24.881  1.00  0.00    -0.237 OA
ATOM     78  O   UNL A   1      42.631  18.640  27.105  1.00  0.00    -0.744 OA
ENDBRANCH  74  75
ENDBRANCH  46  69
BRANCH  58  79
ATOM     79  C   UNL A   1      47.850  27.036  30.961  1.00  0.00    -0.014 A 
ATOM     80  C   UNL A   1      48.126  26.420  32.194  1.00  0.00     0.010 A 
ATOM     81  C   UNL A   1      48.890  27.207  30.029  1.00  0.00     0.010 A 
ATOM     82  C   UNL A   1      49.426  26.012  32.502  1.00  0.00     0.020 A 
ATOM     83  C   UNL A   1      50.186  26.778  30.325  1.00  0.00     0.020 A 
ATOM     84  C   UNL A   1      50.448  26.196  31.567  1.00  0.00     0.054 A 
BRANCH  84  85
ATOM     85  S   UNL A   1      52.121  25.623  31.973  1.00  0.00     0.124 S 
ATOM     86  O   UNL A   1      52.863  25.973  30.766  1.00  0.00    -0.237 OA
ATOM     87  O   UNL A   1      52.449  26.406  33.162  1.00  0.00    -0.237 OA
ATOM     88  O   UNL A   1      51.949  24.191  32.206  1.00  0.00    -0.744 OA
ENDBRANCH  84  85
ENDBRANCH  58  79
ENDBRANCH  32  33
ENDBRANCH  24  27
ENDBRANCH  22  23
ENDBRANCH   1  22
TORSDOF 15
ENDMDL
MODEL 3
REMARK VINA RESULT:      -9.6      4.047     10.673
REMARK SMILES Cc1ccc(F)c(-c2ncccc2C(=O)NCCCCNC(=O)c2ccc(-c3c4nc(c(-c5ccc(S(=O)(=O)[O-])cc5)c5ccc([nH]5)c(-c5ccc(S(=O)(=O)[O-])cc5)c5nc(c(-c6ccc(S(=O)(=O)[O-])cc6)c6ccc3[nH]6)C=C5)C=C4)cc2)c1
REMARK SMILES IDX 19 1 18 2 17 3 16 4 14 5 15 6 13 8 8 9 9 10 10 11 12 12
REMARK SMILES IDX 11 13 7 14 1 15 2 16 3 17 84 18 4 19 5 20 6 21 20 22 21 23
REMARK SMILES IDX 22 24 23 26 24 27 25 28 83 29 26 30 82 31 27 32 28 33 29 34
REMARK SMILES IDX 76 35 30 36 81 37 75 38 77 39 31 40 80 41 74 42 73 43 32 45
REMARK SMILES IDX 62 46 43 47 61 48 44 49 47 50 60 51 78 52 45 53 46 54 59 56
REMARK SMILES IDX 79 57 48 58 33 59 34 60 42 61 35 62 41 63 36 64 37 65 38 66
REMARK SMILES IDX 39 67 40 68 63 69 64 70 72 71 65 72 71 73 66 74 67 75 68 76
REMARK SMILES IDX 69 77 70 78 49 79 50 80 58 81 51 82 57 83 52 84 53 85 54 86
REMARK SMILES IDX 55 87 56 88
REMARK H PARENT 16 7 21 25 77 44 47 55
REMARK Flexibility Score: inf
ROOT
ATOM      1  C   UNL A   1      32.879  26.944  26.176  1.00  0.00     0.023 C 
ENDROOT
BRANCH   1   2
ATOM      2  C   UNL A   1      33.199  25.937  25.061  1.00  0.00     0.023 C 
BRANCH   2   3
ATOM      3  C   UNL A   1      32.355  24.663  25.104  1.00  0.00     0.116 C 
BRANCH   3   4
ATOM      4  N   UNL A   1      32.654  23.887  26.289  1.00  0.00    -0.352 N 
ATOM      5  C   UNL A   1      33.716  23.150  26.743  1.00  0.00     0.253 C 
ATOM      6  O   UNL A   1      33.531  22.671  27.861  1.00  0.00    -0.269 OA
ATOM      7  H   UNL A   1      31.906  23.888  26.929  1.00  0.00     0.163 HD
BRANCH   5   8
ATOM      8  C   UNL A   1      35.018  22.938  26.021  1.00  0.00     0.066 A 
ATOM      9  C   UNL A   1      35.190  21.841  25.144  1.00  0.00     0.086 A 
ATOM     10  N   UNL A   1      36.391  21.538  24.559  1.00  0.00    -0.255 NA
ATOM     11  C   UNL A   1      37.447  22.329  24.815  1.00  0.00     0.112 A 
ATOM     12  C   UNL A   1      36.129  23.777  26.170  1.00  0.00     0.018 A 
ATOM     13  C   UNL A   1      37.359  23.466  25.586  1.00  0.00     0.021 A 
BRANCH   9  14
ATOM     14  C   UNL A   1      34.116  20.962  24.659  1.00  0.00     0.037 A 
ATOM     15  C   UNL A   1      32.689  17.498  25.432  1.00  0.00     0.044 C 
ATOM     16  C   UNL A   1      32.871  18.852  24.814  1.00  0.00    -0.050 A 
ATOM     17  C   UNL A   1      32.083  19.244  23.727  1.00  0.00     0.006 A 
ATOM     18  C   UNL A   1      33.857  19.727  25.290  1.00  0.00     0.016 A 
ATOM     19  C   UNL A   1      32.295  20.480  23.116  1.00  0.00     0.040 A 
ATOM     20  C   UNL A   1      33.307  21.321  23.577  1.00  0.00     0.132 A 
ATOM     21  F   UNL A   1      33.499  22.488  22.941  1.00  0.00    -0.206 F 
ENDBRANCH   9  14
ENDBRANCH   5   8
ENDBRANCH   3   4
ENDBRANCH   2   3
ENDBRANCH   1   2
BRANCH   1  22
ATOM     22  C   UNL A   1      34.033  27.859  26.586  1.00  0.00     0.116 C 
BRANCH  22  23
ATOM     23  N   UNL A   1      33.600  29.200  26.946  1.00  0.00    -0.352 N 
ATOM     24  C   UNL A   1      34.293  30.177  27.621  1.00  0.00     0.251 C 
ATOM     25  H   UNL A   1      32.687  29.441  26.669  1.00  0.00     0.163 HD
ATOM     26  O   UNL A   1      33.733  31.221  27.930  1.00  0.00    -0.269 OA
BRANCH  24  27
ATOM     27  C   UNL A   1      35.701  29.940  28.004  1.00  0.00     0.039 A 
ATOM     28  C   UNL A   1      35.980  29.537  29.312  1.00  0.00     0.014 A 
ATOM     29  C   UNL A   1      36.737  30.102  27.080  1.00  0.00     0.014 A 
ATOM     30  C   UNL A   1      37.293  29.238  29.678  1.00  0.00     0.010 A 
ATOM     31  C   UNL A   1      38.037  29.746  27.429  1.00  0.00     0.010 A 
ATOM     32  C   UNL A   1      38.328  29.311  28.731  1.00  0.00    -0.014 A 
BRANCH  32  33
ATOM     33  C   UNL A   1      39.717  28.931  29.086  1.00  0.00     0.031 A 
ATOM     34  C   UNL A   1      40.621  29.921  29.769  1.00  0.00     0.074 A 
ATOM     35  C   UNL A   1      40.183  27.716  28.740  1.00  0.00     0.049 A 
ATOM     36  N   UNL A   1      41.874  29.786  30.120  1.00  0.00    -0.248 NA
ATOM     37  C   UNL A   1      40.049  31.242  30.075  1.00  0.00     0.031 C 
ATOM     38  C   UNL A   1      39.419  26.684  28.034  1.00  0.00     0.029 A 
ATOM     39  N   UNL A   1      41.415  27.142  28.931  1.00  0.00    -0.354 N 
ATOM     40  C   UNL A   1      42.246  31.007  30.672  1.00  0.00     0.074 A 
ATOM     41  C   UNL A   1      41.100  31.884  30.565  1.00  0.00     0.031 C 
ATOM     42  C   UNL A   1      40.190  25.595  27.877  1.00  0.00     0.029 A 
ATOM     43  C   UNL A   1      41.510  25.862  28.439  1.00  0.00     0.049 A 
ATOM     44  H   UNL A   1      42.160  27.604  29.379  1.00  0.00     0.167 HD
ATOM     45  C   UNL A   1      43.426  31.360  31.233  1.00  0.00     0.031 A 
ATOM     46  C   UNL A   1      42.543  24.998  28.441  1.00  0.00     0.031 A 
ATOM     47  C   UNL A   1      44.559  30.482  31.349  1.00  0.00     0.049 A 
ATOM     48  C   UNL A   1      43.841  25.408  29.079  1.00  0.00     0.074 A 
ATOM     49  C   UNL A   1      45.784  30.727  31.948  1.00  0.00     0.029 A 
ATOM     50  N   UNL A   1      44.609  29.186  30.855  1.00  0.00    -0.354 N 
ATOM     51  N   UNL A   1      44.152  26.546  29.652  1.00  0.00    -0.248 NA
ATOM     52  C   UNL A   1      44.921  24.411  29.086  1.00  0.00     0.031 C 
ATOM     53  C   UNL A   1      46.586  29.593  31.782  1.00  0.00     0.029 A 
ATOM     54  C   UNL A   1      45.846  28.625  31.122  1.00  0.00     0.049 A 
ATOM     55  H   UNL A   1      43.873  28.733  30.384  1.00  0.00     0.167 HD
ATOM     56  C   UNL A   1      45.456  26.394  30.110  1.00  0.00     0.074 A 
ATOM     57  C   UNL A   1      45.869  25.050  29.759  1.00  0.00     0.031 C 
ATOM     58  C   UNL A   1      46.240  27.286  30.765  1.00  0.00     0.031 A 
BRANCH  45  59
ATOM     59  C   UNL A   1      43.547  32.765  31.763  1.00  0.00    -0.014 A 
ATOM     60  C   UNL A   1      44.001  33.812  30.940  1.00  0.00     0.010 A 
ATOM     61  C   UNL A   1      43.185  33.047  33.092  1.00  0.00     0.010 A 
ATOM     62  C   UNL A   1      44.140  35.105  31.451  1.00  0.00     0.020 A 
ATOM     63  C   UNL A   1      43.295  34.345  33.599  1.00  0.00     0.020 A 
ATOM     64  C   UNL A   1      43.793  35.361  32.781  1.00  0.00     0.054 A 
BRANCH  64  65
ATOM     65  S   UNL A   1      43.977  37.050  33.418  1.00  0.00     0.124 S 
ATOM     66  O   UNL A   1      42.677  37.277  34.045  1.00  0.00    -0.237 OA
ATOM     67  O   UNL A   1      45.104  36.926  34.340  1.00  0.00    -0.237 OA
ATOM     68  O   UNL A   1      44.240  37.845  32.222  1.00  0.00    -0.744 OA
ENDBRANCH  64  65
ENDBRANCH  45  59
BRANCH  46  69
ATOM     69  C   UNL A   1      42.378  23.645  27.844  1.00  0.00    -0.014 A 
ATOM     70  C   UNL A   1      42.997  23.327  26.623  1.00  0.00     0.010 A 
ATOM     71  C   UNL A   1      41.620  22.661  28.504  1.00  0.00     0.010 A 
ATOM     72  C   UNL A   1      42.850  22.055  26.064  1.00  0.00     0.020 A 
ATOM     73  C   UNL A   1      41.492  21.379  27.961  1.00  0.00     0.020 A 
ATOM     74  C   UNL A   1      42.099  21.088  26.739  1.00  0.00     0.054 A 
BRANCH  74  75
ATOM     75  S   UNL A   1      41.973  19.423  26.025  1.00  0.00     0.124 S 
ATOM     76  O   UNL A   1      40.545  19.324  25.741  1.00  0.00    -0.237 OA
ATOM     77  O   UNL A   1      42.847  19.512  24.858  1.00  0.00    -0.237 OA
ATOM     78  O   UNL A   1      42.462  18.557  27.095  1.00  0.00    -0.744 OA
ENDBRANCH  74  75
ENDBRANCH  46  69
BRANCH  58  79
ATOM     79  C   UNL A   1      47.613  26.826  31.175  1.00  0.00    -0.014 A 
ATOM     80  C   UNL A   1      47.834  26.208  32.418  1.00  0.00     0.010 A 
ATOM     81  C   UNL A   1      48.688  26.973  30.280  1.00  0.00     0.010 A 
ATOM     82  C   UNL A   1      49.114  25.773  32.772  1.00  0.00     0.020 A 
ATOM     83  C   UNL A   1      49.964  26.517  30.620  1.00  0.00     0.020 A 
ATOM     84  C   UNL A   1      50.171  25.933  31.871  1.00  0.00     0.054 A 
BRANCH  84  85
ATOM     85  S   UNL A   1      51.816  25.326  32.336  1.00  0.00     0.124 S 
ATOM     86  O   UNL A   1      52.630  25.757  31.203  1.00  0.00    -0.237 OA
ATOM     87  O   UNL A   1      52.073  26.023  33.595  1.00  0.00    -0.237 OA
ATOM     88  O   UNL A   1      51.631  23.882  32.458  1.00  0.00    -0.744 OA
ENDBRANCH  84  85
ENDBRANCH  58  79
ENDBRANCH  32  33
ENDBRANCH  24  27
ENDBRANCH  22  23
ENDBRANCH   1  22
TORSDOF 15
ENDMDL
