MODEL 1
REMARK VINA RESULT:     -11.7      0.000      0.000
REMARK SMILES Cc1c(C(=O)N[C@H]2C=C[C@@H](C(=O)NCCCCNC(=O)c3ccc(-c4c5nc(c(-c6ccc(S(=O)(=O)[O-])cc6)c6ccc([nH]6)c(-c6ccc(S(=O)(=O)[O-])cc6)c6nc(c(-c7ccc(S(=O)(=O)[O-])cc7)c7ccc4[nH]7)C=C6)C=C5)cc3)C2)oc2ccccc12
REMARK SMILES IDX 16 1 15 2 14 3 13 4 11 5 12 6 10 8 7 9 8 10 81 11 9 12 6 13
REMARK SMILES IDX 4 14 5 15 3 17 1 18 2 19 88 20 82 21 83 22 87 23 84 24 86 25
REMARK SMILES IDX 85 26 17 27 18 28 19 29 20 31 21 32 22 33 80 34 23 35 79 36
REMARK SMILES IDX 24 37 25 38 26 39 73 40 27 41 78 42 72 43 74 44 28 45 77 46
REMARK SMILES IDX 71 47 70 48 29 50 59 51 40 52 58 53 41 54 44 55 57 56 75 57
REMARK SMILES IDX 42 58 43 59 56 61 76 62 45 63 30 64 31 65 39 66 32 67 38 68
REMARK SMILES IDX 33 69 34 70 35 71 36 72 37 73 60 74 61 75 69 76 62 77 68 78
REMARK SMILES IDX 63 79 64 80 65 81 66 82 67 83 46 84 47 85 55 86 48 87 54 88
REMARK SMILES IDX 49 89 50 90 51 91 52 92 53 93
REMARK H PARENT 13 7 6 16 18 30 74 49 44 60
REMARK Flexibility Score: inf
ROOT
ATOM      1  C   UNL A   1      32.402  27.901  27.231  1.00  0.00     0.023 C 
ENDROOT
BRANCH   1   2
ATOM      2  C   UNL A   1      31.358  28.255  26.183  1.00  0.00     0.023 C 
BRANCH   2   3
ATOM      3  C   UNL A   1      31.943  28.893  24.934  1.00  0.00     0.116 C 
BRANCH   3   4
ATOM      4  N   UNL A   1      31.038  28.786  23.810  1.00  0.00    -0.356 N 
ATOM      5  C   UNL A   1      31.086  27.937  22.750  1.00  0.00     0.227 C 
ATOM      6  O   UNL A   1      30.240  28.055  21.862  1.00  0.00    -0.274 OA
ATOM      7  H   UNL A   1      30.281  29.415  23.814  1.00  0.00     0.163 HD
BRANCH   5   8
ATOM      8  C   UNL A   1      32.177  26.881  22.638  1.00  0.00     0.103 C 
ATOM      9  C   UNL A   1      32.703  24.576  22.554  1.00  0.00     0.106 C 
ATOM     10  C   UNL A   1      32.688  25.105  21.167  1.00  0.00    -0.006 C 
ATOM     11  C   UNL A   1      31.804  25.554  23.300  1.00  0.00     0.047 C 
ATOM     12  C   UNL A   1      32.527  26.440  21.232  1.00  0.00    -0.016 C 
BRANCH   9  13
ATOM     13  N   UNL A   1      32.371  23.222  22.754  1.00  0.00    -0.343 N 
ATOM     14  C   UNL A   1      33.042  22.345  23.589  1.00  0.00     0.287 C 
ATOM     15  O   UNL A   1      32.506  21.233  23.675  1.00  0.00    -0.266 OA
ATOM     16  H   UNL A   1      31.597  22.868  22.258  1.00  0.00     0.164 HD
BRANCH  14  17
ATOM     17  C   UNL A   1      34.300  22.661  24.310  1.00  0.00     0.195 A 
ATOM     18  C   UNL A   1      34.489  25.019  25.580  1.00  0.00     0.049 C 
ATOM     19  C   UNL A   1      34.911  23.678  25.079  1.00  0.00     0.008 A 
ATOM     20  C   UNL A   1      36.234  23.224  25.392  1.00  0.00     0.024 A 
ATOM     21  O   UNL A   1      35.223  21.626  24.207  1.00  0.00    -0.451 OA
ATOM     22  C   UNL A   1      36.362  21.967  24.846  1.00  0.00     0.135 A 
ATOM     23  C   UNL A   1      37.325  23.773  26.094  1.00  0.00     0.012 A 
ATOM     24  C   UNL A   1      37.510  21.188  24.952  1.00  0.00     0.048 A 
ATOM     25  C   UNL A   1      38.495  23.022  26.220  1.00  0.00     0.001 A 
ATOM     26  C   UNL A   1      38.582  21.748  25.659  1.00  0.00     0.004 A 
ENDBRANCH  14  17
ENDBRANCH   9  13
ENDBRANCH   5   8
ENDBRANCH   3   4
ENDBRANCH   2   3
ENDBRANCH   1   2
BRANCH   1  27
ATOM     27  C   UNL A   1      33.714  28.662  27.085  1.00  0.00     0.116 C 
BRANCH  27  28
ATOM     28  N   UNL A   1      33.637  30.029  27.584  1.00  0.00    -0.352 N 
ATOM     29  C   UNL A   1      34.591  30.751  28.264  1.00  0.00     0.251 C 
ATOM     30  H   UNL A   1      32.789  30.500  27.411  1.00  0.00     0.163 HD
ATOM     31  O   UNL A   1      34.336  31.848  28.718  1.00  0.00    -0.269 OA
BRANCH  29  32
ATOM     32  C   UNL A   1      35.915  30.130  28.456  1.00  0.00     0.039 A 
ATOM     33  C   UNL A   1      36.845  30.212  27.421  1.00  0.00     0.014 A 
ATOM     34  C   UNL A   1      36.253  29.557  29.685  1.00  0.00     0.014 A 
ATOM     35  C   UNL A   1      38.145  29.769  27.645  1.00  0.00     0.010 A 
ATOM     36  C   UNL A   1      37.571  29.199  29.933  1.00  0.00     0.010 A 
ATOM     37  C   UNL A   1      38.528  29.298  28.913  1.00  0.00    -0.014 A 
BRANCH  37  38
ATOM     38  C   UNL A   1      39.933  28.905  29.179  1.00  0.00     0.031 A 
ATOM     39  C   UNL A   1      40.869  29.873  29.849  1.00  0.00     0.074 A 
ATOM     40  C   UNL A   1      40.363  27.686  28.798  1.00  0.00     0.049 A 
ATOM     41  N   UNL A   1      42.124  29.706  30.174  1.00  0.00    -0.248 NA
ATOM     42  C   UNL A   1      40.337  31.207  30.176  1.00  0.00     0.031 C 
ATOM     43  C   UNL A   1      39.559  26.685  28.089  1.00  0.00     0.029 A 
ATOM     44  N   UNL A   1      41.580  27.077  28.958  1.00  0.00    -0.354 N 
ATOM     45  C   UNL A   1      42.527  30.906  30.749  1.00  0.00     0.074 A 
ATOM     46  C   UNL A   1      41.408  31.816  30.664  1.00  0.00     0.031 C 
ATOM     47  C   UNL A   1      40.293  25.574  27.914  1.00  0.00     0.029 A 
ATOM     48  C   UNL A   1      41.627  25.794  28.462  1.00  0.00     0.049 A 
ATOM     49  H   UNL A   1      42.350  27.516  29.388  1.00  0.00     0.167 HD
ATOM     50  C   UNL A   1      43.711  31.211  31.328  1.00  0.00     0.031 A 
ATOM     51  C   UNL A   1      42.631  24.898  28.455  1.00  0.00     0.031 A 
ATOM     52  C   UNL A   1      44.819  30.300  31.418  1.00  0.00     0.049 A 
ATOM     53  C   UNL A   1      43.942  25.272  29.093  1.00  0.00     0.074 A 
ATOM     54  C   UNL A   1      46.053  30.503  32.012  1.00  0.00     0.029 A 
ATOM     55  N   UNL A   1      44.827  29.011  30.908  1.00  0.00    -0.354 N 
ATOM     56  N   UNL A   1      44.280  26.392  29.689  1.00  0.00    -0.248 NA
ATOM     57  C   UNL A   1      45.002  24.254  29.073  1.00  0.00     0.031 C 
ATOM     58  C   UNL A   1      46.823  29.351  31.821  1.00  0.00     0.029 A 
ATOM     59  C   UNL A   1      46.049  28.411  31.161  1.00  0.00     0.049 A 
ATOM     60  H   UNL A   1      44.075  28.585  30.437  1.00  0.00     0.167 HD
ATOM     61  C   UNL A   1      45.582  26.201  30.138  1.00  0.00     0.074 A 
ATOM     62  C   UNL A   1      45.957  24.851  29.771  1.00  0.00     0.031 C 
ATOM     63  C   UNL A   1      46.400  27.065  30.789  1.00  0.00     0.031 A 
BRANCH  50  64
ATOM     64  C   UNL A   1      43.860  32.581  31.934  1.00  0.00    -0.014 A 
ATOM     65  C   UNL A   1      43.553  32.802  33.289  1.00  0.00     0.010 A 
ATOM     66  C   UNL A   1      44.379  33.640  31.168  1.00  0.00     0.010 A 
ATOM     67  C   UNL A   1      43.744  34.059  33.864  1.00  0.00     0.020 A 
ATOM     68  C   UNL A   1      44.599  34.894  31.747  1.00  0.00     0.020 A 
ATOM     69  C   UNL A   1      44.272  35.097  33.090  1.00  0.00     0.054 A 
BRANCH  69  70
ATOM     70  S   UNL A   1      44.572  36.701  33.882  1.00  0.00     0.124 S 
ATOM     71  O   UNL A   1      43.490  37.515  33.333  1.00  0.00    -0.237 OA
ATOM     72  O   UNL A   1      44.456  36.381  35.303  1.00  0.00    -0.237 OA
ATOM     73  O   UNL A   1      45.913  37.065  33.435  1.00  0.00    -0.744 OA
ENDBRANCH  69  70
ENDBRANCH  50  64
BRANCH  51  74
ATOM     74  C   UNL A   1      42.448  23.560  27.825  1.00  0.00    -0.014 A 
ATOM     75  C   UNL A   1      41.943  22.477  28.567  1.00  0.00     0.010 A 
ATOM     76  C   UNL A   1      42.817  23.354  26.483  1.00  0.00     0.010 A 
ATOM     77  C   UNL A   1      41.860  21.204  27.996  1.00  0.00     0.020 A 
ATOM     78  C   UNL A   1      42.703  22.090  25.898  1.00  0.00     0.020 A 
ATOM     79  C   UNL A   1      42.247  21.017  26.666  1.00  0.00     0.054 A 
BRANCH  79  80
ATOM     80  S   UNL A   1      42.139  19.356  25.944  1.00  0.00     0.124 S 
ATOM     81  O   UNL A   1      42.982  19.486  24.760  1.00  0.00    -0.237 OA
ATOM     82  O   UNL A   1      42.670  18.512  27.012  1.00  0.00    -0.237 OA
ATOM     83  O   UNL A   1      40.711  19.192  25.683  1.00  0.00    -0.744 OA
ENDBRANCH  79  80
ENDBRANCH  51  74
BRANCH  63  84
ATOM     84  C   UNL A   1      47.764  26.560  31.176  1.00  0.00    -0.014 A 
ATOM     85  C   UNL A   1      47.982  25.914  32.406  1.00  0.00     0.010 A 
ATOM     86  C   UNL A   1      48.839  26.714  30.281  1.00  0.00     0.010 A 
ATOM     87  C   UNL A   1      49.260  25.477  32.755  1.00  0.00     0.020 A 
ATOM     88  C   UNL A   1      50.112  26.248  30.613  1.00  0.00     0.020 A 
ATOM     89  C   UNL A   1      50.320  25.651  31.859  1.00  0.00     0.054 A 
BRANCH  89  90
ATOM     90  S   UNL A   1      51.967  25.060  32.331  1.00  0.00     0.124 S 
ATOM     91  O   UNL A   1      52.798  25.580  31.249  1.00  0.00    -0.237 OA
ATOM     92  O   UNL A   1      52.171  25.683  33.636  1.00  0.00    -0.237 OA
ATOM     93  O   UNL A   1      51.818  23.606  32.359  1.00  0.00    -0.744 OA
ENDBRANCH  89  90
ENDBRANCH  63  84
ENDBRANCH  37  38
ENDBRANCH  29  32
ENDBRANCH  27  28
ENDBRANCH   1  27
TORSDOF 16
ENDMDL
MODEL 2
REMARK VINA RESULT:     -11.5      2.724      9.477
REMARK SMILES Cc1c(C(=O)N[C@H]2C=C[C@@H](C(=O)NCCCCNC(=O)c3ccc(-c4c5nc(c(-c6ccc(S(=O)(=O)[O-])cc6)c6ccc([nH]6)c(-c6ccc(S(=O)(=O)[O-])cc6)c6nc(c(-c7ccc(S(=O)(=O)[O-])cc7)c7ccc4[nH]7)C=C6)C=C5)cc3)C2)oc2ccccc12
REMARK SMILES IDX 16 1 15 2 14 3 13 4 11 5 12 6 10 8 7 9 8 10 81 11 9 12 6 13
REMARK SMILES IDX 4 14 5 15 3 17 1 18 2 19 88 20 82 21 83 22 87 23 84 24 86 25
REMARK SMILES IDX 85 26 17 27 18 28 19 29 20 31 21 32 22 33 80 34 23 35 79 36
REMARK SMILES IDX 24 37 25 38 26 39 73 40 27 41 78 42 72 43 74 44 28 45 77 46
REMARK SMILES IDX 71 47 70 48 29 50 59 51 40 52 58 53 41 54 44 55 57 56 75 57
REMARK SMILES IDX 42 58 43 59 56 61 76 62 45 63 30 64 31 65 39 66 32 67 38 68
REMARK SMILES IDX 33 69 34 70 35 71 36 72 37 73 60 74 61 75 69 76 62 77 68 78
REMARK SMILES IDX 63 79 64 80 65 81 66 82 67 83 46 84 47 85 55 86 48 87 54 88
REMARK SMILES IDX 49 89 50 90 51 91 52 92 53 93
REMARK H PARENT 13 7 6 16 18 30 74 49 44 60
REMARK Flexibility Score: inf
ROOT
ATOM      1  C   UNL A   1      36.019  23.047  24.447  1.00  0.00     0.023 C 
ENDROOT
BRANCH   1   2
ATOM      2  C   UNL A   1      36.028  21.525  24.419  1.00  0.00     0.023 C 
BRANCH   2   3
ATOM      3  C   UNL A   1      35.384  20.893  25.642  1.00  0.00     0.116 C 
BRANCH   3   4
ATOM      4  N   UNL A   1      34.135  20.244  25.307  1.00  0.00    -0.356 N 
ATOM      5  C   UNL A   1      32.867  20.724  25.405  1.00  0.00     0.227 C 
ATOM      6  O   UNL A   1      31.930  19.975  25.121  1.00  0.00    -0.274 OA
ATOM      7  H   UNL A   1      34.214  19.326  24.959  1.00  0.00     0.163 HD
BRANCH   5   8
ATOM      8  C   UNL A   1      32.600  22.143  25.886  1.00  0.00     0.103 C 
ATOM      9  C   UNL A   1      31.316  24.114  25.631  1.00  0.00     0.106 C 
ATOM     10  C   UNL A   1      30.754  23.330  26.758  1.00  0.00    -0.006 C 
ATOM     11  C   UNL A   1      32.024  23.052  24.799  1.00  0.00     0.047 C 
ATOM     12  C   UNL A   1      31.570  22.285  26.987  1.00  0.00    -0.016 C 
BRANCH   9  13
ATOM     13  N   UNL A   1      30.444  24.937  24.891  1.00  0.00    -0.343 N 
ATOM     14  C   UNL A   1      30.611  26.294  24.674  1.00  0.00     0.287 C 
ATOM     15  O   UNL A   1      29.767  26.781  23.912  1.00  0.00    -0.266 OA
ATOM     16  H   UNL A   1      29.649  24.511  24.494  1.00  0.00     0.164 HD
BRANCH  14  17
ATOM     17  C   UNL A   1      31.670  27.124  25.298  1.00  0.00     0.195 A 
ATOM     18  C   UNL A   1      34.121  26.067  25.585  1.00  0.00     0.049 C 
ATOM     19  C   UNL A   1      33.030  27.081  25.682  1.00  0.00     0.008 A 
ATOM     20  C   UNL A   1      33.328  28.339  26.299  1.00  0.00     0.024 A 
ATOM     21  O   UNL A   1      31.195  28.384  25.645  1.00  0.00    -0.451 OA
ATOM     22  C   UNL A   1      32.179  29.093  26.238  1.00  0.00     0.135 A 
ATOM     23  C   UNL A   1      34.474  28.897  26.898  1.00  0.00     0.012 A 
ATOM     24  C   UNL A   1      32.075  30.392  26.726  1.00  0.00     0.048 A 
ATOM     25  C   UNL A   1      34.410  30.198  27.401  1.00  0.00     0.001 A 
ATOM     26  C   UNL A   1      33.228  30.933  27.313  1.00  0.00     0.004 A 
ENDBRANCH  14  17
ENDBRANCH   9  13
ENDBRANCH   5   8
ENDBRANCH   3   4
ENDBRANCH   2   3
ENDBRANCH   1   2
BRANCH   1  27
ATOM     27  C   UNL A   1      37.088  23.659  25.342  1.00  0.00     0.116 C 
BRANCH  27  28
ATOM     28  N   UNL A   1      38.213  22.764  25.579  1.00  0.00    -0.352 N 
ATOM     29  C   UNL A   1      39.405  23.029  26.213  1.00  0.00     0.251 C 
ATOM     30  H   UNL A   1      38.106  21.845  25.240  1.00  0.00     0.163 HD
ATOM     31  O   UNL A   1      40.298  22.207  26.232  1.00  0.00    -0.269 OA
BRANCH  29  32
ATOM     32  C   UNL A   1      39.573  24.358  26.832  1.00  0.00     0.039 A 
ATOM     33  C   UNL A   1      39.111  24.550  28.132  1.00  0.00     0.014 A 
ATOM     34  C   UNL A   1      40.265  25.367  26.156  1.00  0.00     0.014 A 
ATOM     35  C   UNL A   1      39.400  25.747  28.782  1.00  0.00     0.010 A 
ATOM     36  C   UNL A   1      40.627  26.521  26.837  1.00  0.00     0.010 A 
ATOM     37  C   UNL A   1      40.194  26.723  28.155  1.00  0.00    -0.014 A 
BRANCH  37  38
ATOM     38  C   UNL A   1      40.576  27.961  28.875  1.00  0.00     0.031 A 
ATOM     39  C   UNL A   1      41.944  28.083  29.488  1.00  0.00     0.074 A 
ATOM     40  C   UNL A   1      39.681  28.962  28.990  1.00  0.00     0.049 A 
ATOM     41  N   UNL A   1      42.461  29.088  30.143  1.00  0.00    -0.248 NA
ATOM     42  C   UNL A   1      42.839  26.918  29.371  1.00  0.00     0.031 C 
ATOM     43  C   UNL A   1      38.304  28.934  28.484  1.00  0.00     0.029 A 
ATOM     44  N   UNL A   1      39.795  30.203  29.563  1.00  0.00    -0.354 N 
ATOM     45  C   UNL A   1      43.740  28.683  30.509  1.00  0.00     0.074 A 
ATOM     46  C   UNL A   1      43.895  27.315  30.066  1.00  0.00     0.031 C 
ATOM     47  C   UNL A   1      37.719  30.117  28.733  1.00  0.00     0.029 A 
ATOM     48  C   UNL A   1      38.660  30.972  29.447  1.00  0.00     0.049 A 
ATOM     49  H   UNL A   1      40.613  30.514  30.015  1.00  0.00     0.167 HD
ATOM     50  C   UNL A   1      44.710  29.395  31.125  1.00  0.00     0.031 A 
ATOM     51  C   UNL A   1      38.411  32.227  29.866  1.00  0.00     0.031 A 
ATOM     52  C   UNL A   1      44.554  30.758  31.556  1.00  0.00     0.049 A 
ATOM     53  C   UNL A   1      39.506  32.990  30.563  1.00  0.00     0.074 A 
ATOM     54  C   UNL A   1      45.488  31.579  32.163  1.00  0.00     0.029 A 
ATOM     55  N   UNL A   1      43.394  31.503  31.418  1.00  0.00    -0.354 N 
ATOM     56  N   UNL A   1      40.731  32.608  30.841  1.00  0.00    -0.248 NA
ATOM     57  C   UNL A   1      39.190  34.361  30.987  1.00  0.00     0.031 C 
ATOM     58  C   UNL A   1      44.877  32.808  32.434  1.00  0.00     0.029 A 
ATOM     59  C   UNL A   1      43.582  32.771  31.942  1.00  0.00     0.049 A 
ATOM     60  H   UNL A   1      42.560  31.180  31.008  1.00  0.00     0.167 HD
ATOM     61  C   UNL A   1      41.338  33.701  31.447  1.00  0.00     0.074 A 
ATOM     62  C   UNL A   1      40.356  34.767  31.469  1.00  0.00     0.031 C 
ATOM     63  C   UNL A   1      42.592  33.816  31.950  1.00  0.00     0.031 A 
BRANCH  50  64
ATOM     64  C   UNL A   1      46.039  28.722  31.347  1.00  0.00    -0.014 A 
ATOM     65  C   UNL A   1      47.061  28.822  30.385  1.00  0.00     0.010 A 
ATOM     66  C   UNL A   1      46.296  28.047  32.553  1.00  0.00     0.010 A 
ATOM     67  C   UNL A   1      48.310  28.244  30.617  1.00  0.00     0.020 A 
ATOM     68  C   UNL A   1      47.555  27.491  32.802  1.00  0.00     0.020 A 
ATOM     69  C   UNL A   1      48.552  27.587  31.827  1.00  0.00     0.054 A 
BRANCH  69  70
ATOM     70  S   UNL A   1      50.205  26.905  32.126  1.00  0.00     0.124 S 
ATOM     71  O   UNL A   1      49.922  25.837  33.083  1.00  0.00    -0.237 OA
ATOM     72  O   UNL A   1      50.613  26.462  30.795  1.00  0.00    -0.237 OA
ATOM     73  O   UNL A   1      50.957  28.037  32.662  1.00  0.00    -0.744 OA
ENDBRANCH  69  70
ENDBRANCH  50  64
BRANCH  51  74
ATOM     74  C   UNL A   1      37.075  32.848  29.645  1.00  0.00    -0.014 A 
ATOM     75  C   UNL A   1      36.660  33.226  28.354  1.00  0.00     0.010 A 
ATOM     76  C   UNL A   1      36.223  33.101  30.736  1.00  0.00     0.010 A 
ATOM     77  C   UNL A   1      35.446  33.891  28.167  1.00  0.00     0.020 A 
ATOM     78  C   UNL A   1      34.992  33.735  30.547  1.00  0.00     0.020 A 
ATOM     79  C   UNL A   1      34.622  34.147  29.267  1.00  0.00     0.054 A 
BRANCH  79  80
ATOM     80  S   UNL A   1      33.051  35.017  29.005  1.00  0.00     0.124 S 
ATOM     81  O   UNL A   1      33.504  36.339  28.584  1.00  0.00    -0.237 OA
ATOM     82  O   UNL A   1      32.410  34.208  27.971  1.00  0.00    -0.237 OA
ATOM     83  O   UNL A   1      32.410  34.961  30.316  1.00  0.00    -0.744 OA
ENDBRANCH  79  80
ENDBRANCH  51  74
BRANCH  63  84
ATOM     84  C   UNL A   1      42.980  35.150  32.530  1.00  0.00    -0.014 A 
ATOM     85  C   UNL A   1      43.582  36.143  31.738  1.00  0.00     0.010 A 
ATOM     86  C   UNL A   1      42.713  35.420  33.885  1.00  0.00     0.010 A 
ATOM     87  C   UNL A   1      43.958  37.364  32.302  1.00  0.00     0.020 A 
ATOM     88  C   UNL A   1      43.057  36.652  34.444  1.00  0.00     0.020 A 
ATOM     89  C   UNL A   1      43.697  37.609  33.654  1.00  0.00     0.054 A 
BRANCH  89  90
ATOM     90  S   UNL A   1      44.180  39.208  34.359  1.00  0.00     0.124 S 
ATOM     91  O   UNL A   1      44.176  38.923  35.790  1.00  0.00    -0.237 OA
ATOM     92  O   UNL A   1      45.496  39.435  33.766  1.00  0.00    -0.237 OA
ATOM     93  O   UNL A   1      43.133  40.119  33.901  1.00  0.00    -0.744 OA
ENDBRANCH  89  90
ENDBRANCH  63  84
ENDBRANCH  37  38
ENDBRANCH  29  32
ENDBRANCH  27  28
ENDBRANCH   1  27
TORSDOF 16
ENDMDL
MODEL 3
REMARK VINA RESULT:     -11.1      3.236      4.051
REMARK SMILES Cc1c(C(=O)N[C@H]2C=C[C@@H](C(=O)NCCCCNC(=O)c3ccc(-c4c5nc(c(-c6ccc(S(=O)(=O)[O-])cc6)c6ccc([nH]6)c(-c6ccc(S(=O)(=O)[O-])cc6)c6nc(c(-c7ccc(S(=O)(=O)[O-])cc7)c7ccc4[nH]7)C=C6)C=C5)cc3)C2)oc2ccccc12
REMARK SMILES IDX 16 1 15 2 14 3 13 4 11 5 12 6 10 8 7 9 8 10 81 11 9 12 6 13
REMARK SMILES IDX 4 14 5 15 3 17 1 18 2 19 88 20 82 21 83 22 87 23 84 24 86 25
REMARK SMILES IDX 85 26 17 27 18 28 19 29 20 31 21 32 22 33 80 34 23 35 79 36
REMARK SMILES IDX 24 37 25 38 26 39 73 40 27 41 78 42 72 43 74 44 28 45 77 46
REMARK SMILES IDX 71 47 70 48 29 50 59 51 40 52 58 53 41 54 44 55 57 56 75 57
REMARK SMILES IDX 42 58 43 59 56 61 76 62 45 63 30 64 31 65 39 66 32 67 38 68
REMARK SMILES IDX 33 69 34 70 35 71 36 72 37 73 60 74 61 75 69 76 62 77 68 78
REMARK SMILES IDX 63 79 64 80 65 81 66 82 67 83 46 84 47 85 55 86 48 87 54 88
REMARK SMILES IDX 49 89 50 90 51 91 52 92 53 93
REMARK H PARENT 13 7 6 16 18 30 74 49 44 60
REMARK Flexibility Score: inf
ROOT
ATOM      1  C   UNL A   1      34.511  28.902  27.248  1.00  0.00     0.023 C 
ENDROOT
BRANCH   1   2
ATOM      2  C   UNL A   1      33.402  29.776  26.678  1.00  0.00     0.023 C 
BRANCH   2   3
ATOM      3  C   UNL A   1      33.217  29.620  25.178  1.00  0.00     0.116 C 
BRANCH   3   4
ATOM      4  N   UNL A   1      31.911  30.078  24.755  1.00  0.00    -0.356 N 
ATOM      5  C   UNL A   1      30.881  29.361  24.231  1.00  0.00     0.227 C 
ATOM      6  O   UNL A   1      29.866  29.964  23.878  1.00  0.00    -0.274 OA
ATOM      7  H   UNL A   1      31.745  31.042  24.862  1.00  0.00     0.163 HD
BRANCH   5   8
ATOM      8  C   UNL A   1      30.984  27.854  24.053  1.00  0.00     0.103 C 
ATOM      9  C   UNL A   1      30.386  25.716  24.870  1.00  0.00     0.106 C 
ATOM     10  C   UNL A   1      29.471  26.064  23.755  1.00  0.00    -0.006 C 
ATOM     11  C   UNL A   1      30.852  27.079  25.365  1.00  0.00     0.047 C 
ATOM     12  C   UNL A   1      29.903  27.214  23.205  1.00  0.00    -0.016 C 
BRANCH   9  13
ATOM     13  N   UNL A   1      29.903  24.869  25.888  1.00  0.00    -0.343 N 
ATOM     14  C   UNL A   1      30.630  23.873  26.517  1.00  0.00     0.287 C 
ATOM     15  O   UNL A   1      30.023  23.328  27.446  1.00  0.00    -0.266 OA
ATOM     16  H   UNL A   1      28.970  24.996  26.177  1.00  0.00     0.164 HD
BRANCH  14  17
ATOM     17  C   UNL A   1      31.999  23.453  26.127  1.00  0.00     0.195 A 
ATOM     18  C   UNL A   1      33.862  25.349  25.754  1.00  0.00     0.049 C 
ATOM     19  C   UNL A   1      33.272  23.980  25.809  1.00  0.00     0.008 A 
ATOM     20  C   UNL A   1      34.111  22.868  25.474  1.00  0.00     0.024 A 
ATOM     21  O   UNL A   1      32.098  22.070  26.018  1.00  0.00    -0.451 OA
ATOM     22  C   UNL A   1      33.347  21.734  25.630  1.00  0.00     0.135 A 
ATOM     23  C   UNL A   1      35.449  22.732  25.058  1.00  0.00     0.012 A 
ATOM     24  C   UNL A   1      33.818  20.443  25.409  1.00  0.00     0.048 A 
ATOM     25  C   UNL A   1      35.959  21.454  24.825  1.00  0.00     0.001 A 
ATOM     26  C   UNL A   1      35.154  20.328  25.001  1.00  0.00     0.004 A 
ENDBRANCH  14  17
ENDBRANCH   9  13
ENDBRANCH   5   8
ENDBRANCH   3   4
ENDBRANCH   2   3
ENDBRANCH   1   2
BRANCH   1  27
ATOM     27  C   UNL A   1      35.657  29.683  27.878  1.00  0.00     0.116 C 
BRANCH  27  28
ATOM     28  N   UNL A   1      35.531  29.811  29.324  1.00  0.00    -0.352 N 
ATOM     29  C   UNL A   1      36.517  29.754  30.281  1.00  0.00     0.251 C 
ATOM     30  H   UNL A   1      34.618  29.960  29.661  1.00  0.00     0.163 HD
ATOM     31  O   UNL A   1      36.240  29.764  31.464  1.00  0.00    -0.269 OA
BRANCH  29  32
ATOM     32  C   UNL A   1      37.915  29.639  29.822  1.00  0.00     0.039 A 
ATOM     33  C   UNL A   1      38.901  29.342  30.761  1.00  0.00     0.014 A 
ATOM     34  C   UNL A   1      38.218  29.733  28.461  1.00  0.00     0.014 A 
ATOM     35  C   UNL A   1      40.195  29.078  30.320  1.00  0.00     0.010 A 
ATOM     36  C   UNL A   1      39.487  29.383  28.019  1.00  0.00     0.010 A 
ATOM     37  C   UNL A   1      40.488  29.057  28.945  1.00  0.00    -0.014 A 
BRANCH  37  38
ATOM     38  C   UNL A   1      41.843  28.692  28.469  1.00  0.00     0.031 A 
ATOM     39  C   UNL A   1      42.912  29.745  28.363  1.00  0.00     0.074 A 
ATOM     40  C   UNL A   1      42.099  27.416  28.115  1.00  0.00     0.049 A 
ATOM     41  N   UNL A   1      44.155  29.616  27.981  1.00  0.00    -0.248 NA
ATOM     42  C   UNL A   1      42.532  31.126  28.710  1.00  0.00     0.031 C 
ATOM     43  C   UNL A   1      41.125  26.321  28.122  1.00  0.00     0.029 A 
ATOM     44  N   UNL A   1      43.258  26.823  27.687  1.00  0.00    -0.354 N 
ATOM     45  C   UNL A   1      44.705  30.890  28.047  1.00  0.00     0.074 A 
ATOM     46  C   UNL A   1      43.644  31.792  28.437  1.00  0.00     0.031 C 
ATOM     47  C   UNL A   1      41.738  25.183  27.758  1.00  0.00     0.029 A 
ATOM     48  C   UNL A   1      43.135  25.472  27.455  1.00  0.00     0.049 A 
ATOM     49  H   UNL A   1      44.100  27.317  27.557  1.00  0.00     0.167 HD
ATOM     50  C   UNL A   1      45.985  31.271  27.838  1.00  0.00     0.031 A 
ATOM     51  C   UNL A   1      44.048  24.570  27.049  1.00  0.00     0.031 A 
ATOM     52  C   UNL A   1      47.040  30.370  27.459  1.00  0.00     0.049 A 
ATOM     53  C   UNL A   1      45.463  25.027  26.809  1.00  0.00     0.074 A 
ATOM     54  C   UNL A   1      48.379  30.652  27.251  1.00  0.00     0.029 A 
ATOM     55  N   UNL A   1      46.877  29.011  27.238  1.00  0.00    -0.354 N 
ATOM     56  N   UNL A   1      45.976  26.228  26.941  1.00  0.00    -0.248 NA
ATOM     57  C   UNL A   1      46.425  24.002  26.382  1.00  0.00     0.031 C 
ATOM     58  C   UNL A   1      49.017  29.470  26.860  1.00  0.00     0.029 A 
ATOM     59  C   UNL A   1      48.088  28.443  26.882  1.00  0.00     0.049 A 
ATOM     60  H   UNL A   1      46.026  28.523  27.322  1.00  0.00     0.167 HD
ATOM     61  C   UNL A   1      47.326  26.096  26.640  1.00  0.00     0.074 A 
ATOM     62  C   UNL A   1      47.554  24.695  26.348  1.00  0.00     0.031 C 
ATOM     63  C   UNL A   1      48.293  27.046  26.599  1.00  0.00     0.031 A 
BRANCH  50  64
ATOM     64  C   UNL A   1      46.326  32.724  28.041  1.00  0.00    -0.014 A 
ATOM     65  C   UNL A   1      46.226  33.638  26.976  1.00  0.00     0.010 A 
ATOM     66  C   UNL A   1      46.677  33.195  29.318  1.00  0.00     0.010 A 
ATOM     67  C   UNL A   1      46.489  34.994  27.180  1.00  0.00     0.020 A 
ATOM     68  C   UNL A   1      46.913  34.557  29.533  1.00  0.00     0.020 A 
ATOM     69  C   UNL A   1      46.825  35.446  28.459  1.00  0.00     0.054 A 
BRANCH  69  70
ATOM     70  S   UNL A   1      47.095  37.222  28.705  1.00  0.00     0.124 S 
ATOM     71  O   UNL A   1      48.417  37.411  28.112  1.00  0.00    -0.237 OA
ATOM     72  O   UNL A   1      45.985  37.819  27.966  1.00  0.00    -0.237 OA
ATOM     73  O   UNL A   1      47.035  37.386  30.155  1.00  0.00    -0.744 OA
ENDBRANCH  69  70
ENDBRANCH  50  64
BRANCH  51  74
ATOM     74  C   UNL A   1      43.664  23.146  26.840  1.00  0.00    -0.014 A 
ATOM     75  C   UNL A   1      43.852  22.524  25.591  1.00  0.00     0.010 A 
ATOM     76  C   UNL A   1      43.069  22.413  27.883  1.00  0.00     0.010 A 
ATOM     77  C   UNL A   1      43.405  21.218  25.376  1.00  0.00     0.020 A 
ATOM     78  C   UNL A   1      42.652  21.095  27.681  1.00  0.00     0.020 A 
ATOM     79  C   UNL A   1      42.802  20.513  26.422  1.00  0.00     0.054 A 
BRANCH  79  80
ATOM     80  S   UNL A   1      42.223  18.820  26.121  1.00  0.00     0.124 S 
ATOM     81  O   UNL A   1      40.828  19.039  25.751  1.00  0.00    -0.237 OA
ATOM     82  O   UNL A   1      43.102  18.372  25.044  1.00  0.00    -0.237 OA
ATOM     83  O   UNL A   1      42.435  18.156  27.405  1.00  0.00    -0.744 OA
ENDBRANCH  79  80
ENDBRANCH  51  74
BRANCH  63  84
ATOM     84  C   UNL A   1      49.688  26.592  26.262  1.00  0.00    -0.014 A 
ATOM     85  C   UNL A   1      50.212  26.745  24.966  1.00  0.00     0.010 A 
ATOM     86  C   UNL A   1      50.494  26.026  27.267  1.00  0.00     0.010 A 
ATOM     87  C   UNL A   1      51.499  26.294  24.669  1.00  0.00     0.020 A 
ATOM     88  C   UNL A   1      51.794  25.604  26.980  1.00  0.00     0.020 A 
ATOM     89  C   UNL A   1      52.281  25.722  25.677  1.00  0.00     0.054 A 
BRANCH  89  90
ATOM     90  S   UNL A   1      53.955  25.158  25.267  1.00  0.00     0.124 S 
ATOM     91  O   UNL A   1      54.696  25.503  26.477  1.00  0.00    -0.237 OA
ATOM     92  O   UNL A   1      53.764  23.729  25.032  1.00  0.00    -0.237 OA
ATOM     93  O   UNL A   1      54.301  25.937  24.080  1.00  0.00    -0.744 OA
ENDBRANCH  89  90
ENDBRANCH  63  84
ENDBRANCH  37  38
ENDBRANCH  29  32
ENDBRANCH  27  28
ENDBRANCH   1  27
TORSDOF 16
ENDMDL
