MODEL 1
REMARK VINA RESULT:     -11.3      0.000      0.000
REMARK SMILES O=C(NCCCCNC(=O)[C@]12CCC[NH2+][C@@H]1CCN(C(=O)Cc1c(F)cccc1Cl)C2)c1ccc(-c2c3nc(c(-c4ccc(S(=O)(=O)[O-])cc4)c4ccc([nH]4)c(-c4ccc(S(=O)(=O)[O-])cc4)c4nc(c(-c5ccc(S(=O)(=O)[O-])cc5)c5ccc2[nH]5)C=C4)C=C3)cc1
REMARK SMILES IDX 5 1 4 2 3 3 1 4 2 5 32 7 33 8 91 9 34 10 90 11 35 12 36 13
REMARK SMILES IDX 37 14 84 15 38 16 89 17 83 18 85 19 39 20 88 21 82 22 81 23
REMARK SMILES IDX 40 25 70 26 51 27 69 28 52 29 55 30 68 31 86 32 53 33 54 34
REMARK SMILES IDX 67 36 87 37 56 38 41 39 42 40 50 41 43 42 49 43 44 44 45 45
REMARK SMILES IDX 46 46 47 47 48 48 71 49 72 50 80 51 73 52 79 53 74 54 75 55
REMARK SMILES IDX 76 56 77 57 78 58 57 59 58 60 66 61 59 62 65 63 60 64 61 65
REMARK SMILES IDX 62 66 63 67 64 68 6 69 7 70 8 71 9 72 10 74 11 75 12 76
REMARK SMILES IDX 16 77 31 78 13 79 15 80 17 81 19 82 14 83 18 86 20 87 21 88
REMARK SMILES IDX 22 89 23 90 24 91 29 92 25 93 26 94 28 95 30 96 27 97
REMARK H PARENT 3 6 85 24 55 35 8 73 15 84 15 85
REMARK Flexibility Score: inf
ROOT
ATOM      1  C   UNL A   1      33.306  28.730  25.356  1.00  0.00     0.023 C 
ENDROOT
BRANCH   1   2
ATOM      2  C   UNL A   1      33.648  28.659  26.835  1.00  0.00     0.116 C 
BRANCH   2   3
ATOM      3  N   UNL A   1      33.626  29.964  27.495  1.00  0.00    -0.352 N 
ATOM      4  O   UNL A   1      34.408  31.653  28.794  1.00  0.00    -0.269 OA
ATOM      5  C   UNL A   1      34.627  30.600  28.204  1.00  0.00     0.251 C 
ATOM      6  H   UNL A   1      32.778  30.459  27.425  1.00  0.00     0.163 HD
BRANCH   5   7
ATOM      7  C   UNL A   1      35.956  29.960  28.282  1.00  0.00     0.039 A 
ATOM      8  C   UNL A   1      36.345  29.356  29.473  1.00  0.00     0.014 A 
ATOM      9  C   UNL A   1      36.858  30.080  27.221  1.00  0.00     0.014 A 
ATOM     10  C   UNL A   1      37.693  29.136  29.703  1.00  0.00     0.010 A 
ATOM     11  C   UNL A   1      38.193  29.700  27.407  1.00  0.00     0.010 A 
ATOM     12  C   UNL A   1      38.636  29.280  28.670  1.00  0.00    -0.014 A 
BRANCH  12  13
ATOM     13  C   UNL A   1      40.054  28.927  28.949  1.00  0.00     0.031 A 
ATOM     14  C   UNL A   1      40.649  27.608  28.523  1.00  0.00     0.074 A 
ATOM     15  C   UNL A   1      40.831  29.860  29.539  1.00  0.00     0.049 A 
ATOM     16  N   UNL A   1      41.867  27.164  28.706  1.00  0.00    -0.248 NA
ATOM     17  C   UNL A   1      39.773  26.661  27.813  1.00  0.00     0.031 C 
ATOM     18  C   UNL A   1      40.365  31.177  29.992  1.00  0.00     0.029 A 
ATOM     19  N   UNL A   1      42.171  29.876  29.818  1.00  0.00    -0.354 N 
ATOM     20  C   UNL A   1      41.892  25.874  28.183  1.00  0.00     0.074 A 
ATOM     21  C   UNL A   1      40.566  25.606  27.669  1.00  0.00     0.031 C 
ATOM     22  C   UNL A   1      41.414  31.905  30.392  1.00  0.00     0.029 A 
ATOM     23  C   UNL A   1      42.604  31.070  30.348  1.00  0.00     0.049 A 
ATOM     24  H   UNL A   1      42.768  29.110  29.655  1.00  0.00     0.167 HD
ATOM     25  C   UNL A   1      42.925  24.997  28.148  1.00  0.00     0.031 A 
ATOM     26  C   UNL A   1      43.815  31.449  30.794  1.00  0.00     0.031 A 
ATOM     27  C   UNL A   1      44.246  25.289  28.645  1.00  0.00     0.049 A 
ATOM     28  C   UNL A   1      44.933  30.456  30.751  1.00  0.00     0.074 A 
ATOM     29  C   UNL A   1      45.367  24.475  28.646  1.00  0.00     0.029 A 
ATOM     30  N   UNL A   1      44.630  26.492  29.221  1.00  0.00    -0.354 N 
ATOM     31  N   UNL A   1      44.924  29.232  30.278  1.00  0.00    -0.248 NA
ATOM     32  C   UNL A   1      46.217  30.882  31.319  1.00  0.00     0.031 C 
ATOM     33  C   UNL A   1      46.413  25.168  29.264  1.00  0.00     0.029 A 
ATOM     34  C   UNL A   1      45.961  26.435  29.598  1.00  0.00     0.049 A 
ATOM     35  H   UNL A   1      44.041  27.271  29.345  1.00  0.00     0.167 HD
ATOM     36  C   UNL A   1      46.202  28.739  30.493  1.00  0.00     0.074 A 
ATOM     37  C   UNL A   1      46.965  29.807  31.109  1.00  0.00     0.031 C 
ATOM     38  C   UNL A   1      46.696  27.508  30.217  1.00  0.00     0.031 A 
BRANCH  25  39
ATOM     39  C   UNL A   1      42.670  23.616  27.596  1.00  0.00    -0.014 A 
ATOM     40  C   UNL A   1      42.830  23.327  26.229  1.00  0.00     0.010 A 
ATOM     41  C   UNL A   1      42.339  22.569  28.478  1.00  0.00     0.010 A 
ATOM     42  C   UNL A   1      42.637  22.025  25.752  1.00  0.00     0.020 A 
ATOM     43  C   UNL A   1      42.167  21.263  28.010  1.00  0.00     0.020 A 
ATOM     44  C   UNL A   1      42.304  21.001  26.646  1.00  0.00     0.054 A 
BRANCH  44  45
ATOM     45  S   UNL A   1      42.090  19.315  26.005  1.00  0.00     0.124 S 
ATOM     46  O   UNL A   1      42.960  19.328  24.833  1.00  0.00    -0.237 OA
ATOM     47  O   UNL A   1      42.550  18.488  27.119  1.00  0.00    -0.237 OA
ATOM     48  O   UNL A   1      40.660  19.231  25.719  1.00  0.00    -0.744 OA
ENDBRANCH  44  45
ENDBRANCH  25  39
BRANCH  26  49
ATOM     49  C   UNL A   1      43.991  32.807  31.374  1.00  0.00    -0.014 A 
ATOM     50  C   UNL A   1      43.931  33.012  32.762  1.00  0.00     0.010 A 
ATOM     51  C   UNL A   1      44.275  33.899  30.531  1.00  0.00     0.010 A 
ATOM     52  C   UNL A   1      44.152  34.285  33.296  1.00  0.00     0.020 A 
ATOM     53  C   UNL A   1      44.530  35.164  31.063  1.00  0.00     0.020 A 
ATOM     54  C   UNL A   1      44.454  35.351  32.444  1.00  0.00     0.054 A 
BRANCH  54  55
ATOM     55  S   UNL A   1      44.805  36.981  33.158  1.00  0.00     0.124 S 
ATOM     56  O   UNL A   1      43.593  37.723  32.826  1.00  0.00    -0.237 OA
ATOM     57  O   UNL A   1      44.993  36.674  34.574  1.00  0.00    -0.237 OA
ATOM     58  O   UNL A   1      46.014  37.406  32.456  1.00  0.00    -0.744 OA
ENDBRANCH  54  55
ENDBRANCH  26  49
BRANCH  38  59
ATOM     59  C   UNL A   1      48.139  27.270  30.560  1.00  0.00    -0.014 A 
ATOM     60  C   UNL A   1      48.508  26.730  31.805  1.00  0.00     0.010 A 
ATOM     61  C   UNL A   1      49.135  27.573  29.614  1.00  0.00     0.010 A 
ATOM     62  C   UNL A   1      49.855  26.532  32.112  1.00  0.00     0.020 A 
ATOM     63  C   UNL A   1      50.481  27.352  29.910  1.00  0.00     0.020 A 
ATOM     64  C   UNL A   1      50.834  26.848  31.164  1.00  0.00     0.054 A 
BRANCH  64  65
ATOM     65  S   UNL A   1      52.575  26.555  31.574  1.00  0.00     0.124 S 
ATOM     66  O   UNL A   1      52.521  25.240  32.205  1.00  0.00    -0.237 OA
ATOM     67  O   UNL A   1      53.226  26.600  30.267  1.00  0.00    -0.237 OA
ATOM     68  O   UNL A   1      52.908  27.662  32.468  1.00  0.00    -0.744 OA
ENDBRANCH  64  65
ENDBRANCH  38  59
ENDBRANCH  12  13
ENDBRANCH   5   7
ENDBRANCH   2   3
ENDBRANCH   1   2
BRANCH   1  69
ATOM     69  C   UNL A   1      33.992  27.657  24.519  1.00  0.00     0.023 C 
BRANCH  69  70
ATOM     70  C   UNL A   1      34.029  26.296  25.222  1.00  0.00     0.116 C 
BRANCH  70  71
ATOM     71  N   UNL A   1      34.583  25.270  24.354  1.00  0.00    -0.355 N 
ATOM     72  C   UNL A   1      35.174  24.064  24.417  1.00  0.00     0.234 C 
ATOM     73  H   UNL A   1      34.497  25.549  23.414  1.00  0.00     0.163 HD
ATOM     74  O   UNL A   1      35.609  23.703  23.308  1.00  0.00    -0.274 OA
BRANCH  72  75
ATOM     75  C   UNL A   1      35.353  23.104  25.619  1.00  0.00     0.118 C 
ATOM     76  C   UNL A   1      36.543  23.705  26.445  1.00  0.00     0.031 C 
ATOM     77  C   UNL A   1      35.719  21.625  25.435  1.00  0.00     0.201 C 
ATOM     78  C   UNL A   1      34.095  23.221  26.499  1.00  0.00     0.142 C 
ATOM     79  C   UNL A   1      37.869  23.529  25.705  1.00  0.00     0.063 C 
ATOM     80  N   UNL A   1      36.944  21.446  24.632  1.00  0.00    -0.343 N 
ATOM     81  C   UNL A   1      34.547  20.747  24.990  1.00  0.00     0.087 C 
ATOM     82  N   UNL A   1      32.984  22.363  26.097  1.00  0.00    -0.341 N 
ATOM     83  C   UNL A   1      38.104  22.077  25.279  1.00  0.00     0.260 C 
ATOM     84  H   UNL A   1      37.125  20.449  24.522  1.00  0.00     0.346 HD
ATOM     85  H   UNL A   1      36.800  21.889  23.724  1.00  0.00     0.346 HD
ATOM     86  C   UNL A   1      33.293  20.962  25.833  1.00  0.00     0.125 C 
BRANCH  82  87
ATOM     87  C   UNL A   1      31.744  22.714  26.646  1.00  0.00     0.227 C 
ATOM     88  O   UNL A   1      31.604  22.891  27.859  1.00  0.00    -0.275 OA
BRANCH  87  89
ATOM     89  C   UNL A   1      30.563  22.883  25.708  1.00  0.00     0.140 C 
BRANCH  89  90
ATOM     90  C   UNL A   1      30.666  24.067  24.772  1.00  0.00     0.016 A 
ATOM     91  C   UNL A   1      30.204  25.312  25.217  1.00  0.00     0.128 A 
ATOM     92  C   UNL A   1      31.263  24.020  23.500  1.00  0.00     0.047 A 
ATOM     93  F   UNL A   1      29.636  25.417  26.428  1.00  0.00    -0.207 F 
ATOM     94  C   UNL A   1      30.308  26.465  24.438  1.00  0.00     0.039 A 
ATOM     95  C   UNL A   1      31.344  25.168  22.701  1.00  0.00     0.021 A 
ATOM     96  Cl  UNL A   1      31.971  22.585  22.853  1.00  0.00    -0.084 Cl
ATOM     97  C   UNL A   1      30.869  26.391  23.169  1.00  0.00     0.005 A 
ENDBRANCH  89  90
ENDBRANCH  87  89
ENDBRANCH  82  87
ENDBRANCH  72  75
ENDBRANCH  70  71
ENDBRANCH  69  70
ENDBRANCH   1  69
TORSDOF 17
ENDMDL
MODEL 2
REMARK VINA RESULT:     -11.2      2.745      9.013
REMARK SMILES O=C(NCCCCNC(=O)[C@]12CCC[NH2+][C@@H]1CCN(C(=O)Cc1c(F)cccc1Cl)C2)c1ccc(-c2c3nc(c(-c4ccc(S(=O)(=O)[O-])cc4)c4ccc([nH]4)c(-c4ccc(S(=O)(=O)[O-])cc4)c4nc(c(-c5ccc(S(=O)(=O)[O-])cc5)c5ccc2[nH]5)C=C4)C=C3)cc1
REMARK SMILES IDX 5 1 4 2 3 3 1 4 2 5 32 7 33 8 91 9 34 10 90 11 35 12 36 13
REMARK SMILES IDX 37 14 84 15 38 16 89 17 83 18 85 19 39 20 88 21 82 22 81 23
REMARK SMILES IDX 40 25 70 26 51 27 69 28 52 29 55 30 68 31 86 32 53 33 54 34
REMARK SMILES IDX 67 36 87 37 56 38 41 39 42 40 50 41 43 42 49 43 44 44 45 45
REMARK SMILES IDX 46 46 47 47 48 48 71 49 72 50 80 51 73 52 79 53 74 54 75 55
REMARK SMILES IDX 76 56 77 57 78 58 57 59 58 60 66 61 59 62 65 63 60 64 61 65
REMARK SMILES IDX 62 66 63 67 64 68 6 69 7 70 8 71 9 72 10 74 11 75 12 76
REMARK SMILES IDX 16 77 31 78 13 79 15 80 17 81 19 82 14 83 18 86 20 87 21 88
REMARK SMILES IDX 22 89 23 90 24 91 29 92 25 93 26 94 28 95 30 96 27 97
REMARK H PARENT 3 6 85 24 55 35 8 73 15 84 15 85
REMARK Flexibility Score: inf
ROOT
ATOM      1  C   UNL A   1      33.839  29.650  27.436  1.00  0.00     0.023 C 
ENDROOT
BRANCH   1   2
ATOM      2  C   UNL A   1      35.252  29.958  27.906  1.00  0.00     0.116 C 
BRANCH   2   3
ATOM      3  N   UNL A   1      35.347  30.167  29.350  1.00  0.00    -0.352 N 
ATOM      4  O   UNL A   1      36.263  30.003  31.421  1.00  0.00    -0.269 OA
ATOM      5  C   UNL A   1      36.387  29.864  30.208  1.00  0.00     0.251 C 
ATOM      6  H   UNL A   1      34.559  30.579  29.770  1.00  0.00     0.163 HD
BRANCH   5   7
ATOM      7  C   UNL A   1      37.638  29.320  29.640  1.00  0.00     0.039 A 
ATOM      8  C   UNL A   1      38.478  28.570  30.456  1.00  0.00     0.014 A 
ATOM      9  C   UNL A   1      38.034  29.669  28.347  1.00  0.00     0.014 A 
ATOM     10  C   UNL A   1      39.805  28.419  30.091  1.00  0.00     0.010 A 
ATOM     11  C   UNL A   1      39.332  29.366  27.919  1.00  0.00     0.010 A 
ATOM     12  C   UNL A   1      40.250  28.790  28.809  1.00  0.00    -0.014 A 
BRANCH  12  13
ATOM     13  C   UNL A   1      41.662  28.505  28.437  1.00  0.00     0.031 A 
ATOM     14  C   UNL A   1      42.751  29.539  28.578  1.00  0.00     0.074 A 
ATOM     15  C   UNL A   1      41.966  27.252  28.033  1.00  0.00     0.049 A 
ATOM     16  N   UNL A   1      44.022  29.431  28.286  1.00  0.00    -0.248 NA
ATOM     17  C   UNL A   1      42.372  30.863  29.099  1.00  0.00     0.031 C 
ATOM     18  C   UNL A   1      40.994  26.165  27.863  1.00  0.00     0.029 A 
ATOM     19  N   UNL A   1      43.167  26.664  27.738  1.00  0.00    -0.354 N 
ATOM     20  C   UNL A   1      44.586  30.679  28.537  1.00  0.00     0.074 A 
ATOM     21  C   UNL A   1      43.517  31.531  29.012  1.00  0.00     0.031 C 
ATOM     22  C   UNL A   1      41.644  25.027  27.599  1.00  0.00     0.029 A 
ATOM     23  C   UNL A   1      43.061  25.323  27.451  1.00  0.00     0.049 A 
ATOM     24  H   UNL A   1      44.022  27.152  27.731  1.00  0.00     0.167 HD
ATOM     25  C   UNL A   1      45.872  31.074  28.375  1.00  0.00     0.031 A 
ATOM     26  C   UNL A   1      43.989  24.427  27.068  1.00  0.00     0.031 A 
ATOM     27  C   UNL A   1      46.930  30.204  27.922  1.00  0.00     0.049 A 
ATOM     28  C   UNL A   1      45.399  24.895  26.889  1.00  0.00     0.074 A 
ATOM     29  C   UNL A   1      48.269  30.501  27.737  1.00  0.00     0.029 A 
ATOM     30  N   UNL A   1      46.770  28.866  27.593  1.00  0.00    -0.354 N 
ATOM     31  N   UNL A   1      45.900  26.087  27.105  1.00  0.00    -0.248 NA
ATOM     32  C   UNL A   1      46.364  23.907  26.394  1.00  0.00     0.031 C 
ATOM     33  C   UNL A   1      48.910  29.357  27.251  1.00  0.00     0.029 A 
ATOM     34  C   UNL A   1      47.981  28.329  27.188  1.00  0.00     0.049 A 
ATOM     35  H   UNL A   1      45.921  28.370  27.640  1.00  0.00     0.167 HD
ATOM     36  C   UNL A   1      47.242  25.995  26.771  1.00  0.00     0.074 A 
ATOM     37  C   UNL A   1      47.480  24.622  26.369  1.00  0.00     0.031 C 
ATOM     38  C   UNL A   1      48.191  26.962  26.784  1.00  0.00     0.031 A 
BRANCH  25  39
ATOM     39  C   UNL A   1      46.214  32.518  28.642  1.00  0.00    -0.014 A 
ATOM     40  C   UNL A   1      46.091  33.502  27.646  1.00  0.00     0.010 A 
ATOM     41  C   UNL A   1      46.593  32.910  29.942  1.00  0.00     0.010 A 
ATOM     42  C   UNL A   1      46.366  34.844  27.935  1.00  0.00     0.020 A 
ATOM     43  C   UNL A   1      46.846  34.252  30.241  1.00  0.00     0.020 A 
ATOM     44  C   UNL A   1      46.744  35.210  29.231  1.00  0.00     0.054 A 
BRANCH  44  45
ATOM     45  S   UNL A   1      47.064  36.962  29.588  1.00  0.00     0.124 S 
ATOM     46  O   UNL A   1      45.929  37.306  30.438  1.00  0.00    -0.237 OA
ATOM     47  O   UNL A   1      48.362  36.921  30.259  1.00  0.00    -0.237 OA
ATOM     48  O   UNL A   1      47.068  37.590  28.269  1.00  0.00    -0.744 OA
ENDBRANCH  44  45
ENDBRANCH  25  39
BRANCH  26  49
ATOM     49  C   UNL A   1      43.579  23.029  26.770  1.00  0.00    -0.014 A 
ATOM     50  C   UNL A   1      44.155  22.321  25.703  1.00  0.00     0.010 A 
ATOM     51  C   UNL A   1      42.641  22.381  27.597  1.00  0.00     0.010 A 
ATOM     52  C   UNL A   1      43.799  20.989  25.469  1.00  0.00     0.020 A 
ATOM     53  C   UNL A   1      42.310  21.042  27.387  1.00  0.00     0.020 A 
ATOM     54  C   UNL A   1      42.883  20.357  26.315  1.00  0.00     0.054 A 
BRANCH  54  55
ATOM     55  S   UNL A   1      42.484  18.609  26.038  1.00  0.00     0.124 S 
ATOM     56  O   UNL A   1      42.852  18.010  27.316  1.00  0.00    -0.237 OA
ATOM     57  O   UNL A   1      41.053  18.653  25.746  1.00  0.00    -0.237 OA
ATOM     58  O   UNL A   1      43.331  18.243  24.905  1.00  0.00    -0.744 OA
ENDBRANCH  54  55
ENDBRANCH  26  49
BRANCH  38  59
ATOM     59  C   UNL A   1      49.576  26.552  26.373  1.00  0.00    -0.014 A 
ATOM     60  C   UNL A   1      50.409  25.834  27.250  1.00  0.00     0.010 A 
ATOM     61  C   UNL A   1      50.041  26.875  25.086  1.00  0.00     0.010 A 
ATOM     62  C   UNL A   1      51.700  25.478  26.857  1.00  0.00     0.020 A 
ATOM     63  C   UNL A   1      51.323  26.498  24.682  1.00  0.00     0.020 A 
ATOM     64  C   UNL A   1      52.150  25.815  25.576  1.00  0.00     0.054 A 
BRANCH  64  65
ATOM     65  S   UNL A   1      53.820  25.317  25.078  1.00  0.00     0.124 S 
ATOM     66  O   UNL A   1      53.830  25.664  23.661  1.00  0.00    -0.237 OA
ATOM     67  O   UNL A   1      54.671  26.141  25.934  1.00  0.00    -0.237 OA
ATOM     68  O   UNL A   1      53.854  23.885  25.370  1.00  0.00    -0.744 OA
ENDBRANCH  64  65
ENDBRANCH  38  59
ENDBRANCH  12  13
ENDBRANCH   5   7
ENDBRANCH   2   3
ENDBRANCH   1   2
BRANCH   1  69
ATOM     69  C   UNL A   1      33.778  29.044  26.039  1.00  0.00     0.023 C 
BRANCH  69  70
ATOM     70  C   UNL A   1      34.257  27.589  26.008  1.00  0.00     0.116 C 
BRANCH  70  71
ATOM     71  N   UNL A   1      33.168  26.671  26.301  1.00  0.00    -0.355 N 
ATOM     72  C   UNL A   1      32.216  25.954  25.677  1.00  0.00     0.234 C 
ATOM     73  H   UNL A   1      33.108  26.527  27.273  1.00  0.00     0.163 HD
ATOM     74  O   UNL A   1      31.414  25.448  26.483  1.00  0.00    -0.274 OA
BRANCH  72  75
ATOM     75  C   UNL A   1      32.012  25.670  24.168  1.00  0.00     0.118 C 
ATOM     76  C   UNL A   1      31.920  27.085  23.498  1.00  0.00     0.031 C 
ATOM     77  C   UNL A   1      30.789  24.911  23.639  1.00  0.00     0.201 C 
ATOM     78  C   UNL A   1      33.300  25.010  23.641  1.00  0.00     0.142 C 
ATOM     79  C   UNL A   1      30.609  27.781  23.864  1.00  0.00     0.063 C 
ATOM     80  N   UNL A   1      29.518  25.520  24.077  1.00  0.00    -0.343 N 
ATOM     81  C   UNL A   1      30.860  23.397  23.850  1.00  0.00     0.087 C 
ATOM     82  N   UNL A   1      33.360  23.561  23.812  1.00  0.00    -0.341 N 
ATOM     83  C   UNL A   1      29.389  26.899  23.583  1.00  0.00     0.260 C 
ATOM     84  H   UNL A   1      28.742  24.964  23.718  1.00  0.00     0.346 HD
ATOM     85  H   UNL A   1      29.506  25.540  25.097  1.00  0.00     0.346 HD
ATOM     86  C   UNL A   1      32.188  22.798  23.396  1.00  0.00     0.125 C 
BRANCH  82  87
ATOM     87  C   UNL A   1      34.639  23.007  23.676  1.00  0.00     0.227 C 
ATOM     88  O   UNL A   1      35.360  23.280  22.712  1.00  0.00    -0.275 OA
BRANCH  87  89
ATOM     89  C   UNL A   1      35.133  22.062  24.756  1.00  0.00     0.140 C 
BRANCH  89  90
ATOM     90  C   UNL A   1      36.521  22.366  25.275  1.00  0.00     0.016 A 
ATOM     91  C   UNL A   1      36.764  23.629  25.830  1.00  0.00     0.128 A 
ATOM     92  C   UNL A   1      37.576  21.438  25.304  1.00  0.00     0.047 A 
ATOM     93  F   UNL A   1      35.789  24.550  25.839  1.00  0.00    -0.207 F 
ATOM     94  C   UNL A   1      38.000  23.974  26.377  1.00  0.00     0.039 A 
ATOM     95  C   UNL A   1      38.829  21.788  25.825  1.00  0.00     0.021 A 
ATOM     96  Cl  UNL A   1      37.403  19.810  24.753  1.00  0.00    -0.084 Cl
ATOM     97  C   UNL A   1      39.042  23.054  26.363  1.00  0.00     0.005 A 
ENDBRANCH  89  90
ENDBRANCH  87  89
ENDBRANCH  82  87
ENDBRANCH  72  75
ENDBRANCH  70  71
ENDBRANCH  69  70
ENDBRANCH   1  69
TORSDOF 17
ENDMDL
MODEL 3
REMARK VINA RESULT:     -11.0      1.205      2.872
REMARK SMILES O=C(NCCCCNC(=O)[C@]12CCC[NH2+][C@@H]1CCN(C(=O)Cc1c(F)cccc1Cl)C2)c1ccc(-c2c3nc(c(-c4ccc(S(=O)(=O)[O-])cc4)c4ccc([nH]4)c(-c4ccc(S(=O)(=O)[O-])cc4)c4nc(c(-c5ccc(S(=O)(=O)[O-])cc5)c5ccc2[nH]5)C=C4)C=C3)cc1
REMARK SMILES IDX 5 1 4 2 3 3 1 4 2 5 32 7 33 8 91 9 34 10 90 11 35 12 36 13
REMARK SMILES IDX 37 14 84 15 38 16 89 17 83 18 85 19 39 20 88 21 82 22 81 23
REMARK SMILES IDX 40 25 70 26 51 27 69 28 52 29 55 30 68 31 86 32 53 33 54 34
REMARK SMILES IDX 67 36 87 37 56 38 41 39 42 40 50 41 43 42 49 43 44 44 45 45
REMARK SMILES IDX 46 46 47 47 48 48 71 49 72 50 80 51 73 52 79 53 74 54 75 55
REMARK SMILES IDX 76 56 77 57 78 58 57 59 58 60 66 61 59 62 65 63 60 64 61 65
REMARK SMILES IDX 62 66 63 67 64 68 6 69 7 70 8 71 9 72 10 74 11 75 12 76
REMARK SMILES IDX 16 77 31 78 13 79 15 80 17 81 19 82 14 83 18 86 20 87 21 88
REMARK SMILES IDX 22 89 23 90 24 91 29 92 25 93 26 94 28 95 30 96 27 97
REMARK H PARENT 3 6 85 24 55 35 8 73 15 84 15 85
REMARK Flexibility Score: inf
ROOT
ATOM      1  C   UNL A   1      32.723  28.457  26.023  1.00  0.00     0.023 C 
ENDROOT
BRANCH   1   2
ATOM      2  C   UNL A   1      33.492  28.630  27.323  1.00  0.00     0.116 C 
BRANCH   2   3
ATOM      3  N   UNL A   1      33.530  30.015  27.789  1.00  0.00    -0.352 N 
ATOM      4  O   UNL A   1      34.418  31.852  28.784  1.00  0.00    -0.269 OA
ATOM      5  C   UNL A   1      34.583  30.721  28.339  1.00  0.00     0.251 C 
ATOM      6  H   UNL A   1      32.688  30.515  27.700  1.00  0.00     0.163 HD
BRANCH   5   7
ATOM      7  C   UNL A   1      35.905  30.066  28.428  1.00  0.00     0.039 A 
ATOM      8  C   UNL A   1      36.302  29.511  29.640  1.00  0.00     0.014 A 
ATOM      9  C   UNL A   1      36.794  30.127  27.352  1.00  0.00     0.014 A 
ATOM     10  C   UNL A   1      37.649  29.283  29.863  1.00  0.00     0.010 A 
ATOM     11  C   UNL A   1      38.126  29.738  27.538  1.00  0.00     0.010 A 
ATOM     12  C   UNL A   1      38.580  29.368  28.812  1.00  0.00    -0.014 A 
BRANCH  12  13
ATOM     13  C   UNL A   1      39.998  29.008  29.089  1.00  0.00     0.031 A 
ATOM     14  C   UNL A   1      40.590  27.693  28.646  1.00  0.00     0.074 A 
ATOM     15  C   UNL A   1      40.776  29.932  29.692  1.00  0.00     0.049 A 
ATOM     16  N   UNL A   1      41.807  27.244  28.825  1.00  0.00    -0.248 NA
ATOM     17  C   UNL A   1      39.713  26.758  27.923  1.00  0.00     0.031 C 
ATOM     18  C   UNL A   1      40.312  31.244  30.161  1.00  0.00     0.029 A 
ATOM     19  N   UNL A   1      42.116  29.941  29.972  1.00  0.00    -0.354 N 
ATOM     20  C   UNL A   1      41.830  25.961  28.286  1.00  0.00     0.074 A 
ATOM     21  C   UNL A   1      40.504  25.702  27.767  1.00  0.00     0.031 C 
ATOM     22  C   UNL A   1      41.362  31.964  30.571  1.00  0.00     0.029 A 
ATOM     23  C   UNL A   1      42.550  31.127  30.518  1.00  0.00     0.049 A 
ATOM     24  H   UNL A   1      42.711  29.176  29.801  1.00  0.00     0.167 HD
ATOM     25  C   UNL A   1      42.861  25.082  28.241  1.00  0.00     0.031 A 
ATOM     26  C   UNL A   1      43.762  31.498  30.970  1.00  0.00     0.031 A 
ATOM     27  C   UNL A   1      44.182  25.365  28.744  1.00  0.00     0.049 A 
ATOM     28  C   UNL A   1      44.878  30.502  30.916  1.00  0.00     0.074 A 
ATOM     29  C   UNL A   1      45.301  24.549  28.735  1.00  0.00     0.029 A 
ATOM     30  N   UNL A   1      44.567  26.559  29.335  1.00  0.00    -0.354 N 
ATOM     31  N   UNL A   1      44.866  29.285  30.428  1.00  0.00    -0.248 NA
ATOM     32  C   UNL A   1      46.162  30.919  31.491  1.00  0.00     0.031 C 
ATOM     33  C   UNL A   1      46.347  25.231  29.363  1.00  0.00     0.029 A 
ATOM     34  C   UNL A   1      45.898  26.494  29.713  1.00  0.00     0.049 A 
ATOM     35  H   UNL A   1      43.980  27.338  29.469  1.00  0.00     0.167 HD
ATOM     36  C   UNL A   1      46.143  28.786  30.638  1.00  0.00     0.074 A 
ATOM     37  C   UNL A   1      46.908  29.845  31.268  1.00  0.00     0.031 C 
ATOM     38  C   UNL A   1      46.635  27.558  30.347  1.00  0.00     0.031 A 
BRANCH  25  39
ATOM     39  C   UNL A   1      42.603  23.709  27.671  1.00  0.00    -0.014 A 
ATOM     40  C   UNL A   1      42.924  23.391  26.339  1.00  0.00     0.010 A 
ATOM     41  C   UNL A   1      42.102  22.695  28.510  1.00  0.00     0.010 A 
ATOM     42  C   UNL A   1      42.722  22.094  25.851  1.00  0.00     0.020 A 
ATOM     43  C   UNL A   1      41.920  21.393  28.034  1.00  0.00     0.020 A 
ATOM     44  C   UNL A   1      42.219  21.104  26.701  1.00  0.00     0.054 A 
BRANCH  44  45
ATOM     45  S   UNL A   1      41.997  19.423  26.051  1.00  0.00     0.124 S 
ATOM     46  O   UNL A   1      42.519  18.608  27.145  1.00  0.00    -0.237 OA
ATOM     47  O   UNL A   1      40.552  19.347  25.846  1.00  0.00    -0.237 OA
ATOM     48  O   UNL A   1      42.798  19.414  24.829  1.00  0.00    -0.744 OA
ENDBRANCH  44  45
ENDBRANCH  25  39
BRANCH  26  49
ATOM     49  C   UNL A   1      43.940  32.848  31.568  1.00  0.00    -0.014 A 
ATOM     50  C   UNL A   1      43.757  33.057  32.944  1.00  0.00     0.010 A 
ATOM     51  C   UNL A   1      44.350  33.925  30.759  1.00  0.00     0.010 A 
ATOM     52  C   UNL A   1      43.980  34.321  33.500  1.00  0.00     0.020 A 
ATOM     53  C   UNL A   1      44.608  35.178  31.316  1.00  0.00     0.020 A 
ATOM     54  C   UNL A   1      44.409  35.371  32.683  1.00  0.00     0.054 A 
BRANCH  54  55
ATOM     55  S   UNL A   1      44.760  36.986  33.432  1.00  0.00     0.124 S 
ATOM     56  O   UNL A   1      44.016  37.890  32.561  1.00  0.00    -0.237 OA
ATOM     57  O   UNL A   1      44.230  36.831  34.785  1.00  0.00    -0.237 OA
ATOM     58  O   UNL A   1      46.215  37.089  33.350  1.00  0.00    -0.744 OA
ENDBRANCH  54  55
ENDBRANCH  26  49
BRANCH  38  59
ATOM     59  C   UNL A   1      48.077  27.312  30.688  1.00  0.00    -0.014 A 
ATOM     60  C   UNL A   1      49.098  27.598  29.765  1.00  0.00     0.010 A 
ATOM     61  C   UNL A   1      48.412  26.805  31.956  1.00  0.00     0.010 A 
ATOM     62  C   UNL A   1      50.431  27.346  30.093  1.00  0.00     0.020 A 
ATOM     63  C   UNL A   1      49.746  26.576  32.295  1.00  0.00     0.020 A 
ATOM     64  C   UNL A   1      50.747  26.833  31.356  1.00  0.00     0.054 A 
BRANCH  64  65
ATOM     65  S   UNL A   1      52.487  26.540  31.770  1.00  0.00     0.124 S 
ATOM     66  O   UNL A   1      53.172  27.089  30.603  1.00  0.00    -0.237 OA
ATOM     67  O   UNL A   1      52.654  27.292  33.010  1.00  0.00    -0.237 OA
ATOM     68  O   UNL A   1      52.567  25.088  31.913  1.00  0.00    -0.744 OA
ENDBRANCH  64  65
ENDBRANCH  38  59
ENDBRANCH  12  13
ENDBRANCH   5   7
ENDBRANCH   2   3
ENDBRANCH   1   2
BRANCH   1  69
ATOM     69  C   UNL A   1      33.471  27.641  24.975  1.00  0.00     0.023 C 
BRANCH  69  70
ATOM     70  C   UNL A   1      33.742  26.204  25.432  1.00  0.00     0.116 C 
BRANCH  70  71
ATOM     71  N   UNL A   1      34.401  25.436  24.388  1.00  0.00    -0.355 N 
ATOM     72  C   UNL A   1      34.138  24.484  23.474  1.00  0.00     0.234 C 
ATOM     73  H   UNL A   1      35.348  25.698  24.331  1.00  0.00     0.163 HD
ATOM     74  O   UNL A   1      35.176  24.066  22.929  1.00  0.00    -0.274 OA
BRANCH  72  75
ATOM     75  C   UNL A   1      32.783  23.889  23.018  1.00  0.00     0.118 C 
ATOM     76  C   UNL A   1      32.850  23.882  21.451  1.00  0.00     0.031 C 
ATOM     77  C   UNL A   1      31.444  24.564  23.345  1.00  0.00     0.201 C 
ATOM     78  C   UNL A   1      32.745  22.417  23.471  1.00  0.00     0.142 C 
ATOM     79  C   UNL A   1      32.770  25.302  20.892  1.00  0.00     0.063 C 
ATOM     80  N   UNL A   1      31.402  25.970  22.899  1.00  0.00    -0.343 N 
ATOM     81  C   UNL A   1      30.980  24.353  24.788  1.00  0.00     0.087 C 
ATOM     82  N   UNL A   1      32.274  22.208  24.836  1.00  0.00    -0.341 N 
ATOM     83  C   UNL A   1      31.566  26.073  21.441  1.00  0.00     0.260 C 
ATOM     84  H   UNL A   1      30.503  26.374  23.162  1.00  0.00     0.346 HD
ATOM     85  H   UNL A   1      32.168  26.473  23.346  1.00  0.00     0.346 HD
ATOM     86  C   UNL A   1      31.045  22.892  25.222  1.00  0.00     0.125 C 
BRANCH  82  87
ATOM     87  C   UNL A   1      32.571  20.948  25.372  1.00  0.00     0.227 C 
ATOM     88  O   UNL A   1      31.958  19.937  25.020  1.00  0.00    -0.275 OA
BRANCH  87  89
ATOM     89  C   UNL A   1      33.684  20.848  26.400  1.00  0.00     0.140 C 
BRANCH  89  90
ATOM     90  C   UNL A   1      35.023  21.372  25.933  1.00  0.00     0.016 A 
ATOM     91  C   UNL A   1      35.418  22.653  26.338  1.00  0.00     0.128 A 
ATOM     92  C   UNL A   1      35.941  20.628  25.170  1.00  0.00     0.047 A 
ATOM     93  F   UNL A   1      34.586  23.402  27.077  1.00  0.00    -0.207 F 
ATOM     94  C   UNL A   1      36.658  23.191  25.995  1.00  0.00     0.039 A 
ATOM     95  C   UNL A   1      37.176  21.174  24.797  1.00  0.00     0.021 A 
ATOM     96  Cl  UNL A   1      35.645  18.998  24.682  1.00  0.00    -0.084 Cl
ATOM     97  C   UNL A   1      37.537  22.454  25.209  1.00  0.00     0.005 A 
ENDBRANCH  89  90
ENDBRANCH  87  89
ENDBRANCH  82  87
ENDBRANCH  72  75
ENDBRANCH  70  71
ENDBRANCH  69  70
ENDBRANCH   1  69
TORSDOF 17
ENDMDL
