MODEL 1
REMARK VINA RESULT:     -12.3      0.000      0.000
REMARK SMILES CN1C(=O)c2ccc(NC(=O)C[C@@](C)(C(=O)NCCCCNC(=O)c3ccc(-c4c5nc(c(-c6ccc(S(=O)(=O)[O-])cc6)c6ccc([nH]6)c(-c6ccc(S(=O)(=O)[O-])cc6)c6nc(c(-c7ccc(S(=O)(=O)[O-])cc7)c7ccc4[nH]7)C=C6)C=C5)cc3)c3ccccc3)cc2C1=O
REMARK SMILES IDX 19 1 18 2 17 3 15 4 16 5 13 7 14 8 12 9 10 10 9 11 11 13
REMARK SMILES IDX 8 14 1 15 2 16 3 17 93 18 4 19 5 20 92 21 94 22 6 23 91 24
REMARK SMILES IDX 7 25 85 26 86 27 90 28 87 29 89 30 88 31 20 32 21 33 22 34
REMARK SMILES IDX 23 35 24 37 25 38 26 39 84 40 27 41 83 42 28 43 29 44 30 45
REMARK SMILES IDX 77 46 31 47 82 48 76 49 78 50 32 51 81 52 75 53 74 54 33 56
REMARK SMILES IDX 63 57 44 58 62 59 45 60 48 61 61 62 79 63 46 64 47 65 60 67
REMARK SMILES IDX 80 68 49 69 34 70 35 71 43 72 36 73 42 74 37 75 38 76 39 77
REMARK SMILES IDX 40 78 41 79 64 80 65 81 73 82 66 83 72 84 67 85 68 86 69 87
REMARK SMILES IDX 70 88 71 89 50 90 51 91 59 92 52 93 58 94 53 95 54 96 55 97
REMARK SMILES IDX 56 98 57 99
REMARK H PARENT 17 6 9 12 22 36 78 55 48 66
REMARK Flexibility Score: inf
ROOT
ATOM      1  C   UNL A   1      31.181  27.225  26.609  1.00  0.00     0.023 C 
ENDROOT
BRANCH   1   2
ATOM      2  C   UNL A   1      32.207  26.376  25.861  1.00  0.00     0.116 C 
BRANCH   2   3
ATOM      3  N   UNL A   1      32.522  25.100  26.487  1.00  0.00    -0.355 N 
ATOM      4  C   UNL A   1      33.294  24.014  26.183  1.00  0.00     0.230 C 
ATOM      5  O   UNL A   1      33.514  23.304  27.177  1.00  0.00    -0.274 OA
ATOM      6  H   UNL A   1      32.061  24.991  27.350  1.00  0.00     0.163 HD
BRANCH   4   7
ATOM      7  C   UNL A   1      33.991  23.687  24.794  1.00  0.00     0.080 C 
ATOM      8  C   UNL A   1      34.748  24.999  24.484  1.00  0.00     0.027 C 
BRANCH   7   9
ATOM      9  C   UNL A   1      32.976  23.198  23.729  1.00  0.00     0.121 C 
BRANCH   9  10
ATOM     10  C   UNL A   1      32.956  23.759  22.316  1.00  0.00     0.225 C 
ATOM     11  N   UNL A   1      32.155  24.781  21.888  1.00  0.00    -0.326 N 
ATOM     12  H   UNL A   1      32.206  24.905  20.912  1.00  0.00     0.169 HD
ATOM     13  O   UNL A   1      33.660  23.235  21.443  1.00  0.00    -0.275 OA
BRANCH  11  14
ATOM     14  C   UNL A   1      31.276  25.702  22.490  1.00  0.00     0.042 A 
ATOM     15  C   UNL A   1      27.694  30.500  22.357  1.00  0.00     0.157 C 
ATOM     16  N   UNL A   1      28.490  29.334  22.654  1.00  0.00    -0.277 N 
ATOM     17  C   UNL A   1      28.033  28.245  23.349  1.00  0.00     0.261 C 
ATOM     18  C   UNL A   1      29.754  29.140  22.187  1.00  0.00     0.261 C 
ATOM     19  O   UNL A   1      26.956  28.055  23.868  1.00  0.00    -0.269 OA
ATOM     20  C   UNL A   1      29.107  27.246  23.302  1.00  0.00     0.053 A 
ATOM     21  C   UNL A   1      30.154  27.798  22.603  1.00  0.00     0.055 A 
ATOM     22  O   UNL A   1      30.446  29.864  21.494  1.00  0.00    -0.269 OA
ATOM     23  C   UNL A   1      29.148  25.933  23.716  1.00  0.00     0.017 A 
ATOM     24  C   UNL A   1      31.272  27.066  22.243  1.00  0.00     0.040 A 
ATOM     25  C   UNL A   1      30.248  25.160  23.300  1.00  0.00     0.027 A 
ENDBRANCH  11  14
ENDBRANCH   9  10
ENDBRANCH   7   9
BRANCH   7  26
ATOM     26  C   UNL A   1      35.097  22.579  24.906  1.00  0.00    -0.032 A 
ATOM     27  C   UNL A   1      36.468  22.876  24.969  1.00  0.00     0.005 A 
ATOM     28  C   UNL A   1      34.740  21.212  24.930  1.00  0.00     0.005 A 
ATOM     29  C   UNL A   1      37.435  21.863  24.960  1.00  0.00     0.000 A 
ATOM     30  C   UNL A   1      35.705  20.200  24.944  1.00  0.00     0.000 A 
ATOM     31  C   UNL A   1      37.054  20.527  24.940  1.00  0.00     0.000 A 
ENDBRANCH   7  26
ENDBRANCH   4   7
ENDBRANCH   2   3
ENDBRANCH   1   2
BRANCH   1  32
ATOM     32  C   UNL A   1      31.728  28.178  27.665  1.00  0.00     0.023 C 
BRANCH  32  33
ATOM     33  C   UNL A   1      33.122  28.744  27.410  1.00  0.00     0.116 C 
BRANCH  33  34
ATOM     34  N   UNL A   1      33.236  30.179  27.654  1.00  0.00    -0.352 N 
ATOM     35  C   UNL A   1      34.316  30.926  28.064  1.00  0.00     0.251 C 
ATOM     36  H   UNL A   1      32.410  30.693  27.501  1.00  0.00     0.163 HD
ATOM     37  O   UNL A   1      34.186  32.129  28.275  1.00  0.00    -0.269 OA
BRANCH  35  38
ATOM     38  C   UNL A   1      35.623  30.273  28.290  1.00  0.00     0.039 A 
ATOM     39  C   UNL A   1      36.551  30.228  27.247  1.00  0.00     0.014 A 
ATOM     40  C   UNL A   1      35.951  29.749  29.542  1.00  0.00     0.014 A 
ATOM     41  C   UNL A   1      37.846  29.759  27.491  1.00  0.00     0.010 A 
ATOM     42  C   UNL A   1      37.263  29.363  29.805  1.00  0.00     0.010 A 
ATOM     43  C   UNL A   1      38.229  29.378  28.788  1.00  0.00    -0.014 A 
BRANCH  43  44
ATOM     44  C   UNL A   1      39.637  29.024  29.111  1.00  0.00     0.031 A 
ATOM     45  C   UNL A   1      40.549  30.040  29.745  1.00  0.00     0.074 A 
ATOM     46  C   UNL A   1      40.121  27.816  28.758  1.00  0.00     0.049 A 
ATOM     47  N   UNL A   1      41.823  29.942  30.025  1.00  0.00    -0.248 NA
ATOM     48  C   UNL A   1      39.957  31.343  30.083  1.00  0.00     0.031 C 
ATOM     49  C   UNL A   1      39.356  26.753  28.100  1.00  0.00     0.029 A 
ATOM     50  N   UNL A   1      41.376  27.277  28.902  1.00  0.00    -0.354 N 
ATOM     51  C   UNL A   1      42.189  31.174  30.555  1.00  0.00     0.074 A 
ATOM     52  C   UNL A   1      41.015  32.019  30.507  1.00  0.00     0.031 C 
ATOM     53  C   UNL A   1      40.148  25.682  27.928  1.00  0.00     0.029 A 
ATOM     54  C   UNL A   1      41.486  25.993  28.421  1.00  0.00     0.049 A 
ATOM     55  H   UNL A   1      42.128  27.765  29.309  1.00  0.00     0.167 HD
ATOM     56  C   UNL A   1      43.386  31.564  31.057  1.00  0.00     0.031 A 
ATOM     57  C   UNL A   1      42.543  25.157  28.379  1.00  0.00     0.031 A 
ATOM     58  C   UNL A   1      44.552  30.724  31.113  1.00  0.00     0.049 A 
ATOM     59  C   UNL A   1      43.865  25.617  28.928  1.00  0.00     0.074 A 
ATOM     60  C   UNL A   1      45.796  31.012  31.646  1.00  0.00     0.029 A 
ATOM     61  N   UNL A   1      44.618  29.429  30.620  1.00  0.00    -0.354 N 
ATOM     62  N   UNL A   1      44.176  26.768  29.474  1.00  0.00    -0.248 NA
ATOM     63  C   UNL A   1      44.979  24.660  28.860  1.00  0.00     0.031 C 
ATOM     64  C   UNL A   1      46.628  29.905  31.437  1.00  0.00     0.029 A 
ATOM     65  C   UNL A   1      45.886  28.911  30.821  1.00  0.00     0.049 A 
ATOM     66  H   UNL A   1      43.873  28.949  30.192  1.00  0.00     0.167 HD
ATOM     67  C   UNL A   1      45.513  26.663  29.841  1.00  0.00     0.074 A 
ATOM     68  C   UNL A   1      45.947  25.334  29.465  1.00  0.00     0.031 C 
ATOM     69  C   UNL A   1      46.306  27.585  30.441  1.00  0.00     0.031 A 
BRANCH  56  70
ATOM     70  C   UNL A   1      43.485  32.972  31.583  1.00  0.00    -0.014 A 
ATOM     71  C   UNL A   1      44.064  33.995  30.809  1.00  0.00     0.010 A 
ATOM     72  C   UNL A   1      42.985  33.281  32.861  1.00  0.00     0.010 A 
ATOM     73  C   UNL A   1      44.194  35.286  31.325  1.00  0.00     0.020 A 
ATOM     74  C   UNL A   1      43.085  34.580  33.368  1.00  0.00     0.020 A 
ATOM     75  C   UNL A   1      43.710  35.569  32.605  1.00  0.00     0.054 A 
BRANCH  75  76
ATOM     76  S   UNL A   1      43.894  37.253  33.251  1.00  0.00     0.124 S 
ATOM     77  O   UNL A   1      45.249  37.221  33.793  1.00  0.00    -0.237 OA
ATOM     78  O   UNL A   1      43.714  38.078  32.059  1.00  0.00    -0.237 OA
ATOM     79  O   UNL A   1      42.829  37.362  34.246  1.00  0.00    -0.744 OA
ENDBRANCH  75  76
ENDBRANCH  56  70
BRANCH  57  80
ATOM     80  C   UNL A   1      42.385  23.785  27.824  1.00  0.00    -0.014 A 
ATOM     81  C   UNL A   1      42.636  23.540  26.462  1.00  0.00     0.010 A 
ATOM     82  C   UNL A   1      41.997  22.715  28.651  1.00  0.00     0.010 A 
ATOM     83  C   UNL A   1      42.488  22.254  25.934  1.00  0.00     0.020 A 
ATOM     84  C   UNL A   1      41.873  21.423  28.132  1.00  0.00     0.020 A 
ATOM     85  C   UNL A   1      42.109  21.203  26.773  1.00  0.00     0.054 A 
BRANCH  85  86
ATOM     86  S   UNL A   1      41.979  19.533  26.077  1.00  0.00     0.124 S 
ATOM     87  O   UNL A   1      40.546  19.421  25.821  1.00  0.00    -0.237 OA
ATOM     88  O   UNL A   1      42.830  19.616  24.892  1.00  0.00    -0.237 OA
ATOM     89  O   UNL A   1      42.494  18.677  27.144  1.00  0.00    -0.744 OA
ENDBRANCH  85  86
ENDBRANCH  57  80
BRANCH  69  90
ATOM     90  C   UNL A   1      47.719  27.178  30.762  1.00  0.00    -0.014 A 
ATOM     91  C   UNL A   1      48.014  26.398  31.893  1.00  0.00     0.010 A 
ATOM     92  C   UNL A   1      48.759  27.541  29.887  1.00  0.00     0.010 A 
ATOM     93  C   UNL A   1      49.331  26.011  32.159  1.00  0.00     0.020 A 
ATOM     94  C   UNL A   1      50.073  27.134  30.136  1.00  0.00     0.020 A 
ATOM     95  C   UNL A   1      50.352  26.382  31.278  1.00  0.00     0.054 A 
BRANCH  95  96
ATOM     96  S   UNL A   1      52.045  25.829  31.619  1.00  0.00     0.124 S 
ATOM     97  O   UNL A   1      52.651  25.869  30.291  1.00  0.00    -0.237 OA
ATOM     98  O   UNL A   1      52.529  26.835  32.562  1.00  0.00    -0.237 OA
ATOM     99  O   UNL A   1      51.867  24.493  32.183  1.00  0.00    -0.744 OA
ENDBRANCH  95  96
ENDBRANCH  69  90
ENDBRANCH  43  44
ENDBRANCH  35  38
ENDBRANCH  33  34
ENDBRANCH  32  33
ENDBRANCH   1  32
TORSDOF 18
ENDMDL
MODEL 2
REMARK VINA RESULT:     -12.3      4.451      9.171
REMARK SMILES CN1C(=O)c2ccc(NC(=O)C[C@@](C)(C(=O)NCCCCNC(=O)c3ccc(-c4c5nc(c(-c6ccc(S(=O)(=O)[O-])cc6)c6ccc([nH]6)c(-c6ccc(S(=O)(=O)[O-])cc6)c6nc(c(-c7ccc(S(=O)(=O)[O-])cc7)c7ccc4[nH]7)C=C6)C=C5)cc3)c3ccccc3)cc2C1=O
REMARK SMILES IDX 19 1 18 2 17 3 15 4 16 5 13 7 14 8 12 9 10 10 9 11 11 13
REMARK SMILES IDX 8 14 1 15 2 16 3 17 93 18 4 19 5 20 92 21 94 22 6 23 91 24
REMARK SMILES IDX 7 25 85 26 86 27 90 28 87 29 89 30 88 31 20 32 21 33 22 34
REMARK SMILES IDX 23 35 24 37 25 38 26 39 84 40 27 41 83 42 28 43 29 44 30 45
REMARK SMILES IDX 77 46 31 47 82 48 76 49 78 50 32 51 81 52 75 53 74 54 33 56
REMARK SMILES IDX 63 57 44 58 62 59 45 60 48 61 61 62 79 63 46 64 47 65 60 67
REMARK SMILES IDX 80 68 49 69 34 70 35 71 43 72 36 73 42 74 37 75 38 76 39 77
REMARK SMILES IDX 40 78 41 79 64 80 65 81 73 82 66 83 72 84 67 85 68 86 69 87
REMARK SMILES IDX 70 88 71 89 50 90 51 91 59 92 52 93 58 94 53 95 54 96 55 97
REMARK SMILES IDX 56 98 57 99
REMARK H PARENT 17 6 9 12 22 36 78 55 48 66
REMARK Flexibility Score: inf
ROOT
ATOM      1  C   UNL A   1      37.824  22.741  25.478  1.00  0.00     0.023 C 
ENDROOT
BRANCH   1   2
ATOM      2  C   UNL A   1      36.667  23.539  26.076  1.00  0.00     0.116 C 
BRANCH   2   3
ATOM      3  N   UNL A   1      35.755  22.769  26.908  1.00  0.00    -0.355 N 
ATOM      4  C   UNL A   1      34.452  22.364  26.833  1.00  0.00     0.230 C 
ATOM      5  O   UNL A   1      34.204  21.441  27.625  1.00  0.00    -0.274 OA
ATOM      6  H   UNL A   1      36.187  22.460  27.737  1.00  0.00     0.163 HD
BRANCH   4   7
ATOM      7  C   UNL A   1      33.351  22.852  25.799  1.00  0.00     0.080 C 
ATOM      8  C   UNL A   1      32.067  22.178  26.336  1.00  0.00     0.027 C 
BRANCH   7   9
ATOM      9  C   UNL A   1      33.742  22.539  24.332  1.00  0.00     0.121 C 
BRANCH   9  10
ATOM     10  C   UNL A   1      32.712  22.129  23.292  1.00  0.00     0.225 C 
ATOM     11  N   UNL A   1      31.943  22.992  22.563  1.00  0.00    -0.326 N 
ATOM     12  H   UNL A   1      31.255  22.522  22.040  1.00  0.00     0.169 HD
ATOM     13  O   UNL A   1      32.481  20.927  23.106  1.00  0.00    -0.275 OA
BRANCH  11  14
ATOM     14  C   UNL A   1      31.888  24.387  22.372  1.00  0.00     0.042 A 
ATOM     15  C   UNL A   1      30.396  29.932  24.074  1.00  0.00     0.157 C 
ATOM     16  N   UNL A   1      30.852  28.719  23.440  1.00  0.00    -0.277 N 
ATOM     17  C   UNL A   1      32.094  28.560  22.881  1.00  0.00     0.261 C 
ATOM     18  C   UNL A   1      30.137  27.561  23.416  1.00  0.00     0.261 C 
ATOM     19  O   UNL A   1      32.997  29.358  22.764  1.00  0.00    -0.269 OA
ATOM     20  C   UNL A   1      32.188  27.152  22.480  1.00  0.00     0.053 A 
ATOM     21  C   UNL A   1      30.994  26.551  22.799  1.00  0.00     0.055 A 
ATOM     22  O   UNL A   1      29.031  27.322  23.866  1.00  0.00    -0.269 OA
ATOM     23  C   UNL A   1      33.244  26.412  21.993  1.00  0.00     0.017 A 
ATOM     24  C   UNL A   1      30.801  25.185  22.693  1.00  0.00     0.040 A 
ATOM     25  C   UNL A   1      33.083  25.016  21.943  1.00  0.00     0.027 A 
ENDBRANCH  11  14
ENDBRANCH   9  10
ENDBRANCH   7   9
BRANCH   7  26
ATOM     26  C   UNL A   1      33.078  24.396  25.874  1.00  0.00    -0.032 A 
ATOM     27  C   UNL A   1      34.036  25.357  25.510  1.00  0.00     0.005 A 
ATOM     28  C   UNL A   1      31.835  24.881  26.341  1.00  0.00     0.005 A 
ATOM     29  C   UNL A   1      33.801  26.725  25.690  1.00  0.00     0.000 A 
ATOM     30  C   UNL A   1      31.592  26.249  26.499  1.00  0.00     0.000 A 
ATOM     31  C   UNL A   1      32.583  27.171  26.192  1.00  0.00     0.000 A 
ENDBRANCH   7  26
ENDBRANCH   4   7
ENDBRANCH   2   3
ENDBRANCH   1   2
BRANCH   1  32
ATOM     32  C   UNL A   1      38.912  22.292  26.445  1.00  0.00     0.023 C 
BRANCH  32  33
ATOM     33  C   UNL A   1      39.787  23.393  27.039  1.00  0.00     0.116 C 
BRANCH  33  34
ATOM     34  N   UNL A   1      40.359  24.299  26.048  1.00  0.00    -0.352 N 
ATOM     35  C   UNL A   1      40.826  25.586  26.187  1.00  0.00     0.251 C 
ATOM     36  H   UNL A   1      40.421  23.931  25.137  1.00  0.00     0.163 HD
ATOM     37  O   UNL A   1      41.215  26.208  25.202  1.00  0.00    -0.269 OA
BRANCH  35  38
ATOM     38  C   UNL A   1      40.821  26.234  27.516  1.00  0.00     0.039 A 
ATOM     39  C   UNL A   1      41.942  26.962  27.922  1.00  0.00     0.014 A 
ATOM     40  C   UNL A   1      39.695  26.163  28.338  1.00  0.00     0.014 A 
ATOM     41  C   UNL A   1      41.890  27.711  29.102  1.00  0.00     0.010 A 
ATOM     42  C   UNL A   1      39.615  26.976  29.467  1.00  0.00     0.010 A 
ATOM     43  C   UNL A   1      40.705  27.770  29.853  1.00  0.00    -0.014 A 
BRANCH  43  44
ATOM     44  C   UNL A   1      40.570  28.678  31.024  1.00  0.00     0.031 A 
ATOM     45  C   UNL A   1      39.552  29.786  31.012  1.00  0.00     0.074 A 
ATOM     46  C   UNL A   1      41.418  28.558  32.065  1.00  0.00     0.049 A 
ATOM     47  N   UNL A   1      39.342  30.723  31.902  1.00  0.00    -0.248 NA
ATOM     48  C   UNL A   1      38.673  29.868  29.834  1.00  0.00     0.031 C 
ATOM     49  C   UNL A   1      42.479  27.553  32.186  1.00  0.00     0.029 A 
ATOM     50  N   UNL A   1      41.527  29.291  33.222  1.00  0.00    -0.354 N 
ATOM     51  C   UNL A   1      38.323  31.514  31.384  1.00  0.00     0.074 A 
ATOM     52  C   UNL A   1      37.994  30.979  30.080  1.00  0.00     0.031 C 
ATOM     53  C   UNL A   1      43.105  27.713  33.363  1.00  0.00     0.029 A 
ATOM     54  C   UNL A   1      42.524  28.854  34.062  1.00  0.00     0.049 A 
ATOM     55  H   UNL A   1      40.945  30.057  33.429  1.00  0.00     0.167 HD
ATOM     56  C   UNL A   1      37.700  32.576  31.949  1.00  0.00     0.031 A 
ATOM     57  C   UNL A   1      42.929  29.320  35.261  1.00  0.00     0.031 A 
ATOM     58  C   UNL A   1      38.018  33.105  33.248  1.00  0.00     0.049 A 
ATOM     59  C   UNL A   1      42.233  30.509  35.861  1.00  0.00     0.074 A 
ATOM     60  C   UNL A   1      37.412  34.148  33.926  1.00  0.00     0.029 A 
ATOM     61  N   UNL A   1      39.032  32.630  34.068  1.00  0.00    -0.354 N 
ATOM     62  N   UNL A   1      41.234  31.210  35.379  1.00  0.00    -0.248 NA
ATOM     63  C   UNL A   1      42.715  30.967  37.172  1.00  0.00     0.031 C 
ATOM     64  C   UNL A   1      38.087  34.331  35.139  1.00  0.00     0.029 A 
ATOM     65  C   UNL A   1      39.079  33.370  35.237  1.00  0.00     0.049 A 
ATOM     66  H   UNL A   1      39.628  31.879  33.850  1.00  0.00     0.167 HD
ATOM     67  C   UNL A   1      40.950  32.173  36.341  1.00  0.00     0.074 A 
ATOM     68  C   UNL A   1      41.873  31.958  37.436  1.00  0.00     0.031 C 
ATOM     69  C   UNL A   1      40.005  33.145  36.320  1.00  0.00     0.031 A 
BRANCH  56  70
ATOM     70  C   UNL A   1      36.606  33.236  31.150  1.00  0.00    -0.014 A 
ATOM     71  C   UNL A   1      36.869  33.792  29.885  1.00  0.00     0.010 A 
ATOM     72  C   UNL A   1      35.298  33.293  31.664  1.00  0.00     0.010 A 
ATOM     73  C   UNL A   1      35.858  34.443  29.173  1.00  0.00     0.020 A 
ATOM     74  C   UNL A   1      34.276  33.916  30.940  1.00  0.00     0.020 A 
ATOM     75  C   UNL A   1      34.569  34.507  29.710  1.00  0.00     0.054 A 
BRANCH  75  76
ATOM     76  S   UNL A   1      33.277  35.361  28.766  1.00  0.00     0.124 S 
ATOM     77  O   UNL A   1      32.452  35.925  29.830  1.00  0.00    -0.237 OA
ATOM     78  O   UNL A   1      34.037  36.330  27.981  1.00  0.00    -0.237 OA
ATOM     79  O   UNL A   1      32.649  34.292  27.992  1.00  0.00    -0.744 OA
ENDBRANCH  75  76
ENDBRANCH  56  70
BRANCH  57  80
ATOM     80  C   UNL A   1      44.033  28.637  35.990  1.00  0.00    -0.014 A 
ATOM     81  C   UNL A   1      43.753  27.555  36.845  1.00  0.00     0.010 A 
ATOM     82  C   UNL A   1      45.367  29.052  35.827  1.00  0.00     0.010 A 
ATOM     83  C   UNL A   1      44.784  26.910  37.533  1.00  0.00     0.020 A 
ATOM     84  C   UNL A   1      46.404  28.393  36.495  1.00  0.00     0.020 A 
ATOM     85  C   UNL A   1      46.104  27.332  37.352  1.00  0.00     0.054 A 
BRANCH  85  86
ATOM     86  S   UNL A   1      47.431  26.443  38.213  1.00  0.00     0.124 S 
ATOM     87  O   UNL A   1      47.130  26.728  39.613  1.00  0.00    -0.237 OA
ATOM     88  O   UNL A   1      47.216  25.062  37.787  1.00  0.00    -0.237 OA
ATOM     89  O   UNL A   1      48.649  27.063  37.695  1.00  0.00    -0.744 OA
ENDBRANCH  85  86
ENDBRANCH  57  80
BRANCH  69  90
ATOM     90  C   UNL A   1      39.895  34.031  37.531  1.00  0.00    -0.014 A 
ATOM     91  C   UNL A   1      40.621  35.231  37.625  1.00  0.00     0.010 A 
ATOM     92  C   UNL A   1      39.012  33.680  38.568  1.00  0.00     0.010 A 
ATOM     93  C   UNL A   1      40.485  36.051  38.749  1.00  0.00     0.020 A 
ATOM     94  C   UNL A   1      38.854  34.510  39.681  1.00  0.00     0.020 A 
ATOM     95  C   UNL A   1      39.602  35.685  39.770  1.00  0.00     0.054 A 
BRANCH  95  96
ATOM     96  S   UNL A   1      39.408  36.789  41.196  1.00  0.00     0.124 S 
ATOM     97  O   UNL A   1      38.782  37.960  40.590  1.00  0.00    -0.237 OA
ATOM     98  O   UNL A   1      38.553  36.011  42.090  1.00  0.00    -0.237 OA
ATOM     99  O   UNL A   1      40.776  36.987  41.670  1.00  0.00    -0.744 OA
ENDBRANCH  95  96
ENDBRANCH  69  90
ENDBRANCH  43  44
ENDBRANCH  35  38
ENDBRANCH  33  34
ENDBRANCH  32  33
ENDBRANCH   1  32
TORSDOF 18
ENDMDL
MODEL 3
REMARK VINA RESULT:     -12.1      4.061      6.030
REMARK SMILES CN1C(=O)c2ccc(NC(=O)C[C@@](C)(C(=O)NCCCCNC(=O)c3ccc(-c4c5nc(c(-c6ccc(S(=O)(=O)[O-])cc6)c6ccc([nH]6)c(-c6ccc(S(=O)(=O)[O-])cc6)c6nc(c(-c7ccc(S(=O)(=O)[O-])cc7)c7ccc4[nH]7)C=C6)C=C5)cc3)c3ccccc3)cc2C1=O
REMARK SMILES IDX 19 1 18 2 17 3 15 4 16 5 13 7 14 8 12 9 10 10 9 11 11 13
REMARK SMILES IDX 8 14 1 15 2 16 3 17 93 18 4 19 5 20 92 21 94 22 6 23 91 24
REMARK SMILES IDX 7 25 85 26 86 27 90 28 87 29 89 30 88 31 20 32 21 33 22 34
REMARK SMILES IDX 23 35 24 37 25 38 26 39 84 40 27 41 83 42 28 43 29 44 30 45
REMARK SMILES IDX 77 46 31 47 82 48 76 49 78 50 32 51 81 52 75 53 74 54 33 56
REMARK SMILES IDX 63 57 44 58 62 59 45 60 48 61 61 62 79 63 46 64 47 65 60 67
REMARK SMILES IDX 80 68 49 69 34 70 35 71 43 72 36 73 42 74 37 75 38 76 39 77
REMARK SMILES IDX 40 78 41 79 64 80 65 81 73 82 66 83 72 84 67 85 68 86 69 87
REMARK SMILES IDX 70 88 71 89 50 90 51 91 59 92 52 93 58 94 53 95 54 96 55 97
REMARK SMILES IDX 56 98 57 99
REMARK H PARENT 17 6 9 12 22 36 78 55 48 66
REMARK Flexibility Score: inf
ROOT
ATOM      1  C   UNL A   1      32.456  30.160  25.929  1.00  0.00     0.023 C 
ENDROOT
BRANCH   1   2
ATOM      2  C   UNL A   1      33.580  29.171  25.629  1.00  0.00     0.116 C 
BRANCH   2   3
ATOM      3  N   UNL A   1      33.891  29.005  24.217  1.00  0.00    -0.355 N 
ATOM      4  C   UNL A   1      33.519  28.151  23.217  1.00  0.00     0.230 C 
ATOM      5  O   UNL A   1      33.791  28.603  22.093  1.00  0.00    -0.274 OA
ATOM      6  H   UNL A   1      34.534  29.680  23.901  1.00  0.00     0.163 HD
BRANCH   4   7
ATOM      7  C   UNL A   1      32.708  26.794  23.363  1.00  0.00     0.080 C 
ATOM      8  C   UNL A   1      32.268  26.512  21.908  1.00  0.00     0.027 C 
BRANCH   7   9
ATOM      9  C   UNL A   1      31.585  26.891  24.426  1.00  0.00     0.121 C 
BRANCH   9  10
ATOM     10  C   UNL A   1      30.230  26.231  24.231  1.00  0.00     0.225 C 
ATOM     11  N   UNL A   1      29.954  24.915  24.474  1.00  0.00    -0.326 N 
ATOM     12  H   UNL A   1      29.054  24.663  24.164  1.00  0.00     0.169 HD
ATOM     13  O   UNL A   1      29.294  26.891  23.759  1.00  0.00    -0.275 OA
BRANCH  11  14
ATOM     14  C   UNL A   1      30.633  23.827  25.056  1.00  0.00     0.042 A 
ATOM     15  C   UNL A   1      34.631  19.368  24.925  1.00  0.00     0.157 C 
ATOM     16  N   UNL A   1      33.616  20.354  25.210  1.00  0.00    -0.277 N 
ATOM     17  C   UNL A   1      33.573  21.107  26.354  1.00  0.00     0.261 C 
ATOM     18  C   UNL A   1      32.646  20.720  24.328  1.00  0.00     0.261 C 
ATOM     19  O   UNL A   1      34.295  21.081  27.325  1.00  0.00    -0.269 OA
ATOM     20  C   UNL A   1      32.477  22.066  26.174  1.00  0.00     0.053 A 
ATOM     21  C   UNL A   1      31.911  21.821  24.946  1.00  0.00     0.055 A 
ATOM     22  O   UNL A   1      32.422  20.308  23.204  1.00  0.00    -0.269 OA
ATOM     23  C   UNL A   1      32.069  23.137  26.939  1.00  0.00     0.017 A 
ATOM     24  C   UNL A   1      30.946  22.647  24.397  1.00  0.00     0.040 A 
ATOM     25  C   UNL A   1      31.138  24.021  26.365  1.00  0.00     0.027 A 
ENDBRANCH  11  14
ENDBRANCH   9  10
ENDBRANCH   7   9
BRANCH   7  26
ATOM     26  C   UNL A   1      33.613  25.578  23.771  1.00  0.00    -0.032 A 
ATOM     27  C   UNL A   1      34.258  25.493  25.016  1.00  0.00     0.005 A 
ATOM     28  C   UNL A   1      33.830  24.512  22.868  1.00  0.00     0.005 A 
ATOM     29  C   UNL A   1      35.144  24.449  25.309  1.00  0.00     0.000 A 
ATOM     30  C   UNL A   1      34.697  23.457  23.169  1.00  0.00     0.000 A 
ATOM     31  C   UNL A   1      35.370  23.437  24.384  1.00  0.00     0.000 A 
ENDBRANCH   7  26
ENDBRANCH   4   7
ENDBRANCH   2   3
ENDBRANCH   1   2
BRANCH   1  32
ATOM     32  C   UNL A   1      32.559  30.928  27.242  1.00  0.00     0.023 C 
BRANCH  32  33
ATOM     33  C   UNL A   1      33.611  32.033  27.300  1.00  0.00     0.116 C 
BRANCH  33  34
ATOM     34  N   UNL A   1      33.081  33.341  27.672  1.00  0.00    -0.352 N 
ATOM     35  C   UNL A   1      33.460  34.199  28.678  1.00  0.00     0.251 C 
ATOM     36  H   UNL A   1      32.335  33.660  27.113  1.00  0.00     0.163 HD
ATOM     37  O   UNL A   1      32.835  35.240  28.866  1.00  0.00    -0.269 OA
BRANCH  35  38
ATOM     38  C   UNL A   1      34.594  33.848  29.560  1.00  0.00     0.039 A 
ATOM     39  C   UNL A   1      34.361  33.050  30.683  1.00  0.00     0.014 A 
ATOM     40  C   UNL A   1      35.890  34.265  29.254  1.00  0.00     0.014 A 
ATOM     41  C   UNL A   1      35.443  32.578  31.433  1.00  0.00     0.010 A 
ATOM     42  C   UNL A   1      36.970  33.726  29.949  1.00  0.00     0.010 A 
ATOM     43  C   UNL A   1      36.759  32.865  31.037  1.00  0.00    -0.014 A 
BRANCH  43  44
ATOM     44  C   UNL A   1      37.929  32.251  31.721  1.00  0.00     0.031 A 
ATOM     45  C   UNL A   1      38.362  32.746  33.075  1.00  0.00     0.074 A 
ATOM     46  C   UNL A   1      38.654  31.306  31.089  1.00  0.00     0.049 A 
ATOM     47  N   UNL A   1      39.400  32.391  33.789  1.00  0.00    -0.248 NA
ATOM     48  C   UNL A   1      37.534  33.793  33.695  1.00  0.00     0.031 C 
ATOM     49  C   UNL A   1      38.369  30.766  29.756  1.00  0.00     0.029 A 
ATOM     50  N   UNL A   1      39.784  30.631  31.482  1.00  0.00    -0.354 N 
ATOM     51  C   UNL A   1      39.361  33.183  34.931  1.00  0.00     0.074 A 
ATOM     52  C   UNL A   1      38.227  34.072  34.789  1.00  0.00     0.031 C 
ATOM     53  C   UNL A   1      39.278  29.823  29.459  1.00  0.00     0.029 A 
ATOM     54  C   UNL A   1      40.235  29.720  30.556  1.00  0.00     0.049 A 
ATOM     55  H   UNL A   1      40.230  30.787  32.346  1.00  0.00     0.167 HD
ATOM     56  C   UNL A   1      40.178  33.160  36.011  1.00  0.00     0.031 A 
ATOM     57  C   UNL A   1      41.300  28.894  30.583  1.00  0.00     0.031 A 
ATOM     58  C   UNL A   1      41.301  32.272  36.158  1.00  0.00     0.049 A 
ATOM     59  C   UNL A   1      42.203  28.897  31.785  1.00  0.00     0.074 A 
ATOM     60  C   UNL A   1      42.160  32.141  37.235  1.00  0.00     0.029 A 
ATOM     61  N   UNL A   1      41.719  31.362  35.199  1.00  0.00    -0.354 N 
ATOM     62  N   UNL A   1      42.116  29.616  32.879  1.00  0.00    -0.248 NA
ATOM     63  C   UNL A   1      43.344  27.971  31.760  1.00  0.00     0.031 C 
ATOM     64  C   UNL A   1      43.124  31.180  36.910  1.00  0.00     0.029 A 
ATOM     65  C   UNL A   1      42.834  30.678  35.652  1.00  0.00     0.049 A 
ATOM     66  H   UNL A   1      41.286  31.223  34.326  1.00  0.00     0.167 HD
ATOM     67  C   UNL A   1      43.175  29.208  33.684  1.00  0.00     0.074 A 
ATOM     68  C   UNL A   1      43.880  28.173  32.956  1.00  0.00     0.031 C 
ATOM     69  C   UNL A   1      43.527  29.649  34.916  1.00  0.00     0.031 A 
BRANCH  56  70
ATOM     70  C   UNL A   1      39.881  34.137  37.119  1.00  0.00    -0.014 A 
ATOM     71  C   UNL A   1      40.404  35.442  37.093  1.00  0.00     0.010 A 
ATOM     72  C   UNL A   1      39.060  33.750  38.194  1.00  0.00     0.010 A 
ATOM     73  C   UNL A   1      40.160  36.325  38.149  1.00  0.00     0.020 A 
ATOM     74  C   UNL A   1      38.789  34.640  39.238  1.00  0.00     0.020 A 
ATOM     75  C   UNL A   1      39.360  35.914  39.219  1.00  0.00     0.054 A 
BRANCH  75  76
ATOM     76  S   UNL A   1      39.063  37.078  40.577  1.00  0.00     0.124 S 
ATOM     77  O   UNL A   1      38.261  38.107  39.920  1.00  0.00    -0.237 OA
ATOM     78  O   UNL A   1      38.352  36.259  41.555  1.00  0.00    -0.237 OA
ATOM     79  O   UNL A   1      40.404  37.496  40.977  1.00  0.00    -0.744 OA
ENDBRANCH  75  76
ENDBRANCH  56  70
BRANCH  57  80
ATOM     80  C   UNL A   1      41.553  27.969  29.445  1.00  0.00    -0.014 A 
ATOM     81  C   UNL A   1      42.463  28.325  28.432  1.00  0.00     0.010 A 
ATOM     82  C   UNL A   1      40.900  26.725  29.370  1.00  0.00     0.010 A 
ATOM     83  C   UNL A   1      42.704  27.462  27.360  1.00  0.00     0.020 A 
ATOM     84  C   UNL A   1      41.158  25.849  28.311  1.00  0.00     0.020 A 
ATOM     85  C   UNL A   1      42.051  26.228  27.307  1.00  0.00     0.054 A 
BRANCH  85  86
ATOM     86  S   UNL A   1      42.423  25.101  25.934  1.00  0.00     0.124 S 
ATOM     87  O   UNL A   1      41.377  24.093  26.076  1.00  0.00    -0.237 OA
ATOM     88  O   UNL A   1      42.308  25.974  24.768  1.00  0.00    -0.237 OA
ATOM     89  O   UNL A   1      43.779  24.643  26.227  1.00  0.00    -0.744 OA
ENDBRANCH  85  86
ENDBRANCH  57  80
BRANCH  69  90
ATOM     90  C   UNL A   1      44.708  28.990  35.576  1.00  0.00    -0.014 A 
ATOM     91  C   UNL A   1      46.007  29.507  35.428  1.00  0.00     0.010 A 
ATOM     92  C   UNL A   1      44.505  27.867  36.398  1.00  0.00     0.010 A 
ATOM     93  C   UNL A   1      47.087  28.894  36.071  1.00  0.00     0.020 A 
ATOM     94  C   UNL A   1      45.579  27.267  37.062  1.00  0.00     0.020 A 
ATOM     95  C   UNL A   1      46.865  27.778  36.883  1.00  0.00     0.054 A 
BRANCH  95  96
ATOM     96  S   UNL A   1      48.276  27.028  37.743  1.00  0.00     0.124 S 
ATOM     97  O   UNL A   1      49.405  27.743  37.156  1.00  0.00    -0.237 OA
ATOM     98  O   UNL A   1      47.997  27.334  39.144  1.00  0.00    -0.237 OA
ATOM     99  O   UNL A   1      48.184  25.613  37.391  1.00  0.00    -0.744 OA
ENDBRANCH  95  96
ENDBRANCH  69  90
ENDBRANCH  43  44
ENDBRANCH  35  38
ENDBRANCH  33  34
ENDBRANCH  32  33
ENDBRANCH   1  32
TORSDOF 18
ENDMDL
