MODEL 1
REMARK VINA RESULT:      -9.8      0.000      0.000
REMARK SMILES COC(=O)/C(=C/c1ccc(C)o1)CC(=O)NCCCCNC(=O)c1ccc(-c2c3nc(c(-c4ccc(S(=O)(=O)[O-])cc4)c4ccc([nH]4)c(-c4ccc(S(=O)(=O)[O-])cc4)c4nc(c(-c5ccc(S(=O)(=O)[O-])cc5)c5ccc2[nH]5)C=C4)C=C3)cc1
REMARK SMILES IDX 18 1 17 2 16 3 14 4 15 5 13 7 5 8 6 9 3 10 4 11 2 12 1 13
REMARK SMILES IDX 7 14 8 15 12 16 9 17 10 18 11 19 19 20 20 21 21 22 22 23
REMARK SMILES IDX 23 25 24 26 25 27 83 28 26 29 82 30 27 31 28 32 29 33 76 34
REMARK SMILES IDX 30 35 81 36 75 37 77 38 31 39 80 40 74 41 73 42 32 44 62 45
REMARK SMILES IDX 43 46 61 47 44 48 47 49 60 50 78 51 45 52 46 53 59 55 79 56
REMARK SMILES IDX 48 57 33 58 34 59 42 60 35 61 41 62 36 63 37 64 38 65 39 66
REMARK SMILES IDX 40 67 63 68 64 69 72 70 65 71 71 72 66 73 67 74 68 75 69 76
REMARK SMILES IDX 70 77 49 78 50 79 58 80 51 81 57 82 52 83 53 84 54 85 55 86
REMARK SMILES IDX 56 87
REMARK H PARENT 16 6 21 24 77 43 47 54
REMARK Flexibility Score: inf
ROOT
ATOM      1  C   UNL A   1      34.946  22.666  26.025  1.00  0.00     0.023 C 
ENDROOT
BRANCH   1   2
ATOM      2  C   UNL A   1      33.602  23.161  25.498  1.00  0.00     0.116 C 
BRANCH   2   3
ATOM      3  N   UNL A   1      32.993  24.141  26.371  1.00  0.00    -0.356 N 
ATOM      4  C   UNL A   1      32.241  25.243  26.102  1.00  0.00     0.224 C 
ATOM      5  O   UNL A   1      31.761  25.841  27.070  1.00  0.00    -0.275 OA
ATOM      6  H   UNL A   1      33.150  23.982  27.330  1.00  0.00     0.163 HD
BRANCH   4   7
ATOM      7  C   UNL A   1      31.872  25.669  24.680  1.00  0.00     0.143 C 
BRANCH   7   8
ATOM      8  C   UNL A   1      32.961  26.294  23.850  1.00  0.00     0.050 C 
ATOM      9  C   UNL A   1      33.711  27.387  24.116  1.00  0.00     0.058 C 
BRANCH   8  10
ATOM     10  C   UNL A   1      33.221  25.499  22.602  1.00  0.00     0.334 C 
ATOM     11  O   UNL A   1      33.933  25.908  21.696  1.00  0.00    -0.247 OA
BRANCH  10  12
ATOM     12  O   UNL A   1      32.612  24.288  22.615  1.00  0.00    -0.466 OA
ATOM     13  C   UNL A   1      33.083  23.405  21.592  1.00  0.00     0.282 C 
ENDBRANCH  10  12
ENDBRANCH   8  10
BRANCH   9  14
ATOM     14  C   UNL A   1      33.586  28.310  25.208  1.00  0.00     0.127 A 
ATOM     15  C   UNL A   1      34.167  28.407  26.472  1.00  0.00     0.050 A 
ATOM     16  O   UNL A   1      32.660  29.342  25.138  1.00  0.00    -0.462 OA
ATOM     17  C   UNL A   1      33.566  29.476  27.176  1.00  0.00     0.046 A 
ATOM     18  C   UNL A   1      32.646  30.015  26.318  1.00  0.00     0.101 A 
ATOM     19  C   UNL A   1      31.678  31.120  26.450  1.00  0.00     0.087 C 
ENDBRANCH   9  14
ENDBRANCH   7   8
ENDBRANCH   4   7
ENDBRANCH   2   3
ENDBRANCH   1   2
BRANCH   1  20
ATOM     20  C   UNL A   1      36.021  23.752  26.108  1.00  0.00     0.023 C 
BRANCH  20  21
ATOM     21  C   UNL A   1      37.170  23.612  25.112  1.00  0.00     0.116 C 
BRANCH  21  22
ATOM     22  N   UNL A   1      38.223  22.715  25.566  1.00  0.00    -0.352 N 
ATOM     23  C   UNL A   1      39.321  23.000  26.345  1.00  0.00     0.251 C 
ATOM     24  H   UNL A   1      38.138  21.777  25.277  1.00  0.00     0.163 HD
ATOM     25  O   UNL A   1      40.178  22.147  26.549  1.00  0.00    -0.269 OA
BRANCH  23  26
ATOM     26  C   UNL A   1      39.478  24.363  26.897  1.00  0.00     0.039 A 
ATOM     27  C   UNL A   1      38.982  24.634  28.175  1.00  0.00     0.014 A 
ATOM     28  C   UNL A   1      40.180  25.341  26.188  1.00  0.00     0.014 A 
ATOM     29  C   UNL A   1      39.282  25.856  28.784  1.00  0.00     0.010 A 
ATOM     30  C   UNL A   1      40.529  26.532  26.821  1.00  0.00     0.010 A 
ATOM     31  C   UNL A   1      40.108  26.788  28.134  1.00  0.00    -0.014 A 
BRANCH  31  32
ATOM     32  C   UNL A   1      40.614  27.995  28.840  1.00  0.00     0.031 A 
ATOM     33  C   UNL A   1      41.962  27.985  29.504  1.00  0.00     0.074 A 
ATOM     34  C   UNL A   1      39.805  29.068  28.967  1.00  0.00     0.049 A 
ATOM     35  N   UNL A   1      42.516  28.907  30.248  1.00  0.00    -0.248 NA
ATOM     36  C   UNL A   1      42.785  26.778  29.330  1.00  0.00     0.031 C 
ATOM     37  C   UNL A   1      38.453  29.183  28.408  1.00  0.00     0.029 A 
ATOM     38  N   UNL A   1      39.989  30.260  29.623  1.00  0.00    -0.354 N 
ATOM     39  C   UNL A   1      43.742  28.387  30.647  1.00  0.00     0.074 A 
ATOM     40  C   UNL A   1      43.838  27.056  30.086  1.00  0.00     0.031 C 
ATOM     41  C   UNL A   1      37.938  30.377  28.740  1.00  0.00     0.029 A 
ATOM     42  C   UNL A   1      38.896  31.095  29.573  1.00  0.00     0.049 A 
ATOM     43  H   UNL A   1      40.826  30.496  30.086  1.00  0.00     0.167 HD
ATOM     44  C   UNL A   1      44.701  28.970  31.404  1.00  0.00     0.031 A 
ATOM     45  C   UNL A   1      38.674  32.292  30.153  1.00  0.00     0.031 A 
ATOM     46  C   UNL A   1      44.607  30.300  31.946  1.00  0.00     0.049 A 
ATOM     47  C   UNL A   1      39.753  32.905  31.005  1.00  0.00     0.074 A 
ATOM     48  C   UNL A   1      45.568  31.006  32.651  1.00  0.00     0.029 A 
ATOM     49  N   UNL A   1      43.492  31.117  31.860  1.00  0.00    -0.354 N 
ATOM     50  N   UNL A   1      40.946  32.437  31.285  1.00  0.00    -0.248 NA
ATOM     51  C   UNL A   1      39.455  34.206  31.621  1.00  0.00     0.031 C 
ATOM     52  C   UNL A   1      45.009  32.225  33.047  1.00  0.00     0.029 A 
ATOM     53  C   UNL A   1      43.723  32.303  32.538  1.00  0.00     0.049 A 
ATOM     54  H   UNL A   1      42.660  30.889  31.387  1.00  0.00     0.167 HD
ATOM     55  C   UNL A   1      41.545  33.394  32.095  1.00  0.00     0.074 A 
ATOM     56  C   UNL A   1      40.596  34.478  32.240  1.00  0.00     0.031 C 
ATOM     57  C   UNL A   1      42.770  33.374  32.675  1.00  0.00     0.031 A 
BRANCH  44  58
ATOM     58  C   UNL A   1      45.945  28.178  31.707  1.00  0.00    -0.014 A 
ATOM     59  C   UNL A   1      45.959  27.206  32.722  1.00  0.00     0.010 A 
ATOM     60  C   UNL A   1      47.084  28.339  30.896  1.00  0.00     0.010 A 
ATOM     61  C   UNL A   1      47.095  26.419  32.930  1.00  0.00     0.020 A 
ATOM     62  C   UNL A   1      48.213  27.536  31.086  1.00  0.00     0.020 A 
ATOM     63  C   UNL A   1      48.213  26.585  32.107  1.00  0.00     0.054 A 
BRANCH  63  64
ATOM     64  S   UNL A   1      49.645  25.502  32.360  1.00  0.00     0.124 S 
ATOM     65  O   UNL A   1      49.887  25.001  31.009  1.00  0.00    -0.237 OA
ATOM     66  O   UNL A   1      50.655  26.422  32.879  1.00  0.00    -0.237 OA
ATOM     67  O   UNL A   1      49.164  24.506  33.315  1.00  0.00    -0.744 OA
ENDBRANCH  63  64
ENDBRANCH  44  58
BRANCH  45  68
ATOM     68  C   UNL A   1      37.364  32.979  29.980  1.00  0.00    -0.014 A 
ATOM     69  C   UNL A   1      36.347  32.839  30.940  1.00  0.00     0.010 A 
ATOM     70  C   UNL A   1      37.119  33.760  28.836  1.00  0.00     0.010 A 
ATOM     71  C   UNL A   1      35.100  33.442  30.744  1.00  0.00     0.020 A 
ATOM     72  C   UNL A   1      35.885  34.390  28.652  1.00  0.00     0.020 A 
ATOM     73  C   UNL A   1      34.876  34.210  29.598  1.00  0.00     0.054 A 
BRANCH  73  74
ATOM     74  S   UNL A   1      33.259  35.000  29.373  1.00  0.00     0.124 S 
ATOM     75  O   UNL A   1      32.666  34.856  30.699  1.00  0.00    -0.237 OA
ATOM     76  O   UNL A   1      33.622  36.360  28.987  1.00  0.00    -0.237 OA
ATOM     77  O   UNL A   1      32.636  34.206  28.317  1.00  0.00    -0.744 OA
ENDBRANCH  73  74
ENDBRANCH  45  68
BRANCH  57  78
ATOM     78  C   UNL A   1      43.163  34.561  33.512  1.00  0.00    -0.014 A 
ATOM     79  C   UNL A   1      42.891  34.598  34.890  1.00  0.00     0.010 A 
ATOM     80  C   UNL A   1      43.876  35.623  32.925  1.00  0.00     0.010 A 
ATOM     81  C   UNL A   1      43.303  35.685  35.664  1.00  0.00     0.020 A 
ATOM     82  C   UNL A   1      44.317  36.699  33.701  1.00  0.00     0.020 A 
ATOM     83  C   UNL A   1      44.018  36.728  35.064  1.00  0.00     0.054 A 
BRANCH  83  84
ATOM     84  S   UNL A   1      44.595  38.098  36.103  1.00  0.00     0.124 S 
ATOM     85  O   UNL A   1      43.983  37.782  37.391  1.00  0.00    -0.237 OA
ATOM     86  O   UNL A   1      46.047  37.954  36.044  1.00  0.00    -0.237 OA
ATOM     87  O   UNL A   1      44.065  39.285  35.437  1.00  0.00    -0.744 OA
ENDBRANCH  83  84
ENDBRANCH  57  78
ENDBRANCH  31  32
ENDBRANCH  23  26
ENDBRANCH  21  22
ENDBRANCH  20  21
ENDBRANCH   1  20
TORSDOF 18
ENDMDL
MODEL 2
REMARK VINA RESULT:      -9.7      0.776      8.362
REMARK SMILES COC(=O)/C(=C/c1ccc(C)o1)CC(=O)NCCCCNC(=O)c1ccc(-c2c3nc(c(-c4ccc(S(=O)(=O)[O-])cc4)c4ccc([nH]4)c(-c4ccc(S(=O)(=O)[O-])cc4)c4nc(c(-c5ccc(S(=O)(=O)[O-])cc5)c5ccc2[nH]5)C=C4)C=C3)cc1
REMARK SMILES IDX 18 1 17 2 16 3 14 4 15 5 13 7 5 8 6 9 3 10 4 11 2 12 1 13
REMARK SMILES IDX 7 14 8 15 12 16 9 17 10 18 11 19 19 20 20 21 21 22 22 23
REMARK SMILES IDX 23 25 24 26 25 27 83 28 26 29 82 30 27 31 28 32 29 33 76 34
REMARK SMILES IDX 30 35 81 36 75 37 77 38 31 39 80 40 74 41 73 42 32 44 62 45
REMARK SMILES IDX 43 46 61 47 44 48 47 49 60 50 78 51 45 52 46 53 59 55 79 56
REMARK SMILES IDX 48 57 33 58 34 59 42 60 35 61 41 62 36 63 37 64 38 65 39 66
REMARK SMILES IDX 40 67 63 68 64 69 72 70 65 71 71 72 66 73 67 74 68 75 69 76
REMARK SMILES IDX 70 77 49 78 50 79 58 80 51 81 57 82 52 83 53 84 54 85 55 86
REMARK SMILES IDX 56 87
REMARK H PARENT 16 6 21 24 77 43 47 54
REMARK Flexibility Score: inf
ROOT
ATOM      1  C   UNL A   1      34.897  22.712  25.994  1.00  0.00     0.023 C 
ENDROOT
BRANCH   1   2
ATOM      2  C   UNL A   1      33.526  23.148  25.486  1.00  0.00     0.116 C 
BRANCH   2   3
ATOM      3  N   UNL A   1      32.913  24.147  26.336  1.00  0.00    -0.356 N 
ATOM      4  C   UNL A   1      32.177  25.253  26.040  1.00  0.00     0.224 C 
ATOM      5  O   UNL A   1      31.688  25.869  26.991  1.00  0.00    -0.275 OA
ATOM      6  H   UNL A   1      33.054  23.999  27.299  1.00  0.00     0.163 HD
BRANCH   4   7
ATOM      7  C   UNL A   1      31.835  25.662  24.606  1.00  0.00     0.143 C 
BRANCH   7   8
ATOM      8  C   UNL A   1      32.944  26.260  23.783  1.00  0.00     0.050 C 
ATOM      9  C   UNL A   1      33.741  27.314  24.069  1.00  0.00     0.058 C 
BRANCH   8  10
ATOM     10  C   UNL A   1      33.163  25.484  22.516  1.00  0.00     0.334 C 
ATOM     11  O   UNL A   1      33.870  25.893  21.606  1.00  0.00    -0.247 OA
BRANCH  10  12
ATOM     12  O   UNL A   1      32.524  24.288  22.515  1.00  0.00    -0.466 OA
ATOM     13  C   UNL A   1      33.237  23.264  21.814  1.00  0.00     0.282 C 
ENDBRANCH  10  12
ENDBRANCH   8  10
BRANCH   9  14
ATOM     14  C   UNL A   1      33.661  28.216  25.183  1.00  0.00     0.127 A 
ATOM     15  C   UNL A   1      34.287  28.286  26.426  1.00  0.00     0.050 A 
ATOM     16  O   UNL A   1      32.739  29.255  25.166  1.00  0.00    -0.462 OA
ATOM     17  C   UNL A   1      33.719  29.344  27.172  1.00  0.00     0.046 A 
ATOM     18  C   UNL A   1      32.772  29.905  26.359  1.00  0.00     0.101 A 
ATOM     19  C   UNL A   1      31.816  31.011  26.546  1.00  0.00     0.087 C 
ENDBRANCH   9  14
ENDBRANCH   7   8
ENDBRANCH   4   7
ENDBRANCH   2   3
ENDBRANCH   1   2
BRANCH   1  20
ATOM     20  C   UNL A   1      35.970  23.800  25.904  1.00  0.00     0.023 C 
BRANCH  20  21
ATOM     21  C   UNL A   1      37.048  23.569  24.848  1.00  0.00     0.116 C 
BRANCH  21  22
ATOM     22  N   UNL A   1      38.080  22.631  25.270  1.00  0.00    -0.352 N 
ATOM     23  C   UNL A   1      39.168  22.857  26.080  1.00  0.00     0.251 C 
ATOM     24  H   UNL A   1      37.986  21.712  24.928  1.00  0.00     0.163 HD
ATOM     25  O   UNL A   1      40.008  21.980  26.251  1.00  0.00    -0.269 OA
BRANCH  23  26
ATOM     26  C   UNL A   1      39.337  24.185  26.709  1.00  0.00     0.039 A 
ATOM     27  C   UNL A   1      38.855  24.383  28.005  1.00  0.00     0.014 A 
ATOM     28  C   UNL A   1      40.034  25.200  26.049  1.00  0.00     0.014 A 
ATOM     29  C   UNL A   1      39.166  25.566  28.680  1.00  0.00     0.010 A 
ATOM     30  C   UNL A   1      40.395  26.351  26.746  1.00  0.00     0.010 A 
ATOM     31  C   UNL A   1      39.989  26.532  28.077  1.00  0.00    -0.014 A 
BRANCH  31  32
ATOM     32  C   UNL A   1      40.506  27.694  28.846  1.00  0.00     0.031 A 
ATOM     33  C   UNL A   1      39.638  28.896  29.092  1.00  0.00     0.074 A 
ATOM     34  C   UNL A   1      41.799  27.703  29.233  1.00  0.00     0.049 A 
ATOM     35  N   UNL A   1      39.955  30.036  29.650  1.00  0.00    -0.248 NA
ATOM     36  C   UNL A   1      38.241  28.818  28.635  1.00  0.00     0.031 C 
ATOM     37  C   UNL A   1      42.759  26.616  29.011  1.00  0.00     0.029 A 
ATOM     38  N   UNL A   1      42.539  28.665  29.876  1.00  0.00    -0.354 N 
ATOM     39  C   UNL A   1      38.807  30.818  29.594  1.00  0.00     0.074 A 
ATOM     40  C   UNL A   1      37.794  30.033  28.922  1.00  0.00     0.031 C 
ATOM     41  C   UNL A   1      43.953  26.971  29.513  1.00  0.00     0.029 A 
ATOM     42  C   UNL A   1      43.861  28.324  30.049  1.00  0.00     0.049 A 
ATOM     43  H   UNL A   1      42.158  29.520  30.183  1.00  0.00     0.167 HD
ATOM     44  C   UNL A   1      38.615  32.072  30.068  1.00  0.00     0.031 A 
ATOM     45  C   UNL A   1      44.893  29.027  30.557  1.00  0.00     0.031 A 
ATOM     46  C   UNL A   1      39.621  32.842  30.750  1.00  0.00     0.049 A 
ATOM     47  C   UNL A   1      44.652  30.426  31.057  1.00  0.00     0.074 A 
ATOM     48  C   UNL A   1      39.490  34.087  31.343  1.00  0.00     0.029 A 
ATOM     49  N   UNL A   1      40.941  32.455  30.919  1.00  0.00    -0.354 N 
ATOM     50  N   UNL A   1      43.531  31.107  31.086  1.00  0.00    -0.248 NA
ATOM     51  C   UNL A   1      45.813  31.151  31.593  1.00  0.00     0.031 C 
ATOM     52  C   UNL A   1      40.747  34.481  31.813  1.00  0.00     0.029 A 
ATOM     53  C   UNL A   1      41.646  33.456  31.567  1.00  0.00     0.049 A 
ATOM     54  H   UNL A   1      41.320  31.597  30.623  1.00  0.00     0.167 HD
ATOM     55  C   UNL A   1      43.852  32.334  31.657  1.00  0.00     0.074 A 
ATOM     56  C   UNL A   1      45.261  32.292  31.982  1.00  0.00     0.031 C 
ATOM     57  C   UNL A   1      43.050  33.403  31.883  1.00  0.00     0.031 A 
BRANCH  44  58
ATOM     58  C   UNL A   1      37.266  32.708  29.866  1.00  0.00    -0.014 A 
ATOM     59  C   UNL A   1      36.331  32.779  30.914  1.00  0.00     0.010 A 
ATOM     60  C   UNL A   1      36.970  33.335  28.641  1.00  0.00     0.010 A 
ATOM     61  C   UNL A   1      35.119  33.451  30.736  1.00  0.00     0.020 A 
ATOM     62  C   UNL A   1      35.769  34.029  28.468  1.00  0.00     0.020 A 
ATOM     63  C   UNL A   1      34.848  34.077  29.515  1.00  0.00     0.054 A 
BRANCH  63  64
ATOM     64  S   UNL A   1      33.296  34.999  29.338  1.00  0.00     0.124 S 
ATOM     65  O   UNL A   1      33.767  36.290  28.842  1.00  0.00    -0.237 OA
ATOM     66  O   UNL A   1      32.552  34.190  28.376  1.00  0.00    -0.237 OA
ATOM     67  O   UNL A   1      32.746  35.017  30.692  1.00  0.00    -0.744 OA
ENDBRANCH  63  64
ENDBRANCH  44  58
BRANCH  45  68
ATOM     68  C   UNL A   1      46.261  28.438  30.587  1.00  0.00    -0.014 A 
ATOM     69  C   UNL A   1      47.141  28.607  29.504  1.00  0.00     0.010 A 
ATOM     70  C   UNL A   1      46.681  27.681  31.696  1.00  0.00     0.010 A 
ATOM     71  C   UNL A   1      48.403  28.004  29.515  1.00  0.00     0.020 A 
ATOM     72  C   UNL A   1      47.954  27.103  31.725  1.00  0.00     0.020 A 
ATOM     73  C   UNL A   1      48.799  27.252  30.625  1.00  0.00     0.054 A 
BRANCH  73  74
ATOM     74  S   UNL A   1      50.448  26.496  30.628  1.00  0.00     0.124 S 
ATOM     75  O   UNL A   1      51.006  26.984  29.371  1.00  0.00    -0.237 OA
ATOM     76  O   UNL A   1      51.046  27.046  31.842  1.00  0.00    -0.237 OA
ATOM     77  O   UNL A   1      50.166  25.063  30.677  1.00  0.00    -0.744 OA
ENDBRANCH  73  74
ENDBRANCH  45  68
BRANCH  57  78
ATOM     78  C   UNL A   1      43.672  34.615  32.523  1.00  0.00    -0.014 A 
ATOM     79  C   UNL A   1      44.018  35.741  31.756  1.00  0.00     0.010 A 
ATOM     80  C   UNL A   1      43.849  34.655  33.919  1.00  0.00     0.010 A 
ATOM     81  C   UNL A   1      44.550  36.877  32.370  1.00  0.00     0.020 A 
ATOM     82  C   UNL A   1      44.354  35.800  34.540  1.00  0.00     0.020 A 
ATOM     83  C   UNL A   1      44.711  36.901  33.759  1.00  0.00     0.054 A 
BRANCH  83  84
ATOM     84  S   UNL A   1      45.348  38.411  34.536  1.00  0.00     0.124 S 
ATOM     85  O   UNL A   1      45.349  39.351  33.419  1.00  0.00    -0.237 OA
ATOM     86  O   UNL A   1      44.360  38.675  35.579  1.00  0.00    -0.237 OA
ATOM     87  O   UNL A   1      46.669  38.021  35.023  1.00  0.00    -0.744 OA
ENDBRANCH  83  84
ENDBRANCH  57  78
ENDBRANCH  31  32
ENDBRANCH  23  26
ENDBRANCH  21  22
ENDBRANCH  20  21
ENDBRANCH   1  20
TORSDOF 18
ENDMDL
MODEL 3
REMARK VINA RESULT:      -9.7      2.772     10.084
REMARK SMILES COC(=O)/C(=C/c1ccc(C)o1)CC(=O)NCCCCNC(=O)c1ccc(-c2c3nc(c(-c4ccc(S(=O)(=O)[O-])cc4)c4ccc([nH]4)c(-c4ccc(S(=O)(=O)[O-])cc4)c4nc(c(-c5ccc(S(=O)(=O)[O-])cc5)c5ccc2[nH]5)C=C4)C=C3)cc1
REMARK SMILES IDX 18 1 17 2 16 3 14 4 15 5 13 7 5 8 6 9 3 10 4 11 2 12 1 13
REMARK SMILES IDX 7 14 8 15 12 16 9 17 10 18 11 19 19 20 20 21 21 22 22 23
REMARK SMILES IDX 23 25 24 26 25 27 83 28 26 29 82 30 27 31 28 32 29 33 76 34
REMARK SMILES IDX 30 35 81 36 75 37 77 38 31 39 80 40 74 41 73 42 32 44 62 45
REMARK SMILES IDX 43 46 61 47 44 48 47 49 60 50 78 51 45 52 46 53 59 55 79 56
REMARK SMILES IDX 48 57 33 58 34 59 42 60 35 61 41 62 36 63 37 64 38 65 39 66
REMARK SMILES IDX 40 67 63 68 64 69 72 70 65 71 71 72 66 73 67 74 68 75 69 76
REMARK SMILES IDX 70 77 49 78 50 79 58 80 51 81 57 82 52 83 53 84 54 85 55 86
REMARK SMILES IDX 56 87
REMARK H PARENT 16 6 21 24 77 43 47 54
REMARK Flexibility Score: inf
ROOT
ATOM      1  C   UNL A   1      41.985  22.256  25.739  1.00  0.00     0.023 C 
ENDROOT
BRANCH   1   2
ATOM      2  C   UNL A   1      43.440  21.817  25.877  1.00  0.00     0.116 C 
BRANCH   2   3
ATOM      3  N   UNL A   1      44.057  22.323  27.085  1.00  0.00    -0.356 N 
ATOM      4  C   UNL A   1      44.419  23.583  27.452  1.00  0.00     0.224 C 
ATOM      5  O   UNL A   1      44.835  23.730  28.604  1.00  0.00    -0.275 OA
ATOM      6  H   UNL A   1      44.250  21.633  27.760  1.00  0.00     0.163 HD
BRANCH   4   7
ATOM      7  C   UNL A   1      44.203  24.803  26.554  1.00  0.00     0.143 C 
BRANCH   7   8
ATOM      8  C   UNL A   1      45.429  25.569  26.135  1.00  0.00     0.050 C 
ATOM      9  C   UNL A   1      45.657  26.901  26.186  1.00  0.00     0.058 C 
BRANCH   8  10
ATOM     10  C   UNL A   1      46.514  24.645  25.663  1.00  0.00     0.334 C 
ATOM     11  O   UNL A   1      47.438  24.290  26.383  1.00  0.00    -0.247 OA
BRANCH  10  12
ATOM     12  O   UNL A   1      46.336  24.234  24.383  1.00  0.00    -0.466 OA
ATOM     13  C   UNL A   1      46.393  22.812  24.230  1.00  0.00     0.282 C 
ENDBRANCH  10  12
ENDBRANCH   8  10
BRANCH   9  14
ATOM     14  C   UNL A   1      44.744  27.949  26.543  1.00  0.00     0.127 A 
ATOM     15  C   UNL A   1      43.413  28.226  26.239  1.00  0.00     0.050 A 
ATOM     16  O   UNL A   1      45.189  29.022  27.304  1.00  0.00    -0.462 OA
ATOM     17  C   UNL A   1      43.065  29.482  26.786  1.00  0.00     0.046 A 
ATOM     18  C   UNL A   1      44.188  29.932  27.426  1.00  0.00     0.101 A 
ATOM     19  C   UNL A   1      44.494  31.173  28.161  1.00  0.00     0.087 C 
ENDBRANCH   9  14
ENDBRANCH   7   8
ENDBRANCH   4   7
ENDBRANCH   2   3
ENDBRANCH   1   2
BRANCH   1  20
ATOM     20  C   UNL A   1      40.972  21.127  25.934  1.00  0.00     0.023 C 
BRANCH  20  21
ATOM     21  C   UNL A   1      39.692  21.517  26.670  1.00  0.00     0.116 C 
BRANCH  21  22
ATOM     22  N   UNL A   1      38.733  22.221  25.829  1.00  0.00    -0.352 N 
ATOM     23  C   UNL A   1      38.403  23.557  25.832  1.00  0.00     0.251 C 
ATOM     24  H   UNL A   1      38.257  21.666  25.169  1.00  0.00     0.163 HD
ATOM     25  O   UNL A   1      37.489  23.973  25.128  1.00  0.00    -0.269 OA
BRANCH  23  26
ATOM     26  C   UNL A   1      39.134  24.478  26.729  1.00  0.00     0.039 A 
ATOM     27  C   UNL A   1      40.040  25.384  26.171  1.00  0.00     0.014 A 
ATOM     28  C   UNL A   1      38.867  24.497  28.100  1.00  0.00     0.014 A 
ATOM     29  C   UNL A   1      40.600  26.380  26.975  1.00  0.00     0.010 A 
ATOM     30  C   UNL A   1      39.377  25.528  28.885  1.00  0.00     0.010 A 
ATOM     31  C   UNL A   1      40.225  26.496  28.324  1.00  0.00    -0.014 A 
BRANCH  31  32
ATOM     32  C   UNL A   1      40.639  27.665  29.143  1.00  0.00     0.031 A 
ATOM     33  C   UNL A   1      39.725  28.848  29.305  1.00  0.00     0.074 A 
ATOM     34  C   UNL A   1      41.887  27.700  29.656  1.00  0.00     0.049 A 
ATOM     35  N   UNL A   1      39.961  29.992  29.894  1.00  0.00    -0.248 NA
ATOM     36  C   UNL A   1      38.382  28.742  28.712  1.00  0.00     0.031 C 
ATOM     37  C   UNL A   1      42.887  26.635  29.528  1.00  0.00     0.029 A 
ATOM     38  N   UNL A   1      42.539  28.675  30.371  1.00  0.00    -0.354 N 
ATOM     39  C   UNL A   1      38.808  30.750  29.726  1.00  0.00     0.074 A 
ATOM     40  C   UNL A   1      37.883  29.946  28.956  1.00  0.00     0.031 C 
ATOM     41  C   UNL A   1      44.017  27.012  30.146  1.00  0.00     0.029 A 
ATOM     42  C   UNL A   1      43.844  28.361  30.673  1.00  0.00     0.049 A 
ATOM     43  H   UNL A   1      42.111  29.520  30.641  1.00  0.00     0.167 HD
ATOM     44  C   UNL A   1      38.543  31.997  30.182  1.00  0.00     0.031 A 
ATOM     45  C   UNL A   1      44.806  29.083  31.282  1.00  0.00     0.031 A 
ATOM     46  C   UNL A   1      39.460  32.785  30.961  1.00  0.00     0.049 A 
ATOM     47  C   UNL A   1      44.486  30.474  31.759  1.00  0.00     0.074 A 
ATOM     48  C   UNL A   1      39.245  34.025  31.541  1.00  0.00     0.029 A 
ATOM     49  N   UNL A   1      40.764  32.426  31.259  1.00  0.00    -0.354 N 
ATOM     50  N   UNL A   1      43.354  31.132  31.679  1.00  0.00    -0.248 NA
ATOM     51  C   UNL A   1      45.574  31.221  32.408  1.00  0.00     0.031 C 
ATOM     52  C   UNL A   1      40.440  34.443  32.134  1.00  0.00     0.029 A 
ATOM     53  C   UNL A   1      41.381  33.439  31.975  1.00  0.00     0.049 A 
ATOM     54  H   UNL A   1      41.189  31.577  31.001  1.00  0.00     0.167 HD
ATOM     55  C   UNL A   1      43.590  32.362  32.281  1.00  0.00     0.074 A 
ATOM     56  C   UNL A   1      44.962  32.349  32.744  1.00  0.00     0.031 C 
ATOM     57  C   UNL A   1      42.748  33.414  32.429  1.00  0.00     0.031 A 
BRANCH  44  58
ATOM     58  C   UNL A   1      37.207  32.606  29.849  1.00  0.00    -0.014 A 
ATOM     59  C   UNL A   1      36.150  32.591  30.776  1.00  0.00     0.010 A 
ATOM     60  C   UNL A   1      37.041  33.292  28.631  1.00  0.00     0.010 A 
ATOM     61  C   UNL A   1      34.947  33.238  30.485  1.00  0.00     0.020 A 
ATOM     62  C   UNL A   1      35.847  33.961  28.347  1.00  0.00     0.020 A 
ATOM     63  C   UNL A   1      34.804  33.924  29.274  1.00  0.00     0.054 A 
BRANCH  63  64
ATOM     64  S   UNL A   1      33.254  34.811  28.956  1.00  0.00     0.124 S 
ATOM     65  O   UNL A   1      33.738  36.102  28.475  1.00  0.00    -0.237 OA
ATOM     66  O   UNL A   1      32.605  33.970  27.953  1.00  0.00    -0.237 OA
ATOM     67  O   UNL A   1      32.597  34.841  30.261  1.00  0.00    -0.744 OA
ENDBRANCH  63  64
ENDBRANCH  44  58
BRANCH  45  68
ATOM     68  C   UNL A   1      46.176  28.523  31.446  1.00  0.00    -0.014 A 
ATOM     69  C   UNL A   1      47.160  28.731  30.464  1.00  0.00     0.010 A 
ATOM     70  C   UNL A   1      46.495  27.754  32.580  1.00  0.00     0.010 A 
ATOM     71  C   UNL A   1      48.428  28.155  30.598  1.00  0.00     0.020 A 
ATOM     72  C   UNL A   1      47.771  27.203  32.733  1.00  0.00     0.020 A 
ATOM     73  C   UNL A   1      48.723  27.391  31.731  1.00  0.00     0.054 A 
BRANCH  73  74
ATOM     74  S   UNL A   1      50.380  26.670  31.895  1.00  0.00     0.124 S 
ATOM     75  O   UNL A   1      50.245  25.878  33.113  1.00  0.00    -0.237 OA
ATOM     76  O   UNL A   1      50.518  25.909  30.656  1.00  0.00    -0.237 OA
ATOM     77  O   UNL A   1      51.251  27.839  31.999  1.00  0.00    -0.744 OA
ENDBRANCH  73  74
ENDBRANCH  45  68
BRANCH  57  78
ATOM     78  C   UNL A   1      43.277  34.636  33.130  1.00  0.00    -0.014 A 
ATOM     79  C   UNL A   1      43.307  34.710  34.533  1.00  0.00     0.010 A 
ATOM     80  C   UNL A   1      43.814  35.695  32.376  1.00  0.00     0.010 A 
ATOM     81  C   UNL A   1      43.843  35.830  35.171  1.00  0.00     0.020 A 
ATOM     82  C   UNL A   1      44.379  36.805  33.010  1.00  0.00     0.020 A 
ATOM     83  C   UNL A   1      44.380  36.870  34.405  1.00  0.00     0.054 A 
BRANCH  83  84
ATOM     84  S   UNL A   1      45.126  38.286  35.259  1.00  0.00     0.124 S 
ATOM     85  O   UNL A   1      44.405  39.411  34.670  1.00  0.00    -0.237 OA
ATOM     86  O   UNL A   1      44.823  38.010  36.660  1.00  0.00    -0.237 OA
ATOM     87  O   UNL A   1      46.541  38.199  34.904  1.00  0.00    -0.744 OA
ENDBRANCH  83  84
ENDBRANCH  57  78
ENDBRANCH  31  32
ENDBRANCH  23  26
ENDBRANCH  21  22
ENDBRANCH  20  21
ENDBRANCH   1  20
TORSDOF 18
ENDMDL
