MODEL 1
REMARK VINA RESULT:     -10.2      0.000      0.000
REMARK SMILES CC[NH+](CC)C[C@H](C)NC(=O)N[C@H]1C=C[C@@H](C(=O)NCCCCNC(=O)c2ccc(-c3c4nc(c(-c5ccc(S(=O)(=O)[O-])cc5)c5ccc([nH]5)c(-c5ccc(S(=O)(=O)[O-])cc5)c5nc(c(-c6ccc(S(=O)(=O)[O-])cc6)c6ccc3[nH]6)C=C5)C=C4)cc2)C1
REMARK SMILES IDX 20 1 19 2 17 3 18 4 16 6 13 7 14 8 87 9 15 10 12 11 9 12
REMARK SMILES IDX 10 13 11 15 7 17 8 18 6 19 3 20 2 22 1 23 4 24 5 25 21 26
REMARK SMILES IDX 22 27 23 28 24 29 25 30 26 32 27 33 28 34 86 35 29 36 85 37
REMARK SMILES IDX 30 38 31 39 32 40 79 41 33 42 84 43 78 44 80 45 34 46 83 47
REMARK SMILES IDX 77 48 76 49 35 51 65 52 46 53 64 54 47 55 50 56 63 57 81 58
REMARK SMILES IDX 48 59 49 60 62 62 82 63 51 64 36 65 37 66 45 67 38 68 44 69
REMARK SMILES IDX 39 70 40 71 41 72 42 73 43 74 66 75 67 76 75 77 68 78 74 79
REMARK SMILES IDX 69 80 70 81 71 82 72 83 73 84 52 85 53 86 61 87 54 88 60 89
REMARK SMILES IDX 55 90 56 91 57 92 58 93 59 94
REMARK H PARENT 19 5 9 14 12 16 3 21 24 31 80 50 50 61
REMARK Flexibility Score: inf
ROOT
ATOM      1  C   UNL A   1      38.934  22.332  26.128  1.00  0.00     0.116 C 
ENDROOT
BRANCH   1   2
ATOM      2  N   UNL A   1      37.976  21.741  25.224  1.00  0.00    -0.356 N 
ATOM      3  C   UNL A   1      36.885  22.388  24.710  1.00  0.00     0.227 C 
ATOM      4  O   UNL A   1      36.760  22.336  23.478  1.00  0.00    -0.274 OA
ATOM      5  H   UNL A   1      38.117  20.804  24.957  1.00  0.00     0.163 HD
BRANCH   3   6
ATOM      6  C   UNL A   1      35.771  23.062  25.547  1.00  0.00     0.103 C 
ATOM      7  C   UNL A   1      33.553  24.203  25.336  1.00  0.00     0.107 C 
ATOM      8  C   UNL A   1      33.430  22.787  25.729  1.00  0.00    -0.006 C 
ATOM      9  C   UNL A   1      35.097  24.402  25.226  1.00  0.00     0.047 C 
ATOM     10  C   UNL A   1      34.605  22.153  25.810  1.00  0.00    -0.016 C 
BRANCH   7  11
ATOM     11  N   UNL A   1      32.901  24.637  24.099  1.00  0.00    -0.332 N 
ATOM     12  N   UNL A   1      32.143  26.891  23.784  1.00  0.00    -0.330 N 
ATOM     13  C   UNL A   1      32.507  25.680  23.380  1.00  0.00     0.315 C 
ATOM     14  H   UNL A   1      31.833  27.437  23.026  1.00  0.00     0.165 HD
ATOM     15  O   UNL A   1      32.389  25.463  22.166  1.00  0.00    -0.249 OA
ATOM     16  H   UNL A   1      32.654  23.827  23.598  1.00  0.00     0.165 HD
BRANCH  12  17
ATOM     17  C   UNL A   1      32.070  27.644  25.030  1.00  0.00     0.135 C 
ATOM     18  C   UNL A   1      31.123  26.885  25.966  1.00  0.00     0.037 C 
BRANCH  17  19
ATOM     19  C   UNL A   1      33.434  27.839  25.780  1.00  0.00     0.287 C 
BRANCH  19  20
ATOM     20  N   UNL A   1      33.963  29.166  26.126  1.00  0.00    -0.334 N 
ATOM     21  H   UNL A   1      34.673  29.315  25.410  1.00  0.00     0.348 HD
BRANCH  20  22
ATOM     22  C   UNL A   1      33.036  30.285  25.936  1.00  0.00     0.258 C 
ATOM     23  C   UNL A   1      31.986  30.341  27.034  1.00  0.00     0.071 C 
ENDBRANCH  20  22
BRANCH  20  24
ATOM     24  C   UNL A   1      34.683  29.220  27.391  1.00  0.00     0.258 C 
ATOM     25  C   UNL A   1      35.426  30.519  27.603  1.00  0.00     0.071 C 
ENDBRANCH  20  24
ENDBRANCH  19  20
ENDBRANCH  17  19
ENDBRANCH  12  17
ENDBRANCH   7  11
ENDBRANCH   3   6
ENDBRANCH   1   2
BRANCH   1  26
ATOM     26  C   UNL A   1      40.121  21.466  26.534  1.00  0.00     0.023 C 
BRANCH  26  27
ATOM     27  C   UNL A   1      41.014  22.047  27.636  1.00  0.00     0.023 C 
BRANCH  27  28
ATOM     28  C   UNL A   1      42.226  22.878  27.198  1.00  0.00     0.116 C 
BRANCH  28  29
ATOM     29  N   UNL A   1      41.967  23.817  26.114  1.00  0.00    -0.352 N 
ATOM     30  C   UNL A   1      41.722  25.175  26.144  1.00  0.00     0.251 C 
ATOM     31  H   UNL A   1      41.965  23.417  25.214  1.00  0.00     0.163 HD
ATOM     32  O   UNL A   1      41.513  25.780  25.102  1.00  0.00    -0.269 OA
BRANCH  30  33
ATOM     33  C   UNL A   1      41.653  25.891  27.439  1.00  0.00     0.039 A 
ATOM     34  C   UNL A   1      42.714  26.727  27.798  1.00  0.00     0.014 A 
ATOM     35  C   UNL A   1      40.539  25.783  28.272  1.00  0.00     0.014 A 
ATOM     36  C   UNL A   1      42.602  27.546  28.925  1.00  0.00     0.010 A 
ATOM     37  C   UNL A   1      40.391  26.663  29.342  1.00  0.00     0.010 A 
ATOM     38  C   UNL A   1      41.410  27.569  29.670  1.00  0.00    -0.014 A 
BRANCH  38  39
ATOM     39  C   UNL A   1      41.198  28.567  30.755  1.00  0.00     0.031 A 
ATOM     40  C   UNL A   1      42.019  28.518  32.016  1.00  0.00     0.074 A 
ATOM     41  C   UNL A   1      40.201  29.469  30.644  1.00  0.00     0.049 A 
ATOM     42  N   UNL A   1      41.927  29.263  33.088  1.00  0.00    -0.248 NA
ATOM     43  C   UNL A   1      43.055  27.477  32.095  1.00  0.00     0.031 C 
ATOM     44  C   UNL A   1      39.282  29.583  29.507  1.00  0.00     0.029 A 
ATOM     45  N   UNL A   1      39.782  30.455  31.504  1.00  0.00    -0.354 N 
ATOM     46  C   UNL A   1      42.876  28.769  33.975  1.00  0.00     0.074 A 
ATOM     47  C   UNL A   1      43.494  27.627  33.335  1.00  0.00     0.031 C 
ATOM     48  C   UNL A   1      38.427  30.594  29.730  1.00  0.00     0.029 A 
ATOM     49  C   UNL A   1      38.708  31.177  31.038  1.00  0.00     0.049 A 
ATOM     50  H   UNL A   1      40.211  30.628  32.373  1.00  0.00     0.167 HD
ATOM     51  C   UNL A   1      43.219  29.231  35.202  1.00  0.00     0.031 A 
ATOM     52  C   UNL A   1      38.018  32.191  31.597  1.00  0.00     0.031 A 
ATOM     53  C   UNL A   1      42.613  30.371  35.838  1.00  0.00     0.049 A 
ATOM     54  C   UNL A   1      38.432  32.707  32.947  1.00  0.00     0.074 A 
ATOM     55  C   UNL A   1      42.935  30.955  37.051  1.00  0.00     0.029 A 
ATOM     56  N   UNL A   1      41.556  31.100  35.313  1.00  0.00    -0.354 N 
ATOM     57  N   UNL A   1      39.387  32.275  33.735  1.00  0.00    -0.248 NA
ATOM     58  C   UNL A   1      37.687  33.858  33.473  1.00  0.00     0.031 C 
ATOM     59  C   UNL A   1      42.045  32.010  37.280  1.00  0.00     0.029 A 
ATOM     60  C   UNL A   1      41.201  32.117  36.186  1.00  0.00     0.049 A 
ATOM     61  H   UNL A   1      41.121  30.922  34.448  1.00  0.00     0.167 HD
ATOM     62  C   UNL A   1      39.370  33.112  34.844  1.00  0.00     0.074 A 
ATOM     63  C   UNL A   1      38.323  34.088  34.615  1.00  0.00     0.031 C 
ATOM     64  C   UNL A   1      40.150  33.076  35.952  1.00  0.00     0.031 A 
BRANCH  51  65
ATOM     65  C   UNL A   1      44.305  28.487  35.938  1.00  0.00    -0.014 A 
ATOM     66  C   UNL A   1      45.658  28.838  35.780  1.00  0.00     0.010 A 
ATOM     67  C   UNL A   1      43.969  27.429  36.800  1.00  0.00     0.010 A 
ATOM     68  C   UNL A   1      46.659  28.105  36.422  1.00  0.00     0.020 A 
ATOM     69  C   UNL A   1      44.966  26.712  37.468  1.00  0.00     0.020 A 
ATOM     70  C   UNL A   1      46.307  27.039  37.254  1.00  0.00     0.054 A 
BRANCH  70  71
ATOM     71  S   UNL A   1      47.626  26.096  38.067  1.00  0.00     0.124 S 
ATOM     72  O   UNL A   1      47.179  24.719  37.867  1.00  0.00    -0.237 OA
ATOM     73  O   UNL A   1      48.814  26.485  37.311  1.00  0.00    -0.237 OA
ATOM     74  O   UNL A   1      47.589  26.568  39.449  1.00  0.00    -0.744 OA
ENDBRANCH  70  71
ENDBRANCH  51  65
BRANCH  52  75
ATOM     75  C   UNL A   1      36.873  32.796  30.863  1.00  0.00    -0.014 A 
ATOM     76  C   UNL A   1      35.556  32.386  31.131  1.00  0.00     0.010 A 
ATOM     77  C   UNL A   1      37.095  33.813  29.916  1.00  0.00     0.010 A 
ATOM     78  C   UNL A   1      34.480  32.975  30.459  1.00  0.00     0.020 A 
ATOM     79  C   UNL A   1      36.020  34.422  29.261  1.00  0.00     0.020 A 
ATOM     80  C   UNL A   1      34.719  33.993  29.531  1.00  0.00     0.054 A 
BRANCH  80  81
ATOM     81  S   UNL A   1      33.304  34.796  28.726  1.00  0.00     0.124 S 
ATOM     82  O   UNL A   1      32.459  35.136  29.865  1.00  0.00    -0.237 OA
ATOM     83  O   UNL A   1      33.930  35.925  28.041  1.00  0.00    -0.237 OA
ATOM     84  O   UNL A   1      32.780  33.755  27.843  1.00  0.00    -0.744 OA
ENDBRANCH  80  81
ENDBRANCH  52  75
BRANCH  64  85
ATOM     85  C   UNL A   1      39.917  34.137  36.995  1.00  0.00    -0.014 A 
ATOM     86  C   UNL A   1      40.489  35.416  36.874  1.00  0.00     0.010 A 
ATOM     87  C   UNL A   1      39.084  33.860  38.093  1.00  0.00     0.010 A 
ATOM     88  C   UNL A   1      40.263  36.387  37.854  1.00  0.00     0.020 A 
ATOM     89  C   UNL A   1      38.833  34.837  39.061  1.00  0.00     0.020 A 
ATOM     90  C   UNL A   1      39.438  36.089  38.944  1.00  0.00     0.054 A 
BRANCH  90  91
ATOM     91  S   UNL A   1      39.135  37.374  40.189  1.00  0.00     0.124 S 
ATOM     92  O   UNL A   1      38.538  36.606  41.277  1.00  0.00    -0.237 OA
ATOM     93  O   UNL A   1      40.476  37.893  40.449  1.00  0.00    -0.237 OA
ATOM     94  O   UNL A   1      38.233  38.304  39.513  1.00  0.00    -0.744 OA
ENDBRANCH  90  91
ENDBRANCH  64  85
ENDBRANCH  38  39
ENDBRANCH  30  33
ENDBRANCH  28  29
ENDBRANCH  27  28
ENDBRANCH  26  27
ENDBRANCH   1  26
TORSDOF 20
ENDMDL
MODEL 2
REMARK VINA RESULT:     -10.1      4.475     12.201
REMARK SMILES CC[NH+](CC)C[C@H](C)NC(=O)N[C@H]1C=C[C@@H](C(=O)NCCCCNC(=O)c2ccc(-c3c4nc(c(-c5ccc(S(=O)(=O)[O-])cc5)c5ccc([nH]5)c(-c5ccc(S(=O)(=O)[O-])cc5)c5nc(c(-c6ccc(S(=O)(=O)[O-])cc6)c6ccc3[nH]6)C=C5)C=C4)cc2)C1
REMARK SMILES IDX 20 1 19 2 17 3 18 4 16 6 13 7 14 8 87 9 15 10 12 11 9 12
REMARK SMILES IDX 10 13 11 15 7 17 8 18 6 19 3 20 2 22 1 23 4 24 5 25 21 26
REMARK SMILES IDX 22 27 23 28 24 29 25 30 26 32 27 33 28 34 86 35 29 36 85 37
REMARK SMILES IDX 30 38 31 39 32 40 79 41 33 42 84 43 78 44 80 45 34 46 83 47
REMARK SMILES IDX 77 48 76 49 35 51 65 52 46 53 64 54 47 55 50 56 63 57 81 58
REMARK SMILES IDX 48 59 49 60 62 62 82 63 51 64 36 65 37 66 45 67 38 68 44 69
REMARK SMILES IDX 39 70 40 71 41 72 42 73 43 74 66 75 67 76 75 77 68 78 74 79
REMARK SMILES IDX 69 80 70 81 71 82 72 83 73 84 52 85 53 86 61 87 54 88 60 89
REMARK SMILES IDX 55 90 56 91 57 92 58 93 59 94
REMARK H PARENT 19 5 9 14 12 16 3 21 24 31 80 50 50 61
REMARK Flexibility Score: inf
ROOT
ATOM      1  C   UNL A   1      35.695  32.103  32.309  1.00  0.00     0.116 C 
ENDROOT
BRANCH   1   2
ATOM      2  N   UNL A   1      36.257  32.005  33.636  1.00  0.00    -0.356 N 
ATOM      3  C   UNL A   1      37.574  32.214  33.943  1.00  0.00     0.227 C 
ATOM      4  O   UNL A   1      37.791  33.015  34.864  1.00  0.00    -0.274 OA
ATOM      5  H   UNL A   1      35.649  31.771  34.374  1.00  0.00     0.163 HD
BRANCH   3   6
ATOM      6  C   UNL A   1      38.769  31.456  33.315  1.00  0.00     0.103 C 
ATOM      7  C   UNL A   1      40.688  29.958  33.895  1.00  0.00     0.107 C 
ATOM      8  C   UNL A   1      39.529  29.218  33.361  1.00  0.00    -0.006 C 
ATOM      9  C   UNL A   1      40.203  31.441  33.856  1.00  0.00     0.047 C 
ATOM     10  C   UNL A   1      38.481  30.001  33.081  1.00  0.00    -0.016 C 
BRANCH   7  11
ATOM     11  N   UNL A   1      41.166  29.620  35.236  1.00  0.00    -0.332 N 
ATOM     12  N   UNL A   1      42.635  27.764  35.633  1.00  0.00    -0.330 N 
ATOM     13  C   UNL A   1      42.044  28.914  35.937  1.00  0.00     0.315 C 
ATOM     14  H   UNL A   1      43.188  27.445  36.382  1.00  0.00     0.165 HD
ATOM     15  O   UNL A   1      42.285  29.357  37.069  1.00  0.00    -0.249 OA
ATOM     16  H   UNL A   1      40.610  30.116  35.879  1.00  0.00     0.165 HD
BRANCH  12  17
ATOM     17  C   UNL A   1      42.696  26.840  34.509  1.00  0.00     0.135 C 
ATOM     18  C   UNL A   1      43.572  27.489  33.432  1.00  0.00     0.037 C 
BRANCH  17  19
ATOM     19  C   UNL A   1      43.297  25.427  34.830  1.00  0.00     0.287 C 
BRANCH  19  20
ATOM     20  N   UNL A   1      44.719  25.110  34.637  1.00  0.00    -0.334 N 
ATOM     21  H   UNL A   1      45.003  25.789  33.931  1.00  0.00     0.348 HD
BRANCH  20  22
ATOM     22  C   UNL A   1      45.592  25.404  35.776  1.00  0.00     0.258 C 
ATOM     23  C   UNL A   1      46.951  24.736  35.634  1.00  0.00     0.071 C 
ENDBRANCH  20  22
BRANCH  20  24
ATOM     24  C   UNL A   1      44.973  23.809  34.033  1.00  0.00     0.258 C 
ATOM     25  C   UNL A   1      44.258  23.609  32.717  1.00  0.00     0.071 C 
ENDBRANCH  20  24
ENDBRANCH  19  20
ENDBRANCH  17  19
ENDBRANCH  12  17
ENDBRANCH   7  11
ENDBRANCH   3   6
ENDBRANCH   1   2
BRANCH   1  26
ATOM     26  C   UNL A   1      36.212  33.232  31.425  1.00  0.00     0.023 C 
BRANCH  26  27
ATOM     27  C   UNL A   1      35.247  33.709  30.334  1.00  0.00     0.023 C 
BRANCH  27  28
ATOM     28  C   UNL A   1      35.560  33.304  28.889  1.00  0.00     0.116 C 
BRANCH  28  29
ATOM     29  N   UNL A   1      34.590  32.403  28.280  1.00  0.00    -0.352 N 
ATOM     30  C   UNL A   1      34.682  31.058  27.981  1.00  0.00     0.251 C 
ATOM     31  H   UNL A   1      33.731  32.820  28.043  1.00  0.00     0.163 HD
ATOM     32  O   UNL A   1      33.741  30.486  27.449  1.00  0.00    -0.269 OA
BRANCH  30  33
ATOM     33  C   UNL A   1      35.939  30.320  28.245  1.00  0.00     0.039 A 
ATOM     34  C   UNL A   1      36.893  30.241  27.226  1.00  0.00     0.014 A 
ATOM     35  C   UNL A   1      36.204  29.754  29.492  1.00  0.00     0.014 A 
ATOM     36  C   UNL A   1      38.155  29.705  27.497  1.00  0.00     0.010 A 
ATOM     37  C   UNL A   1      37.489  29.304  29.786  1.00  0.00     0.010 A 
ATOM     38  C   UNL A   1      38.487  29.292  28.799  1.00  0.00    -0.014 A 
BRANCH  38  39
ATOM     39  C   UNL A   1      39.879  28.898  29.153  1.00  0.00     0.031 A 
ATOM     40  C   UNL A   1      40.818  29.885  29.793  1.00  0.00     0.074 A 
ATOM     41  C   UNL A   1      40.329  27.672  28.816  1.00  0.00     0.049 A 
ATOM     42  N   UNL A   1      42.079  29.736  30.110  1.00  0.00    -0.248 NA
ATOM     43  C   UNL A   1      40.279  31.222  30.087  1.00  0.00     0.031 C 
ATOM     44  C   UNL A   1      39.548  26.640  28.127  1.00  0.00     0.029 A 
ATOM     45  N   UNL A   1      41.559  27.087  28.994  1.00  0.00    -0.354 N 
ATOM     46  C   UNL A   1      42.489  30.963  30.619  1.00  0.00     0.074 A 
ATOM     47  C   UNL A   1      41.357  31.858  30.518  1.00  0.00     0.031 C 
ATOM     48  C   UNL A   1      40.308  25.545  27.964  1.00  0.00     0.029 A 
ATOM     49  C   UNL A   1      41.640  25.806  28.500  1.00  0.00     0.049 A 
ATOM     50  H   UNL A   1      42.312  27.542  29.435  1.00  0.00     0.167 HD
ATOM     51  C   UNL A   1      43.691  31.310  31.140  1.00  0.00     0.031 A 
ATOM     52  C   UNL A   1      42.669  24.935  28.472  1.00  0.00     0.031 A 
ATOM     53  C   UNL A   1      44.816  30.419  31.250  1.00  0.00     0.049 A 
ATOM     54  C   UNL A   1      43.985  25.331  29.080  1.00  0.00     0.074 A 
ATOM     55  C   UNL A   1      46.054  30.660  31.822  1.00  0.00     0.029 A 
ATOM     56  N   UNL A   1      44.843  29.117  30.775  1.00  0.00    -0.354 N 
ATOM     57  N   UNL A   1      44.327  26.472  29.630  1.00  0.00    -0.248 NA
ATOM     58  C   UNL A   1      45.047  24.316  29.081  1.00  0.00     0.031 C 
ATOM     59  C   UNL A   1      46.843  29.517  31.653  1.00  0.00     0.029 A 
ATOM     60  C   UNL A   1      46.081  28.546  31.022  1.00  0.00     0.049 A 
ATOM     61  H   UNL A   1      44.093  28.664  30.326  1.00  0.00     0.167 HD
ATOM     62  C   UNL A   1      45.639  26.307  30.058  1.00  0.00     0.074 A 
ATOM     63  C   UNL A   1      46.021  24.949  29.722  1.00  0.00     0.031 C 
ATOM     64  C   UNL A   1      46.454  27.198  30.674  1.00  0.00     0.031 A 
BRANCH  51  65
ATOM     65  C   UNL A   1      43.843  32.728  31.629  1.00  0.00    -0.014 A 
ATOM     66  C   UNL A   1      43.462  33.090  32.934  1.00  0.00     0.010 A 
ATOM     67  C   UNL A   1      44.377  33.710  30.776  1.00  0.00     0.010 A 
ATOM     68  C   UNL A   1      43.553  34.419  33.356  1.00  0.00     0.020 A 
ATOM     69  C   UNL A   1      44.499  35.036  31.205  1.00  0.00     0.020 A 
ATOM     70  C   UNL A   1      44.062  35.386  32.484  1.00  0.00     0.054 A 
BRANCH  70  71
ATOM     71  S   UNL A   1      44.161  37.105  33.053  1.00  0.00     0.124 S 
ATOM     72  O   UNL A   1      44.433  37.818  31.807  1.00  0.00    -0.237 OA
ATOM     73  O   UNL A   1      42.837  37.331  33.629  1.00  0.00    -0.237 OA
ATOM     74  O   UNL A   1      45.260  37.090  34.015  1.00  0.00    -0.744 OA
ENDBRANCH  70  71
ENDBRANCH  51  65
BRANCH  52  75
ATOM     75  C   UNL A   1      42.481  23.592  27.857  1.00  0.00    -0.014 A 
ATOM     76  C   UNL A   1      42.945  23.330  26.557  1.00  0.00     0.010 A 
ATOM     77  C   UNL A   1      41.867  22.558  28.587  1.00  0.00     0.010 A 
ATOM     78  C   UNL A   1      42.791  22.060  25.992  1.00  0.00     0.020 A 
ATOM     79  C   UNL A   1      41.734  21.280  28.035  1.00  0.00     0.020 A 
ATOM     80  C   UNL A   1      42.190  21.041  26.738  1.00  0.00     0.054 A 
BRANCH  80  81
ATOM     81  S   UNL A   1      42.068  19.381  26.014  1.00  0.00     0.124 S 
ATOM     82  O   UNL A   1      42.933  19.494  24.846  1.00  0.00    -0.237 OA
ATOM     83  O   UNL A   1      42.567  18.529  27.093  1.00  0.00    -0.237 OA
ATOM     84  O   UNL A   1      40.642  19.238  25.730  1.00  0.00    -0.744 OA
ENDBRANCH  80  81
ENDBRANCH  52  75
BRANCH  64  85
ATOM     85  C   UNL A   1      47.835  26.728  31.046  1.00  0.00    -0.014 A 
ATOM     86  C   UNL A   1      48.083  26.097  32.279  1.00  0.00     0.010 A 
ATOM     87  C   UNL A   1      48.892  26.888  30.133  1.00  0.00     0.010 A 
ATOM     88  C   UNL A   1      49.373  25.670  32.607  1.00  0.00     0.020 A 
ATOM     89  C   UNL A   1      50.178  26.437  30.446  1.00  0.00     0.020 A 
ATOM     90  C   UNL A   1      50.413  25.846  31.688  1.00  0.00     0.054 A 
BRANCH  90  91
ATOM     91  S   UNL A   1      52.073  25.257  32.123  1.00  0.00     0.124 S 
ATOM     92  O   UNL A   1      51.878  23.811  32.175  1.00  0.00    -0.237 OA
ATOM     93  O   UNL A   1      52.889  25.741  31.012  1.00  0.00    -0.237 OA
ATOM     94  O   UNL A   1      52.341  25.897  33.409  1.00  0.00    -0.744 OA
ENDBRANCH  90  91
ENDBRANCH  64  85
ENDBRANCH  38  39
ENDBRANCH  30  33
ENDBRANCH  28  29
ENDBRANCH  27  28
ENDBRANCH  26  27
ENDBRANCH   1  26
TORSDOF 20
ENDMDL
MODEL 3
REMARK VINA RESULT:      -9.9      2.338      8.886
REMARK SMILES CC[NH+](CC)C[C@H](C)NC(=O)N[C@H]1C=C[C@@H](C(=O)NCCCCNC(=O)c2ccc(-c3c4nc(c(-c5ccc(S(=O)(=O)[O-])cc5)c5ccc([nH]5)c(-c5ccc(S(=O)(=O)[O-])cc5)c5nc(c(-c6ccc(S(=O)(=O)[O-])cc6)c6ccc3[nH]6)C=C5)C=C4)cc2)C1
REMARK SMILES IDX 20 1 19 2 17 3 18 4 16 6 13 7 14 8 87 9 15 10 12 11 9 12
REMARK SMILES IDX 10 13 11 15 7 17 8 18 6 19 3 20 2 22 1 23 4 24 5 25 21 26
REMARK SMILES IDX 22 27 23 28 24 29 25 30 26 32 27 33 28 34 86 35 29 36 85 37
REMARK SMILES IDX 30 38 31 39 32 40 79 41 33 42 84 43 78 44 80 45 34 46 83 47
REMARK SMILES IDX 77 48 76 49 35 51 65 52 46 53 64 54 47 55 50 56 63 57 81 58
REMARK SMILES IDX 48 59 49 60 62 62 82 63 51 64 36 65 37 66 45 67 38 68 44 69
REMARK SMILES IDX 39 70 40 71 41 72 42 73 43 74 66 75 67 76 75 77 68 78 74 79
REMARK SMILES IDX 69 80 70 81 71 82 72 83 73 84 52 85 53 86 61 87 54 88 60 89
REMARK SMILES IDX 55 90 56 91 57 92 58 93 59 94
REMARK H PARENT 19 5 9 14 12 16 3 21 24 31 80 50 50 61
REMARK Flexibility Score: inf
ROOT
ATOM      1  C   UNL A   1      31.519  28.428  27.644  1.00  0.00     0.116 C 
ENDROOT
BRANCH   1   2
ATOM      2  N   UNL A   1      31.617  27.243  26.825  1.00  0.00    -0.356 N 
ATOM      3  C   UNL A   1      32.613  27.000  25.920  1.00  0.00     0.227 C 
ATOM      4  O   UNL A   1      33.184  25.904  26.029  1.00  0.00    -0.274 OA
ATOM      5  H   UNL A   1      30.916  26.559  26.925  1.00  0.00     0.163 HD
BRANCH   3   6
ATOM      6  C   UNL A   1      32.988  27.922  24.735  1.00  0.00     0.103 C 
ATOM      7  C   UNL A   1      33.288  27.931  22.250  1.00  0.00     0.107 C 
ATOM      8  C   UNL A   1      31.980  28.470  22.668  1.00  0.00    -0.006 C 
ATOM      9  C   UNL A   1      33.971  27.579  23.609  1.00  0.00     0.047 C 
ATOM     10  C   UNL A   1      31.790  28.438  23.991  1.00  0.00    -0.016 C 
BRANCH   7  11
ATOM     11  N   UNL A   1      33.306  26.767  21.362  1.00  0.00    -0.332 N 
ATOM     12  N   UNL A   1      32.045  24.783  21.840  1.00  0.00    -0.330 N 
ATOM     13  C   UNL A   1      32.719  25.617  21.057  1.00  0.00     0.315 C 
ATOM     14  H   UNL A   1      31.784  23.972  21.347  1.00  0.00     0.165 HD
ATOM     15  O   UNL A   1      32.896  25.233  19.893  1.00  0.00    -0.249 OA
ATOM     16  H   UNL A   1      34.059  26.886  20.739  1.00  0.00     0.165 HD
BRANCH  12  17
ATOM     17  C   UNL A   1      31.580  24.725  23.220  1.00  0.00     0.135 C 
ATOM     18  C   UNL A   1      30.270  25.518  23.294  1.00  0.00     0.037 C 
BRANCH  17  19
ATOM     19  C   UNL A   1      31.304  23.286  23.778  1.00  0.00     0.287 C 
BRANCH  19  20
ATOM     20  N   UNL A   1      32.272  22.563  24.615  1.00  0.00    -0.334 N 
ATOM     21  H   UNL A   1      32.024  21.588  24.449  1.00  0.00     0.348 HD
BRANCH  20  22
ATOM     22  C   UNL A   1      33.669  22.647  24.180  1.00  0.00     0.258 C 
ATOM     23  C   UNL A   1      34.503  21.504  24.735  1.00  0.00     0.071 C 
ENDBRANCH  20  22
BRANCH  20  24
ATOM     24  C   UNL A   1      32.099  22.759  26.048  1.00  0.00     0.258 C 
ATOM     25  C   UNL A   1      30.653  22.906  26.463  1.00  0.00     0.071 C 
ENDBRANCH  20  24
ENDBRANCH  19  20
ENDBRANCH  17  19
ENDBRANCH  12  17
ENDBRANCH   7  11
ENDBRANCH   3   6
ENDBRANCH   1   2
BRANCH   1  26
ATOM     26  C   UNL A   1      32.711  29.379  27.622  1.00  0.00     0.023 C 
BRANCH  26  27
ATOM     27  C   UNL A   1      32.413  30.796  27.119  1.00  0.00     0.023 C 
BRANCH  27  28
ATOM     28  C   UNL A   1      33.492  31.863  27.337  1.00  0.00     0.116 C 
BRANCH  28  29
ATOM     29  N   UNL A   1      32.986  33.199  27.625  1.00  0.00    -0.352 N 
ATOM     30  C   UNL A   1      33.410  34.140  28.541  1.00  0.00     0.251 C 
ATOM     31  H   UNL A   1      32.214  33.474  27.078  1.00  0.00     0.163 HD
ATOM     32  O   UNL A   1      32.826  35.211  28.631  1.00  0.00    -0.269 OA
BRANCH  30  33
ATOM     33  C   UNL A   1      34.533  33.833  29.457  1.00  0.00     0.039 A 
ATOM     34  C   UNL A   1      34.257  33.157  30.649  1.00  0.00     0.014 A 
ATOM     35  C   UNL A   1      35.850  34.161  29.132  1.00  0.00     0.014 A 
ATOM     36  C   UNL A   1      35.309  32.702  31.448  1.00  0.00     0.010 A 
ATOM     37  C   UNL A   1      36.898  33.630  29.881  1.00  0.00     0.010 A 
ATOM     38  C   UNL A   1      36.641  32.876  31.036  1.00  0.00    -0.014 A 
BRANCH  38  39
ATOM     39  C   UNL A   1      37.767  32.236  31.771  1.00  0.00     0.031 A 
ATOM     40  C   UNL A   1      38.214  32.767  33.107  1.00  0.00     0.074 A 
ATOM     41  C   UNL A   1      38.449  31.225  31.194  1.00  0.00     0.049 A 
ATOM     42  N   UNL A   1      39.214  32.377  33.856  1.00  0.00    -0.248 NA
ATOM     43  C   UNL A   1      37.461  33.905  33.656  1.00  0.00     0.031 C 
ATOM     44  C   UNL A   1      38.169  30.657  29.872  1.00  0.00     0.029 A 
ATOM     45  N   UNL A   1      39.529  30.501  31.639  1.00  0.00    -0.354 N 
ATOM     46  C   UNL A   1      39.223  33.232  34.952  1.00  0.00     0.074 A 
ATOM     47  C   UNL A   1      38.162  34.193  34.742  1.00  0.00     0.031 C 
ATOM     48  C   UNL A   1      39.035  29.662  29.625  1.00  0.00     0.029 A 
ATOM     49  C   UNL A   1      39.957  29.543  30.750  1.00  0.00     0.049 A 
ATOM     50  H   UNL A   1      39.956  30.654  32.513  1.00  0.00     0.167 HD
ATOM     51  C   UNL A   1      40.025  33.209  36.044  1.00  0.00     0.031 A 
ATOM     52  C   UNL A   1      40.980  28.668  30.822  1.00  0.00     0.031 A 
ATOM     53  C   UNL A   1      41.075  32.248  36.261  1.00  0.00     0.049 A 
ATOM     54  C   UNL A   1      41.840  28.641  32.054  1.00  0.00     0.074 A 
ATOM     55  C   UNL A   1      41.898  32.105  37.364  1.00  0.00     0.029 A 
ATOM     56  N   UNL A   1      41.448  31.268  35.353  1.00  0.00    -0.354 N 
ATOM     57  N   UNL A   1      41.780  29.408  33.116  1.00  0.00    -0.248 NA
ATOM     58  C   UNL A   1      42.895  27.620  32.105  1.00  0.00     0.031 C 
ATOM     59  C   UNL A   1      42.799  31.066  37.105  1.00  0.00     0.029 A 
ATOM     60  C   UNL A   1      42.503  30.528  35.863  1.00  0.00     0.049 A 
ATOM     61  H   UNL A   1      41.027  31.120  34.477  1.00  0.00     0.167 HD
ATOM     62  C   UNL A   1      42.777  28.951  33.970  1.00  0.00     0.074 A 
ATOM     63  C   UNL A   1      43.411  27.828  33.309  1.00  0.00     0.031 C 
ATOM     64  C   UNL A   1      43.134  29.419  35.192  1.00  0.00     0.031 A 
BRANCH  51  65
ATOM     65  C   UNL A   1      39.792  34.271  37.089  1.00  0.00    -0.014 A 
ATOM     66  C   UNL A   1      40.242  35.589  36.896  1.00  0.00     0.010 A 
ATOM     67  C   UNL A   1      39.110  33.949  38.276  1.00  0.00     0.010 A 
ATOM     68  C   UNL A   1      40.071  36.551  37.896  1.00  0.00     0.020 A 
ATOM     69  C   UNL A   1      38.909  34.915  39.266  1.00  0.00     0.020 A 
ATOM     70  C   UNL A   1      39.414  36.204  39.080  1.00  0.00     0.054 A 
BRANCH  70  71
ATOM     71  S   UNL A   1      39.214  37.467  40.366  1.00  0.00     0.124 S 
ATOM     72  O   UNL A   1      38.426  38.482  39.670  1.00  0.00    -0.237 OA
ATOM     73  O   UNL A   1      38.511  36.743  41.423  1.00  0.00    -0.237 OA
ATOM     74  O   UNL A   1      40.585  37.854  40.688  1.00  0.00    -0.744 OA
ENDBRANCH  70  71
ENDBRANCH  51  65
BRANCH  52  75
ATOM     75  C   UNL A   1      41.229  27.730  29.693  1.00  0.00    -0.014 A 
ATOM     76  C   UNL A   1      40.331  26.684  29.422  1.00  0.00     0.010 A 
ATOM     77  C   UNL A   1      42.350  27.903  28.861  1.00  0.00     0.010 A 
ATOM     78  C   UNL A   1      40.553  25.820  28.344  1.00  0.00     0.020 A 
ATOM     79  C   UNL A   1      42.562  27.058  27.767  1.00  0.00     0.020 A 
ATOM     80  C   UNL A   1      41.665  26.016  27.520  1.00  0.00     0.054 A 
BRANCH  80  81
ATOM     81  S   UNL A   1      41.894  24.932  26.083  1.00  0.00     0.124 S 
ATOM     82  O   UNL A   1      41.370  25.751  24.997  1.00  0.00    -0.237 OA
ATOM     83  O   UNL A   1      43.341  24.719  26.076  1.00  0.00    -0.237 OA
ATOM     84  O   UNL A   1      41.102  23.751  26.419  1.00  0.00    -0.744 OA
ENDBRANCH  80  81
ENDBRANCH  52  75
BRANCH  64  85
ATOM     85  C   UNL A   1      44.250  28.703  35.905  1.00  0.00    -0.014 A 
ATOM     86  C   UNL A   1      45.588  29.112  35.761  1.00  0.00     0.010 A 
ATOM     87  C   UNL A   1      43.951  27.627  36.760  1.00  0.00     0.010 A 
ATOM     88  C   UNL A   1      46.611  28.434  36.430  1.00  0.00     0.020 A 
ATOM     89  C   UNL A   1      44.968  26.964  37.452  1.00  0.00     0.020 A 
ATOM     90  C   UNL A   1      46.293  27.361  37.269  1.00  0.00     0.054 A 
BRANCH  90  91
ATOM     91  S   UNL A   1      47.634  26.513  38.150  1.00  0.00     0.124 S 
ATOM     92  O   UNL A   1      48.451  26.012  37.049  1.00  0.00    -0.237 OA
ATOM     93  O   UNL A   1      48.233  27.588  38.938  1.00  0.00    -0.237 OA
ATOM     94  O   UNL A   1      46.942  25.489  38.930  1.00  0.00    -0.744 OA
ENDBRANCH  90  91
ENDBRANCH  64  85
ENDBRANCH  38  39
ENDBRANCH  30  33
ENDBRANCH  28  29
ENDBRANCH  27  28
ENDBRANCH  26  27
ENDBRANCH   1  26
TORSDOF 20
ENDMDL
