MODEL 1
REMARK VINA RESULT:     -11.3      0.000      0.000
REMARK SMILES C[NH+]1CCC2(CC1)OC[C@H](C(=O)NCCCCNC(=O)c1ccc(-c3c4nc(c(-c5ccc(S(=O)(=O)[O-])cc5)c5ccc([nH]5)c(-c5ccc(S(=O)(=O)[O-])cc5)c5nc(c(-c6ccc(S(=O)(=O)[O-])cc6)c6ccc3[nH]6)C=C5)C=C4)cc1)N2C(=O)c1cc(C(F)(F)F)cc(C(F)(F)F)c1
REMARK SMILES IDX 15 1 14 2 13 3 11 4 12 5 10 7 1 8 2 9 3 10 7 11 4 13 6 14
REMARK SMILES IDX 5 15 8 16 81 17 9 18 82 19 83 20 84 21 85 22 97 23 86 24
REMARK SMILES IDX 92 25 91 26 87 27 88 28 89 29 90 30 93 31 94 32 95 33 96 34
REMARK SMILES IDX 16 35 17 36 18 37 19 38 20 40 21 41 22 42 80 43 23 44 79 45
REMARK SMILES IDX 24 46 25 47 26 48 73 49 27 50 78 51 72 52 74 53 28 54 77 55
REMARK SMILES IDX 71 56 70 57 29 59 59 60 40 61 58 62 41 63 44 64 57 65 75 66
REMARK SMILES IDX 42 67 43 68 56 70 76 71 45 72 30 73 31 74 39 75 32 76 38 77
REMARK SMILES IDX 33 78 34 79 35 80 36 81 37 82 60 83 61 84 69 85 62 86 68 87
REMARK SMILES IDX 63 88 64 89 65 90 66 91 67 92 46 93 47 94 55 95 48 96 54 97
REMARK SMILES IDX 49 98 50 99 51 100 52 101 53 102
REMARK H PARENT 13 6 2 12 18 39 74 58 44 69
REMARK Flexibility Score: inf
ROOT
ATOM      1  C   UNL A   1      32.770  28.298  24.434  1.00  0.00     0.023 C 
ENDROOT
BRANCH   1   2
ATOM      2  C   UNL A   1      32.957  27.132  23.463  1.00  0.00     0.116 C 
BRANCH   2   3
ATOM      3  N   UNL A   1      31.877  26.178  23.582  1.00  0.00    -0.354 N 
ATOM      4  C   UNL A   1      31.791  25.019  24.283  1.00  0.00     0.245 C 
ATOM      5  O   UNL A   1      30.737  24.393  24.141  1.00  0.00    -0.273 OA
ATOM      6  H   UNL A   1      31.069  26.407  23.068  1.00  0.00     0.163 HD
BRANCH   4   7
ATOM      7  C   UNL A   1      32.945  24.528  25.187  1.00  0.00     0.203 C 
ATOM      8  C   UNL A   1      32.430  18.207  24.304  1.00  0.00     0.332 C 
ATOM      9  N   UNL A   1      33.193  19.429  24.085  1.00  0.00    -0.337 N 
ATOM     10  C   UNL A   1      32.391  20.448  23.415  1.00  0.00     0.267 C 
ATOM     11  C   UNL A   1      33.961  19.842  25.257  1.00  0.00     0.267 C 
ATOM     12  H   UNL A   1      33.935  19.235  23.413  1.00  0.00     0.347 HD
ATOM     13  C   UNL A   1      31.789  21.510  24.302  1.00  0.00     0.120 C 
ATOM     14  C   UNL A   1      33.476  21.030  26.072  1.00  0.00     0.120 C 
ATOM     15  C   UNL A   1      32.779  22.138  25.287  1.00  0.00     0.155 C 
ATOM     16  O   UNL A   1      31.928  22.757  26.314  1.00  0.00    -0.352 OA
ATOM     17  N   UNL A   1      33.586  23.276  24.767  1.00  0.00    -0.295 N 
ATOM     18  C   UNL A   1      32.335  24.116  26.504  1.00  0.00     0.198 C 
BRANCH  17  19
ATOM     19  C   UNL A   1      34.810  23.399  24.111  1.00  0.00     0.256 C 
ATOM     20  O   UNL A   1      34.923  23.973  23.027  1.00  0.00    -0.269 OA
BRANCH  19  21
ATOM     21  C   UNL A   1      36.088  22.941  24.683  1.00  0.00     0.041 A 
ATOM     22  C   UNL A   1      36.856  23.810  25.474  1.00  0.00     0.027 A 
ATOM     23  C   UNL A   1      36.607  21.697  24.333  1.00  0.00     0.027 A 
ATOM     24  C   UNL A   1      38.076  23.377  26.032  1.00  0.00     0.057 A 
ATOM     25  C   UNL A   1      37.740  21.191  24.988  1.00  0.00     0.057 A 
ATOM     26  C   UNL A   1      38.480  22.047  25.820  1.00  0.00     0.026 A 
BRANCH  24  27
ATOM     27  C   UNL A   1      38.928  24.315  26.855  1.00  0.00     0.416 C 
ATOM     28  F   UNL A   1      39.402  23.728  27.987  1.00  0.00    -0.166 F 
ATOM     29  F   UNL A   1      40.018  24.764  26.175  1.00  0.00    -0.166 F 
ATOM     30  F   UNL A   1      38.261  25.430  27.267  1.00  0.00    -0.166 F 
ENDBRANCH  24  27
BRANCH  25  31
ATOM     31  C   UNL A   1      38.108  19.727  24.889  1.00  0.00     0.416 C 
ATOM     32  F   UNL A   1      38.436  19.360  23.620  1.00  0.00    -0.166 F 
ATOM     33  F   UNL A   1      39.194  19.415  25.652  1.00  0.00    -0.166 F 
ATOM     34  F   UNL A   1      37.117  18.882  25.282  1.00  0.00    -0.166 F 
ENDBRANCH  25  31
ENDBRANCH  19  21
ENDBRANCH  17  19
ENDBRANCH   4   7
ENDBRANCH   2   3
ENDBRANCH   1   2
BRANCH   1  35
ATOM     35  C   UNL A   1      33.968  28.594  25.347  1.00  0.00     0.023 C 
BRANCH  35  36
ATOM     36  C   UNL A   1      33.616  28.981  26.779  1.00  0.00     0.116 C 
BRANCH  36  37
ATOM     37  N   UNL A   1      33.433  30.414  26.931  1.00  0.00    -0.352 N 
ATOM     38  C   UNL A   1      34.170  31.319  27.657  1.00  0.00     0.251 C 
ATOM     39  H   UNL A   1      32.668  30.793  26.440  1.00  0.00     0.163 HD
ATOM     40  O   UNL A   1      33.745  32.458  27.814  1.00  0.00    -0.269 OA
BRANCH  38  41
ATOM     41  C   UNL A   1      35.459  30.917  28.268  1.00  0.00     0.039 A 
ATOM     42  C   UNL A   1      36.565  31.759  28.118  1.00  0.00     0.014 A 
ATOM     43  C   UNL A   1      35.589  29.714  28.966  1.00  0.00     0.014 A 
ATOM     44  C   UNL A   1      37.781  31.422  28.720  1.00  0.00     0.010 A 
ATOM     45  C   UNL A   1      36.781  29.418  29.628  1.00  0.00     0.010 A 
ATOM     46  C   UNL A   1      37.891  30.267  29.510  1.00  0.00    -0.014 A 
BRANCH  46  47
ATOM     47  C   UNL A   1      39.155  29.941  30.225  1.00  0.00     0.031 A 
ATOM     48  C   UNL A   1      40.047  28.831  29.733  1.00  0.00     0.074 A 
ATOM     49  C   UNL A   1      39.476  30.610  31.350  1.00  0.00     0.049 A 
ATOM     50  N   UNL A   1      41.164  28.381  30.247  1.00  0.00    -0.248 NA
ATOM     51  C   UNL A   1      39.618  28.119  28.517  1.00  0.00     0.031 C 
ATOM     52  C   UNL A   1      38.681  31.682  31.955  1.00  0.00     0.029 A 
ATOM     53  N   UNL A   1      40.556  30.488  32.190  1.00  0.00    -0.354 N 
ATOM     54  C   UNL A   1      41.563  27.330  29.428  1.00  0.00     0.074 A 
ATOM     55  C   UNL A   1      40.542  27.175  28.415  1.00  0.00     0.031 C 
ATOM     56  C   UNL A   1      39.314  32.138  33.048  1.00  0.00     0.029 A 
ATOM     57  C   UNL A   1      40.535  31.364  33.250  1.00  0.00     0.049 A 
ATOM     58  H   UNL A   1      41.278  29.834  32.046  1.00  0.00     0.167 HD
ATOM     59  C   UNL A   1      42.687  26.575  29.500  1.00  0.00     0.031 A 
ATOM     60  C   UNL A   1      41.394  31.526  34.275  1.00  0.00     0.031 A 
ATOM     61  C   UNL A   1      43.702  26.734  30.508  1.00  0.00     0.049 A 
ATOM     62  C   UNL A   1      42.623  30.659  34.346  1.00  0.00     0.074 A 
ATOM     63  C   UNL A   1      44.900  26.050  30.636  1.00  0.00     0.029 A 
ATOM     64  N   UNL A   1      43.642  27.631  31.564  1.00  0.00    -0.354 N 
ATOM     65  N   UNL A   1      43.015  29.715  33.525  1.00  0.00    -0.248 NA
ATOM     66  C   UNL A   1      43.533  30.892  35.476  1.00  0.00     0.031 C 
ATOM     67  C   UNL A   1      45.534  26.492  31.802  1.00  0.00     0.029 A 
ATOM     68  C   UNL A   1      44.766  27.501  32.362  1.00  0.00     0.049 A 
ATOM     69  H   UNL A   1      42.908  28.267  31.722  1.00  0.00     0.167 HD
ATOM     70  C   UNL A   1      44.232  29.261  34.022  1.00  0.00     0.074 A 
ATOM     71  C   UNL A   1      44.518  30.046  35.205  1.00  0.00     0.031 C 
ATOM     72  C   UNL A   1      45.040  28.284  33.540  1.00  0.00     0.031 A 
BRANCH  59  73
ATOM     73  C   UNL A   1      42.872  25.498  28.461  1.00  0.00    -0.014 A 
ATOM     74  C   UNL A   1      43.414  25.791  27.197  1.00  0.00     0.010 A 
ATOM     75  C   UNL A   1      42.542  24.166  28.769  1.00  0.00     0.010 A 
ATOM     76  C   UNL A   1      43.581  24.781  26.245  1.00  0.00     0.020 A 
ATOM     77  C   UNL A   1      42.737  23.146  27.832  1.00  0.00     0.020 A 
ATOM     78  C   UNL A   1      43.239  23.464  26.569  1.00  0.00     0.054 A 
BRANCH  78  79
ATOM     79  S   UNL A   1      43.489  22.171  25.321  1.00  0.00     0.124 S 
ATOM     80  O   UNL A   1      44.796  21.640  25.698  1.00  0.00    -0.237 OA
ATOM     81  O   UNL A   1      42.357  21.279  25.554  1.00  0.00    -0.237 OA
ATOM     82  O   UNL A   1      43.455  22.899  24.055  1.00  0.00    -0.744 OA
ENDBRANCH  78  79
ENDBRANCH  59  73
BRANCH  60  83
ATOM     83  C   UNL A   1      41.129  32.561  35.313  1.00  0.00    -0.014 A 
ATOM     84  C   UNL A   1      41.641  33.862  35.174  1.00  0.00     0.010 A 
ATOM     85  C   UNL A   1      40.356  32.249  36.447  1.00  0.00     0.010 A 
ATOM     86  C   UNL A   1      41.401  34.828  36.157  1.00  0.00     0.020 A 
ATOM     87  C   UNL A   1      40.089  33.220  37.416  1.00  0.00     0.020 A 
ATOM     88  C   UNL A   1      40.624  34.501  37.271  1.00  0.00     0.054 A 
BRANCH  88  89
ATOM     89  S   UNL A   1      40.287  35.783  38.509  1.00  0.00     0.124 S 
ATOM     90  O   UNL A   1      39.774  36.874  37.685  1.00  0.00    -0.237 OA
ATOM     91  O   UNL A   1      39.309  35.132  39.378  1.00  0.00    -0.237 OA
ATOM     92  O   UNL A   1      41.593  36.021  39.121  1.00  0.00    -0.744 OA
ENDBRANCH  88  89
ENDBRANCH  60  83
BRANCH  72  93
ATOM     93  C   UNL A   1      46.336  28.033  34.269  1.00  0.00    -0.014 A 
ATOM     94  C   UNL A   1      46.417  27.112  35.328  1.00  0.00     0.010 A 
ATOM     95  C   UNL A   1      47.503  28.700  33.852  1.00  0.00     0.010 A 
ATOM     96  C   UNL A   1      47.632  26.892  35.983  1.00  0.00     0.020 A 
ATOM     97  C   UNL A   1      48.726  28.459  34.482  1.00  0.00     0.020 A 
ATOM     98  C   UNL A   1      48.779  27.567  35.555  1.00  0.00     0.054 A 
BRANCH  98  99
ATOM     99  S   UNL A   1      50.352  27.238  36.400  1.00  0.00     0.124 S 
ATOM    100  O   UNL A   1      50.635  28.526  37.026  1.00  0.00    -0.237 OA
ATOM    101  O   UNL A   1      50.001  26.156  37.316  1.00  0.00    -0.237 OA
ATOM    102  O   UNL A   1      51.255  26.860  35.315  1.00  0.00    -0.744 OA
ENDBRANCH  98  99
ENDBRANCH  72  93
ENDBRANCH  46  47
ENDBRANCH  38  41
ENDBRANCH  36  37
ENDBRANCH  35  36
ENDBRANCH   1  35
TORSDOF 18
ENDMDL
MODEL 2
REMARK VINA RESULT:     -11.1      3.310      8.575
REMARK SMILES C[NH+]1CCC2(CC1)OC[C@H](C(=O)NCCCCNC(=O)c1ccc(-c3c4nc(c(-c5ccc(S(=O)(=O)[O-])cc5)c5ccc([nH]5)c(-c5ccc(S(=O)(=O)[O-])cc5)c5nc(c(-c6ccc(S(=O)(=O)[O-])cc6)c6ccc3[nH]6)C=C5)C=C4)cc1)N2C(=O)c1cc(C(F)(F)F)cc(C(F)(F)F)c1
REMARK SMILES IDX 15 1 14 2 13 3 11 4 12 5 10 7 1 8 2 9 3 10 7 11 4 13 6 14
REMARK SMILES IDX 5 15 8 16 81 17 9 18 82 19 83 20 84 21 85 22 97 23 86 24
REMARK SMILES IDX 92 25 91 26 87 27 88 28 89 29 90 30 93 31 94 32 95 33 96 34
REMARK SMILES IDX 16 35 17 36 18 37 19 38 20 40 21 41 22 42 80 43 23 44 79 45
REMARK SMILES IDX 24 46 25 47 26 48 73 49 27 50 78 51 72 52 74 53 28 54 77 55
REMARK SMILES IDX 71 56 70 57 29 59 59 60 40 61 58 62 41 63 44 64 57 65 75 66
REMARK SMILES IDX 42 67 43 68 56 70 76 71 45 72 30 73 31 74 39 75 32 76 38 77
REMARK SMILES IDX 33 78 34 79 35 80 36 81 37 82 60 83 61 84 69 85 62 86 68 87
REMARK SMILES IDX 63 88 64 89 65 90 66 91 67 92 46 93 47 94 55 95 48 96 54 97
REMARK SMILES IDX 49 98 50 99 51 100 52 101 53 102
REMARK H PARENT 13 6 2 12 18 39 74 58 44 69
REMARK Flexibility Score: inf
ROOT
ATOM      1  C   UNL A   1      38.469  24.076  26.216  1.00  0.00     0.023 C 
ENDROOT
BRANCH   1   2
ATOM      2  C   UNL A   1      37.209  23.623  25.476  1.00  0.00     0.116 C 
BRANCH   2   3
ATOM      3  N   UNL A   1      36.431  22.711  26.285  1.00  0.00    -0.354 N 
ATOM      4  C   UNL A   1      35.259  22.078  26.030  1.00  0.00     0.245 C 
ATOM      5  O   UNL A   1      34.817  21.392  26.954  1.00  0.00    -0.273 OA
ATOM      6  H   UNL A   1      36.817  22.519  27.171  1.00  0.00     0.163 HD
BRANCH   4   7
ATOM      7  C   UNL A   1      34.536  22.224  24.670  1.00  0.00     0.203 C 
ATOM      8  C   UNL A   1      29.034  24.857  26.618  1.00  0.00     0.332 C 
ATOM      9  N   UNL A   1      30.295  25.011  25.904  1.00  0.00    -0.337 N 
ATOM     10  C   UNL A   1      31.436  24.699  26.758  1.00  0.00     0.267 C 
ATOM     11  C   UNL A   1      30.273  24.416  24.570  1.00  0.00     0.267 C 
ATOM     12  H   UNL A   1      30.428  25.998  25.684  1.00  0.00     0.347 HD
ATOM     13  C   UNL A   1      32.026  23.318  26.602  1.00  0.00     0.120 C 
ATOM     14  C   UNL A   1      31.014  23.110  24.335  1.00  0.00     0.120 C 
ATOM     15  C   UNL A   1      32.290  22.911  25.150  1.00  0.00     0.155 C 
ATOM     16  O   UNL A   1      32.401  21.446  25.197  1.00  0.00    -0.352 OA
ATOM     17  N   UNL A   1      33.593  23.345  24.575  1.00  0.00    -0.295 N 
ATOM     18  C   UNL A   1      33.604  21.045  24.533  1.00  0.00     0.198 C 
BRANCH  17  19
ATOM     19  C   UNL A   1      34.044  24.475  23.897  1.00  0.00     0.256 C 
ATOM     20  O   UNL A   1      34.907  24.418  23.019  1.00  0.00    -0.269 OA
BRANCH  19  21
ATOM     21  C   UNL A   1      33.479  25.821  24.095  1.00  0.00     0.041 A 
ATOM     22  C   UNL A   1      32.446  26.279  23.261  1.00  0.00     0.027 A 
ATOM     23  C   UNL A   1      34.055  26.696  25.012  1.00  0.00     0.027 A 
ATOM     24  C   UNL A   1      31.895  27.563  23.449  1.00  0.00     0.057 A 
ATOM     25  C   UNL A   1      33.434  27.916  25.316  1.00  0.00     0.057 A 
ATOM     26  C   UNL A   1      32.366  28.351  24.513  1.00  0.00     0.026 A 
BRANCH  24  27
ATOM     27  C   UNL A   1      30.808  28.080  22.536  1.00  0.00     0.416 C 
ATOM     28  F   UNL A   1      29.585  28.086  23.134  1.00  0.00    -0.166 F 
ATOM     29  F   UNL A   1      31.034  29.356  22.123  1.00  0.00    -0.166 F 
ATOM     30  F   UNL A   1      30.660  27.342  21.399  1.00  0.00    -0.166 F 
ENDBRANCH  24  27
BRANCH  25  31
ATOM     31  C   UNL A   1      33.830  28.708  26.543  1.00  0.00     0.416 C 
ATOM     32  F   UNL A   1      35.178  28.869  26.644  1.00  0.00    -0.166 F 
ATOM     33  F   UNL A   1      33.310  29.969  26.534  1.00  0.00    -0.166 F 
ATOM     34  F   UNL A   1      33.428  28.144  27.715  1.00  0.00    -0.166 F 
ENDBRANCH  25  31
ENDBRANCH  19  21
ENDBRANCH  17  19
ENDBRANCH   4   7
ENDBRANCH   2   3
ENDBRANCH   1   2
BRANCH   1  35
ATOM     35  C   UNL A   1      39.369  22.948  26.737  1.00  0.00     0.023 C 
BRANCH  35  36
ATOM     36  C   UNL A   1      40.748  23.384  27.219  1.00  0.00     0.116 C 
BRANCH  36  37
ATOM     37  N   UNL A   1      41.509  24.049  26.174  1.00  0.00    -0.352 N 
ATOM     38  C   UNL A   1      41.817  25.380  26.027  1.00  0.00     0.251 C 
ATOM     39  H   UNL A   1      41.856  23.456  25.469  1.00  0.00     0.163 HD
ATOM     40  O   UNL A   1      42.309  25.774  24.976  1.00  0.00    -0.269 OA
BRANCH  38  41
ATOM     41  C   UNL A   1      41.535  26.339  27.121  1.00  0.00     0.039 A 
ATOM     42  C   UNL A   1      40.520  26.038  28.034  1.00  0.00     0.014 A 
ATOM     43  C   UNL A   1      42.248  27.535  27.242  1.00  0.00     0.014 A 
ATOM     44  C   UNL A   1      40.263  26.906  29.099  1.00  0.00     0.010 A 
ATOM     45  C   UNL A   1      42.042  28.361  28.347  1.00  0.00     0.010 A 
ATOM     46  C   UNL A   1      41.045  28.057  29.287  1.00  0.00    -0.014 A 
BRANCH  46  47
ATOM     47  C   UNL A   1      40.837  28.945  30.463  1.00  0.00     0.031 A 
ATOM     48  C   UNL A   1      41.679  28.782  31.701  1.00  0.00     0.074 A 
ATOM     49  C   UNL A   1      39.854  29.867  30.437  1.00  0.00     0.049 A 
ATOM     50  N   UNL A   1      41.616  29.436  32.833  1.00  0.00    -0.248 NA
ATOM     51  C   UNL A   1      42.712  27.733  31.673  1.00  0.00     0.031 C 
ATOM     52  C   UNL A   1      38.943  30.103  29.313  1.00  0.00     0.029 A 
ATOM     53  N   UNL A   1      39.453  30.778  31.383  1.00  0.00    -0.354 N 
ATOM     54  C   UNL A   1      42.588  28.873  33.653  1.00  0.00     0.074 A 
ATOM     55  C   UNL A   1      43.190  27.789  32.908  1.00  0.00     0.031 C 
ATOM     56  C   UNL A   1      38.113  31.111  29.625  1.00  0.00     0.029 A 
ATOM     57  C   UNL A   1      38.398  31.565  30.982  1.00  0.00     0.049 A 
ATOM     58  H   UNL A   1      39.880  30.860  32.266  1.00  0.00     0.167 HD
ATOM     59  C   UNL A   1      42.960  29.236  34.905  1.00  0.00     0.031 A 
ATOM     60  C   UNL A   1      37.728  32.536  31.632  1.00  0.00     0.031 A 
ATOM     61  C   UNL A   1      42.361  30.317  35.643  1.00  0.00     0.049 A 
ATOM     62  C   UNL A   1      38.145  32.906  33.030  1.00  0.00     0.074 A 
ATOM     63  C   UNL A   1      42.702  30.793  36.898  1.00  0.00     0.029 A 
ATOM     64  N   UNL A   1      41.296  31.087  35.202  1.00  0.00    -0.354 N 
ATOM     65  N   UNL A   1      39.110  32.404  33.763  1.00  0.00    -0.248 NA
ATOM     66  C   UNL A   1      37.390  33.984  33.683  1.00  0.00     0.031 C 
ATOM     67  C   UNL A   1      41.805  31.809  37.240  1.00  0.00     0.029 A 
ATOM     68  C   UNL A   1      40.949  32.016  36.169  1.00  0.00     0.049 A 
ATOM     69  H   UNL A   1      40.851  30.988  34.330  1.00  0.00     0.167 HD
ATOM     70  C   UNL A   1      39.098  33.126  34.952  1.00  0.00     0.074 A 
ATOM     71  C   UNL A   1      38.041  34.109  34.832  1.00  0.00     0.031 C 
ATOM     72  C   UNL A   1      39.892  32.988  36.042  1.00  0.00     0.031 A 
BRANCH  59  73
ATOM     73  C   UNL A   1      44.065  28.447  35.561  1.00  0.00    -0.014 A 
ATOM     74  C   UNL A   1      43.789  27.286  36.305  1.00  0.00     0.010 A 
ATOM     75  C   UNL A   1      45.404  28.846  35.392  1.00  0.00     0.010 A 
ATOM     76  C   UNL A   1      44.824  26.564  36.905  1.00  0.00     0.020 A 
ATOM     77  C   UNL A   1      46.446  28.109  35.964  1.00  0.00     0.020 A 
ATOM     78  C   UNL A   1      46.148  26.982  36.732  1.00  0.00     0.054 A 
BRANCH  78  79
ATOM     79  S   UNL A   1      47.472  26.012  37.504  1.00  0.00     0.124 S 
ATOM     80  O   UNL A   1      48.556  26.988  37.575  1.00  0.00    -0.237 OA
ATOM     81  O   UNL A   1      46.885  25.633  38.786  1.00  0.00    -0.237 OA
ATOM     82  O   UNL A   1      47.686  24.911  36.569  1.00  0.00    -0.744 OA
ENDBRANCH  78  79
ENDBRANCH  59  73
BRANCH  60  83
ATOM     83  C   UNL A   1      36.599  33.240  30.961  1.00  0.00    -0.014 A 
ATOM     84  C   UNL A   1      35.313  33.232  31.529  1.00  0.00     0.010 A 
ATOM     85  C   UNL A   1      36.808  33.927  29.751  1.00  0.00     0.010 A 
ATOM     86  C   UNL A   1      34.252  33.882  30.889  1.00  0.00     0.020 A 
ATOM     87  C   UNL A   1      35.757  34.604  29.126  1.00  0.00     0.020 A 
ATOM     88  C   UNL A   1      34.482  34.566  29.693  1.00  0.00     0.054 A 
BRANCH  88  89
ATOM     89  S   UNL A   1      33.101  35.442  28.907  1.00  0.00     0.124 S 
ATOM     90  O   UNL A   1      32.356  35.934  30.062  1.00  0.00    -0.237 OA
ATOM     91  O   UNL A   1      33.786  36.461  28.114  1.00  0.00    -0.237 OA
ATOM     92  O   UNL A   1      32.434  34.401  28.128  1.00  0.00    -0.744 OA
ENDBRANCH  88  89
ENDBRANCH  60  83
BRANCH  72  93
ATOM     93  C   UNL A   1      39.678  33.950  37.183  1.00  0.00    -0.014 A 
ATOM     94  C   UNL A   1      38.990  33.567  38.347  1.00  0.00     0.010 A 
ATOM     95  C   UNL A   1      40.219  35.247  37.104  1.00  0.00     0.010 A 
ATOM     96  C   UNL A   1      38.810  34.476  39.394  1.00  0.00     0.020 A 
ATOM     97  C   UNL A   1      40.071  36.148  38.161  1.00  0.00     0.020 A 
ATOM     98  C   UNL A   1      39.353  35.761  39.294  1.00  0.00     0.054 A 
BRANCH  98  99
ATOM     99  S   UNL A   1      39.136  36.911  40.681  1.00  0.00     0.124 S 
ATOM    100  O   UNL A   1      38.360  37.984  40.068  1.00  0.00    -0.237 OA
ATOM    101  O   UNL A   1      38.420  36.097  41.661  1.00  0.00    -0.237 OA
ATOM    102  O   UNL A   1      40.504  37.265  41.055  1.00  0.00    -0.744 OA
ENDBRANCH  98  99
ENDBRANCH  72  93
ENDBRANCH  46  47
ENDBRANCH  38  41
ENDBRANCH  36  37
ENDBRANCH  35  36
ENDBRANCH   1  35
TORSDOF 18
ENDMDL
MODEL 3
REMARK VINA RESULT:     -10.9      3.134      8.446
REMARK SMILES C[NH+]1CCC2(CC1)OC[C@H](C(=O)NCCCCNC(=O)c1ccc(-c3c4nc(c(-c5ccc(S(=O)(=O)[O-])cc5)c5ccc([nH]5)c(-c5ccc(S(=O)(=O)[O-])cc5)c5nc(c(-c6ccc(S(=O)(=O)[O-])cc6)c6ccc3[nH]6)C=C5)C=C4)cc1)N2C(=O)c1cc(C(F)(F)F)cc(C(F)(F)F)c1
REMARK SMILES IDX 15 1 14 2 13 3 11 4 12 5 10 7 1 8 2 9 3 10 7 11 4 13 6 14
REMARK SMILES IDX 5 15 8 16 81 17 9 18 82 19 83 20 84 21 85 22 97 23 86 24
REMARK SMILES IDX 92 25 91 26 87 27 88 28 89 29 90 30 93 31 94 32 95 33 96 34
REMARK SMILES IDX 16 35 17 36 18 37 19 38 20 40 21 41 22 42 80 43 23 44 79 45
REMARK SMILES IDX 24 46 25 47 26 48 73 49 27 50 78 51 72 52 74 53 28 54 77 55
REMARK SMILES IDX 71 56 70 57 29 59 59 60 40 61 58 62 41 63 44 64 57 65 75 66
REMARK SMILES IDX 42 67 43 68 56 70 76 71 45 72 30 73 31 74 39 75 32 76 38 77
REMARK SMILES IDX 33 78 34 79 35 80 36 81 37 82 60 83 61 84 69 85 62 86 68 87
REMARK SMILES IDX 63 88 64 89 65 90 66 91 67 92 46 93 47 94 55 95 48 96 54 97
REMARK SMILES IDX 49 98 50 99 51 100 52 101 53 102
REMARK H PARENT 13 6 2 12 18 39 74 58 44 69
REMARK Flexibility Score: inf
ROOT
ATOM      1  C   UNL A   1      38.479  24.101  26.168  1.00  0.00     0.023 C 
ENDROOT
BRANCH   1   2
ATOM      2  C   UNL A   1      37.047  23.956  25.653  1.00  0.00     0.116 C 
BRANCH   2   3
ATOM      3  N   UNL A   1      36.329  22.940  26.392  1.00  0.00    -0.354 N 
ATOM      4  C   UNL A   1      35.227  22.220  26.066  1.00  0.00     0.245 C 
ATOM      5  O   UNL A   1      34.820  21.453  26.943  1.00  0.00    -0.273 OA
ATOM      6  H   UNL A   1      36.704  22.739  27.280  1.00  0.00     0.163 HD
BRANCH   4   7
ATOM      7  C   UNL A   1      34.535  22.369  24.691  1.00  0.00     0.203 C 
ATOM      8  C   UNL A   1      28.948  24.901  26.529  1.00  0.00     0.332 C 
ATOM      9  N   UNL A   1      30.224  25.081  25.848  1.00  0.00    -0.337 N 
ATOM     10  C   UNL A   1      31.349  24.777  26.726  1.00  0.00     0.267 C 
ATOM     11  C   UNL A   1      30.243  24.499  24.507  1.00  0.00     0.267 C 
ATOM     12  H   UNL A   1      30.348  26.072  25.641  1.00  0.00     0.347 HD
ATOM     13  C   UNL A   1      31.963  23.407  26.572  1.00  0.00     0.120 C 
ATOM     14  C   UNL A   1      31.009  23.207  24.278  1.00  0.00     0.120 C 
ATOM     15  C   UNL A   1      32.267  23.018  25.122  1.00  0.00     0.155 C 
ATOM     16  O   UNL A   1      32.399  21.554  25.158  1.00  0.00    -0.352 OA
ATOM     17  N   UNL A   1      33.578  23.476  24.583  1.00  0.00    -0.295 N 
ATOM     18  C   UNL A   1      33.624  21.178  24.520  1.00  0.00     0.198 C 
BRANCH  17  19
ATOM     19  C   UNL A   1      34.029  24.620  23.927  1.00  0.00     0.256 C 
ATOM     20  O   UNL A   1      34.818  24.571  22.983  1.00  0.00    -0.269 OA
BRANCH  19  21
ATOM     21  C   UNL A   1      33.545  25.977  24.234  1.00  0.00     0.041 A 
ATOM     22  C   UNL A   1      34.061  26.674  25.338  1.00  0.00     0.027 A 
ATOM     23  C   UNL A   1      32.479  26.520  23.521  1.00  0.00     0.027 A 
ATOM     24  C   UNL A   1      33.609  27.976  25.634  1.00  0.00     0.057 A 
ATOM     25  C   UNL A   1      32.114  27.863  23.702  1.00  0.00     0.057 A 
ATOM     26  C   UNL A   1      32.670  28.576  24.777  1.00  0.00     0.026 A 
BRANCH  24  27
ATOM     27  C   UNL A   1      34.131  28.723  26.840  1.00  0.00     0.416 C 
ATOM     28  F   UNL A   1      35.458  28.507  27.051  1.00  0.00    -0.166 F 
ATOM     29  F   UNL A   1      33.979  30.069  26.729  1.00  0.00    -0.166 F 
ATOM     30  F   UNL A   1      33.510  28.373  28.003  1.00  0.00    -0.166 F 
ENDBRANCH  24  27
BRANCH  25  31
ATOM     31  C   UNL A   1      31.220  28.568  22.707  1.00  0.00     0.416 C 
ATOM     32  F   UNL A   1      31.884  29.520  21.996  1.00  0.00    -0.166 F 
ATOM     33  F   UNL A   1      30.703  27.712  21.780  1.00  0.00    -0.166 F 
ATOM     34  F   UNL A   1      30.153  29.196  23.274  1.00  0.00    -0.166 F 
ENDBRANCH  25  31
ENDBRANCH  19  21
ENDBRANCH  17  19
ENDBRANCH   4   7
ENDBRANCH   2   3
ENDBRANCH   1   2
BRANCH   1  35
ATOM     35  C   UNL A   1      39.199  22.785  26.492  1.00  0.00     0.023 C 
BRANCH  35  36
ATOM     36  C   UNL A   1      40.543  22.934  27.196  1.00  0.00     0.116 C 
BRANCH  36  37
ATOM     37  N   UNL A   1      41.577  23.432  26.304  1.00  0.00    -0.352 N 
ATOM     38  C   UNL A   1      42.151  24.680  26.239  1.00  0.00     0.251 C 
ATOM     39  H   UNL A   1      41.917  22.779  25.651  1.00  0.00     0.163 HD
ATOM     40  O   UNL A   1      42.874  24.964  25.291  1.00  0.00    -0.269 OA
BRANCH  38  41
ATOM     41  C   UNL A   1      41.880  25.685  27.294  1.00  0.00     0.039 A 
ATOM     42  C   UNL A   1      40.886  25.414  28.240  1.00  0.00     0.014 A 
ATOM     43  C   UNL A   1      42.581  26.892  27.347  1.00  0.00     0.014 A 
ATOM     44  C   UNL A   1      40.640  26.327  29.270  1.00  0.00     0.010 A 
ATOM     45  C   UNL A   1      42.387  27.765  28.417  1.00  0.00     0.010 A 
ATOM     46  C   UNL A   1      41.412  27.494  29.390  1.00  0.00    -0.014 A 
BRANCH  46  47
ATOM     47  C   UNL A   1      41.218  28.432  30.528  1.00  0.00     0.031 A 
ATOM     48  C   UNL A   1      42.081  28.329  31.759  1.00  0.00     0.074 A 
ATOM     49  C   UNL A   1      40.228  29.346  30.478  1.00  0.00     0.049 A 
ATOM     50  N   UNL A   1      42.032  29.033  32.862  1.00  0.00    -0.248 NA
ATOM     51  C   UNL A   1      43.121  27.287  31.760  1.00  0.00     0.031 C 
ATOM     52  C   UNL A   1      39.297  29.526  29.361  1.00  0.00     0.029 A 
ATOM     53  N   UNL A   1      39.836  30.295  31.389  1.00  0.00    -0.354 N 
ATOM     54  C   UNL A   1      43.022  28.512  33.689  1.00  0.00     0.074 A 
ATOM     55  C   UNL A   1      43.618  27.401  32.983  1.00  0.00     0.031 C 
ATOM     56  C   UNL A   1      38.465  30.541  29.640  1.00  0.00     0.029 A 
ATOM     57  C   UNL A   1      38.769  31.057  30.972  1.00  0.00     0.049 A 
ATOM     58  H   UNL A   1      40.277  30.419  32.261  1.00  0.00     0.167 HD
ATOM     59  C   UNL A   1      43.411  28.933  34.917  1.00  0.00     0.031 A 
ATOM     60  C   UNL A   1      38.104  32.052  31.589  1.00  0.00     0.031 A 
ATOM     61  C   UNL A   1      42.817  30.042  35.617  1.00  0.00     0.049 A 
ATOM     62  C   UNL A   1      38.540  32.486  32.962  1.00  0.00     0.074 A 
ATOM     63  C   UNL A   1      43.175  30.576  36.843  1.00  0.00     0.029 A 
ATOM     64  N   UNL A   1      41.739  30.785  35.159  1.00  0.00    -0.354 N 
ATOM     65  N   UNL A   1      39.521  32.023  33.700  1.00  0.00    -0.248 NA
ATOM     66  C   UNL A   1      37.789  33.587  33.579  1.00  0.00     0.031 C 
ATOM     67  C   UNL A   1      42.276  31.601  37.155  1.00  0.00     0.029 A 
ATOM     68  C   UNL A   1      41.402  31.754  36.090  1.00  0.00     0.049 A 
ATOM     69  H   UNL A   1      41.281  30.645  34.300  1.00  0.00     0.167 HD
ATOM     70  C   UNL A   1      39.523  32.797  34.855  1.00  0.00     0.074 A 
ATOM     71  C   UNL A   1      38.458  33.768  34.710  1.00  0.00     0.031 C 
ATOM     72  C   UNL A   1      40.336  32.713  35.938  1.00  0.00     0.031 A 
BRANCH  59  73
ATOM     73  C   UNL A   1      44.533  28.181  35.589  1.00  0.00    -0.014 A 
ATOM     74  C   UNL A   1      45.879  28.497  35.331  1.00  0.00     0.010 A 
ATOM     75  C   UNL A   1      44.236  27.176  36.528  1.00  0.00     0.010 A 
ATOM     76  C   UNL A   1      46.907  27.792  35.963  1.00  0.00     0.020 A 
ATOM     77  C   UNL A   1      45.261  26.490  37.188  1.00  0.00     0.020 A 
ATOM     78  C   UNL A   1      46.590  26.790  36.887  1.00  0.00     0.054 A 
BRANCH  78  79
ATOM     79  S   UNL A   1      47.946  25.909  37.709  1.00  0.00     0.124 S 
ATOM     80  O   UNL A   1      49.095  26.742  37.369  1.00  0.00    -0.237 OA
ATOM     81  O   UNL A   1      47.542  25.939  39.113  1.00  0.00    -0.237 OA
ATOM     82  O   UNL A   1      47.929  24.588  37.087  1.00  0.00    -0.744 OA
ENDBRANCH  78  79
ENDBRANCH  59  73
BRANCH  60  83
ATOM     83  C   UNL A   1      36.958  32.717  30.906  1.00  0.00    -0.014 A 
ATOM     84  C   UNL A   1      37.181  33.716  29.943  1.00  0.00     0.010 A 
ATOM     85  C   UNL A   1      35.636  32.348  31.215  1.00  0.00     0.010 A 
ATOM     86  C   UNL A   1      36.103  34.349  29.314  1.00  0.00     0.020 A 
ATOM     87  C   UNL A   1      34.557  32.956  30.566  1.00  0.00     0.020 A 
ATOM     88  C   UNL A   1      34.798  33.962  29.628  1.00  0.00     0.054 A 
BRANCH  88  89
ATOM     89  S   UNL A   1      33.418  34.762  28.764  1.00  0.00     0.124 S 
ATOM     90  O   UNL A   1      33.004  33.724  27.825  1.00  0.00    -0.237 OA
ATOM     91  O   UNL A   1      32.484  35.040  29.854  1.00  0.00    -0.237 OA
ATOM     92  O   UNL A   1      34.030  35.944  28.161  1.00  0.00    -0.744 OA
ENDBRANCH  88  89
ENDBRANCH  60  83
BRANCH  72  93
ATOM     93  C   UNL A   1      40.134  33.723  37.038  1.00  0.00    -0.014 A 
ATOM     94  C   UNL A   1      40.659  35.024  36.946  1.00  0.00     0.010 A 
ATOM     95  C   UNL A   1      39.365  33.374  38.164  1.00  0.00     0.010 A 
ATOM     96  C   UNL A   1      40.452  35.945  37.977  1.00  0.00     0.020 A 
ATOM     97  C   UNL A   1      39.128  34.302  39.182  1.00  0.00     0.020 A 
ATOM     98  C   UNL A   1      39.687  35.578  39.089  1.00  0.00     0.054 A 
BRANCH  98  99
ATOM     99  S   UNL A   1      39.404  36.802  40.398  1.00  0.00     0.124 S 
ATOM    100  O   UNL A   1      38.261  36.233  41.105  1.00  0.00    -0.237 OA
ATOM    101  O   UNL A   1      40.668  36.785  41.130  1.00  0.00    -0.237 OA
ATOM    102  O   UNL A   1      39.133  38.037  39.664  1.00  0.00    -0.744 OA
ENDBRANCH  98  99
ENDBRANCH  72  93
ENDBRANCH  46  47
ENDBRANCH  38  41
ENDBRANCH  36  37
ENDBRANCH  35  36
ENDBRANCH   1  35
TORSDOF 18
ENDMDL
