MODEL 1
REMARK VINA RESULT:      -9.4      0.000      0.000
REMARK SMILES CCN(Cc1ccc(Br)s1)C(=O)C[N@@H+](C)CC(=O)NCCCCNC(=O)c1ccc(-c2c3nc(c(-c4ccc(S(=O)(=O)[O-])cc4)c4ccc([nH]4)c(-c4ccc(S(=O)(=O)[O-])cc4)c4nc(c(-c5ccc(S(=O)(=O)[O-])cc5)c5ccc2[nH]5)C=C4)C=C3)cc1
REMARK SMILES IDX 20 1 19 2 17 3 18 4 16 6 14 7 15 8 13 10 11 11 12 12 3 13
REMARK SMILES IDX 2 14 1 15 4 16 5 17 6 18 10 19 7 20 8 21 9 22 21 23 22 24
REMARK SMILES IDX 23 25 24 26 25 27 26 29 27 30 28 31 86 32 29 33 85 34 30 35
REMARK SMILES IDX 31 36 32 37 79 38 33 39 84 40 78 41 80 42 34 43 83 44 77 45
REMARK SMILES IDX 76 46 35 48 65 49 46 50 64 51 47 52 50 53 63 54 81 55 48 56
REMARK SMILES IDX 49 57 62 59 82 60 51 61 36 62 37 63 45 64 38 65 44 66 39 67
REMARK SMILES IDX 40 68 41 69 42 70 43 71 66 72 67 73 75 74 68 75 74 76 69 77
REMARK SMILES IDX 70 78 71 79 72 80 73 81 52 82 53 83 61 84 54 85 60 86 55 87
REMARK SMILES IDX 56 88 57 89 58 90 59 91
REMARK H PARENT 19 5 14 9 24 28 80 47 50 58
REMARK Flexibility Score: inf
ROOT
ATOM      1  C   UNL A   1      36.664  22.203  25.736  1.00  0.00     0.116 C 
ENDROOT
BRANCH   1   2
ATOM      2  N   UNL A   1      35.553  21.862  26.592  1.00  0.00    -0.351 N 
ATOM      3  C   UNL A   1      34.407  21.186  26.299  1.00  0.00     0.275 C 
ATOM      4  O   UNL A   1      33.558  21.099  27.190  1.00  0.00    -0.269 OA
ATOM      5  H   UNL A   1      35.636  22.162  27.526  1.00  0.00     0.163 HD
BRANCH   3   6
ATOM      6  C   UNL A   1      34.203  20.506  24.941  1.00  0.00     0.363 C 
BRANCH   6   7
ATOM      7  N   UNL A   1      32.829  20.488  24.404  1.00  0.00    -0.322 N 
ATOM      8  C   UNL A   1      32.385  19.232  23.837  1.00  0.00     0.333 C 
ATOM      9  H   UNL A   1      32.285  20.584  25.261  1.00  0.00     0.348 HD
BRANCH   7  10
ATOM     10  C   UNL A   1      32.459  21.649  23.579  1.00  0.00     0.363 C 
BRANCH  10  11
ATOM     11  C   UNL A   1      32.228  22.902  24.438  1.00  0.00     0.278 C 
ATOM     12  O   UNL A   1      31.258  22.952  25.201  1.00  0.00    -0.268 OA
BRANCH  11  13
ATOM     13  N   UNL A   1      33.149  23.951  24.381  1.00  0.00    -0.333 N 
BRANCH  13  14
ATOM     14  C   UNL A   1      33.842  24.166  23.114  1.00  0.00     0.116 C 
ATOM     15  C   UNL A   1      32.993  24.969  22.136  1.00  0.00     0.027 C 
ENDBRANCH  13  14
BRANCH  13  16
ATOM     16  C   UNL A   1      33.550  24.781  25.521  1.00  0.00     0.166 C 
BRANCH  16  17
ATOM     17  C   UNL A   1      32.840  26.109  25.514  1.00  0.00     0.025 A 
ATOM     18  C   UNL A   1      31.556  26.435  25.102  1.00  0.00     0.018 A 
ATOM     19  S   UNL A   1      33.656  27.501  26.116  1.00  0.00    -0.131 S 
ATOM     20  C   UNL A   1      31.204  27.780  25.425  1.00  0.00     0.028 A 
ATOM     21  C   UNL A   1      32.253  28.440  26.009  1.00  0.00     0.070 A 
ATOM     22  Br  UNL A   1      32.152  30.204  26.629  1.00  0.00    -0.039 Br
ENDBRANCH  16  17
ENDBRANCH  13  16
ENDBRANCH  11  13
ENDBRANCH  10  11
ENDBRANCH   7  10
ENDBRANCH   6   7
ENDBRANCH   3   6
ENDBRANCH   1   2
BRANCH   1  23
ATOM     23  C   UNL A   1      37.196  23.596  26.072  1.00  0.00     0.023 C 
BRANCH  23  24
ATOM     24  C   UNL A   1      38.650  23.644  26.524  1.00  0.00     0.023 C 
BRANCH  24  25
ATOM     25  C   UNL A   1      39.135  25.009  26.983  1.00  0.00     0.116 C 
BRANCH  25  26
ATOM     26  N   UNL A   1      40.159  25.587  26.122  1.00  0.00    -0.352 N 
ATOM     27  C   UNL A   1      40.842  26.770  26.295  1.00  0.00     0.251 C 
ATOM     28  H   UNL A   1      40.389  25.067  25.318  1.00  0.00     0.163 HD
ATOM     29  O   UNL A   1      41.614  27.174  25.437  1.00  0.00    -0.269 OA
BRANCH  27  30
ATOM     30  C   UNL A   1      40.584  27.558  27.517  1.00  0.00     0.039 A 
ATOM     31  C   UNL A   1      40.094  26.911  28.651  1.00  0.00     0.014 A 
ATOM     32  C   UNL A   1      40.924  28.914  27.560  1.00  0.00     0.014 A 
ATOM     33  C   UNL A   1      40.020  27.607  29.859  1.00  0.00     0.010 A 
ATOM     34  C   UNL A   1      40.934  29.576  28.781  1.00  0.00     0.010 A 
ATOM     35  C   UNL A   1      40.481  28.931  29.942  1.00  0.00    -0.014 A 
BRANCH  35  36
ATOM     36  C   UNL A   1      40.495  29.670  31.227  1.00  0.00     0.031 A 
ATOM     37  C   UNL A   1      41.578  29.392  32.234  1.00  0.00     0.074 A 
ATOM     38  C   UNL A   1      39.495  30.524  31.524  1.00  0.00     0.049 A 
ATOM     39  N   UNL A   1      41.717  29.861  33.447  1.00  0.00    -0.248 NA
ATOM     40  C   UNL A   1      42.622  28.431  31.839  1.00  0.00     0.031 C 
ATOM     41  C   UNL A   1      38.356  30.835  30.655  1.00  0.00     0.029 A 
ATOM     42  N   UNL A   1      39.270  31.281  32.646  1.00  0.00    -0.354 N 
ATOM     43  C   UNL A   1      42.843  29.233  33.966  1.00  0.00     0.074 A 
ATOM     44  C   UNL A   1      43.318  28.311  32.958  1.00  0.00     0.031 C 
ATOM     45  C   UNL A   1      37.572  31.739  31.264  1.00  0.00     0.029 A 
ATOM     46  C   UNL A   1      38.129  32.046  32.577  1.00  0.00     0.049 A 
ATOM     47  H   UNL A   1      39.870  31.278  33.427  1.00  0.00     0.167 HD
ATOM     48  C   UNL A   1      43.441  29.422  35.165  1.00  0.00     0.031 A 
ATOM     49  C   UNL A   1      37.592  32.896  33.474  1.00  0.00     0.031 A 
ATOM     50  C   UNL A   1      42.987  30.362  36.151  1.00  0.00     0.049 A 
ATOM     51  C   UNL A   1      38.293  33.115  34.786  1.00  0.00     0.074 A 
ATOM     52  C   UNL A   1      43.560  30.679  37.370  1.00  0.00     0.029 A 
ATOM     53  N   UNL A   1      41.849  31.146  36.028  1.00  0.00    -0.354 N 
ATOM     54  N   UNL A   1      39.392  32.556  35.235  1.00  0.00    -0.248 NA
ATOM     55  C   UNL A   1      37.688  34.087  35.707  1.00  0.00     0.031 C 
ATOM     56  C   UNL A   1      42.749  31.630  37.998  1.00  0.00     0.029 A 
ATOM     57  C   UNL A   1      41.696  31.938  37.152  1.00  0.00     0.049 A 
ATOM     58  H   UNL A   1      41.240  31.139  35.254  1.00  0.00     0.167 HD
ATOM     59  C   UNL A   1      39.624  33.128  36.480  1.00  0.00     0.074 A 
ATOM     60  C   UNL A   1      38.559  34.083  36.708  1.00  0.00     0.031 C 
ATOM     61  C   UNL A   1      40.630  32.885  37.357  1.00  0.00     0.031 A 
BRANCH  48  62
ATOM     62  C   UNL A   1      44.660  28.591  35.465  1.00  0.00    -0.014 A 
ATOM     63  C   UNL A   1      44.544  27.333  36.086  1.00  0.00     0.010 A 
ATOM     64  C   UNL A   1      45.936  29.065  35.112  1.00  0.00     0.010 A 
ATOM     65  C   UNL A   1      45.685  26.589  36.396  1.00  0.00     0.020 A 
ATOM     66  C   UNL A   1      47.078  28.310  35.394  1.00  0.00     0.020 A 
ATOM     67  C   UNL A   1      46.946  27.087  36.054  1.00  0.00     0.054 A 
BRANCH  67  68
ATOM     68  S   UNL A   1      48.411  26.098  36.460  1.00  0.00     0.124 S 
ATOM     69  O   UNL A   1      49.084  26.015  35.166  1.00  0.00    -0.237 OA
ATOM     70  O   UNL A   1      49.085  26.916  37.465  1.00  0.00    -0.237 OA
ATOM     71  O   UNL A   1      47.854  24.842  36.955  1.00  0.00    -0.744 OA
ENDBRANCH  67  68
ENDBRANCH  48  62
BRANCH  49  72
ATOM     72  C   UNL A   1      36.340  33.629  33.144  1.00  0.00    -0.014 A 
ATOM     73  C   UNL A   1      35.089  33.083  33.483  1.00  0.00     0.010 A 
ATOM     74  C   UNL A   1      36.390  34.883  32.508  1.00  0.00     0.010 A 
ATOM     75  C   UNL A   1      33.910  33.772  33.180  1.00  0.00     0.020 A 
ATOM     76  C   UNL A   1      35.214  35.585  32.224  1.00  0.00     0.020 A 
ATOM     77  C   UNL A   1      33.980  35.018  32.554  1.00  0.00     0.054 A 
BRANCH  77  78
ATOM     78  S   UNL A   1      32.441  35.921  32.224  1.00  0.00     0.124 S 
ATOM     79  O   UNL A   1      32.545  36.185  30.792  1.00  0.00    -0.237 OA
ATOM     80  O   UNL A   1      31.417  34.957  32.618  1.00  0.00    -0.237 OA
ATOM     81  O   UNL A   1      32.542  37.095  33.088  1.00  0.00    -0.744 OA
ENDBRANCH  77  78
ENDBRANCH  49  72
BRANCH  61  82
ATOM     82  C   UNL A   1      40.645  33.685  38.629  1.00  0.00    -0.014 A 
ATOM     83  C   UNL A   1      40.040  33.198  39.801  1.00  0.00     0.010 A 
ATOM     84  C   UNL A   1      41.328  34.914  38.666  1.00  0.00     0.010 A 
ATOM     85  C   UNL A   1      40.097  33.940  40.983  1.00  0.00     0.020 A 
ATOM     86  C   UNL A   1      41.407  35.648  39.851  1.00  0.00     0.020 A 
ATOM     87  C   UNL A   1      40.779  35.161  41.000  1.00  0.00     0.054 A 
BRANCH  87  88
ATOM     88  S   UNL A   1      40.883  36.084  42.559  1.00  0.00     0.124 S 
ATOM     89  O   UNL A   1      42.084  36.889  42.354  1.00  0.00    -0.237 OA
ATOM     90  O   UNL A   1      39.625  36.826  42.579  1.00  0.00    -0.237 OA
ATOM     91  O   UNL A   1      40.998  35.038  43.572  1.00  0.00    -0.744 OA
ENDBRANCH  87  88
ENDBRANCH  61  82
ENDBRANCH  35  36
ENDBRANCH  27  30
ENDBRANCH  25  26
ENDBRANCH  24  25
ENDBRANCH  23  24
ENDBRANCH   1  23
TORSDOF 21
ENDMDL
MODEL 2
REMARK VINA RESULT:      -9.1      6.430     11.347
REMARK SMILES CCN(Cc1ccc(Br)s1)C(=O)C[N@@H+](C)CC(=O)NCCCCNC(=O)c1ccc(-c2c3nc(c(-c4ccc(S(=O)(=O)[O-])cc4)c4ccc([nH]4)c(-c4ccc(S(=O)(=O)[O-])cc4)c4nc(c(-c5ccc(S(=O)(=O)[O-])cc5)c5ccc2[nH]5)C=C4)C=C3)cc1
REMARK SMILES IDX 20 1 19 2 17 3 18 4 16 6 14 7 15 8 13 10 11 11 12 12 3 13
REMARK SMILES IDX 2 14 1 15 4 16 5 17 6 18 10 19 7 20 8 21 9 22 21 23 22 24
REMARK SMILES IDX 23 25 24 26 25 27 26 29 27 30 28 31 86 32 29 33 85 34 30 35
REMARK SMILES IDX 31 36 32 37 79 38 33 39 84 40 78 41 80 42 34 43 83 44 77 45
REMARK SMILES IDX 76 46 35 48 65 49 46 50 64 51 47 52 50 53 63 54 81 55 48 56
REMARK SMILES IDX 49 57 62 59 82 60 51 61 36 62 37 63 45 64 38 65 44 66 39 67
REMARK SMILES IDX 40 68 41 69 42 70 43 71 66 72 67 73 75 74 68 75 74 76 69 77
REMARK SMILES IDX 70 78 71 79 72 80 73 81 52 82 53 83 61 84 54 85 60 86 55 87
REMARK SMILES IDX 56 88 57 89 58 90 59 91
REMARK H PARENT 19 5 14 9 24 28 80 47 50 58
REMARK Flexibility Score: inf
ROOT
ATOM      1  C   UNL A   1      37.236  21.767  25.613  1.00  0.00     0.116 C 
ENDROOT
BRANCH   1   2
ATOM      2  N   UNL A   1      36.073  21.800  26.468  1.00  0.00    -0.351 N 
ATOM      3  C   UNL A   1      34.758  21.640  26.151  1.00  0.00     0.275 C 
ATOM      4  O   UNL A   1      33.934  21.805  27.054  1.00  0.00    -0.269 OA
ATOM      5  H   UNL A   1      36.258  21.962  27.421  1.00  0.00     0.163 HD
BRANCH   3   6
ATOM      6  C   UNL A   1      34.318  21.212  24.746  1.00  0.00     0.363 C 
BRANCH   6   7
ATOM      7  N   UNL A   1      32.877  20.984  24.539  1.00  0.00    -0.322 N 
ATOM      8  C   UNL A   1      32.494  19.639  24.160  1.00  0.00     0.333 C 
ATOM      9  H   UNL A   1      32.525  21.087  25.491  1.00  0.00     0.348 HD
BRANCH   7  10
ATOM     10  C   UNL A   1      32.180  22.018  23.756  1.00  0.00     0.363 C 
BRANCH  10  11
ATOM     11  C   UNL A   1      31.548  23.084  24.663  1.00  0.00     0.278 C 
ATOM     12  O   UNL A   1      30.702  22.753  25.501  1.00  0.00    -0.268 OA
BRANCH  11  13
ATOM     13  N   UNL A   1      31.977  24.411  24.563  1.00  0.00    -0.333 N 
BRANCH  13  14
ATOM     14  C   UNL A   1      33.133  24.678  23.712  1.00  0.00     0.116 C 
ATOM     15  C   UNL A   1      34.384  24.962  24.533  1.00  0.00     0.027 C 
ENDBRANCH  13  14
BRANCH  13  16
ATOM     16  C   UNL A   1      31.424  25.532  25.326  1.00  0.00     0.166 C 
BRANCH  16  17
ATOM     17  C   UNL A   1      30.591  26.436  24.455  1.00  0.00     0.025 A 
ATOM     18  C   UNL A   1      29.281  26.301  24.020  1.00  0.00     0.018 A 
ATOM     19  S   UNL A   1      31.274  27.908  23.877  1.00  0.00    -0.131 S 
ATOM     20  C   UNL A   1      28.804  27.468  23.352  1.00  0.00     0.028 A 
ATOM     21  C   UNL A   1      29.788  28.417  23.248  1.00  0.00     0.070 A 
ATOM     22  Br  UNL A   1      29.523  30.108  22.489  1.00  0.00    -0.039 Br
ENDBRANCH  16  17
ENDBRANCH  13  16
ENDBRANCH  11  13
ENDBRANCH  10  11
ENDBRANCH   7  10
ENDBRANCH   6   7
ENDBRANCH   3   6
ENDBRANCH   1   2
BRANCH   1  23
ATOM     23  C   UNL A   1      38.265  22.805  26.061  1.00  0.00     0.023 C 
BRANCH  23  24
ATOM     24  C   UNL A   1      39.718  22.354  25.981  1.00  0.00     0.023 C 
BRANCH  24  25
ATOM     25  C   UNL A   1      40.078  21.185  26.881  1.00  0.00     0.116 C 
BRANCH  25  26
ATOM     26  N   UNL A   1      40.863  20.153  26.215  1.00  0.00    -0.352 N 
ATOM     27  C   UNL A   1      42.171  20.224  25.792  1.00  0.00     0.251 C 
ATOM     28  H   UNL A   1      40.399  19.301  26.047  1.00  0.00     0.163 HD
ATOM     29  O   UNL A   1      42.673  19.304  25.162  1.00  0.00    -0.269 OA
BRANCH  27  30
ATOM     30  C   UNL A   1      42.936  21.455  26.077  1.00  0.00     0.039 A 
ATOM     31  C   UNL A   1      43.164  22.365  25.044  1.00  0.00     0.014 A 
ATOM     32  C   UNL A   1      43.336  21.745  27.384  1.00  0.00     0.014 A 
ATOM     33  C   UNL A   1      43.724  23.610  25.340  1.00  0.00     0.010 A 
ATOM     34  C   UNL A   1      43.808  23.015  27.688  1.00  0.00     0.010 A 
ATOM     35  C   UNL A   1      44.008  23.960  26.670  1.00  0.00    -0.014 A 
BRANCH  35  36
ATOM     36  C   UNL A   1      44.524  25.304  27.027  1.00  0.00     0.031 A 
ATOM     37  C   UNL A   1      43.590  26.328  27.611  1.00  0.00     0.074 A 
ATOM     38  C   UNL A   1      45.802  25.629  26.749  1.00  0.00     0.049 A 
ATOM     39  N   UNL A   1      43.820  27.581  27.905  1.00  0.00    -0.248 NA
ATOM     40  C   UNL A   1      42.205  25.896  27.865  1.00  0.00     0.031 C 
ATOM     41  C   UNL A   1      46.792  24.743  26.129  1.00  0.00     0.029 A 
ATOM     42  N   UNL A   1      46.488  26.802  26.945  1.00  0.00    -0.354 N 
ATOM     43  C   UNL A   1      42.607  28.093  28.349  1.00  0.00     0.074 A 
ATOM     44  C   UNL A   1      41.632  27.031  28.237  1.00  0.00     0.031 C 
ATOM     45  C   UNL A   1      47.961  25.393  26.024  1.00  0.00     0.029 A 
ATOM     46  C   UNL A   1      47.800  26.751  26.534  1.00  0.00     0.049 A 
ATOM     47  H   UNL A   1      46.079  27.605  27.343  1.00  0.00     0.167 HD
ATOM     48  C   UNL A   1      42.332  29.328  28.829  1.00  0.00     0.031 A 
ATOM     49  C   UNL A   1      48.762  27.693  26.564  1.00  0.00     0.031 A 
ATOM     50  C   UNL A   1      43.310  30.371  28.970  1.00  0.00     0.049 A 
ATOM     51  C   UNL A   1      48.441  29.048  27.132  1.00  0.00     0.074 A 
ATOM     52  C   UNL A   1      43.149  31.636  29.508  1.00  0.00     0.029 A 
ATOM     53  N   UNL A   1      44.636  30.267  28.579  1.00  0.00    -0.354 N 
ATOM     54  N   UNL A   1      47.302  29.494  27.604  1.00  0.00    -0.248 NA
ATOM     55  C   UNL A   1      49.540  30.023  27.181  1.00  0.00     0.031 C 
ATOM     56  C   UNL A   1      44.372  32.309  29.410  1.00  0.00     0.029 A 
ATOM     57  C   UNL A   1      45.303  31.447  28.852  1.00  0.00     0.049 A 
ATOM     58  H   UNL A   1      45.042  29.470  28.167  1.00  0.00     0.167 HD
ATOM     59  C   UNL A   1      47.552  30.792  28.031  1.00  0.00     0.074 A 
ATOM     60  C   UNL A   1      48.953  31.056  27.771  1.00  0.00     0.031 C 
ATOM     61  C   UNL A   1      46.699  31.687  28.589  1.00  0.00     0.031 A 
BRANCH  48  62
ATOM     62  C   UNL A   1      40.910  29.607  29.239  1.00  0.00    -0.014 A 
ATOM     63  C   UNL A   1      39.898  29.774  28.276  1.00  0.00     0.010 A 
ATOM     64  C   UNL A   1      40.579  29.691  30.603  1.00  0.00     0.010 A 
ATOM     65  C   UNL A   1      38.591  30.073  28.667  1.00  0.00     0.020 A 
ATOM     66  C   UNL A   1      39.265  29.961  30.999  1.00  0.00     0.020 A 
ATOM     67  C   UNL A   1      38.285  30.172  30.028  1.00  0.00     0.054 A 
BRANCH  67  68
ATOM     68  S   UNL A   1      36.579  30.552  30.510  1.00  0.00     0.124 S 
ATOM     69  O   UNL A   1      35.854  30.309  29.265  1.00  0.00    -0.237 OA
ATOM     70  O   UNL A   1      36.323  29.590  31.580  1.00  0.00    -0.237 OA
ATOM     71  O   UNL A   1      36.642  31.948  30.933  1.00  0.00    -0.744 OA
ENDBRANCH  67  68
ENDBRANCH  48  62
BRANCH  49  72
ATOM     72  C   UNL A   1      50.129  27.374  26.069  1.00  0.00    -0.014 A 
ATOM     73  C   UNL A   1      51.100  26.867  26.951  1.00  0.00     0.010 A 
ATOM     74  C   UNL A   1      50.461  27.555  24.715  1.00  0.00     0.010 A 
ATOM     75  C   UNL A   1      52.384  26.560  26.489  1.00  0.00     0.020 A 
ATOM     76  C   UNL A   1      51.737  27.228  24.245  1.00  0.00     0.020 A 
ATOM     77  C   UNL A   1      52.693  26.741  25.139  1.00  0.00     0.054 A 
BRANCH  77  78
ATOM     78  S   UNL A   1      54.347  26.280  24.550  1.00  0.00     0.124 S 
ATOM     79  O   UNL A   1      54.412  24.866  24.907  1.00  0.00    -0.237 OA
ATOM     80  O   UNL A   1      54.266  26.568  23.120  1.00  0.00    -0.237 OA
ATOM     81  O   UNL A   1      55.236  27.160  25.304  1.00  0.00    -0.744 OA
ENDBRANCH  77  78
ENDBRANCH  49  72
BRANCH  61  82
ATOM     82  C   UNL A   1      47.263  33.024  28.985  1.00  0.00    -0.014 A 
ATOM     83  C   UNL A   1      47.229  34.117  28.103  1.00  0.00     0.010 A 
ATOM     84  C   UNL A   1      47.776  33.201  30.283  1.00  0.00     0.010 A 
ATOM     85  C   UNL A   1      47.724  35.361  28.503  1.00  0.00     0.020 A 
ATOM     86  C   UNL A   1      48.251  34.447  30.695  1.00  0.00     0.020 A 
ATOM     87  C   UNL A   1      48.233  35.517  29.797  1.00  0.00     0.054 A 
BRANCH  87  88
ATOM     88  S   UNL A   1      48.825  37.152  30.312  1.00  0.00     0.124 S 
ATOM     89  O   UNL A   1      49.742  36.815  31.397  1.00  0.00    -0.237 OA
ATOM     90  O   UNL A   1      49.452  37.666  29.097  1.00  0.00    -0.237 OA
ATOM     91  O   UNL A   1      47.606  37.848  30.718  1.00  0.00    -0.744 OA
ENDBRANCH  87  88
ENDBRANCH  61  82
ENDBRANCH  35  36
ENDBRANCH  27  30
ENDBRANCH  25  26
ENDBRANCH  24  25
ENDBRANCH  23  24
ENDBRANCH   1  23
TORSDOF 21
ENDMDL
MODEL 3
REMARK VINA RESULT:      -8.9      4.788      7.842
REMARK SMILES CCN(Cc1ccc(Br)s1)C(=O)C[N@@H+](C)CC(=O)NCCCCNC(=O)c1ccc(-c2c3nc(c(-c4ccc(S(=O)(=O)[O-])cc4)c4ccc([nH]4)c(-c4ccc(S(=O)(=O)[O-])cc4)c4nc(c(-c5ccc(S(=O)(=O)[O-])cc5)c5ccc2[nH]5)C=C4)C=C3)cc1
REMARK SMILES IDX 20 1 19 2 17 3 18 4 16 6 14 7 15 8 13 10 11 11 12 12 3 13
REMARK SMILES IDX 2 14 1 15 4 16 5 17 6 18 10 19 7 20 8 21 9 22 21 23 22 24
REMARK SMILES IDX 23 25 24 26 25 27 26 29 27 30 28 31 86 32 29 33 85 34 30 35
REMARK SMILES IDX 31 36 32 37 79 38 33 39 84 40 78 41 80 42 34 43 83 44 77 45
REMARK SMILES IDX 76 46 35 48 65 49 46 50 64 51 47 52 50 53 63 54 81 55 48 56
REMARK SMILES IDX 49 57 62 59 82 60 51 61 36 62 37 63 45 64 38 65 44 66 39 67
REMARK SMILES IDX 40 68 41 69 42 70 43 71 66 72 67 73 75 74 68 75 74 76 69 77
REMARK SMILES IDX 70 78 71 79 72 80 73 81 52 82 53 83 61 84 54 85 60 86 55 87
REMARK SMILES IDX 56 88 57 89 58 90 59 91
REMARK H PARENT 19 5 14 9 24 28 80 47 50 58
REMARK Flexibility Score: inf
ROOT
ATOM      1  C   UNL A   1      44.622  23.360  27.218  1.00  0.00     0.116 C 
ENDROOT
BRANCH   1   2
ATOM      2  N   UNL A   1      45.436  24.339  27.898  1.00  0.00    -0.351 N 
ATOM      3  C   UNL A   1      45.946  25.515  27.438  1.00  0.00     0.275 C 
ATOM      4  O   UNL A   1      46.698  26.140  28.190  1.00  0.00    -0.269 OA
ATOM      5  H   UNL A   1      45.656  24.125  28.834  1.00  0.00     0.163 HD
BRANCH   3   6
ATOM      6  C   UNL A   1      45.557  26.074  26.065  1.00  0.00     0.363 C 
BRANCH   6   7
ATOM      7  N   UNL A   1      44.936  27.411  26.040  1.00  0.00    -0.322 N 
ATOM      8  C   UNL A   1      43.757  27.550  25.212  1.00  0.00     0.333 C 
ATOM      9  H   UNL A   1      44.583  27.479  26.995  1.00  0.00     0.348 HD
BRANCH   7  10
ATOM     10  C   UNL A   1      45.872  28.539  25.895  1.00  0.00     0.363 C 
BRANCH  10  11
ATOM     11  C   UNL A   1      45.795  29.495  27.095  1.00  0.00     0.278 C 
ATOM     12  O   UNL A   1      45.306  29.106  28.160  1.00  0.00    -0.268 OA
BRANCH  11  13
ATOM     13  N   UNL A   1      46.329  30.782  26.980  1.00  0.00    -0.333 N 
BRANCH  13  14
ATOM     14  C   UNL A   1      47.552  31.068  27.725  1.00  0.00     0.116 C 
ATOM     15  C   UNL A   1      48.481  31.995  26.950  1.00  0.00     0.027 C 
ENDBRANCH  13  14
BRANCH  13  16
ATOM     16  C   UNL A   1      45.701  31.891  26.257  1.00  0.00     0.166 C 
BRANCH  16  17
ATOM     17  C   UNL A   1      44.769  32.672  27.146  1.00  0.00     0.025 A 
ATOM     18  C   UNL A   1      44.195  32.329  28.361  1.00  0.00     0.018 A 
ATOM     19  S   UNL A   1      44.301  34.263  26.680  1.00  0.00    -0.131 S 
ATOM     20  C   UNL A   1      43.508  33.423  28.968  1.00  0.00     0.028 A 
ATOM     21  C   UNL A   1      43.531  34.532  28.162  1.00  0.00     0.070 A 
ATOM     22  Br  UNL A   1      42.788  36.181  28.646  1.00  0.00    -0.039 Br
ENDBRANCH  16  17
ENDBRANCH  13  16
ENDBRANCH  11  13
ENDBRANCH  10  11
ENDBRANCH   7  10
ENDBRANCH   6   7
ENDBRANCH   3   6
ENDBRANCH   1   2
BRANCH   1  23
ATOM     23  C   UNL A   1      43.801  22.550  28.221  1.00  0.00     0.023 C 
BRANCH  23  24
ATOM     24  C   UNL A   1      42.394  22.185  27.764  1.00  0.00     0.023 C 
BRANCH  24  25
ATOM     25  C   UNL A   1      42.012  22.703  26.388  1.00  0.00     0.116 C 
BRANCH  25  26
ATOM     26  N   UNL A   1      40.646  22.379  25.999  1.00  0.00    -0.352 N 
ATOM     27  C   UNL A   1      39.504  23.115  26.225  1.00  0.00     0.251 C 
ATOM     28  H   UNL A   1      40.525  21.530  25.518  1.00  0.00     0.163 HD
ATOM     29  O   UNL A   1      38.406  22.672  25.918  1.00  0.00    -0.269 OA
BRANCH  27  30
ATOM     30  C   UNL A   1      39.634  24.429  26.886  1.00  0.00     0.039 A 
ATOM     31  C   UNL A   1      39.196  24.572  28.203  1.00  0.00     0.014 A 
ATOM     32  C   UNL A   1      40.277  25.483  26.230  1.00  0.00     0.014 A 
ATOM     33  C   UNL A   1      39.478  25.752  28.894  1.00  0.00     0.010 A 
ATOM     34  C   UNL A   1      40.635  26.617  26.948  1.00  0.00     0.010 A 
ATOM     35  C   UNL A   1      40.238  26.764  28.286  1.00  0.00    -0.014 A 
BRANCH  35  36
ATOM     36  C   UNL A   1      40.627  27.992  29.021  1.00  0.00     0.031 A 
ATOM     37  C   UNL A   1      41.966  28.058  29.705  1.00  0.00     0.074 A 
ATOM     38  C   UNL A   1      39.750  29.008  29.145  1.00  0.00     0.049 A 
ATOM     39  N   UNL A   1      42.456  28.998  30.469  1.00  0.00    -0.248 NA
ATOM     40  C   UNL A   1      42.856  26.896  29.536  1.00  0.00     0.031 C 
ATOM     41  C   UNL A   1      38.399  29.041  28.577  1.00  0.00     0.029 A 
ATOM     42  N   UNL A   1      39.862  30.210  29.798  1.00  0.00    -0.354 N 
ATOM     43  C   UNL A   1      43.694  28.530  30.894  1.00  0.00     0.074 A 
ATOM     44  C   UNL A   1      43.857  27.203  30.346  1.00  0.00     0.031 C 
ATOM     45  C   UNL A   1      37.822  30.215  28.882  1.00  0.00     0.029 A 
ATOM     46  C   UNL A   1      38.743  31.002  29.694  1.00  0.00     0.049 A 
ATOM     47  H   UNL A   1      40.669  30.479  30.295  1.00  0.00     0.167 HD
ATOM     48  C   UNL A   1      44.622  29.157  31.654  1.00  0.00     0.031 A 
ATOM     49  C   UNL A   1      38.488  32.225  30.199  1.00  0.00     0.031 A 
ATOM     50  C   UNL A   1      44.471  30.490  32.170  1.00  0.00     0.049 A 
ATOM     51  C   UNL A   1      39.548  32.916  31.012  1.00  0.00     0.074 A 
ATOM     52  C   UNL A   1      45.380  31.242  32.893  1.00  0.00     0.029 A 
ATOM     53  N   UNL A   1      43.338  31.274  32.010  1.00  0.00    -0.354 N 
ATOM     54  N   UNL A   1      40.738  32.482  31.352  1.00  0.00    -0.248 NA
ATOM     55  C   UNL A   1      39.234  34.266  31.500  1.00  0.00     0.031 C 
ATOM     56  C   UNL A   1      44.782  32.469  33.200  1.00  0.00     0.029 A 
ATOM     57  C   UNL A   1      43.519  32.497  32.629  1.00  0.00     0.049 A 
ATOM     58  H   UNL A   1      42.526  30.999  31.526  1.00  0.00     0.167 HD
ATOM     59  C   UNL A   1      41.326  33.516  32.071  1.00  0.00     0.074 A 
ATOM     60  C   UNL A   1      40.365  34.599  32.108  1.00  0.00     0.031 C 
ATOM     61  C   UNL A   1      42.551  33.564  32.650  1.00  0.00     0.031 A 
BRANCH  48  62
ATOM     62  C   UNL A   1      45.886  28.400  31.963  1.00  0.00    -0.014 A 
ATOM     63  C   UNL A   1      46.968  28.399  31.062  1.00  0.00     0.010 A 
ATOM     64  C   UNL A   1      46.000  27.692  33.172  1.00  0.00     0.010 A 
ATOM     65  C   UNL A   1      48.119  27.659  31.341  1.00  0.00     0.020 A 
ATOM     66  C   UNL A   1      47.164  26.974  33.468  1.00  0.00     0.020 A 
ATOM     67  C   UNL A   1      48.207  26.946  32.540  1.00  0.00     0.054 A 
BRANCH  67  68
ATOM     68  S   UNL A   1      49.716  26.002  32.882  1.00  0.00     0.124 S 
ATOM     69  O   UNL A   1      50.578  26.401  31.772  1.00  0.00    -0.237 OA
ATOM     70  O   UNL A   1      50.118  26.498  34.196  1.00  0.00    -0.237 OA
ATOM     71  O   UNL A   1      49.269  24.612  32.855  1.00  0.00    -0.744 OA
ENDBRANCH  67  68
ENDBRANCH  48  62
BRANCH  49  72
ATOM     72  C   UNL A   1      37.185  32.887  29.919  1.00  0.00    -0.014 A 
ATOM     73  C   UNL A   1      36.173  32.899  30.896  1.00  0.00     0.010 A 
ATOM     74  C   UNL A   1      36.955  33.524  28.687  1.00  0.00     0.010 A 
ATOM     75  C   UNL A   1      34.950  33.525  30.639  1.00  0.00     0.020 A 
ATOM     76  C   UNL A   1      35.741  34.170  28.435  1.00  0.00     0.020 A 
ATOM     77  C   UNL A   1      34.742  34.158  29.411  1.00  0.00     0.054 A 
BRANCH  77  78
ATOM     78  S   UNL A   1      33.168  35.015  29.123  1.00  0.00     0.124 S 
ATOM     79  O   UNL A   1      32.534  34.934  30.435  1.00  0.00    -0.237 OA
ATOM     80  O   UNL A   1      33.604  36.347  28.712  1.00  0.00    -0.237 OA
ATOM     81  O   UNL A   1      32.536  34.223  28.070  1.00  0.00    -0.744 OA
ENDBRANCH  77  78
ENDBRANCH  49  72
BRANCH  61  82
ATOM     82  C   UNL A   1      42.937  34.840  33.346  1.00  0.00    -0.014 A 
ATOM     83  C   UNL A   1      42.856  34.959  34.744  1.00  0.00     0.010 A 
ATOM     84  C   UNL A   1      43.445  35.913  32.591  1.00  0.00     0.010 A 
ATOM     85  C   UNL A   1      43.253  36.140  35.374  1.00  0.00     0.020 A 
ATOM     86  C   UNL A   1      43.865  37.087  33.219  1.00  0.00     0.020 A 
ATOM     87  C   UNL A   1      43.754  37.198  34.608  1.00  0.00     0.054 A 
BRANCH  87  88
ATOM     88  S   UNL A   1      44.311  38.703  35.452  1.00  0.00     0.124 S 
ATOM     89  O   UNL A   1      43.919  38.438  36.834  1.00  0.00    -0.237 OA
ATOM     90  O   UNL A   1      45.750  38.703  35.196  1.00  0.00    -0.237 OA
ATOM     91  O   UNL A   1      43.566  39.769  34.786  1.00  0.00    -0.744 OA
ENDBRANCH  87  88
ENDBRANCH  61  82
ENDBRANCH  35  36
ENDBRANCH  27  30
ENDBRANCH  25  26
ENDBRANCH  24  25
ENDBRANCH  23  24
ENDBRANCH   1  23
TORSDOF 21
ENDMDL
