MODEL 1
REMARK VINA RESULT:     -11.4      0.000      0.000
REMARK SMILES CC(C)CN(C(=O)NC(=O)CCCC(=O)NCCCCNC(=O)c1ccc(-c2c3nc(c(-c4ccc(S(=O)(=O)[O-])cc4)c4ccc([nH]4)c(-c4ccc(S(=O)(=O)[O-])cc4)c4nc(c(-c5ccc(S(=O)(=O)[O-])cc5)c5ccc2[nH]5)C=C4)C=C3)cc1)C1CCCC1
REMARK SMILES IDX 17 1 16 2 14 3 15 4 13 6 12 7 11 8 9 9 6 10 7 11 8 12 10 14
REMARK SMILES IDX 5 15 4 16 2 17 1 18 3 19 84 20 85 21 88 22 86 23 87 24 18 25
REMARK SMILES IDX 19 26 20 27 21 28 22 29 23 31 24 32 25 33 83 34 26 35 82 36
REMARK SMILES IDX 27 37 28 38 29 39 76 40 30 41 81 42 75 43 77 44 31 45 80 46
REMARK SMILES IDX 74 47 73 48 32 50 62 51 43 52 61 53 44 54 47 55 60 56 78 57
REMARK SMILES IDX 45 58 46 59 59 61 79 62 48 63 33 64 34 65 42 66 35 67 41 68
REMARK SMILES IDX 36 69 37 70 38 71 39 72 40 73 63 74 64 75 72 76 65 77 71 78
REMARK SMILES IDX 66 79 67 80 68 81 69 82 70 83 49 84 50 85 58 86 51 87 57 88
REMARK SMILES IDX 52 89 53 90 54 91 55 92 56 93
REMARK H PARENT 16 5 8 13 21 30 77 49 47 60
REMARK Flexibility Score: inf
ROOT
ATOM      1  C   UNL A   1      30.858  29.318  23.996  1.00  0.00     0.116 C 
ENDROOT
BRANCH   1   2
ATOM      2  N   UNL A   1      30.219  27.841  23.889  1.00  0.00    -0.356 N 
ATOM      3  C   UNL A   1      29.702  26.699  24.520  1.00  0.00     0.220 C 
ATOM      4  O   UNL A   1      28.755  26.258  23.818  1.00  0.00    -0.275 OA
ATOM      5  H   UNL A   1      30.169  27.650  22.924  1.00  0.00     0.163 HD
BRANCH   3   6
ATOM      6  C   UNL A   1      30.094  25.571  25.841  1.00  0.00     0.100 C 
BRANCH   6   7
ATOM      7  C   UNL A   1      31.309  24.828  26.654  1.00  0.00     0.020 C 
BRANCH   7   8
ATOM      8  C   UNL A   1      31.843  23.351  26.509  1.00  0.00     0.101 C 
BRANCH   8   9
ATOM      9  C   UNL A   1      33.016  22.722  27.279  1.00  0.00     0.227 C 
ATOM     10  C   UNL A   1      34.787  23.019  25.593  1.00  0.00     0.324 C 
ATOM     11  O   UNL A   1      35.922  23.473  25.678  1.00  0.00    -0.248 OA
ATOM     12  N   UNL A   1      34.255  22.556  26.749  1.00  0.00    -0.278 N 
ATOM     13  H   UNL A   1      34.866  22.011  27.295  1.00  0.00     0.174 HD
ATOM     14  O   UNL A   1      32.838  22.298  28.427  1.00  0.00    -0.275 OA
BRANCH  10  15
ATOM     15  N   UNL A   1      34.000  22.928  24.437  1.00  0.00    -0.321 N 
BRANCH  15  16
ATOM     16  C   UNL A   1      33.749  21.333  23.920  1.00  0.00     0.124 C 
BRANCH  16  17
ATOM     17  C   UNL A   1      32.644  20.005  24.096  1.00  0.00     0.002 C 
ATOM     18  C   UNL A   1      32.505  18.696  23.234  1.00  0.00     0.009 C 
ATOM     19  C   UNL A   1      32.856  19.399  25.505  1.00  0.00     0.009 C 
ENDBRANCH  16  17
ENDBRANCH  15  16
BRANCH  15  20
ATOM     20  C   UNL A   1      33.901  24.354  23.640  1.00  0.00     0.087 C 
ATOM     21  C   UNL A   1      32.637  24.739  22.803  1.00  0.00     0.025 C 
ATOM     22  C   UNL A   1      33.958  25.695  24.445  1.00  0.00     0.025 C 
ATOM     23  C   UNL A   1      32.910  26.166  22.312  1.00  0.00     0.002 C 
ATOM     24  C   UNL A   1      33.705  26.817  23.425  1.00  0.00     0.002 C 
ENDBRANCH  15  20
ENDBRANCH  10  15
ENDBRANCH   8   9
ENDBRANCH   7   8
ENDBRANCH   6   7
ENDBRANCH   3   6
ENDBRANCH   1   2
BRANCH   1  25
ATOM     25  C   UNL A   1      31.978  29.619  25.077  1.00  0.00     0.023 C 
BRANCH  25  26
ATOM     26  C   UNL A   1      32.051  28.700  26.311  1.00  0.00     0.023 C 
BRANCH  26  27
ATOM     27  C   UNL A   1      33.208  28.921  27.300  1.00  0.00     0.116 C 
BRANCH  27  28
ATOM     28  N   UNL A   1      33.398  30.301  27.773  1.00  0.00    -0.352 N 
ATOM     29  C   UNL A   1      34.538  30.923  28.258  1.00  0.00     0.251 C 
ATOM     30  H   UNL A   1      32.594  30.868  27.740  1.00  0.00     0.163 HD
ATOM     31  O   UNL A   1      34.496  32.100  28.627  1.00  0.00    -0.269 OA
BRANCH  29  32
ATOM     32  C   UNL A   1      35.801  30.162  28.388  1.00  0.00     0.039 A 
ATOM     33  C   UNL A   1      36.710  30.140  27.325  1.00  0.00     0.014 A 
ATOM     34  C   UNL A   1      36.131  29.557  29.599  1.00  0.00     0.014 A 
ATOM     35  C   UNL A   1      38.004  29.650  27.534  1.00  0.00     0.010 A 
ATOM     36  C   UNL A   1      37.445  29.168  29.834  1.00  0.00     0.010 A 
ATOM     37  C   UNL A   1      38.407  29.231  28.812  1.00  0.00    -0.014 A 
BRANCH  37  38
ATOM     38  C   UNL A   1      39.822  28.880  29.115  1.00  0.00     0.031 A 
ATOM     39  C   UNL A   1      40.734  29.899  29.749  1.00  0.00     0.074 A 
ATOM     40  C   UNL A   1      40.316  27.678  28.745  1.00  0.00     0.049 A 
ATOM     41  N   UNL A   1      42.012  29.814  30.010  1.00  0.00    -0.248 NA
ATOM     42  C   UNL A   1      40.136  31.198  30.104  1.00  0.00     0.031 C 
ATOM     43  C   UNL A   1      39.562  26.617  28.068  1.00  0.00     0.029 A 
ATOM     44  N   UNL A   1      41.574  27.143  28.885  1.00  0.00    -0.354 N 
ATOM     45  C   UNL A   1      42.373  31.047  30.541  1.00  0.00     0.074 A 
ATOM     46  C   UNL A   1      41.196  31.885  30.500  1.00  0.00     0.031 C 
ATOM     47  C   UNL A   1      40.359  25.550  27.893  1.00  0.00     0.029 A 
ATOM     48  C   UNL A   1      41.689  25.857  28.406  1.00  0.00     0.049 A 
ATOM     49  H   UNL A   1      42.324  27.634  29.291  1.00  0.00     0.167 HD
ATOM     50  C   UNL A   1      43.564  31.441  31.051  1.00  0.00     0.031 A 
ATOM     51  C   UNL A   1      42.744  25.018  28.386  1.00  0.00     0.031 A 
ATOM     52  C   UNL A   1      44.728  30.602  31.121  1.00  0.00     0.049 A 
ATOM     53  C   UNL A   1      44.056  25.476  28.968  1.00  0.00     0.074 A 
ATOM     54  C   UNL A   1      45.968  30.893  31.662  1.00  0.00     0.029 A 
ATOM     55  N   UNL A   1      44.792  29.300  30.650  1.00  0.00    -0.354 N 
ATOM     56  N   UNL A   1      44.357  26.630  29.515  1.00  0.00    -0.248 NA
ATOM     57  C   UNL A   1      45.166  24.513  28.942  1.00  0.00     0.031 C 
ATOM     58  C   UNL A   1      46.793  29.777  31.487  1.00  0.00     0.029 A 
ATOM     59  C   UNL A   1      46.052  28.777  30.880  1.00  0.00     0.049 A 
ATOM     60  H   UNL A   1      44.052  28.820  30.214  1.00  0.00     0.167 HD
ATOM     61  C   UNL A   1      45.680  26.519  29.927  1.00  0.00     0.074 A 
ATOM     62  C   UNL A   1      46.116  25.182  29.580  1.00  0.00     0.031 C 
ATOM     63  C   UNL A   1      46.464  27.440  30.538  1.00  0.00     0.031 A 
BRANCH  50  64
ATOM     64  C   UNL A   1      43.652  32.842  31.598  1.00  0.00    -0.014 A 
ATOM     65  C   UNL A   1      44.010  33.917  30.765  1.00  0.00     0.010 A 
ATOM     66  C   UNL A   1      43.345  33.093  32.947  1.00  0.00     0.010 A 
ATOM     67  C   UNL A   1      44.103  35.212  31.280  1.00  0.00     0.020 A 
ATOM     68  C   UNL A   1      43.408  34.392  33.459  1.00  0.00     0.020 A 
ATOM     69  C   UNL A   1      43.803  35.441  32.625  1.00  0.00     0.054 A 
BRANCH  69  70
ATOM     70  S   UNL A   1      43.907  37.137  33.259  1.00  0.00     0.124 S 
ATOM     71  O   UNL A   1      45.164  37.104  34.002  1.00  0.00    -0.237 OA
ATOM     72  O   UNL A   1      43.921  37.936  32.037  1.00  0.00    -0.237 OA
ATOM     73  O   UNL A   1      42.704  37.275  34.077  1.00  0.00    -0.744 OA
ENDBRANCH  69  70
ENDBRANCH  50  64
BRANCH  51  74
ATOM     74  C   UNL A   1      42.608  23.642  27.830  1.00  0.00    -0.014 A 
ATOM     75  C   UNL A   1      42.959  23.379  26.492  1.00  0.00     0.010 A 
ATOM     76  C   UNL A   1      42.102  22.595  28.619  1.00  0.00     0.010 A 
ATOM     77  C   UNL A   1      42.776  22.104  25.946  1.00  0.00     0.020 A 
ATOM     78  C   UNL A   1      41.943  21.311  28.085  1.00  0.00     0.020 A 
ATOM     79  C   UNL A   1      42.265  21.079  26.746  1.00  0.00     0.054 A 
BRANCH  79  80
ATOM     80  S   UNL A   1      42.055  19.427  26.025  1.00  0.00     0.124 S 
ATOM     81  O   UNL A   1      42.588  18.568  27.078  1.00  0.00    -0.237 OA
ATOM     82  O   UNL A   1      40.612  19.352  25.817  1.00  0.00    -0.237 OA
ATOM     83  O   UNL A   1      42.851  19.486  24.801  1.00  0.00    -0.744 OA
ENDBRANCH  79  80
ENDBRANCH  51  74
BRANCH  63  84
ATOM     84  C   UNL A   1      47.860  27.020  30.913  1.00  0.00    -0.014 A 
ATOM     85  C   UNL A   1      48.139  26.464  32.173  1.00  0.00     0.010 A 
ATOM     86  C   UNL A   1      48.896  27.140  29.968  1.00  0.00     0.010 A 
ATOM     87  C   UNL A   1      49.440  26.065  32.494  1.00  0.00     0.020 A 
ATOM     88  C   UNL A   1      50.191  26.717  30.277  1.00  0.00     0.020 A 
ATOM     89  C   UNL A   1      50.457  26.196  31.544  1.00  0.00     0.054 A 
BRANCH  89  90
ATOM     90  S   UNL A   1      52.128  25.633  31.969  1.00  0.00     0.124 S 
ATOM     91  O   UNL A   1      52.399  26.385  33.191  1.00  0.00    -0.237 OA
ATOM     92  O   UNL A   1      51.948  24.194  32.144  1.00  0.00    -0.237 OA
ATOM     93  O   UNL A   1      52.928  26.018  30.809  1.00  0.00    -0.744 OA
ENDBRANCH  89  90
ENDBRANCH  63  84
ENDBRANCH  37  38
ENDBRANCH  29  32
ENDBRANCH  27  28
ENDBRANCH  26  27
ENDBRANCH  25  26
ENDBRANCH   1  25
TORSDOF 21
ENDMDL
MODEL 2
REMARK VINA RESULT:     -10.8      1.235      2.013
REMARK SMILES CC(C)CN(C(=O)NC(=O)CCCC(=O)NCCCCNC(=O)c1ccc(-c2c3nc(c(-c4ccc(S(=O)(=O)[O-])cc4)c4ccc([nH]4)c(-c4ccc(S(=O)(=O)[O-])cc4)c4nc(c(-c5ccc(S(=O)(=O)[O-])cc5)c5ccc2[nH]5)C=C4)C=C3)cc1)C1CCCC1
REMARK SMILES IDX 17 1 16 2 14 3 15 4 13 6 12 7 11 8 9 9 6 10 7 11 8 12 10 14
REMARK SMILES IDX 5 15 4 16 2 17 1 18 3 19 84 20 85 21 88 22 86 23 87 24 18 25
REMARK SMILES IDX 19 26 20 27 21 28 22 29 23 31 24 32 25 33 83 34 26 35 82 36
REMARK SMILES IDX 27 37 28 38 29 39 76 40 30 41 81 42 75 43 77 44 31 45 80 46
REMARK SMILES IDX 74 47 73 48 32 50 62 51 43 52 61 53 44 54 47 55 60 56 78 57
REMARK SMILES IDX 45 58 46 59 59 61 79 62 48 63 33 64 34 65 42 66 35 67 41 68
REMARK SMILES IDX 36 69 37 70 38 71 39 72 40 73 63 74 64 75 72 76 65 77 71 78
REMARK SMILES IDX 66 79 67 80 68 81 69 82 70 83 49 84 50 85 58 86 51 87 57 88
REMARK SMILES IDX 52 89 53 90 54 91 55 92 56 93
REMARK H PARENT 16 5 8 13 21 30 77 49 47 60
REMARK Flexibility Score: inf
ROOT
ATOM      1  C   UNL A   1      31.285  28.848  24.008  1.00  0.00     0.116 C 
ENDROOT
BRANCH   1   2
ATOM      2  N   UNL A   1      32.536  27.973  23.490  1.00  0.00    -0.356 N 
ATOM      3  C   UNL A   1      33.415  26.893  23.674  1.00  0.00     0.220 C 
ATOM      4  O   UNL A   1      33.663  26.393  22.545  1.00  0.00    -0.275 OA
ATOM      5  H   UNL A   1      32.817  28.396  22.647  1.00  0.00     0.163 HD
BRANCH   3   6
ATOM      6  C   UNL A   1      34.447  26.169  24.931  1.00  0.00     0.100 C 
BRANCH   6   7
ATOM      7  C   UNL A   1      34.754  24.810  25.796  1.00  0.00     0.020 C 
BRANCH   7   8
ATOM      8  C   UNL A   1      35.029  23.345  25.279  1.00  0.00     0.101 C 
BRANCH   8   9
ATOM      9  C   UNL A   1      35.655  22.953  23.930  1.00  0.00     0.227 C 
ATOM     10  C   UNL A   1      33.624  22.982  22.538  1.00  0.00     0.324 C 
ATOM     11  O   UNL A   1      33.389  23.503  21.454  1.00  0.00    -0.248 OA
ATOM     12  N   UNL A   1      34.930  22.745  22.802  1.00  0.00    -0.278 N 
ATOM     13  H   UNL A   1      35.438  22.359  22.052  1.00  0.00     0.174 HD
ATOM     14  O   UNL A   1      36.876  22.770  23.852  1.00  0.00    -0.275 OA
BRANCH  10  15
ATOM     15  N   UNL A   1      32.689  22.610  23.514  1.00  0.00    -0.321 N 
BRANCH  15  16
ATOM     16  C   UNL A   1      32.422  20.937  23.586  1.00  0.00     0.124 C 
BRANCH  16  17
ATOM     17  C   UNL A   1      32.930  19.515  24.443  1.00  0.00     0.002 C 
ATOM     18  C   UNL A   1      34.296  18.737  24.370  1.00  0.00     0.009 C 
ATOM     19  C   UNL A   1      32.858  19.828  25.958  1.00  0.00     0.009 C 
ENDBRANCH  16  17
ENDBRANCH  15  16
BRANCH  15  20
ATOM     20  C   UNL A   1      31.780  23.875  24.017  1.00  0.00     0.087 C 
ATOM     21  C   UNL A   1      30.487  24.311  23.253  1.00  0.00     0.025 C 
ATOM     22  C   UNL A   1      31.108  23.830  25.429  1.00  0.00     0.025 C 
ATOM     23  C   UNL A   1      29.898  25.450  24.094  1.00  0.00     0.002 C 
ATOM     24  C   UNL A   1      30.233  25.090  25.527  1.00  0.00     0.002 C 
ENDBRANCH  15  20
ENDBRANCH  10  15
ENDBRANCH   8   9
ENDBRANCH   7   8
ENDBRANCH   6   7
ENDBRANCH   3   6
ENDBRANCH   1   2
BRANCH   1  25
ATOM     25  C   UNL A   1      31.374  29.616  25.392  1.00  0.00     0.023 C 
BRANCH  25  26
ATOM     26  C   UNL A   1      32.040  28.888  26.575  1.00  0.00     0.023 C 
BRANCH  26  27
ATOM     27  C   UNL A   1      33.480  29.287  26.942  1.00  0.00     0.116 C 
BRANCH  27  28
ATOM     28  N   UNL A   1      33.632  30.559  27.665  1.00  0.00    -0.352 N 
ATOM     29  C   UNL A   1      34.722  31.059  28.360  1.00  0.00     0.251 C 
ATOM     30  H   UNL A   1      32.840  31.143  27.654  1.00  0.00     0.163 HD
ATOM     31  O   UNL A   1      34.653  32.155  28.923  1.00  0.00    -0.269 OA
BRANCH  29  32
ATOM     32  C   UNL A   1      35.961  30.256  28.476  1.00  0.00     0.039 A 
ATOM     33  C   UNL A   1      36.909  30.291  27.450  1.00  0.00     0.014 A 
ATOM     34  C   UNL A   1      36.227  29.549  29.648  1.00  0.00     0.014 A 
ATOM     35  C   UNL A   1      38.183  29.750  27.667  1.00  0.00     0.010 A 
ATOM     36  C   UNL A   1      37.522  29.107  29.900  1.00  0.00     0.010 A 
ATOM     37  C   UNL A   1      38.524  29.222  28.923  1.00  0.00    -0.014 A 
BRANCH  37  38
ATOM     38  C   UNL A   1      39.917  28.810  29.250  1.00  0.00     0.031 A 
ATOM     39  C   UNL A   1      40.840  29.765  29.962  1.00  0.00     0.074 A 
ATOM     40  C   UNL A   1      40.384  27.612  28.834  1.00  0.00     0.049 A 
ATOM     41  N   UNL A   1      42.106  29.625  30.256  1.00  0.00    -0.248 NA
ATOM     42  C   UNL A   1      40.273  31.064  30.364  1.00  0.00     0.031 C 
ATOM     43  C   UNL A   1      39.619  26.612  28.082  1.00  0.00     0.029 A 
ATOM     44  N   UNL A   1      41.620  27.030  28.985  1.00  0.00    -0.354 N 
ATOM     45  C   UNL A   1      42.489  30.818  30.860  1.00  0.00     0.074 A 
ATOM     46  C   UNL A   1      41.341  31.695  30.826  1.00  0.00     0.031 C 
ATOM     47  C   UNL A   1      40.387  25.529  27.876  1.00  0.00     0.029 A 
ATOM     48  C   UNL A   1      41.709  25.766  28.444  1.00  0.00     0.049 A 
ATOM     49  H   UNL A   1      42.372  27.474  29.436  1.00  0.00     0.167 HD
ATOM     50  C   UNL A   1      43.675  31.146  31.424  1.00  0.00     0.031 A 
ATOM     51  C   UNL A   1      42.737  24.894  28.413  1.00  0.00     0.031 A 
ATOM     52  C   UNL A   1      44.809  30.266  31.487  1.00  0.00     0.049 A 
ATOM     53  C   UNL A   1      44.043  25.279  29.056  1.00  0.00     0.074 A 
ATOM     54  C   UNL A   1      46.040  30.488  32.079  1.00  0.00     0.029 A 
ATOM     55  N   UNL A   1      44.847  28.988  30.952  1.00  0.00    -0.354 N 
ATOM     56  N   UNL A   1      44.363  26.394  29.670  1.00  0.00    -0.248 NA
ATOM     57  C   UNL A   1      45.123  24.282  29.014  1.00  0.00     0.031 C 
ATOM     58  C   UNL A   1      46.835  29.356  31.872  1.00  0.00     0.029 A 
ATOM     59  C   UNL A   1      46.081  28.412  31.193  1.00  0.00     0.049 A 
ATOM     60  H   UNL A   1      44.106  28.554  30.471  1.00  0.00     0.167 HD
ATOM     61  C   UNL A   1      45.668  26.218  30.115  1.00  0.00     0.074 A 
ATOM     62  C   UNL A   1      46.073  24.887  29.714  1.00  0.00     0.031 C 
ATOM     63  C   UNL A   1      46.462  27.081  30.796  1.00  0.00     0.031 A 
BRANCH  50  64
ATOM     64  C   UNL A   1      43.790  32.514  32.045  1.00  0.00    -0.014 A 
ATOM     65  C   UNL A   1      44.146  33.628  31.264  1.00  0.00     0.010 A 
ATOM     66  C   UNL A   1      43.512  32.695  33.411  1.00  0.00     0.010 A 
ATOM     67  C   UNL A   1      44.263  34.892  31.846  1.00  0.00     0.020 A 
ATOM     68  C   UNL A   1      43.600  33.964  33.991  1.00  0.00     0.020 A 
ATOM     69  C   UNL A   1      43.991  35.052  33.207  1.00  0.00     0.054 A 
BRANCH  69  70
ATOM     70  S   UNL A   1      44.127  36.709  33.930  1.00  0.00     0.124 S 
ATOM     71  O   UNL A   1      44.524  37.509  32.773  1.00  0.00    -0.237 OA
ATOM     72  O   UNL A   1      42.776  36.954  34.428  1.00  0.00    -0.237 OA
ATOM     73  O   UNL A   1      45.150  36.555  34.961  1.00  0.00    -0.744 OA
ENDBRANCH  69  70
ENDBRANCH  50  64
BRANCH  51  74
ATOM     74  C   UNL A   1      42.575  23.553  27.783  1.00  0.00    -0.014 A 
ATOM     75  C   UNL A   1      41.856  22.540  28.445  1.00  0.00     0.010 A 
ATOM     76  C   UNL A   1      43.158  23.270  26.536  1.00  0.00     0.010 A 
ATOM     77  C   UNL A   1      41.752  21.261  27.889  1.00  0.00     0.020 A 
ATOM     78  C   UNL A   1      43.033  22.000  25.962  1.00  0.00     0.020 A 
ATOM     79  C   UNL A   1      42.345  20.998  26.652  1.00  0.00     0.054 A 
BRANCH  79  80
ATOM     80  S   UNL A   1      42.180  19.339  25.935  1.00  0.00     0.124 S 
ATOM     81  O   UNL A   1      42.985  19.452  24.722  1.00  0.00    -0.237 OA
ATOM     82  O   UNL A   1      42.731  18.484  26.983  1.00  0.00    -0.237 OA
ATOM     83  O   UNL A   1      40.741  19.203  25.722  1.00  0.00    -0.744 OA
ENDBRANCH  79  80
ENDBRANCH  51  74
BRANCH  63  84
ATOM     84  C   UNL A   1      47.831  26.597  31.191  1.00  0.00    -0.014 A 
ATOM     85  C   UNL A   1      48.923  26.701  30.312  1.00  0.00     0.010 A 
ATOM     86  C   UNL A   1      48.035  26.078  32.483  1.00  0.00     0.010 A 
ATOM     87  C   UNL A   1      50.189  26.262  30.706  1.00  0.00     0.020 A 
ATOM     88  C   UNL A   1      49.305  25.662  32.889  1.00  0.00     0.020 A 
ATOM     89  C   UNL A   1      50.371  25.744  31.992  1.00  0.00     0.054 A 
BRANCH  89  90
ATOM     90  S   UNL A   1      52.033  25.218  32.495  1.00  0.00     0.124 S 
ATOM     91  O   UNL A   1      52.087  25.671  33.882  1.00  0.00    -0.237 OA
ATOM     92  O   UNL A   1      51.981  23.769  32.308  1.00  0.00    -0.237 OA
ATOM     93  O   UNL A   1      52.915  25.927  31.571  1.00  0.00    -0.744 OA
ENDBRANCH  89  90
ENDBRANCH  63  84
ENDBRANCH  37  38
ENDBRANCH  29  32
ENDBRANCH  27  28
ENDBRANCH  26  27
ENDBRANCH  25  26
ENDBRANCH   1  25
TORSDOF 21
ENDMDL
MODEL 3
REMARK VINA RESULT:     -10.6      1.093      2.472
REMARK SMILES CC(C)CN(C(=O)NC(=O)CCCC(=O)NCCCCNC(=O)c1ccc(-c2c3nc(c(-c4ccc(S(=O)(=O)[O-])cc4)c4ccc([nH]4)c(-c4ccc(S(=O)(=O)[O-])cc4)c4nc(c(-c5ccc(S(=O)(=O)[O-])cc5)c5ccc2[nH]5)C=C4)C=C3)cc1)C1CCCC1
REMARK SMILES IDX 17 1 16 2 14 3 15 4 13 6 12 7 11 8 9 9 6 10 7 11 8 12 10 14
REMARK SMILES IDX 5 15 4 16 2 17 1 18 3 19 84 20 85 21 88 22 86 23 87 24 18 25
REMARK SMILES IDX 19 26 20 27 21 28 22 29 23 31 24 32 25 33 83 34 26 35 82 36
REMARK SMILES IDX 27 37 28 38 29 39 76 40 30 41 81 42 75 43 77 44 31 45 80 46
REMARK SMILES IDX 74 47 73 48 32 50 62 51 43 52 61 53 44 54 47 55 60 56 78 57
REMARK SMILES IDX 45 58 46 59 59 61 79 62 48 63 33 64 34 65 42 66 35 67 41 68
REMARK SMILES IDX 36 69 37 70 38 71 39 72 40 73 63 74 64 75 72 76 65 77 71 78
REMARK SMILES IDX 66 79 67 80 68 81 69 82 70 83 49 84 50 85 58 86 51 87 57 88
REMARK SMILES IDX 52 89 53 90 54 91 55 92 56 93
REMARK H PARENT 16 5 8 13 21 30 77 49 47 60
REMARK Flexibility Score: inf
ROOT
ATOM      1  C   UNL A   1      31.122  28.970  24.036  1.00  0.00     0.116 C 
ENDROOT
BRANCH   1   2
ATOM      2  N   UNL A   1      30.439  27.515  24.161  1.00  0.00    -0.356 N 
ATOM      3  C   UNL A   1      30.115  26.395  24.944  1.00  0.00     0.220 C 
ATOM      4  O   UNL A   1      28.982  25.980  24.584  1.00  0.00    -0.275 OA
ATOM      5  H   UNL A   1      30.081  27.319  23.265  1.00  0.00     0.163 HD
BRANCH   3   6
ATOM      6  C   UNL A   1      30.872  25.264  26.092  1.00  0.00     0.100 C 
BRANCH   6   7
ATOM      7  C   UNL A   1      32.223  24.399  26.429  1.00  0.00     0.020 C 
BRANCH   7   8
ATOM      8  C   UNL A   1      33.679  24.564  25.846  1.00  0.00     0.101 C 
BRANCH   8   9
ATOM      9  C   UNL A   1      34.073  25.331  24.573  1.00  0.00     0.227 C 
ATOM     10  C   UNL A   1      34.668  23.418  23.139  1.00  0.00     0.324 C 
ATOM     11  O   UNL A   1      34.344  23.130  21.993  1.00  0.00    -0.248 OA
ATOM     12  N   UNL A   1      34.570  24.729  23.462  1.00  0.00    -0.278 N 
ATOM     13  H   UNL A   1      34.916  25.348  22.779  1.00  0.00     0.174 HD
ATOM     14  O   UNL A   1      33.983  26.564  24.547  1.00  0.00    -0.275 OA
BRANCH  10  15
ATOM     15  N   UNL A   1      35.125  22.540  24.131  1.00  0.00    -0.321 N 
BRANCH  15  16
ATOM     16  C   UNL A   1      36.734  22.823  24.588  1.00  0.00     0.124 C 
BRANCH  16  17
ATOM     17  C   UNL A   1      37.771  22.827  25.981  1.00  0.00     0.002 C 
ATOM     18  C   UNL A   1      39.265  22.354  26.118  1.00  0.00     0.009 C 
ATOM     19  C   UNL A   1      37.886  24.289  26.478  1.00  0.00     0.009 C 
ENDBRANCH  16  17
ENDBRANCH  15  16
BRANCH  15  20
ATOM     20  C   UNL A   1      34.174  21.215  24.275  1.00  0.00     0.087 C 
ATOM     21  C   UNL A   1      33.824  20.605  25.672  1.00  0.00     0.025 C 
ATOM     22  C   UNL A   1      32.697  21.266  23.763  1.00  0.00     0.025 C 
ATOM     23  C   UNL A   1      32.853  19.458  25.368  1.00  0.00     0.002 C 
ATOM     24  C   UNL A   1      32.058  19.927  24.167  1.00  0.00     0.002 C 
ENDBRANCH  15  20
ENDBRANCH  10  15
ENDBRANCH   8   9
ENDBRANCH   7   8
ENDBRANCH   6   7
ENDBRANCH   3   6
ENDBRANCH   1   2
BRANCH   1  25
ATOM     25  C   UNL A   1      32.361  29.346  24.952  1.00  0.00     0.023 C 
BRANCH  25  26
ATOM     26  C   UNL A   1      32.312  28.924  26.433  1.00  0.00     0.023 C 
BRANCH  26  27
ATOM     27  C   UNL A   1      33.593  29.096  27.268  1.00  0.00     0.116 C 
BRANCH  27  28
ATOM     28  N   UNL A   1      33.744  30.387  27.955  1.00  0.00    -0.352 N 
ATOM     29  C   UNL A   1      34.857  30.937  28.575  1.00  0.00     0.251 C 
ATOM     30  H   UNL A   1      32.934  30.945  27.981  1.00  0.00     0.163 HD
ATOM     31  O   UNL A   1      34.784  32.041  29.120  1.00  0.00    -0.269 OA
BRANCH  29  32
ATOM     32  C   UNL A   1      36.126  30.176  28.633  1.00  0.00     0.039 A 
ATOM     33  C   UNL A   1      37.008  30.215  27.548  1.00  0.00     0.014 A 
ATOM     34  C   UNL A   1      36.488  29.509  29.801  1.00  0.00     0.014 A 
ATOM     35  C   UNL A   1      38.309  29.721  27.698  1.00  0.00     0.010 A 
ATOM     36  C   UNL A   1      37.810  29.115  29.983  1.00  0.00     0.010 A 
ATOM     37  C   UNL A   1      38.745  29.237  28.942  1.00  0.00    -0.014 A 
BRANCH  37  38
ATOM     38  C   UNL A   1      40.169  28.878  29.191  1.00  0.00     0.031 A 
ATOM     39  C   UNL A   1      41.110  29.891  29.790  1.00  0.00     0.074 A 
ATOM     40  C   UNL A   1      40.641  27.673  28.802  1.00  0.00     0.049 A 
ATOM     41  N   UNL A   1      42.397  29.798  30.003  1.00  0.00    -0.248 NA
ATOM     42  C   UNL A   1      40.533  31.193  30.168  1.00  0.00     0.031 C 
ATOM     43  C   UNL A   1      39.855  26.617  28.153  1.00  0.00     0.029 A 
ATOM     44  N   UNL A   1      41.900  27.131  28.894  1.00  0.00    -0.354 N 
ATOM     45  C   UNL A   1      42.784  31.029  30.520  1.00  0.00     0.074 A 
ATOM     46  C   UNL A   1      41.611  31.874  30.524  1.00  0.00     0.031 C 
ATOM     47  C   UNL A   1      40.639  25.545  27.947  1.00  0.00     0.029 A 
ATOM     48  C   UNL A   1      41.990  25.844  28.410  1.00  0.00     0.049 A 
ATOM     49  H   UNL A   1      42.668  27.617  29.271  1.00  0.00     0.167 HD
ATOM     50  C   UNL A   1      43.996  31.416  30.984  1.00  0.00     0.031 A 
ATOM     51  C   UNL A   1      43.038  24.999  28.350  1.00  0.00     0.031 A 
ATOM     52  C   UNL A   1      45.157  30.570  31.010  1.00  0.00     0.049 A 
ATOM     53  C   UNL A   1      44.374  25.449  28.881  1.00  0.00     0.074 A 
ATOM     54  C   UNL A   1      46.419  30.853  31.504  1.00  0.00     0.029 A 
ATOM     55  N   UNL A   1      45.196  29.268  30.536  1.00  0.00    -0.354 N 
ATOM     56  N   UNL A   1      44.702  26.601  29.417  1.00  0.00    -0.248 NA
ATOM     57  C   UNL A   1      45.476  24.480  28.812  1.00  0.00     0.031 C 
ATOM     58  C   UNL A   1      47.230  29.732  31.296  1.00  0.00     0.029 A 
ATOM     59  C   UNL A   1      46.460  28.737  30.718  1.00  0.00     0.049 A 
ATOM     60  H   UNL A   1      44.436  28.792  30.129  1.00  0.00     0.167 HD
ATOM     61  C   UNL A   1      46.039  26.482  29.779  1.00  0.00     0.074 A 
ATOM     62  C   UNL A   1      46.454  25.143  29.414  1.00  0.00     0.031 C 
ATOM     63  C   UNL A   1      46.852  27.398  30.360  1.00  0.00     0.031 A 
BRANCH  50  64
ATOM     64  C   UNL A   1      44.113  32.815  31.529  1.00  0.00    -0.014 A 
ATOM     65  C   UNL A   1      43.939  33.068  32.901  1.00  0.00     0.010 A 
ATOM     66  C   UNL A   1      44.429  33.882  30.670  1.00  0.00     0.010 A 
ATOM     67  C   UNL A   1      44.035  34.369  33.400  1.00  0.00     0.020 A 
ATOM     68  C   UNL A   1      44.556  35.182  31.171  1.00  0.00     0.020 A 
ATOM     69  C   UNL A   1      44.341  35.419  32.530  1.00  0.00     0.054 A 
BRANCH  69  70
ATOM     70  S   UNL A   1      44.486  37.093  33.211  1.00  0.00     0.124 S 
ATOM     71  O   UNL A   1      43.761  36.968  34.473  1.00  0.00    -0.237 OA
ATOM     72  O   UNL A   1      45.931  37.267  33.331  1.00  0.00    -0.237 OA
ATOM     73  O   UNL A   1      43.842  37.933  32.204  1.00  0.00    -0.744 OA
ENDBRANCH  69  70
ENDBRANCH  50  64
BRANCH  51  74
ATOM     74  C   UNL A   1      42.873  23.624  27.798  1.00  0.00    -0.014 A 
ATOM     75  C   UNL A   1      43.185  23.357  26.452  1.00  0.00     0.010 A 
ATOM     76  C   UNL A   1      42.379  22.582  28.602  1.00  0.00     0.010 A 
ATOM     77  C   UNL A   1      42.973  22.084  25.911  1.00  0.00     0.020 A 
ATOM     78  C   UNL A   1      42.192  21.300  28.073  1.00  0.00     0.020 A 
ATOM     79  C   UNL A   1      42.474  21.065  26.725  1.00  0.00     0.054 A 
BRANCH  79  80
ATOM     80  S   UNL A   1      42.229  19.414  26.012  1.00  0.00     0.124 S 
ATOM     81  O   UNL A   1      43.045  19.481  24.804  1.00  0.00    -0.237 OA
ATOM     82  O   UNL A   1      42.728  18.535  27.066  1.00  0.00    -0.237 OA
ATOM     83  O   UNL A   1      40.786  19.351  25.791  1.00  0.00    -0.744 OA
ENDBRANCH  79  80
ENDBRANCH  51  74
BRANCH  63  84
ATOM     84  C   UNL A   1      48.258  26.970  30.682  1.00  0.00    -0.014 A 
ATOM     85  C   UNL A   1      49.296  27.118  29.747  1.00  0.00     0.010 A 
ATOM     86  C   UNL A   1      48.550  26.459  31.960  1.00  0.00     0.010 A 
ATOM     87  C   UNL A   1      50.599  26.730  30.073  1.00  0.00     0.020 A 
ATOM     88  C   UNL A   1      49.855  26.096  32.298  1.00  0.00     0.020 A 
ATOM     89  C   UNL A   1      50.869  26.220  31.346  1.00  0.00     0.054 A 
BRANCH  89  90
ATOM     90  S   UNL A   1      52.574  25.762  31.761  1.00  0.00     0.124 S 
ATOM     91  O   UNL A   1      53.263  25.980  30.492  1.00  0.00    -0.237 OA
ATOM     92  O   UNL A   1      52.909  26.701  32.828  1.00  0.00    -0.237 OA
ATOM     93  O   UNL A   1      52.465  24.366  32.180  1.00  0.00    -0.744 OA
ENDBRANCH  89  90
ENDBRANCH  63  84
ENDBRANCH  37  38
ENDBRANCH  29  32
ENDBRANCH  27  28
ENDBRANCH  26  27
ENDBRANCH  25  26
ENDBRANCH   1  25
TORSDOF 21
ENDMDL
