MODEL 1
REMARK VINA RESULT:     -11.2      0.000      0.000
REMARK SMILES NC(=O)c1ccccc1NC(=O)[C@@H]1CC=CC[C@@H]1C(=O)NCCCCNC(=O)c1ccc(-c2c3nc(c(-c4ccc(S(=O)(=O)[O-])cc4)c4ccc([nH]4)c(-c4ccc(S(=O)(=O)[O-])cc4)c4nc(c(-c5ccc(S(=O)(=O)[O-])cc5)c5ccc2[nH]5)C=C4)C=C3)cc1
REMARK SMILES IDX 23 1 22 2 21 3 19 4 20 5 18 7 13 8 14 9 15 10 17 11 16 12
REMARK SMILES IDX 11 13 10 14 12 16 9 17 4 18 5 19 6 20 8 21 7 22 2 23 1 24
REMARK SMILES IDX 3 27 24 28 25 29 26 30 27 31 28 33 29 34 30 35 88 36 31 37
REMARK SMILES IDX 87 38 32 39 33 40 34 41 81 42 35 43 86 44 80 45 82 46 36 47
REMARK SMILES IDX 85 48 79 49 78 50 37 52 67 53 48 54 66 55 49 56 52 57 65 58
REMARK SMILES IDX 83 59 50 60 51 61 64 63 84 64 53 65 38 66 39 67 47 68 40 69
REMARK SMILES IDX 46 70 41 71 42 72 43 73 44 74 45 75 68 76 69 77 77 78 70 79
REMARK SMILES IDX 76 80 71 81 72 82 73 83 74 84 75 85 54 86 55 87 63 88 56 89
REMARK SMILES IDX 62 90 57 91 58 92 59 93 60 94 61 95
REMARK H PARENT 21 6 10 15 1 25 1 26 26 32 82 51 52 62
REMARK Flexibility Score: inf
ROOT
ATOM      1  C   UNL A   1      35.124  24.609  24.686  1.00  0.00     0.023 C 
ENDROOT
BRANCH   1   2
ATOM      2  C   UNL A   1      34.215  24.584  23.455  1.00  0.00     0.116 C 
BRANCH   2   3
ATOM      3  N   UNL A   1      33.711  25.907  23.143  1.00  0.00    -0.356 N 
ATOM      4  C   UNL A   1      32.931  26.700  23.924  1.00  0.00     0.224 C 
ATOM      5  O   UNL A   1      31.930  27.161  23.372  1.00  0.00    -0.275 OA
ATOM      6  H   UNL A   1      33.961  26.275  22.264  1.00  0.00     0.163 HD
BRANCH   4   7
ATOM      7  C   UNL A   1      33.219  26.973  25.413  1.00  0.00     0.095 C 
ATOM      8  C   UNL A   1      32.057  26.580  26.390  1.00  0.00     0.095 C 
ATOM      9  C   UNL A   1      31.427  27.644  27.309  1.00  0.00     0.041 C 
ATOM     10  C   UNL A   1      32.200  28.901  27.486  1.00  0.00    -0.030 C 
ATOM     11  C   UNL A   1      33.929  28.293  25.780  1.00  0.00     0.041 C 
ATOM     12  C   UNL A   1      33.315  29.179  26.813  1.00  0.00    -0.030 C 
BRANCH   8  13
ATOM     13  C   UNL A   1      30.920  25.692  25.891  1.00  0.00     0.228 C 
ATOM     14  N   UNL A   1      30.978  24.357  25.639  1.00  0.00    -0.325 N 
ATOM     15  H   UNL A   1      30.140  24.034  25.236  1.00  0.00     0.169 HD
ATOM     16  O   UNL A   1      29.842  26.240  25.609  1.00  0.00    -0.274 OA
BRANCH  14  17
ATOM     17  C   UNL A   1      31.909  23.302  25.797  1.00  0.00     0.053 A 
ATOM     18  C   UNL A   1      32.084  22.390  24.728  1.00  0.00     0.063 A 
ATOM     19  C   UNL A   1      32.825  21.209  24.899  1.00  0.00     0.016 A 
ATOM     20  C   UNL A   1      33.464  20.952  26.107  1.00  0.00     0.001 A 
ATOM     21  C   UNL A   1      32.615  23.047  26.975  1.00  0.00     0.027 A 
ATOM     22  C   UNL A   1      33.380  21.884  27.132  1.00  0.00     0.002 A 
BRANCH  18  23
ATOM     23  C   UNL A   1      31.504  22.596  23.374  1.00  0.00     0.250 C 
ATOM     24  N   UNL A   1      31.887  21.709  22.403  1.00  0.00    -0.366 N 
ATOM     25  H   UNL A   1      31.534  21.798  21.488  1.00  0.00     0.159 HD
ATOM     26  H   UNL A   1      32.515  20.983  22.620  1.00  0.00     0.159 HD
ATOM     27  O   UNL A   1      30.682  23.468  23.140  1.00  0.00    -0.269 OA
ENDBRANCH  18  23
ENDBRANCH  14  17
ENDBRANCH   8  13
ENDBRANCH   4   7
ENDBRANCH   2   3
ENDBRANCH   1   2
BRANCH   1  28
ATOM     28  C   UNL A   1      36.215  23.529  24.718  1.00  0.00     0.023 C 
BRANCH  28  29
ATOM     29  C   UNL A   1      36.665  23.091  26.110  1.00  0.00     0.116 C 
BRANCH  29  30
ATOM     30  N   UNL A   1      37.926  22.363  26.087  1.00  0.00    -0.352 N 
ATOM     31  C   UNL A   1      39.205  22.800  26.338  1.00  0.00     0.251 C 
ATOM     32  H   UNL A   1      37.852  21.410  25.854  1.00  0.00     0.163 HD
ATOM     33  O   UNL A   1      40.159  22.070  26.086  1.00  0.00    -0.269 OA
BRANCH  31  34
ATOM     34  C   UNL A   1      39.434  24.155  26.887  1.00  0.00     0.039 A 
ATOM     35  C   UNL A   1      39.006  24.439  28.187  1.00  0.00     0.014 A 
ATOM     36  C   UNL A   1      40.073  25.137  26.127  1.00  0.00     0.014 A 
ATOM     37  C   UNL A   1      39.309  25.678  28.760  1.00  0.00     0.010 A 
ATOM     38  C   UNL A   1      40.426  26.348  26.718  1.00  0.00     0.010 A 
ATOM     39  C   UNL A   1      40.068  26.620  28.048  1.00  0.00    -0.014 A 
BRANCH  39  40
ATOM     40  C   UNL A   1      40.564  27.864  28.692  1.00  0.00     0.031 A 
ATOM     41  C   UNL A   1      41.927  27.913  29.319  1.00  0.00     0.074 A 
ATOM     42  C   UNL A   1      39.734  28.921  28.802  1.00  0.00     0.049 A 
ATOM     43  N   UNL A   1      42.474  28.868  30.027  1.00  0.00    -0.248 NA
ATOM     44  C   UNL A   1      42.778  26.726  29.146  1.00  0.00     0.031 C 
ATOM     45  C   UNL A   1      38.369  28.986  28.270  1.00  0.00     0.029 A 
ATOM     46  N   UNL A   1      39.906  30.135  29.419  1.00  0.00    -0.354 N 
ATOM     47  C   UNL A   1      43.728  28.397  30.394  1.00  0.00     0.074 A 
ATOM     48  C   UNL A   1      43.843  27.053  29.865  1.00  0.00     0.031 C 
ATOM     49  C   UNL A   1      37.831  30.174  28.581  1.00  0.00     0.029 A 
ATOM     50  C   UNL A   1      38.791  30.939  29.371  1.00  0.00     0.049 A 
ATOM     51  H   UNL A   1      40.746  30.405  29.854  1.00  0.00     0.167 HD
ATOM     52  C   UNL A   1      44.700  29.028  31.096  1.00  0.00     0.031 A 
ATOM     53  C   UNL A   1      38.552  32.146  29.921  1.00  0.00     0.031 A 
ATOM     54  C   UNL A   1      44.578  30.360  31.630  1.00  0.00     0.049 A 
ATOM     55  C   UNL A   1      39.628  32.813  30.729  1.00  0.00     0.074 A 
ATOM     56  C   UNL A   1      45.527  31.104  32.309  1.00  0.00     0.029 A 
ATOM     57  N   UNL A   1      43.436  31.142  31.555  1.00  0.00    -0.354 N 
ATOM     58  N   UNL A   1      40.833  32.377  31.010  1.00  0.00    -0.248 NA
ATOM     59  C   UNL A   1      39.314  34.131  31.295  1.00  0.00     0.031 C 
ATOM     60  C   UNL A   1      44.939  32.317  32.691  1.00  0.00     0.029 A 
ATOM     61  C   UNL A   1      43.642  32.348  32.205  1.00  0.00     0.049 A 
ATOM     62  H   UNL A   1      42.600  30.879  31.105  1.00  0.00     0.167 HD
ATOM     63  C   UNL A   1      41.424  33.372  31.779  1.00  0.00     0.074 A 
ATOM     64  C   UNL A   1      40.453  34.440  31.902  1.00  0.00     0.031 C 
ATOM     65  C   UNL A   1      42.660  33.396  32.336  1.00  0.00     0.031 A 
BRANCH  52  66
ATOM     66  C   UNL A   1      45.979  28.271  31.335  1.00  0.00    -0.014 A 
ATOM     67  C   UNL A   1      46.143  27.472  32.481  1.00  0.00     0.010 A 
ATOM     68  C   UNL A   1      47.026  28.347  30.398  1.00  0.00     0.010 A 
ATOM     69  C   UNL A   1      47.349  26.806  32.714  1.00  0.00     0.020 A 
ATOM     70  C   UNL A   1      48.226  27.662  30.614  1.00  0.00     0.020 A 
ATOM     71  C   UNL A   1      48.387  26.914  31.784  1.00  0.00     0.054 A 
BRANCH  71  72
ATOM     72  S   UNL A   1      49.947  26.051  32.116  1.00  0.00     0.124 S 
ATOM     73  O   UNL A   1      49.751  25.596  33.491  1.00  0.00    -0.237 OA
ATOM     74  O   UNL A   1      49.956  24.998  31.103  1.00  0.00    -0.237 OA
ATOM     75  O   UNL A   1      50.962  27.086  31.942  1.00  0.00    -0.744 OA
ENDBRANCH  71  72
ENDBRANCH  52  66
BRANCH  53  76
ATOM     76  C   UNL A   1      37.223  32.786  29.732  1.00  0.00    -0.014 A 
ATOM     77  C   UNL A   1      36.349  32.950  30.819  1.00  0.00     0.010 A 
ATOM     78  C   UNL A   1      36.848  33.281  28.469  1.00  0.00     0.010 A 
ATOM     79  C   UNL A   1      35.122  33.599  30.647  1.00  0.00     0.020 A 
ATOM     80  C   UNL A   1      35.633  33.951  28.299  1.00  0.00     0.020 A 
ATOM     81  C   UNL A   1      34.774  34.100  29.389  1.00  0.00     0.054 A 
BRANCH  81  82
ATOM     82  S   UNL A   1      33.215  35.011  29.211  1.00  0.00     0.124 S 
ATOM     83  O   UNL A   1      32.537  34.247  28.168  1.00  0.00    -0.237 OA
ATOM     84  O   UNL A   1      32.636  34.911  30.548  1.00  0.00    -0.237 OA
ATOM     85  O   UNL A   1      33.647  36.353  28.827  1.00  0.00    -0.744 OA
ENDBRANCH  81  82
ENDBRANCH  53  76
BRANCH  65  86
ATOM     86  C   UNL A   1      43.037  34.613  33.134  1.00  0.00    -0.014 A 
ATOM     87  C   UNL A   1      42.937  34.614  34.536  1.00  0.00     0.010 A 
ATOM     88  C   UNL A   1      43.565  35.743  32.482  1.00  0.00     0.010 A 
ATOM     89  C   UNL A   1      43.343  35.730  35.273  1.00  0.00     0.020 A 
ATOM     90  C   UNL A   1      43.993  36.851  33.217  1.00  0.00     0.020 A 
ATOM     91  C   UNL A   1      43.873  36.840  34.608  1.00  0.00     0.054 A 
BRANCH  91  92
ATOM     92  S   UNL A   1      44.457  38.249  35.592  1.00  0.00     0.124 S 
ATOM     93  O   UNL A   1      45.904  38.054  35.575  1.00  0.00    -0.237 OA
ATOM     94  O   UNL A   1      43.968  39.396  34.831  1.00  0.00    -0.237 OA
ATOM     95  O   UNL A   1      43.816  38.053  36.891  1.00  0.00    -0.744 OA
ENDBRANCH  91  92
ENDBRANCH  65  86
ENDBRANCH  39  40
ENDBRANCH  31  34
ENDBRANCH  29  30
ENDBRANCH  28  29
ENDBRANCH   1  28
TORSDOF 17
ENDMDL
MODEL 2
REMARK VINA RESULT:     -11.2      2.548      8.839
REMARK SMILES NC(=O)c1ccccc1NC(=O)[C@@H]1CC=CC[C@@H]1C(=O)NCCCCNC(=O)c1ccc(-c2c3nc(c(-c4ccc(S(=O)(=O)[O-])cc4)c4ccc([nH]4)c(-c4ccc(S(=O)(=O)[O-])cc4)c4nc(c(-c5ccc(S(=O)(=O)[O-])cc5)c5ccc2[nH]5)C=C4)C=C3)cc1
REMARK SMILES IDX 23 1 22 2 21 3 19 4 20 5 18 7 13 8 14 9 15 10 17 11 16 12
REMARK SMILES IDX 11 13 10 14 12 16 9 17 4 18 5 19 6 20 8 21 7 22 2 23 1 24
REMARK SMILES IDX 3 27 24 28 25 29 26 30 27 31 28 33 29 34 30 35 88 36 31 37
REMARK SMILES IDX 87 38 32 39 33 40 34 41 81 42 35 43 86 44 80 45 82 46 36 47
REMARK SMILES IDX 85 48 79 49 78 50 37 52 67 53 48 54 66 55 49 56 52 57 65 58
REMARK SMILES IDX 83 59 50 60 51 61 64 63 84 64 53 65 38 66 39 67 47 68 40 69
REMARK SMILES IDX 46 70 41 71 42 72 43 73 44 74 45 75 68 76 69 77 77 78 70 79
REMARK SMILES IDX 76 80 71 81 72 82 73 83 74 84 75 85 54 86 55 87 63 88 56 89
REMARK SMILES IDX 62 90 57 91 58 92 59 93 60 94 61 95
REMARK H PARENT 21 6 10 15 1 25 1 26 26 32 82 51 52 62
REMARK Flexibility Score: inf
ROOT
ATOM      1  C   UNL A   1      31.949  27.029  26.874  1.00  0.00     0.023 C 
ENDROOT
BRANCH   1   2
ATOM      2  C   UNL A   1      33.174  26.484  26.135  1.00  0.00     0.116 C 
BRANCH   2   3
ATOM      3  N   UNL A   1      33.165  25.034  26.094  1.00  0.00    -0.356 N 
ATOM      4  C   UNL A   1      32.136  24.224  25.734  1.00  0.00     0.224 C 
ATOM      5  O   UNL A   1      31.879  23.315  26.526  1.00  0.00    -0.275 OA
ATOM      6  H   UNL A   1      34.000  24.584  26.358  1.00  0.00     0.163 HD
BRANCH   4   7
ATOM      7  C   UNL A   1      31.291  24.436  24.461  1.00  0.00     0.095 C 
ATOM      8  C   UNL A   1      32.112  24.471  23.126  1.00  0.00     0.095 C 
ATOM      9  C   UNL A   1      32.050  25.710  22.213  1.00  0.00     0.041 C 
ATOM     10  C   UNL A   1      30.930  26.654  22.462  1.00  0.00    -0.030 C 
ATOM     11  C   UNL A   1      30.144  25.466  24.522  1.00  0.00     0.041 C 
ATOM     12  C   UNL A   1      30.080  26.536  23.481  1.00  0.00    -0.030 C 
BRANCH   8  13
ATOM     13  C   UNL A   1      33.559  23.983  23.118  1.00  0.00     0.228 C 
ATOM     14  N   UNL A   1      34.002  22.739  23.442  1.00  0.00    -0.325 N 
ATOM     15  H   UNL A   1      34.985  22.702  23.449  1.00  0.00     0.169 HD
ATOM     16  O   UNL A   1      34.446  24.813  22.861  1.00  0.00    -0.274 OA
BRANCH  14  17
ATOM     17  C   UNL A   1      33.441  21.482  23.772  1.00  0.00     0.053 A 
ATOM     18  C   UNL A   1      33.927  20.805  24.916  1.00  0.00     0.063 A 
ATOM     19  C   UNL A   1      33.569  19.471  25.174  1.00  0.00     0.016 A 
ATOM     20  C   UNL A   1      32.667  18.815  24.344  1.00  0.00     0.001 A 
ATOM     21  C   UNL A   1      32.489  20.818  22.995  1.00  0.00     0.027 A 
ATOM     22  C   UNL A   1      32.109  19.498  23.272  1.00  0.00     0.002 A 
BRANCH  18  23
ATOM     23  C   UNL A   1      34.842  21.429  25.909  1.00  0.00     0.250 C 
ATOM     24  N   UNL A   1      34.425  21.425  27.213  1.00  0.00    -0.366 N 
ATOM     25  H   UNL A   1      34.991  21.825  27.913  1.00  0.00     0.159 HD
ATOM     26  H   UNL A   1      33.558  21.022  27.451  1.00  0.00     0.159 HD
ATOM     27  O   UNL A   1      35.939  21.870  25.601  1.00  0.00    -0.269 OA
ENDBRANCH  18  23
ENDBRANCH  14  17
ENDBRANCH   8  13
ENDBRANCH   4   7
ENDBRANCH   2   3
ENDBRANCH   1   2
BRANCH   1  28
ATOM     28  C   UNL A   1      32.053  28.493  27.324  1.00  0.00     0.023 C 
BRANCH  28  29
ATOM     29  C   UNL A   1      33.461  29.086  27.309  1.00  0.00     0.116 C 
BRANCH  29  30
ATOM     30  N   UNL A   1      33.482  30.487  27.706  1.00  0.00    -0.352 N 
ATOM     31  C   UNL A   1      34.447  31.202  28.374  1.00  0.00     0.251 C 
ATOM     32  H   UNL A   1      32.680  31.001  27.460  1.00  0.00     0.163 HD
ATOM     33  O   UNL A   1      34.196  32.334  28.777  1.00  0.00    -0.269 OA
BRANCH  31  34
ATOM     34  C   UNL A   1      35.776  30.604  28.627  1.00  0.00     0.039 A 
ATOM     35  C   UNL A   1      36.695  30.527  27.576  1.00  0.00     0.014 A 
ATOM     36  C   UNL A   1      36.117  30.125  29.894  1.00  0.00     0.014 A 
ATOM     37  C   UNL A   1      37.991  30.064  27.822  1.00  0.00     0.010 A 
ATOM     38  C   UNL A   1      37.424  29.720  30.151  1.00  0.00     0.010 A 
ATOM     39  C   UNL A   1      38.380  29.708  29.123  1.00  0.00    -0.014 A 
BRANCH  39  40
ATOM     40  C   UNL A   1      39.794  29.390  29.451  1.00  0.00     0.031 A 
ATOM     41  C   UNL A   1      40.713  30.448  29.990  1.00  0.00     0.074 A 
ATOM     42  C   UNL A   1      40.275  28.165  29.160  1.00  0.00     0.049 A 
ATOM     43  N   UNL A   1      42.000  30.384  30.216  1.00  0.00    -0.248 NA
ATOM     44  C   UNL A   1      40.111  31.755  30.294  1.00  0.00     0.031 C 
ATOM     45  C   UNL A   1      39.495  27.060  28.596  1.00  0.00     0.029 A 
ATOM     46  N   UNL A   1      41.543  27.650  29.275  1.00  0.00    -0.354 N 
ATOM     47  C   UNL A   1      42.367  31.641  30.679  1.00  0.00     0.074 A 
ATOM     48  C   UNL A   1      41.172  32.461  30.661  1.00  0.00     0.031 C 
ATOM     49  C   UNL A   1      40.298  26.001  28.416  1.00  0.00     0.029 A 
ATOM     50  C   UNL A   1      41.657  26.361  28.808  1.00  0.00     0.049 A 
ATOM     51  H   UNL A   1      42.298  28.154  29.654  1.00  0.00     0.167 HD
ATOM     52  C   UNL A   1      43.583  32.072  31.095  1.00  0.00     0.031 A 
ATOM     53  C   UNL A   1      42.735  25.563  28.683  1.00  0.00     0.031 A 
ATOM     54  C   UNL A   1      44.771  31.258  31.101  1.00  0.00     0.049 A 
ATOM     55  C   UNL A   1      44.081  26.071  29.111  1.00  0.00     0.074 A 
ATOM     56  C   UNL A   1      46.037  31.588  31.551  1.00  0.00     0.029 A 
ATOM     57  N   UNL A   1      44.842  29.957  30.626  1.00  0.00    -0.354 N 
ATOM     58  N   UNL A   1      44.395  27.243  29.609  1.00  0.00    -0.248 NA
ATOM     59  C   UNL A   1      45.218  25.153  28.962  1.00  0.00     0.031 C 
ATOM     60  C   UNL A   1      46.887  30.504  31.299  1.00  0.00     0.029 A 
ATOM     61  C   UNL A   1      46.138  29.481  30.740  1.00  0.00     0.049 A 
ATOM     62  H   UNL A   1      44.083  29.446  30.262  1.00  0.00     0.167 HD
ATOM     63  C   UNL A   1      45.766  27.201  29.839  1.00  0.00     0.074 A 
ATOM     64  C   UNL A   1      46.216  25.881  29.446  1.00  0.00     0.031 C 
ATOM     65  C   UNL A   1      46.577  28.170  30.328  1.00  0.00     0.031 A 
BRANCH  52  66
ATOM     66  C   UNL A   1      43.685  33.499  31.563  1.00  0.00    -0.014 A 
ATOM     67  C   UNL A   1      43.484  33.832  32.915  1.00  0.00     0.010 A 
ATOM     68  C   UNL A   1      44.000  34.518  30.646  1.00  0.00     0.010 A 
ATOM     69  C   UNL A   1      43.541  35.164  33.332  1.00  0.00     0.020 A 
ATOM     70  C   UNL A   1      44.083  35.850  31.064  1.00  0.00     0.020 A 
ATOM     71  C   UNL A   1      43.829  36.167  32.401  1.00  0.00     0.054 A 
BRANCH  71  72
ATOM     72  S   UNL A   1      43.884  37.889  32.965  1.00  0.00     0.124 S 
ATOM     73  O   UNL A   1      45.198  37.953  33.603  1.00  0.00    -0.237 OA
ATOM     74  O   UNL A   1      43.755  38.641  31.719  1.00  0.00    -0.237 OA
ATOM     75  O   UNL A   1      42.746  37.995  33.873  1.00  0.00    -0.744 OA
ENDBRANCH  71  72
ENDBRANCH  52  66
BRANCH  53  76
ATOM     76  C   UNL A   1      42.574  24.200  28.110  1.00  0.00    -0.014 A 
ATOM     77  C   UNL A   1      42.478  23.079  28.951  1.00  0.00     0.010 A 
ATOM     78  C   UNL A   1      42.464  24.025  26.717  1.00  0.00     0.010 A 
ATOM     79  C   UNL A   1      42.275  21.806  28.410  1.00  0.00     0.020 A 
ATOM     80  C   UNL A   1      42.237  22.757  26.175  1.00  0.00     0.020 A 
ATOM     81  C   UNL A   1      42.150  21.653  27.026  1.00  0.00     0.054 A 
BRANCH  81  82
ATOM     82  S   UNL A   1      41.803  20.003  26.355  1.00  0.00     0.124 S 
ATOM     83  O   UNL A   1      40.390  20.111  26.005  1.00  0.00    -0.237 OA
ATOM     84  O   UNL A   1      42.729  19.920  25.227  1.00  0.00    -0.237 OA
ATOM     85  O   UNL A   1      42.110  19.111  27.469  1.00  0.00    -0.744 OA
ENDBRANCH  81  82
ENDBRANCH  53  76
BRANCH  65  86
ATOM     86  C   UNL A   1      48.039  27.846  30.466  1.00  0.00    -0.014 A 
ATOM     87  C   UNL A   1      48.528  27.202  31.617  1.00  0.00     0.010 A 
ATOM     88  C   UNL A   1      48.921  28.122  29.406  1.00  0.00     0.010 A 
ATOM     89  C   UNL A   1      49.879  26.854  31.711  1.00  0.00     0.020 A 
ATOM     90  C   UNL A   1      50.267  27.754  29.487  1.00  0.00     0.020 A 
ATOM     91  C   UNL A   1      50.738  27.128  30.643  1.00  0.00     0.054 A 
BRANCH  91  92
ATOM     92  S   UNL A   1      52.472  26.604  30.762  1.00  0.00     0.124 S 
ATOM     93  O   UNL A   1      53.092  27.751  31.420  1.00  0.00    -0.237 OA
ATOM     94  O   UNL A   1      52.385  25.389  31.568  1.00  0.00    -0.237 OA
ATOM     95  O   UNL A   1      52.866  26.395  29.371  1.00  0.00    -0.744 OA
ENDBRANCH  91  92
ENDBRANCH  65  86
ENDBRANCH  39  40
ENDBRANCH  31  34
ENDBRANCH  29  30
ENDBRANCH  28  29
ENDBRANCH   1  28
TORSDOF 17
ENDMDL
MODEL 3
REMARK VINA RESULT:     -11.2      3.348      4.663
REMARK SMILES NC(=O)c1ccccc1NC(=O)[C@@H]1CC=CC[C@@H]1C(=O)NCCCCNC(=O)c1ccc(-c2c3nc(c(-c4ccc(S(=O)(=O)[O-])cc4)c4ccc([nH]4)c(-c4ccc(S(=O)(=O)[O-])cc4)c4nc(c(-c5ccc(S(=O)(=O)[O-])cc5)c5ccc2[nH]5)C=C4)C=C3)cc1
REMARK SMILES IDX 23 1 22 2 21 3 19 4 20 5 18 7 13 8 14 9 15 10 17 11 16 12
REMARK SMILES IDX 11 13 10 14 12 16 9 17 4 18 5 19 6 20 8 21 7 22 2 23 1 24
REMARK SMILES IDX 3 27 24 28 25 29 26 30 27 31 28 33 29 34 30 35 88 36 31 37
REMARK SMILES IDX 87 38 32 39 33 40 34 41 81 42 35 43 86 44 80 45 82 46 36 47
REMARK SMILES IDX 85 48 79 49 78 50 37 52 67 53 48 54 66 55 49 56 52 57 65 58
REMARK SMILES IDX 83 59 50 60 51 61 64 63 84 64 53 65 38 66 39 67 47 68 40 69
REMARK SMILES IDX 46 70 41 71 42 72 43 73 44 74 45 75 68 76 69 77 77 78 70 79
REMARK SMILES IDX 76 80 71 81 72 82 73 83 74 84 75 85 54 86 55 87 63 88 56 89
REMARK SMILES IDX 62 90 57 91 58 92 59 93 60 94 61 95
REMARK H PARENT 21 6 10 15 1 25 1 26 26 32 82 51 52 62
REMARK Flexibility Score: inf
ROOT
ATOM      1  C   UNL A   1      38.488  22.894  26.167  1.00  0.00     0.023 C 
ENDROOT
BRANCH   1   2
ATOM      2  C   UNL A   1      37.702  22.127  25.102  1.00  0.00     0.116 C 
BRANCH   2   3
ATOM      3  N   UNL A   1      37.025  23.030  24.191  1.00  0.00    -0.356 N 
ATOM      4  C   UNL A   1      35.823  22.846  23.585  1.00  0.00     0.224 C 
ATOM      5  O   UNL A   1      35.813  23.035  22.368  1.00  0.00    -0.275 OA
ATOM      6  H   UNL A   1      37.490  23.874  23.986  1.00  0.00     0.163 HD
BRANCH   4   7
ATOM      7  C   UNL A   1      34.559  22.376  24.331  1.00  0.00     0.095 C 
ATOM      8  C   UNL A   1      33.969  23.416  25.345  1.00  0.00     0.095 C 
ATOM      9  C   UNL A   1      33.816  23.045  26.832  1.00  0.00     0.041 C 
ATOM     10  C   UNL A   1      33.891  21.597  27.159  1.00  0.00    -0.030 C 
ATOM     11  C   UNL A   1      34.518  20.917  24.832  1.00  0.00     0.041 C 
ATOM     12  C   UNL A   1      34.192  20.656  26.266  1.00  0.00    -0.030 C 
BRANCH   8  13
ATOM     13  C   UNL A   1      34.438  24.868  25.294  1.00  0.00     0.228 C 
ATOM     14  N   UNL A   1      33.728  25.940  24.851  1.00  0.00    -0.325 N 
ATOM     15  H   UNL A   1      34.283  26.751  24.831  1.00  0.00     0.169 HD
ATOM     16  O   UNL A   1      35.613  25.106  25.617  1.00  0.00    -0.274 OA
BRANCH  14  17
ATOM     17  C   UNL A   1      32.409  26.212  24.412  1.00  0.00     0.053 A 
ATOM     18  C   UNL A   1      32.127  26.123  23.027  1.00  0.00     0.063 A 
ATOM     19  C   UNL A   1      30.907  26.585  22.507  1.00  0.00     0.016 A 
ATOM     20  C   UNL A   1      29.922  27.072  23.358  1.00  0.00     0.001 A 
ATOM     21  C   UNL A   1      31.377  26.646  25.246  1.00  0.00     0.027 A 
ATOM     22  C   UNL A   1      30.148  27.077  24.728  1.00  0.00     0.002 A 
BRANCH  18  23
ATOM     23  C   UNL A   1      33.078  25.557  22.033  1.00  0.00     0.250 C 
ATOM     24  N   UNL A   1      32.888  24.248  21.680  1.00  0.00    -0.366 N 
ATOM     25  H   UNL A   1      33.488  23.822  21.026  1.00  0.00     0.159 HD
ATOM     26  H   UNL A   1      32.151  23.732  22.081  1.00  0.00     0.159 HD
ATOM     27  O   UNL A   1      33.949  26.231  21.505  1.00  0.00    -0.269 OA
ENDBRANCH  18  23
ENDBRANCH  14  17
ENDBRANCH   8  13
ENDBRANCH   4   7
ENDBRANCH   2   3
ENDBRANCH   1   2
BRANCH   1  28
ATOM     28  C   UNL A   1      39.650  22.122  26.808  1.00  0.00     0.023 C 
BRANCH  28  29
ATOM     29  C   UNL A   1      40.884  22.956  27.147  1.00  0.00     0.116 C 
BRANCH  29  30
ATOM     30  N   UNL A   1      41.278  23.841  26.060  1.00  0.00    -0.352 N 
ATOM     31  C   UNL A   1      41.441  25.206  26.046  1.00  0.00     0.251 C 
ATOM     32  H   UNL A   1      41.453  23.393  25.202  1.00  0.00     0.163 HD
ATOM     33  O   UNL A   1      41.601  25.789  24.977  1.00  0.00    -0.269 OA
BRANCH  31  34
ATOM     34  C   UNL A   1      41.401  25.974  27.309  1.00  0.00     0.039 A 
ATOM     35  C   UNL A   1      42.529  26.706  27.692  1.00  0.00     0.014 A 
ATOM     36  C   UNL A   1      40.257  25.976  28.110  1.00  0.00     0.014 A 
ATOM     37  C   UNL A   1      42.472  27.522  28.826  1.00  0.00     0.010 A 
ATOM     38  C   UNL A   1      40.182  26.834  29.205  1.00  0.00     0.010 A 
ATOM     39  C   UNL A   1      41.281  27.633  29.559  1.00  0.00    -0.014 A 
BRANCH  39  40
ATOM     40  C   UNL A   1      41.132  28.627  30.653  1.00  0.00     0.031 A 
ATOM     41  C   UNL A   1      41.957  28.522  31.903  1.00  0.00     0.074 A 
ATOM     42  C   UNL A   1      40.171  29.568  30.558  1.00  0.00     0.049 A 
ATOM     43  N   UNL A   1      41.876  29.224  33.005  1.00  0.00    -0.248 NA
ATOM     44  C   UNL A   1      42.993  27.479  31.927  1.00  0.00     0.031 C 
ATOM     45  C   UNL A   1      39.275  29.751  29.413  1.00  0.00     0.029 A 
ATOM     46  N   UNL A   1      39.769  30.532  31.450  1.00  0.00    -0.354 N 
ATOM     47  C   UNL A   1      42.841  28.703  33.857  1.00  0.00     0.074 A 
ATOM     48  C   UNL A   1      43.467  27.598  33.159  1.00  0.00     0.031 C 
ATOM     49  C   UNL A   1      38.433  30.763  29.669  1.00  0.00     0.029 A 
ATOM     50  C   UNL A   1      38.696  31.272  31.011  1.00  0.00     0.049 A 
ATOM     51  H   UNL A   1      40.206  30.679  32.319  1.00  0.00     0.167 HD
ATOM     52  C   UNL A   1      43.186  29.115  35.102  1.00  0.00     0.031 A 
ATOM     53  C   UNL A   1      37.982  32.236  31.626  1.00  0.00     0.031 A 
ATOM     54  C   UNL A   1      42.555  30.207  35.797  1.00  0.00     0.049 A 
ATOM     55  C   UNL A   1      38.354  32.651  33.021  1.00  0.00     0.074 A 
ATOM     56  C   UNL A   1      42.868  30.731  37.039  1.00  0.00     0.029 A 
ATOM     57  N   UNL A   1      41.476  30.933  35.317  1.00  0.00    -0.354 N 
ATOM     58  N   UNL A   1      39.314  32.190  33.786  1.00  0.00    -0.248 NA
ATOM     59  C   UNL A   1      37.548  33.714  33.636  1.00  0.00     0.031 C 
ATOM     60  C   UNL A   1      41.944  31.741  37.332  1.00  0.00     0.029 A 
ATOM     61  C   UNL A   1      41.089  31.880  36.251  1.00  0.00     0.049 A 
ATOM     62  H   UNL A   1      41.049  30.797  34.440  1.00  0.00     0.167 HD
ATOM     63  C   UNL A   1      39.233  32.912  34.971  1.00  0.00     0.074 A 
ATOM     64  C   UNL A   1      38.144  33.854  34.813  1.00  0.00     0.031 C 
ATOM     65  C   UNL A   1      39.991  32.801  36.089  1.00  0.00     0.031 A 
BRANCH  52  66
ATOM     66  C   UNL A   1      44.292  28.364  35.794  1.00  0.00    -0.014 A 
ATOM     67  C   UNL A   1      44.014  27.240  36.593  1.00  0.00     0.010 A 
ATOM     68  C   UNL A   1      45.628  28.776  35.634  1.00  0.00     0.010 A 
ATOM     69  C   UNL A   1      45.043  26.575  37.264  1.00  0.00     0.020 A 
ATOM     70  C   UNL A   1      46.664  28.098  36.283  1.00  0.00     0.020 A 
ATOM     71  C   UNL A   1      46.361  27.015  37.113  1.00  0.00     0.054 A 
BRANCH  71  72
ATOM     72  S   UNL A   1      47.678  26.143  38.005  1.00  0.00     0.124 S 
ATOM     73  O   UNL A   1      46.985  25.717  39.219  1.00  0.00    -0.237 OA
ATOM     74  O   UNL A   1      48.038  25.071  37.081  1.00  0.00    -0.237 OA
ATOM     75  O   UNL A   1      48.703  27.165  38.198  1.00  0.00    -0.744 OA
ENDBRANCH  71  72
ENDBRANCH  52  66
BRANCH  53  76
ATOM     76  C   UNL A   1      36.833  32.859  30.918  1.00  0.00    -0.014 A 
ATOM     77  C   UNL A   1      35.516  32.477  31.224  1.00  0.00     0.010 A 
ATOM     78  C   UNL A   1      37.050  33.877  29.971  1.00  0.00     0.010 A 
ATOM     79  C   UNL A   1      34.435  33.101  30.593  1.00  0.00     0.020 A 
ATOM     80  C   UNL A   1      35.971  34.519  29.357  1.00  0.00     0.020 A 
ATOM     81  C   UNL A   1      34.669  34.122  29.667  1.00  0.00     0.054 A 
BRANCH  81  82
ATOM     82  S   UNL A   1      33.249  34.974  28.926  1.00  0.00     0.124 S 
ATOM     83  O   UNL A   1      32.756  33.975  27.982  1.00  0.00    -0.237 OA
ATOM     84  O   UNL A   1      32.394  35.229  30.082  1.00  0.00    -0.237 OA
ATOM     85  O   UNL A   1      33.842  36.166  28.326  1.00  0.00    -0.744 OA
ENDBRANCH  81  82
ENDBRANCH  53  76
BRANCH  65  86
ATOM     86  C   UNL A   1      39.670  33.718  37.237  1.00  0.00    -0.014 A 
ATOM     87  C   UNL A   1      38.933  33.257  38.342  1.00  0.00     0.010 A 
ATOM     88  C   UNL A   1      40.171  35.032  37.245  1.00  0.00     0.010 A 
ATOM     89  C   UNL A   1      38.689  34.101  39.430  1.00  0.00     0.020 A 
ATOM     90  C   UNL A   1      39.949  35.871  38.340  1.00  0.00     0.020 A 
ATOM     91  C   UNL A   1      39.202  35.401  39.423  1.00  0.00     0.054 A 
BRANCH  91  92
ATOM     92  S   UNL A   1      38.930  36.453  40.877  1.00  0.00     0.124 S 
ATOM     93  O   UNL A   1      38.502  37.710  40.267  1.00  0.00    -0.237 OA
ATOM     94  O   UNL A   1      37.896  35.727  41.610  1.00  0.00    -0.237 OA
ATOM     95  O   UNL A   1      40.238  36.489  41.528  1.00  0.00    -0.744 OA
ENDBRANCH  91  92
ENDBRANCH  65  86
ENDBRANCH  39  40
ENDBRANCH  31  34
ENDBRANCH  29  30
ENDBRANCH  28  29
ENDBRANCH   1  28
TORSDOF 17
ENDMDL
