MODEL 1
REMARK VINA RESULT:     -11.3      0.000      0.000
REMARK SMILES O=C(NCCCCNC(=O)[C@H]1CC[C@H]2CCCC[C@@H]2N1C(=O)c1ccn[nH]1)c1ccc(-c2c3nc(c(-c4ccc(S(=O)(=O)[O-])cc4)c4ccc([nH]4)c(-c4ccc(S(=O)(=O)[O-])cc4)c4nc(c(-c5ccc(S(=O)(=O)[O-])cc5)c5ccc2[nH]5)C=C4)C=C3)cc1
REMARK SMILES IDX 5 1 4 2 3 3 1 4 2 5 28 7 29 8 87 9 30 10 86 11 31 12 32 13
REMARK SMILES IDX 33 14 80 15 34 16 85 17 79 18 81 19 35 20 84 21 78 22 77 23
REMARK SMILES IDX 36 25 66 26 47 27 65 28 48 29 51 30 64 31 82 32 49 33 50 34
REMARK SMILES IDX 63 36 83 37 52 38 37 39 38 40 46 41 39 42 45 43 40 44 41 45
REMARK SMILES IDX 42 46 43 47 44 48 67 49 68 50 76 51 69 52 75 53 70 54 71 55
REMARK SMILES IDX 72 56 73 57 74 58 53 59 54 60 62 61 55 62 61 63 56 64 57 65
REMARK SMILES IDX 58 66 59 67 60 68 6 69 7 70 8 71 9 72 10 74 11 75 12 76
REMARK SMILES IDX 20 77 13 78 19 79 14 80 18 81 15 82 17 83 16 84 21 85 22 86
REMARK SMILES IDX 23 87 24 88 27 89 25 90 26 91
REMARK H PARENT 3 6 81 24 51 35 8 73 27 92
REMARK Flexibility Score: inf
ROOT
ATOM      1  C   UNL A   1      31.943  27.819  27.625  1.00  0.00     0.023 C 
ENDROOT
BRANCH   1   2
ATOM      2  C   UNL A   1      33.293  28.430  27.245  1.00  0.00     0.116 C 
BRANCH   2   3
ATOM      3  N   UNL A   1      33.302  29.877  27.385  1.00  0.00    -0.352 N 
ATOM      4  O   UNL A   1      34.039  31.900  27.997  1.00  0.00    -0.269 OA
ATOM      5  C   UNL A   1      34.294  30.709  27.831  1.00  0.00     0.251 C 
ATOM      6  H   UNL A   1      32.467  30.326  27.121  1.00  0.00     0.163 HD
BRANCH   5   7
ATOM      7  C   UNL A   1      35.648  30.199  28.142  1.00  0.00     0.039 A 
ATOM      8  C   UNL A   1      36.684  30.214  27.204  1.00  0.00     0.014 A 
ATOM      9  C   UNL A   1      35.901  29.773  29.452  1.00  0.00     0.014 A 
ATOM     10  C   UNL A   1      37.957  29.759  27.562  1.00  0.00     0.010 A 
ATOM     11  C   UNL A   1      37.174  29.333  29.814  1.00  0.00     0.010 A 
ATOM     12  C   UNL A   1      38.209  29.315  28.868  1.00  0.00    -0.014 A 
BRANCH  12  13
ATOM     13  C   UNL A   1      39.564  28.866  29.261  1.00  0.00     0.031 A 
ATOM     14  C   UNL A   1      40.472  29.772  30.037  1.00  0.00     0.074 A 
ATOM     15  C   UNL A   1      39.989  27.643  28.896  1.00  0.00     0.049 A 
ATOM     16  N   UNL A   1      41.691  29.551  30.456  1.00  0.00    -0.248 NA
ATOM     17  C   UNL A   1      39.941  31.100  30.381  1.00  0.00     0.031 C 
ATOM     18  C   UNL A   1      39.212  26.675  28.121  1.00  0.00     0.029 A 
ATOM     19  N   UNL A   1      41.185  27.013  29.124  1.00  0.00    -0.354 N 
ATOM     20  C   UNL A   1      42.085  30.715  31.102  1.00  0.00     0.074 A 
ATOM     21  C   UNL A   1      40.971  31.639  31.020  1.00  0.00     0.031 C 
ATOM     22  C   UNL A   1      39.951  25.568  27.942  1.00  0.00     0.029 A 
ATOM     23  C   UNL A   1      41.253  25.755  28.579  1.00  0.00     0.049 A 
ATOM     24  H   UNL A   1      41.923  27.422  29.630  1.00  0.00     0.167 HD
ATOM     25  C   UNL A   1      43.263  30.992  31.709  1.00  0.00     0.031 A 
ATOM     26  C   UNL A   1      42.252  24.853  28.585  1.00  0.00     0.031 A 
ATOM     27  C   UNL A   1      44.369  30.081  31.810  1.00  0.00     0.049 A 
ATOM     28  C   UNL A   1      43.547  25.176  29.269  1.00  0.00     0.074 A 
ATOM     29  C   UNL A   1      45.583  30.260  32.451  1.00  0.00     0.029 A 
ATOM     30  N   UNL A   1      44.399  28.815  31.246  1.00  0.00    -0.354 N 
ATOM     31  N   UNL A   1      43.885  26.268  29.910  1.00  0.00    -0.248 NA
ATOM     32  C   UNL A   1      44.594  24.146  29.227  1.00  0.00     0.031 C 
ATOM     33  C   UNL A   1      46.352  29.103  32.265  1.00  0.00     0.029 A 
ATOM     34  C   UNL A   1      45.613  28.206  31.512  1.00  0.00     0.049 A 
ATOM     35  H   UNL A   1      43.664  28.408  30.732  1.00  0.00     0.167 HD
ATOM     36  C   UNL A   1      45.186  26.058  30.348  1.00  0.00     0.074 A 
ATOM     37  C   UNL A   1      45.573  24.734  29.902  1.00  0.00     0.031 C 
ATOM     38  C   UNL A   1      45.986  26.892  31.058  1.00  0.00     0.031 A 
BRANCH  25  39
ATOM     39  C   UNL A   1      43.395  32.361  32.305  1.00  0.00    -0.014 A 
ATOM     40  C   UNL A   1      42.988  32.605  33.628  1.00  0.00     0.010 A 
ATOM     41  C   UNL A   1      43.883  33.422  31.523  1.00  0.00     0.010 A 
ATOM     42  C   UNL A   1      43.023  33.900  34.148  1.00  0.00     0.020 A 
ATOM     43  C   UNL A   1      43.924  34.718  32.041  1.00  0.00     0.020 A 
ATOM     44  C   UNL A   1      43.470  34.953  33.343  1.00  0.00     0.054 A 
BRANCH  44  45
ATOM     45  S   UNL A   1      43.475  36.645  33.995  1.00  0.00     0.124 S 
ATOM     46  O   UNL A   1      43.671  37.431  32.779  1.00  0.00    -0.237 OA
ATOM     47  O   UNL A   1      42.158  36.771  34.615  1.00  0.00    -0.237 OA
ATOM     48  O   UNL A   1      44.599  36.642  34.927  1.00  0.00    -0.744 OA
ENDBRANCH  44  45
ENDBRANCH  25  39
BRANCH  26  49
ATOM     49  C   UNL A   1      42.045  23.551  27.908  1.00  0.00    -0.014 A 
ATOM     50  C   UNL A   1      42.556  23.340  26.616  1.00  0.00     0.010 A 
ATOM     51  C   UNL A   1      41.414  22.495  28.587  1.00  0.00     0.010 A 
ATOM     52  C   UNL A   1      42.455  22.082  26.017  1.00  0.00     0.020 A 
ATOM     53  C   UNL A   1      41.315  21.236  27.990  1.00  0.00     0.020 A 
ATOM     54  C   UNL A   1      41.838  21.037  26.709  1.00  0.00     0.054 A 
BRANCH  54  55
ATOM     55  S   UNL A   1      41.804  19.373  25.984  1.00  0.00     0.124 S 
ATOM     56  O   UNL A   1      42.319  18.557  27.078  1.00  0.00    -0.237 OA
ATOM     57  O   UNL A   1      40.391  19.179  25.663  1.00  0.00    -0.237 OA
ATOM     58  O   UNL A   1      42.683  19.504  24.824  1.00  0.00    -0.744 OA
ENDBRANCH  54  55
ENDBRANCH  26  49
BRANCH  38  59
ATOM     59  C   UNL A   1      47.361  26.393  31.388  1.00  0.00    -0.014 A 
ATOM     60  C   UNL A   1      47.607  25.754  32.615  1.00  0.00     0.010 A 
ATOM     61  C   UNL A   1      48.407  26.537  30.460  1.00  0.00     0.010 A 
ATOM     62  C   UNL A   1      48.885  25.277  32.918  1.00  0.00     0.020 A 
ATOM     63  C   UNL A   1      49.685  26.058  30.759  1.00  0.00     0.020 A 
ATOM     64  C   UNL A   1      49.919  25.442  31.991  1.00  0.00     0.054 A 
BRANCH  64  65
ATOM     65  S   UNL A   1      51.572  24.792  32.367  1.00  0.00     0.124 S 
ATOM     66  O   UNL A   1      51.745  25.193  33.760  1.00  0.00    -0.237 OA
ATOM     67  O   UNL A   1      51.428  23.356  32.142  1.00  0.00    -0.237 OA
ATOM     68  O   UNL A   1      52.429  25.482  31.405  1.00  0.00    -0.744 OA
ENDBRANCH  64  65
ENDBRANCH  38  59
ENDBRANCH  12  13
ENDBRANCH   5   7
ENDBRANCH   2   3
ENDBRANCH   1   2
BRANCH   1  69
ATOM     69  C   UNL A   1      31.322  26.891  26.569  1.00  0.00     0.023 C 
BRANCH  69  70
ATOM     70  C   UNL A   1      32.105  25.606  26.299  1.00  0.00     0.116 C 
BRANCH  70  71
ATOM     71  N   UNL A   1      33.165  25.779  25.325  1.00  0.00    -0.354 N 
ATOM     72  C   UNL A   1      33.705  24.854  24.472  1.00  0.00     0.242 C 
ATOM     73  H   UNL A   1      33.549  26.685  25.270  1.00  0.00     0.163 HD
ATOM     74  O   UNL A   1      34.621  25.203  23.723  1.00  0.00    -0.273 OA
BRANCH  72  75
ATOM     75  C   UNL A   1      33.105  23.422  24.428  1.00  0.00     0.175 C 
ATOM     76  C   UNL A   1      32.674  23.227  22.949  1.00  0.00     0.036 C 
ATOM     77  N   UNL A   1      34.043  22.376  24.881  1.00  0.00    -0.322 N 
ATOM     78  C   UNL A   1      32.684  21.783  22.456  1.00  0.00     0.008 C 
ATOM     79  C   UNL A   1      33.694  20.967  24.592  1.00  0.00     0.089 C 
ATOM     80  C   UNL A   1      32.490  20.841  23.630  1.00  0.00     0.012 C 
ATOM     81  C   UNL A   1      33.352  20.138  25.852  1.00  0.00     0.025 C 
ATOM     82  C   UNL A   1      32.305  19.383  23.199  1.00  0.00     0.006 C 
ATOM     83  C   UNL A   1      33.098  18.671  25.498  1.00  0.00     0.002 C 
ATOM     84  C   UNL A   1      32.034  18.503  24.417  1.00  0.00     0.000 C 
BRANCH  77  85
ATOM     85  C   UNL A   1      34.884  22.689  25.960  1.00  0.00     0.272 C 
ATOM     86  O   UNL A   1      34.431  23.147  27.008  1.00  0.00    -0.267 OA
BRANCH  85  87
ATOM     87  C   UNL A   1      36.298  22.440  25.823  1.00  0.00     0.123 A 
ATOM     88  C   UNL A   1      37.043  21.464  25.190  1.00  0.00     0.055 A 
ATOM     89  N   UNL A   1      37.226  23.320  26.318  1.00  0.00    -0.273 N 
ATOM     90  C   UNL A   1      38.386  21.799  25.446  1.00  0.00     0.135 A 
ATOM     91  N   UNL A   1      38.500  22.913  26.167  1.00  0.00    -0.183 NA
ATOM     92  H   UNL A   1      36.982  24.172  26.746  1.00  0.00     0.190 HD
ENDBRANCH  85  87
ENDBRANCH  77  85
ENDBRANCH  72  75
ENDBRANCH  70  71
ENDBRANCH  69  70
ENDBRANCH   1  69
TORSDOF 16
ENDMDL
MODEL 2
REMARK VINA RESULT:     -11.2      1.397      2.605
REMARK SMILES O=C(NCCCCNC(=O)[C@H]1CC[C@H]2CCCC[C@@H]2N1C(=O)c1ccn[nH]1)c1ccc(-c2c3nc(c(-c4ccc(S(=O)(=O)[O-])cc4)c4ccc([nH]4)c(-c4ccc(S(=O)(=O)[O-])cc4)c4nc(c(-c5ccc(S(=O)(=O)[O-])cc5)c5ccc2[nH]5)C=C4)C=C3)cc1
REMARK SMILES IDX 5 1 4 2 3 3 1 4 2 5 28 7 29 8 87 9 30 10 86 11 31 12 32 13
REMARK SMILES IDX 33 14 80 15 34 16 85 17 79 18 81 19 35 20 84 21 78 22 77 23
REMARK SMILES IDX 36 25 66 26 47 27 65 28 48 29 51 30 64 31 82 32 49 33 50 34
REMARK SMILES IDX 63 36 83 37 52 38 37 39 38 40 46 41 39 42 45 43 40 44 41 45
REMARK SMILES IDX 42 46 43 47 44 48 67 49 68 50 76 51 69 52 75 53 70 54 71 55
REMARK SMILES IDX 72 56 73 57 74 58 53 59 54 60 62 61 55 62 61 63 56 64 57 65
REMARK SMILES IDX 58 66 59 67 60 68 6 69 7 70 8 71 9 72 10 74 11 75 12 76
REMARK SMILES IDX 20 77 13 78 19 79 14 80 18 81 15 82 17 83 16 84 21 85 22 86
REMARK SMILES IDX 23 87 24 88 27 89 25 90 26 91
REMARK H PARENT 3 6 81 24 51 35 8 73 27 92
REMARK Flexibility Score: inf
ROOT
ATOM      1  C   UNL A   1      31.931  27.801  27.440  1.00  0.00     0.023 C 
ENDROOT
BRANCH   1   2
ATOM      2  C   UNL A   1      33.314  28.425  27.245  1.00  0.00     0.116 C 
BRANCH   2   3
ATOM      3  N   UNL A   1      33.296  29.868  27.410  1.00  0.00    -0.352 N 
ATOM      4  O   UNL A   1      33.999  31.895  28.049  1.00  0.00    -0.269 OA
ATOM      5  C   UNL A   1      34.276  30.713  27.861  1.00  0.00     0.251 C 
ATOM      6  H   UNL A   1      32.450  30.306  27.161  1.00  0.00     0.163 HD
BRANCH   5   7
ATOM      7  C   UNL A   1      35.643  30.223  28.150  1.00  0.00     0.039 A 
ATOM      8  C   UNL A   1      36.685  30.333  27.225  1.00  0.00     0.014 A 
ATOM      9  C   UNL A   1      35.898  29.719  29.431  1.00  0.00     0.014 A 
ATOM     10  C   UNL A   1      37.968  29.894  27.565  1.00  0.00     0.010 A 
ATOM     11  C   UNL A   1      37.182  29.294  29.776  1.00  0.00     0.010 A 
ATOM     12  C   UNL A   1      38.224  29.371  28.841  1.00  0.00    -0.014 A 
BRANCH  12  13
ATOM     13  C   UNL A   1      39.589  28.938  29.216  1.00  0.00     0.031 A 
ATOM     14  C   UNL A   1      40.504  29.863  29.960  1.00  0.00     0.074 A 
ATOM     15  C   UNL A   1      40.016  27.712  28.864  1.00  0.00     0.049 A 
ATOM     16  N   UNL A   1      41.733  29.658  30.360  1.00  0.00    -0.248 NA
ATOM     17  C   UNL A   1      39.971  31.193  30.292  1.00  0.00     0.031 C 
ATOM     18  C   UNL A   1      39.232  26.727  28.119  1.00  0.00     0.029 A 
ATOM     19  N   UNL A   1      41.221  27.094  29.080  1.00  0.00    -0.354 N 
ATOM     20  C   UNL A   1      42.129  30.835  30.980  1.00  0.00     0.074 A 
ATOM     21  C   UNL A   1      41.008  31.750  30.903  1.00  0.00     0.031 C 
ATOM     22  C   UNL A   1      39.976  25.622  27.944  1.00  0.00     0.029 A 
ATOM     23  C   UNL A   1      41.288  25.828  28.555  1.00  0.00     0.049 A 
ATOM     24  H   UNL A   1      41.965  27.517  29.566  1.00  0.00     0.167 HD
ATOM     25  C   UNL A   1      43.316  31.131  31.561  1.00  0.00     0.031 A 
ATOM     26  C   UNL A   1      42.293  24.934  28.557  1.00  0.00     0.031 A 
ATOM     27  C   UNL A   1      44.431  30.229  31.656  1.00  0.00     0.049 A 
ATOM     28  C   UNL A   1      43.598  25.276  29.212  1.00  0.00     0.074 A 
ATOM     29  C   UNL A   1      45.655  30.427  32.272  1.00  0.00     0.029 A 
ATOM     30  N   UNL A   1      44.459  28.953  31.113  1.00  0.00    -0.354 N 
ATOM     31  N   UNL A   1      43.940  26.381  29.829  1.00  0.00    -0.248 NA
ATOM     32  C   UNL A   1      44.651  24.253  29.168  1.00  0.00     0.031 C 
ATOM     33  C   UNL A   1      46.428  29.272  32.091  1.00  0.00     0.029 A 
ATOM     34  C   UNL A   1      45.682  28.357  31.366  1.00  0.00     0.049 A 
ATOM     35  H   UNL A   1      43.718  28.534  30.619  1.00  0.00     0.167 HD
ATOM     36  C   UNL A   1      45.250  26.188  30.246  1.00  0.00     0.074 A 
ATOM     37  C   UNL A   1      45.639  24.860  29.815  1.00  0.00     0.031 C 
ATOM     38  C   UNL A   1      46.057  27.039  30.927  1.00  0.00     0.031 A 
BRANCH  25  39
ATOM     39  C   UNL A   1      43.449  32.510  32.131  1.00  0.00    -0.014 A 
ATOM     40  C   UNL A   1      43.945  33.563  31.344  1.00  0.00     0.010 A 
ATOM     41  C   UNL A   1      43.122  32.745  33.478  1.00  0.00     0.010 A 
ATOM     42  C   UNL A   1      44.157  34.824  31.906  1.00  0.00     0.020 A 
ATOM     43  C   UNL A   1      43.329  34.005  34.043  1.00  0.00     0.020 A 
ATOM     44  C   UNL A   1      43.868  35.031  33.259  1.00  0.00     0.054 A 
BRANCH  44  45
ATOM     45  S   UNL A   1      44.184  36.652  34.009  1.00  0.00     0.124 S 
ATOM     46  O   UNL A   1      43.158  36.703  35.048  1.00  0.00    -0.237 OA
ATOM     47  O   UNL A   1      45.558  36.537  34.492  1.00  0.00    -0.237 OA
ATOM     48  O   UNL A   1      43.996  37.577  32.896  1.00  0.00    -0.744 OA
ENDBRANCH  44  45
ENDBRANCH  25  39
BRANCH  26  49
ATOM     49  C   UNL A   1      42.084  23.619  27.906  1.00  0.00    -0.014 A 
ATOM     50  C   UNL A   1      42.489  23.420  26.576  1.00  0.00     0.010 A 
ATOM     51  C   UNL A   1      41.559  22.542  28.641  1.00  0.00     0.010 A 
ATOM     52  C   UNL A   1      42.389  22.154  25.992  1.00  0.00     0.020 A 
ATOM     53  C   UNL A   1      41.461  21.277  28.060  1.00  0.00     0.020 A 
ATOM     54  C   UNL A   1      41.879  21.089  26.739  1.00  0.00     0.054 A 
BRANCH  54  55
ATOM     55  S   UNL A   1      41.852  19.420  26.027  1.00  0.00     0.124 S 
ATOM     56  O   UNL A   1      42.768  19.559  24.899  1.00  0.00    -0.237 OA
ATOM     57  O   UNL A   1      42.327  18.581  27.126  1.00  0.00    -0.237 OA
ATOM     58  O   UNL A   1      40.445  19.235  25.679  1.00  0.00    -0.744 OA
ENDBRANCH  54  55
ENDBRANCH  26  49
BRANCH  38  59
ATOM     59  C   UNL A   1      47.441  26.555  31.241  1.00  0.00    -0.014 A 
ATOM     60  C   UNL A   1      48.489  26.769  30.329  1.00  0.00     0.010 A 
ATOM     61  C   UNL A   1      47.705  25.911  32.461  1.00  0.00     0.010 A 
ATOM     62  C   UNL A   1      49.782  26.330  30.627  1.00  0.00     0.020 A 
ATOM     63  C   UNL A   1      48.998  25.474  32.762  1.00  0.00     0.020 A 
ATOM     64  C   UNL A   1      50.026  25.676  31.838  1.00  0.00     0.054 A 
BRANCH  64  65
ATOM     65  S   UNL A   1      51.712  25.137  32.243  1.00  0.00     0.124 S 
ATOM     66  O   UNL A   1      52.484  25.711  31.145  1.00  0.00    -0.237 OA
ATOM     67  O   UNL A   1      51.950  25.734  33.554  1.00  0.00    -0.237 OA
ATOM     68  O   UNL A   1      51.606  23.679  32.241  1.00  0.00    -0.744 OA
ENDBRANCH  64  65
ENDBRANCH  38  59
ENDBRANCH  12  13
ENDBRANCH   5   7
ENDBRANCH   2   3
ENDBRANCH   1   2
BRANCH   1  69
ATOM     69  C   UNL A   1      31.274  27.248  26.167  1.00  0.00     0.023 C 
BRANCH  69  70
ATOM     70  C   UNL A   1      30.823  25.790  26.254  1.00  0.00     0.116 C 
BRANCH  70  71
ATOM     71  N   UNL A   1      30.307  25.278  24.999  1.00  0.00    -0.354 N 
ATOM     72  C   UNL A   1      30.884  24.386  24.135  1.00  0.00     0.242 C 
ATOM     73  H   UNL A   1      29.422  25.619  24.731  1.00  0.00     0.163 HD
ATOM     74  O   UNL A   1      30.280  24.088  23.101  1.00  0.00    -0.273 OA
BRANCH  72  75
ATOM     75  C   UNL A   1      32.239  23.730  24.516  1.00  0.00     0.175 C 
ATOM     76  C   UNL A   1      31.845  22.388  25.190  1.00  0.00     0.036 C 
ATOM     77  N   UNL A   1      33.143  23.534  23.365  1.00  0.00    -0.322 N 
ATOM     78  C   UNL A   1      32.878  21.271  25.064  1.00  0.00     0.008 C 
ATOM     79  C   UNL A   1      34.315  22.650  23.553  1.00  0.00     0.089 C 
ATOM     80  C   UNL A   1      34.260  21.871  24.888  1.00  0.00     0.012 C 
ATOM     81  C   UNL A   1      35.670  23.394  23.520  1.00  0.00     0.025 C 
ATOM     82  C   UNL A   1      35.375  20.822  24.936  1.00  0.00     0.006 C 
ATOM     83  C   UNL A   1      36.842  22.415  23.619  1.00  0.00     0.002 C 
ATOM     84  C   UNL A   1      36.741  21.499  24.835  1.00  0.00     0.000 C 
BRANCH  77  85
ATOM     85  C   UNL A   1      33.166  24.540  22.387  1.00  0.00     0.272 C 
ATOM     86  O   UNL A   1      33.106  24.266  21.189  1.00  0.00    -0.267 OA
BRANCH  85  87
ATOM     87  C   UNL A   1      33.241  25.915  22.818  1.00  0.00     0.123 A 
ATOM     88  C   UNL A   1      33.958  26.576  23.796  1.00  0.00     0.055 A 
ATOM     89  N   UNL A   1      32.558  26.905  22.157  1.00  0.00    -0.273 N 
ATOM     90  C   UNL A   1      33.563  27.923  23.698  1.00  0.00     0.135 A 
ATOM     91  N   UNL A   1      32.680  28.121  22.720  1.00  0.00    -0.183 NA
ATOM     92  H   UNL A   1      32.027  26.740  21.346  1.00  0.00     0.190 HD
ENDBRANCH  85  87
ENDBRANCH  77  85
ENDBRANCH  72  75
ENDBRANCH  70  71
ENDBRANCH  69  70
ENDBRANCH   1  69
TORSDOF 16
ENDMDL
MODEL 3
REMARK VINA RESULT:     -11.2      4.079     10.153
REMARK SMILES O=C(NCCCCNC(=O)[C@H]1CC[C@H]2CCCC[C@@H]2N1C(=O)c1ccn[nH]1)c1ccc(-c2c3nc(c(-c4ccc(S(=O)(=O)[O-])cc4)c4ccc([nH]4)c(-c4ccc(S(=O)(=O)[O-])cc4)c4nc(c(-c5ccc(S(=O)(=O)[O-])cc5)c5ccc2[nH]5)C=C4)C=C3)cc1
REMARK SMILES IDX 5 1 4 2 3 3 1 4 2 5 28 7 29 8 87 9 30 10 86 11 31 12 32 13
REMARK SMILES IDX 33 14 80 15 34 16 85 17 79 18 81 19 35 20 84 21 78 22 77 23
REMARK SMILES IDX 36 25 66 26 47 27 65 28 48 29 51 30 64 31 82 32 49 33 50 34
REMARK SMILES IDX 63 36 83 37 52 38 37 39 38 40 46 41 39 42 45 43 40 44 41 45
REMARK SMILES IDX 42 46 43 47 44 48 67 49 68 50 76 51 69 52 75 53 70 54 71 55
REMARK SMILES IDX 72 56 73 57 74 58 53 59 54 60 62 61 55 62 61 63 56 64 57 65
REMARK SMILES IDX 58 66 59 67 60 68 6 69 7 70 8 71 9 72 10 74 11 75 12 76
REMARK SMILES IDX 20 77 13 78 19 79 14 80 18 81 15 82 17 83 16 84 21 85 22 86
REMARK SMILES IDX 23 87 24 88 27 89 25 90 26 91
REMARK H PARENT 3 6 81 24 51 35 8 73 27 92
REMARK Flexibility Score: inf
ROOT
ATOM      1  C   UNL A   1      37.742  22.472  26.116  1.00  0.00     0.023 C 
ENDROOT
BRANCH   1   2
ATOM      2  C   UNL A   1      38.436  23.778  26.505  1.00  0.00     0.116 C 
BRANCH   2   3
ATOM      3  N   UNL A   1      39.820  23.820  26.065  1.00  0.00    -0.352 N 
ATOM      4  O   UNL A   1      41.897  24.616  25.810  1.00  0.00    -0.269 OA
ATOM      5  C   UNL A   1      40.827  24.682  26.410  1.00  0.00     0.251 C 
ATOM      6  H   UNL A   1      40.073  23.121  25.418  1.00  0.00     0.163 HD
BRANCH   5   7
ATOM      7  C   UNL A   1      40.639  25.703  27.466  1.00  0.00     0.039 A 
ATOM      8  C   UNL A   1      39.676  25.570  28.470  1.00  0.00     0.014 A 
ATOM      9  C   UNL A   1      41.527  26.786  27.492  1.00  0.00     0.014 A 
ATOM     10  C   UNL A   1      39.568  26.542  29.468  1.00  0.00     0.010 A 
ATOM     11  C   UNL A   1      41.430  27.749  28.497  1.00  0.00     0.010 A 
ATOM     12  C   UNL A   1      40.444  27.637  29.487  1.00  0.00    -0.014 A 
BRANCH  12  13
ATOM     13  C   UNL A   1      40.357  28.651  30.563  1.00  0.00     0.031 A 
ATOM     14  C   UNL A   1      41.271  28.583  31.749  1.00  0.00     0.074 A 
ATOM     15  C   UNL A   1      39.432  29.624  30.484  1.00  0.00     0.049 A 
ATOM     16  N   UNL A   1      41.330  29.376  32.788  1.00  0.00    -0.248 NA
ATOM     17  C   UNL A   1      42.242  27.479  31.771  1.00  0.00     0.031 C 
ATOM     18  C   UNL A   1      38.468  29.787  29.396  1.00  0.00     0.029 A 
ATOM     19  N   UNL A   1      39.149  30.654  31.344  1.00  0.00    -0.354 N 
ATOM     20  C   UNL A   1      42.333  28.862  33.599  1.00  0.00     0.074 A 
ATOM     21  C   UNL A   1      42.856  27.688  32.928  1.00  0.00     0.031 C 
ATOM     22  C   UNL A   1      37.701  30.860  29.651  1.00  0.00     0.029 A 
ATOM     23  C   UNL A   1      38.113  31.450  30.922  1.00  0.00     0.049 A 
ATOM     24  H   UNL A   1      39.642  30.808  32.182  1.00  0.00     0.167 HD
ATOM     25  C   UNL A   1      42.779  29.322  34.792  1.00  0.00     0.031 A 
ATOM     26  C   UNL A   1      37.553  32.530  31.496  1.00  0.00     0.031 A 
ATOM     27  C   UNL A   1      42.279  30.491  35.461  1.00  0.00     0.049 A 
ATOM     28  C   UNL A   1      38.066  33.028  32.814  1.00  0.00     0.074 A 
ATOM     29  C   UNL A   1      42.707  31.059  36.649  1.00  0.00     0.029 A 
ATOM     30  N   UNL A   1      41.230  31.272  35.000  1.00  0.00    -0.354 N 
ATOM     31  N   UNL A   1      39.043  32.552  33.546  1.00  0.00    -0.248 NA
ATOM     32  C   UNL A   1      37.399  34.208  33.383  1.00  0.00     0.031 C 
ATOM     33  C   UNL A   1      41.907  32.180  36.911  1.00  0.00     0.029 A 
ATOM     34  C   UNL A   1      40.986  32.308  35.885  1.00  0.00     0.049 A 
ATOM     35  H   UNL A   1      40.731  31.112  34.167  1.00  0.00     0.167 HD
ATOM     36  C   UNL A   1      39.109  33.372  34.664  1.00  0.00     0.074 A 
ATOM     37  C   UNL A   1      38.075  34.377  34.512  1.00  0.00     0.031 C 
ATOM     38  C   UNL A   1      39.952  33.296  35.723  1.00  0.00     0.031 A 
BRANCH  25  39
ATOM     39  C   UNL A   1      43.872  28.528  35.440  1.00  0.00    -0.014 A 
ATOM     40  C   UNL A   1      43.565  27.426  36.258  1.00  0.00     0.010 A 
ATOM     41  C   UNL A   1      45.213  28.913  35.271  1.00  0.00     0.010 A 
ATOM     42  C   UNL A   1      44.580  26.748  36.936  1.00  0.00     0.020 A 
ATOM     43  C   UNL A   1      46.231  28.235  35.945  1.00  0.00     0.020 A 
ATOM     44  C   UNL A   1      45.905  27.171  36.793  1.00  0.00     0.054 A 
BRANCH  44  45
ATOM     45  S   UNL A   1      47.224  26.325  37.707  1.00  0.00     0.124 S 
ATOM     46  O   UNL A   1      46.524  25.147  38.214  1.00  0.00    -0.237 OA
ATOM     47  O   UNL A   1      48.229  26.062  36.680  1.00  0.00    -0.237 OA
ATOM     48  O   UNL A   1      47.613  27.306  38.716  1.00  0.00    -0.744 OA
ENDBRANCH  44  45
ENDBRANCH  25  39
BRANCH  26  49
ATOM     49  C   UNL A   1      36.430  33.206  30.805  1.00  0.00    -0.014 A 
ATOM     50  C   UNL A   1      35.152  33.224  31.387  1.00  0.00     0.010 A 
ATOM     51  C   UNL A   1      36.657  33.906  29.607  1.00  0.00     0.010 A 
ATOM     52  C   UNL A   1      34.117  33.949  30.791  1.00  0.00     0.020 A 
ATOM     53  C   UNL A   1      35.625  34.633  29.011  1.00  0.00     0.020 A 
ATOM     54  C   UNL A   1      34.361  34.652  29.608  1.00  0.00     0.054 A 
BRANCH  54  55
ATOM     55  S   UNL A   1      33.054  35.686  28.889  1.00  0.00     0.124 S 
ATOM     56  O   UNL A   1      33.827  36.716  28.203  1.00  0.00    -0.237 OA
ATOM     57  O   UNL A   1      32.332  34.756  28.022  1.00  0.00    -0.237 OA
ATOM     58  O   UNL A   1      32.308  36.133  30.063  1.00  0.00    -0.744 OA
ENDBRANCH  54  55
ENDBRANCH  26  49
BRANCH  38  59
ATOM     59  C   UNL A   1      39.785  34.328  36.799  1.00  0.00    -0.014 A 
ATOM     60  C   UNL A   1      38.965  34.066  37.910  1.00  0.00     0.010 A 
ATOM     61  C   UNL A   1      40.471  35.552  36.717  1.00  0.00     0.010 A 
ATOM     62  C   UNL A   1      38.820  35.022  38.919  1.00  0.00     0.020 A 
ATOM     63  C   UNL A   1      40.329  36.508  37.726  1.00  0.00     0.020 A 
ATOM     64  C   UNL A   1      39.496  36.241  38.815  1.00  0.00     0.054 A 
BRANCH  64  65
ATOM     65  S   UNL A   1      39.337  37.470  40.142  1.00  0.00     0.124 S 
ATOM     66  O   UNL A   1      40.679  38.044  40.185  1.00  0.00    -0.237 OA
ATOM     67  O   UNL A   1      38.290  38.363  39.649  1.00  0.00    -0.237 OA
ATOM     68  O   UNL A   1      38.962  36.664  41.302  1.00  0.00    -0.744 OA
ENDBRANCH  64  65
ENDBRANCH  38  59
ENDBRANCH  12  13
ENDBRANCH   5   7
ENDBRANCH   2   3
ENDBRANCH   1   2
BRANCH   1  69
ATOM     69  C   UNL A   1      37.471  22.296  24.614  1.00  0.00     0.023 C 
BRANCH  69  70
ATOM     70  C   UNL A   1      36.623  23.396  23.977  1.00  0.00     0.116 C 
BRANCH  70  71
ATOM     71  N   UNL A   1      35.418  22.893  23.346  1.00  0.00    -0.354 N 
ATOM     72  C   UNL A   1      34.225  23.533  23.142  1.00  0.00     0.242 C 
ATOM     73  H   UNL A   1      35.464  21.964  23.021  1.00  0.00     0.163 HD
ATOM     74  O   UNL A   1      33.309  22.917  22.593  1.00  0.00    -0.273 OA
BRANCH  72  75
ATOM     75  C   UNL A   1      34.089  25.028  23.544  1.00  0.00     0.175 C 
ATOM     76  C   UNL A   1      33.607  25.735  22.249  1.00  0.00     0.036 C 
ATOM     77  N   UNL A   1      33.171  25.250  24.679  1.00  0.00    -0.322 N 
ATOM     78  C   UNL A   1      32.773  26.995  22.470  1.00  0.00     0.008 C 
ATOM     79  C   UNL A   1      32.730  26.638  24.944  1.00  0.00     0.089 C 
ATOM     80  C   UNL A   1      33.126  27.612  23.811  1.00  0.00     0.012 C 
ATOM     81  C   UNL A   1      33.285  27.229  26.261  1.00  0.00     0.025 C 
ATOM     82  C   UNL A   1      32.468  28.977  24.029  1.00  0.00     0.006 C 
ATOM     83  C   UNL A   1      32.714  28.624  26.526  1.00  0.00     0.002 C 
ATOM     84  C   UNL A   1      32.927  29.579  25.356  1.00  0.00     0.000 C 
BRANCH  77  85
ATOM     85  C   UNL A   1      33.186  24.304  25.714  1.00  0.00     0.272 C 
ATOM     86  O   UNL A   1      34.232  24.008  26.291  1.00  0.00    -0.267 OA
BRANCH  85  87
ATOM     87  C   UNL A   1      31.939  23.696  26.108  1.00  0.00     0.123 A 
ATOM     88  C   UNL A   1      31.314  22.503  25.799  1.00  0.00     0.055 A 
ATOM     89  N   UNL A   1      31.125  24.284  27.042  1.00  0.00    -0.273 N 
ATOM     90  C   UNL A   1      30.105  22.522  26.519  1.00  0.00     0.135 A 
ATOM     91  N   UNL A   1      29.970  23.626  27.251  1.00  0.00    -0.183 NA
ATOM     92  H   UNL A   1      31.364  25.113  27.515  1.00  0.00     0.190 HD
ENDBRANCH  85  87
ENDBRANCH  77  85
ENDBRANCH  72  75
ENDBRANCH  70  71
ENDBRANCH  69  70
ENDBRANCH   1  69
TORSDOF 16
ENDMDL
