MODEL 1
REMARK VINA RESULT:     -11.4      0.000      0.000
REMARK SMILES O=C(NCCCCNC(=O)[C@@H]1CCn2c(C(=O)c3ccccc3)ccc21)c1ccc(-c2c3nc(c(-c4ccc(S(=O)(=O)[O-])cc4)c4ccc([nH]4)c(-c4ccc(S(=O)(=O)[O-])cc4)c4nc(c(-c5ccc(S(=O)(=O)[O-])cc5)c5ccc2[nH]5)C=C4)C=C3)cc1
REMARK SMILES IDX 5 1 4 2 3 3 1 4 2 5 27 7 28 8 86 9 29 10 85 11 30 12 31 13
REMARK SMILES IDX 32 14 79 15 33 16 84 17 78 18 80 19 34 20 83 21 77 22 76 23
REMARK SMILES IDX 35 25 65 26 46 27 64 28 47 29 50 30 63 31 81 32 48 33 49 34
REMARK SMILES IDX 62 36 82 37 51 38 36 39 37 40 45 41 38 42 44 43 39 44 40 45
REMARK SMILES IDX 41 46 42 47 43 48 66 49 67 50 75 51 68 52 74 53 69 54 70 55
REMARK SMILES IDX 71 56 72 57 73 58 52 59 53 60 61 61 54 62 60 63 55 64 56 65
REMARK SMILES IDX 57 66 58 67 59 68 6 69 7 70 8 71 9 72 10 74 11 75 12 76
REMARK SMILES IDX 26 77 13 78 14 79 25 80 15 81 24 82 16 83 17 84 18 85 19 86
REMARK SMILES IDX 23 87 20 88 22 89 21 90
REMARK H PARENT 3 6 80 24 50 35 8 73
REMARK Flexibility Score: inf
ROOT
ATOM      1  C   UNL A   1      34.056  28.053  25.639  1.00  0.00     0.023 C 
ENDROOT
BRANCH   1   2
ATOM      2  C   UNL A   1      33.817  28.269  27.130  1.00  0.00     0.116 C 
BRANCH   2   3
ATOM      3  N   UNL A   1      33.582  29.663  27.464  1.00  0.00    -0.352 N 
ATOM      4  O   UNL A   1      34.028  31.659  28.412  1.00  0.00    -0.269 OA
ATOM      5  C   UNL A   1      34.437  30.555  28.063  1.00  0.00     0.251 C 
ATOM      6  H   UNL A   1      32.692  30.014  27.232  1.00  0.00     0.163 HD
BRANCH   5   7
ATOM      7  C   UNL A   1      35.843  30.168  28.303  1.00  0.00     0.039 A 
ATOM      8  C   UNL A   1      36.796  30.282  27.286  1.00  0.00     0.014 A 
ATOM      9  C   UNL A   1      36.212  29.694  29.565  1.00  0.00     0.014 A 
ATOM     10  C   UNL A   1      38.093  29.829  27.500  1.00  0.00     0.010 A 
ATOM     11  C   UNL A   1      37.532  29.303  29.798  1.00  0.00     0.010 A 
ATOM     12  C   UNL A   1      38.480  29.354  28.764  1.00  0.00    -0.014 A 
BRANCH  12  13
ATOM     13  C   UNL A   1      39.902  29.020  29.018  1.00  0.00     0.031 A 
ATOM     14  C   UNL A   1      40.475  27.688  28.626  1.00  0.00     0.074 A 
ATOM     15  C   UNL A   1      40.672  29.941  29.632  1.00  0.00     0.049 A 
ATOM     16  N   UNL A   1      41.689  27.235  28.807  1.00  0.00    -0.248 NA
ATOM     17  C   UNL A   1      39.574  26.740  27.950  1.00  0.00     0.031 C 
ATOM     18  C   UNL A   1      40.215  31.263  30.073  1.00  0.00     0.029 A 
ATOM     19  N   UNL A   1      41.993  29.910  29.995  1.00  0.00    -0.354 N 
ATOM     20  C   UNL A   1      41.695  25.943  28.295  1.00  0.00     0.074 A 
ATOM     21  C   UNL A   1      40.360  25.679  27.800  1.00  0.00     0.031 C 
ATOM     22  C   UNL A   1      41.241  31.921  30.629  1.00  0.00     0.029 A 
ATOM     23  C   UNL A   1      42.410  31.051  30.640  1.00  0.00     0.049 A 
ATOM     24  H   UNL A   1      42.586  29.146  29.812  1.00  0.00     0.167 HD
ATOM     25  C   UNL A   1      42.722  25.061  28.246  1.00  0.00     0.031 A 
ATOM     26  C   UNL A   1      43.591  31.354  31.211  1.00  0.00     0.031 A 
ATOM     27  C   UNL A   1      44.050  25.341  28.732  1.00  0.00     0.049 A 
ATOM     28  C   UNL A   1      44.699  30.344  31.171  1.00  0.00     0.074 A 
ATOM     29  C   UNL A   1      45.176  24.539  28.656  1.00  0.00     0.029 A 
ATOM     30  N   UNL A   1      44.426  26.498  29.396  1.00  0.00    -0.354 N 
ATOM     31  N   UNL A   1      44.705  29.157  30.613  1.00  0.00    -0.248 NA
ATOM     32  C   UNL A   1      45.954  30.707  31.842  1.00  0.00     0.031 C 
ATOM     33  C   UNL A   1      46.218  25.187  29.329  1.00  0.00     0.029 A 
ATOM     34  C   UNL A   1      45.754  26.413  29.776  1.00  0.00     0.049 A 
ATOM     35  H   UNL A   1      43.835  27.266  29.571  1.00  0.00     0.167 HD
ATOM     36  C   UNL A   1      45.967  28.633  30.861  1.00  0.00     0.074 A 
ATOM     37  C   UNL A   1      46.704  29.641  31.596  1.00  0.00     0.031 C 
ATOM     38  C   UNL A   1      46.468  27.422  30.517  1.00  0.00     0.031 A 
BRANCH  25  39
ATOM     39  C   UNL A   1      42.460  23.694  27.674  1.00  0.00    -0.014 A 
ATOM     40  C   UNL A   1      42.709  23.408  26.321  1.00  0.00     0.010 A 
ATOM     41  C   UNL A   1      42.047  22.655  28.530  1.00  0.00     0.010 A 
ATOM     42  C   UNL A   1      42.530  22.110  25.829  1.00  0.00     0.020 A 
ATOM     43  C   UNL A   1      41.885  21.353  28.046  1.00  0.00     0.020 A 
ATOM     44  C   UNL A   1      42.119  21.092  26.695  1.00  0.00     0.054 A 
BRANCH  44  45
ATOM     45  S   UNL A   1      41.941  19.408  26.040  1.00  0.00     0.124 S 
ATOM     46  O   UNL A   1      42.440  18.600  27.149  1.00  0.00    -0.237 OA
ATOM     47  O   UNL A   1      40.505  19.311  25.790  1.00  0.00    -0.237 OA
ATOM     48  O   UNL A   1      42.779  19.410  24.844  1.00  0.00    -0.744 OA
ENDBRANCH  44  45
ENDBRANCH  25  39
BRANCH  26  49
ATOM     49  C   UNL A   1      43.757  32.653  31.915  1.00  0.00    -0.014 A 
ATOM     50  C   UNL A   1      44.236  33.785  31.235  1.00  0.00     0.010 A 
ATOM     51  C   UNL A   1      43.415  32.764  33.276  1.00  0.00     0.010 A 
ATOM     52  C   UNL A   1      44.388  35.000  31.909  1.00  0.00     0.020 A 
ATOM     53  C   UNL A   1      43.539  33.983  33.946  1.00  0.00     0.020 A 
ATOM     54  C   UNL A   1      44.039  35.091  33.260  1.00  0.00     0.054 A 
BRANCH  54  55
ATOM     55  S   UNL A   1      44.203  36.687  34.107  1.00  0.00     0.124 S 
ATOM     56  O   UNL A   1      42.812  37.108  34.231  1.00  0.00    -0.237 OA
ATOM     57  O   UNL A   1      44.869  36.318  35.354  1.00  0.00    -0.237 OA
ATOM     58  O   UNL A   1      45.020  37.477  33.186  1.00  0.00    -0.744 OA
ENDBRANCH  54  55
ENDBRANCH  26  49
BRANCH  38  59
ATOM     59  C   UNL A   1      47.882  27.120  30.930  1.00  0.00    -0.014 A 
ATOM     60  C   UNL A   1      48.148  26.417  32.117  1.00  0.00     0.010 A 
ATOM     61  C   UNL A   1      48.948  27.489  30.091  1.00  0.00     0.010 A 
ATOM     62  C   UNL A   1      49.463  26.102  32.468  1.00  0.00     0.020 A 
ATOM     63  C   UNL A   1      50.262  27.155  30.428  1.00  0.00     0.020 A 
ATOM     64  C   UNL A   1      50.511  26.471  31.620  1.00  0.00     0.054 A 
BRANCH  64  65
ATOM     65  S   UNL A   1      52.203  25.996  32.068  1.00  0.00     0.124 S 
ATOM     66  O   UNL A   1      52.043  24.587  32.416  1.00  0.00    -0.237 OA
ATOM     67  O   UNL A   1      52.948  26.259  30.838  1.00  0.00    -0.237 OA
ATOM     68  O   UNL A   1      52.527  26.881  33.186  1.00  0.00    -0.744 OA
ENDBRANCH  64  65
ENDBRANCH  38  59
ENDBRANCH  12  13
ENDBRANCH   5   7
ENDBRANCH   2   3
ENDBRANCH   1   2
BRANCH   1  69
ATOM     69  C   UNL A   1      33.316  29.023  24.713  1.00  0.00     0.023 C 
BRANCH  69  70
ATOM     70  C   UNL A   1      31.792  28.941  24.796  1.00  0.00     0.116 C 
BRANCH  70  71
ATOM     71  N   UNL A   1      31.162  29.588  23.660  1.00  0.00    -0.356 N 
ATOM     72  C   UNL A   1      30.515  29.052  22.585  1.00  0.00     0.229 C 
ATOM     73  H   UNL A   1      31.207  30.571  23.668  1.00  0.00     0.163 HD
ATOM     74  O   UNL A   1      30.149  29.824  21.696  1.00  0.00    -0.274 OA
BRANCH  72  75
ATOM     75  C   UNL A   1      30.276  27.551  22.514  1.00  0.00     0.127 C 
ATOM     76  C   UNL A   1      29.692  27.007  23.841  1.00  0.00     0.042 C 
ATOM     77  C   UNL A   1      31.555  26.794  22.414  1.00  0.00     0.031 A 
ATOM     78  C   UNL A   1      30.342  25.632  24.043  1.00  0.00     0.124 C 
ATOM     79  N   UNL A   1      31.560  25.716  23.255  1.00  0.00    -0.341 N 
ATOM     80  C   UNL A   1      32.756  26.840  21.763  1.00  0.00     0.025 A 
ATOM     81  C   UNL A   1      32.721  25.009  23.162  1.00  0.00     0.090 A 
ATOM     82  C   UNL A   1      33.494  25.720  22.239  1.00  0.00     0.032 A 
BRANCH  81  83
ATOM     83  C   UNL A   1      33.137  23.812  23.875  1.00  0.00     0.209 C 
ATOM     84  O   UNL A   1      32.369  22.897  24.168  1.00  0.00    -0.287 OA
BRANCH  83  85
ATOM     85  C   UNL A   1      34.546  23.636  24.280  1.00  0.00     0.024 A 
ATOM     86  C   UNL A   1      35.377  22.843  23.483  1.00  0.00     0.012 A 
ATOM     87  C   UNL A   1      35.039  24.234  25.445  1.00  0.00     0.012 A 
ATOM     88  C   UNL A   1      36.720  22.690  23.824  1.00  0.00     0.001 A 
ATOM     89  C   UNL A   1      36.386  24.084  25.777  1.00  0.00     0.001 A 
ATOM     90  C   UNL A   1      37.224  23.319  24.964  1.00  0.00     0.000 A 
ENDBRANCH  83  85
ENDBRANCH  81  83
ENDBRANCH  72  75
ENDBRANCH  70  71
ENDBRANCH  69  70
ENDBRANCH   1  69
TORSDOF 16
ENDMDL
MODEL 2
REMARK VINA RESULT:     -11.3      0.545      8.188
REMARK SMILES O=C(NCCCCNC(=O)[C@@H]1CCn2c(C(=O)c3ccccc3)ccc21)c1ccc(-c2c3nc(c(-c4ccc(S(=O)(=O)[O-])cc4)c4ccc([nH]4)c(-c4ccc(S(=O)(=O)[O-])cc4)c4nc(c(-c5ccc(S(=O)(=O)[O-])cc5)c5ccc2[nH]5)C=C4)C=C3)cc1
REMARK SMILES IDX 5 1 4 2 3 3 1 4 2 5 27 7 28 8 86 9 29 10 85 11 30 12 31 13
REMARK SMILES IDX 32 14 79 15 33 16 84 17 78 18 80 19 34 20 83 21 77 22 76 23
REMARK SMILES IDX 35 25 65 26 46 27 64 28 47 29 50 30 63 31 81 32 48 33 49 34
REMARK SMILES IDX 62 36 82 37 51 38 36 39 37 40 45 41 38 42 44 43 39 44 40 45
REMARK SMILES IDX 41 46 42 47 43 48 66 49 67 50 75 51 68 52 74 53 69 54 70 55
REMARK SMILES IDX 71 56 72 57 73 58 52 59 53 60 61 61 54 62 60 63 55 64 56 65
REMARK SMILES IDX 57 66 58 67 59 68 6 69 7 70 8 71 9 72 10 74 11 75 12 76
REMARK SMILES IDX 26 77 13 78 14 79 25 80 15 81 24 82 16 83 17 84 18 85 19 86
REMARK SMILES IDX 23 87 20 88 22 89 21 90
REMARK H PARENT 3 6 80 24 50 35 8 73
REMARK Flexibility Score: inf
ROOT
ATOM      1  C   UNL A   1      33.693  27.851  25.649  1.00  0.00     0.023 C 
ENDROOT
BRANCH   1   2
ATOM      2  C   UNL A   1      33.917  28.185  27.119  1.00  0.00     0.116 C 
BRANCH   2   3
ATOM      3  N   UNL A   1      33.649  29.581  27.425  1.00  0.00    -0.352 N 
ATOM      4  O   UNL A   1      34.032  31.596  28.358  1.00  0.00    -0.269 OA
ATOM      5  C   UNL A   1      34.470  30.494  28.039  1.00  0.00     0.251 C 
ATOM      6  H   UNL A   1      32.762  29.914  27.157  1.00  0.00     0.163 HD
BRANCH   5   7
ATOM      7  C   UNL A   1      35.872  30.132  28.333  1.00  0.00     0.039 A 
ATOM      8  C   UNL A   1      36.853  30.223  27.340  1.00  0.00     0.014 A 
ATOM      9  C   UNL A   1      36.210  29.708  29.620  1.00  0.00     0.014 A 
ATOM     10  C   UNL A   1      38.148  29.792  27.607  1.00  0.00     0.010 A 
ATOM     11  C   UNL A   1      37.527  29.340  29.905  1.00  0.00     0.010 A 
ATOM     12  C   UNL A   1      38.503  29.367  28.897  1.00  0.00    -0.014 A 
BRANCH  12  13
ATOM     13  C   UNL A   1      39.921  29.059  29.203  1.00  0.00     0.031 A 
ATOM     14  C   UNL A   1      40.832  30.090  29.806  1.00  0.00     0.074 A 
ATOM     15  C   UNL A   1      40.382  27.827  28.908  1.00  0.00     0.049 A 
ATOM     16  N   UNL A   1      42.102  29.984  30.103  1.00  0.00    -0.248 NA
ATOM     17  C   UNL A   1      40.252  31.407  30.109  1.00  0.00     0.031 C 
ATOM     18  C   UNL A   1      39.589  26.753  28.303  1.00  0.00     0.029 A 
ATOM     19  N   UNL A   1      41.625  27.270  29.070  1.00  0.00    -0.354 N 
ATOM     20  C   UNL A   1      42.482  31.224  30.603  1.00  0.00     0.074 A 
ATOM     21  C   UNL A   1      41.309  32.072  30.564  1.00  0.00     0.031 C 
ATOM     22  C   UNL A   1      40.357  25.663  28.163  1.00  0.00     0.029 A 
ATOM     23  C   UNL A   1      41.709  25.977  28.609  1.00  0.00     0.049 A 
ATOM     24  H   UNL A   1      42.383  27.749  29.476  1.00  0.00     0.167 HD
ATOM     25  C   UNL A   1      43.699  31.614  31.051  1.00  0.00     0.031 A 
ATOM     26  C   UNL A   1      42.762  25.145  28.520  1.00  0.00     0.031 A 
ATOM     27  C   UNL A   1      44.856  30.757  31.096  1.00  0.00     0.049 A 
ATOM     28  C   UNL A   1      44.105  25.618  28.992  1.00  0.00     0.074 A 
ATOM     29  C   UNL A   1      46.113  31.039  31.605  1.00  0.00     0.029 A 
ATOM     30  N   UNL A   1      44.906  29.463  30.602  1.00  0.00    -0.354 N 
ATOM     31  N   UNL A   1      44.425  26.769  29.533  1.00  0.00    -0.248 NA
ATOM     32  C   UNL A   1      45.230  24.686  28.837  1.00  0.00     0.031 C 
ATOM     33  C   UNL A   1      46.939  29.936  31.363  1.00  0.00     0.029 A 
ATOM     34  C   UNL A   1      46.183  28.949  30.752  1.00  0.00     0.049 A 
ATOM     35  H   UNL A   1      44.146  28.981  30.204  1.00  0.00     0.167 HD
ATOM     36  C   UNL A   1      45.788  26.699  29.788  1.00  0.00     0.074 A 
ATOM     37  C   UNL A   1      46.227  25.383  29.366  1.00  0.00     0.031 C 
ATOM     38  C   UNL A   1      46.604  27.641  30.317  1.00  0.00     0.031 A 
BRANCH  25  39
ATOM     39  C   UNL A   1      43.867  33.039  31.507  1.00  0.00    -0.014 A 
ATOM     40  C   UNL A   1      44.346  34.034  30.637  1.00  0.00     0.010 A 
ATOM     41  C   UNL A   1      43.447  33.404  32.800  1.00  0.00     0.010 A 
ATOM     42  C   UNL A   1      44.421  35.366  31.060  1.00  0.00     0.020 A 
ATOM     43  C   UNL A   1      43.503  34.737  33.220  1.00  0.00     0.020 A 
ATOM     44  C   UNL A   1      43.999  35.707  32.349  1.00  0.00     0.054 A 
BRANCH  44  45
ATOM     45  S   UNL A   1      44.064  37.450  32.854  1.00  0.00     0.124 S 
ATOM     46  O   UNL A   1      45.446  37.581  33.306  1.00  0.00    -0.237 OA
ATOM     47  O   UNL A   1      43.739  38.155  31.616  1.00  0.00    -0.237 OA
ATOM     48  O   UNL A   1      43.054  37.545  33.905  1.00  0.00    -0.744 OA
ENDBRANCH  44  45
ENDBRANCH  25  39
BRANCH  26  49
ATOM     49  C   UNL A   1      42.590  23.801  27.906  1.00  0.00    -0.014 A 
ATOM     50  C   UNL A   1      42.714  23.622  26.519  1.00  0.00     0.010 A 
ATOM     51  C   UNL A   1      42.319  22.686  28.721  1.00  0.00     0.010 A 
ATOM     52  C   UNL A   1      42.550  22.353  25.955  1.00  0.00     0.020 A 
ATOM     53  C   UNL A   1      42.183  21.413  28.165  1.00  0.00     0.020 A 
ATOM     54  C   UNL A   1      42.285  21.257  26.781  1.00  0.00     0.054 A 
BRANCH  54  55
ATOM     55  S   UNL A   1      42.117  19.612  26.036  1.00  0.00     0.124 S 
ATOM     56  O   UNL A   1      43.030  19.700  24.902  1.00  0.00    -0.237 OA
ATOM     57  O   UNL A   1      42.534  18.727  27.120  1.00  0.00    -0.237 OA
ATOM     58  O   UNL A   1      40.697  19.537  25.695  1.00  0.00    -0.744 OA
ENDBRANCH  54  55
ENDBRANCH  26  49
BRANCH  38  59
ATOM     59  C   UNL A   1      48.056  27.285  30.472  1.00  0.00    -0.014 A 
ATOM     60  C   UNL A   1      48.986  27.603  29.467  1.00  0.00     0.010 A 
ATOM     61  C   UNL A   1      48.504  26.682  31.661  1.00  0.00     0.010 A 
ATOM     62  C   UNL A   1      50.340  27.308  29.641  1.00  0.00     0.020 A 
ATOM     63  C   UNL A   1      49.861  26.408  31.848  1.00  0.00     0.020 A 
ATOM     64  C   UNL A   1      50.769  26.715  30.831  1.00  0.00     0.054 A 
BRANCH  64  65
ATOM     65  S   UNL A   1      52.540  26.399  31.059  1.00  0.00     0.124 S 
ATOM     66  O   UNL A   1      53.009  26.283  29.681  1.00  0.00    -0.237 OA
ATOM     67  O   UNL A   1      52.990  27.588  31.779  1.00  0.00    -0.237 OA
ATOM     68  O   UNL A   1      52.574  25.160  31.834  1.00  0.00    -0.744 OA
ENDBRANCH  64  65
ENDBRANCH  38  59
ENDBRANCH  12  13
ENDBRANCH   5   7
ENDBRANCH   2   3
ENDBRANCH   1   2
BRANCH   1  69
ATOM     69  C   UNL A   1      33.056  28.968  24.815  1.00  0.00     0.023 C 
BRANCH  69  70
ATOM     70  C   UNL A   1      31.528  28.985  24.839  1.00  0.00     0.116 C 
BRANCH  70  71
ATOM     71  N   UNL A   1      30.984  29.590  23.638  1.00  0.00    -0.356 N 
ATOM     72  C   UNL A   1      30.430  29.015  22.532  1.00  0.00     0.229 C 
ATOM     73  H   UNL A   1      31.020  30.574  23.619  1.00  0.00     0.163 HD
ATOM     74  O   UNL A   1      30.128  29.756  21.593  1.00  0.00    -0.274 OA
BRANCH  72  75
ATOM     75  C   UNL A   1      30.211  27.510  22.488  1.00  0.00     0.127 C 
ATOM     76  C   UNL A   1      29.644  26.981  23.829  1.00  0.00     0.042 C 
ATOM     77  C   UNL A   1      31.500  26.769  22.391  1.00  0.00     0.031 A 
ATOM     78  C   UNL A   1      30.314  25.619  24.049  1.00  0.00     0.124 C 
ATOM     79  N   UNL A   1      31.525  25.706  23.251  1.00  0.00    -0.341 N 
ATOM     80  C   UNL A   1      32.695  26.820  21.731  1.00  0.00     0.025 A 
ATOM     81  C   UNL A   1      32.695  25.013  23.161  1.00  0.00     0.090 A 
ATOM     82  C   UNL A   1      33.451  25.719  22.220  1.00  0.00     0.032 A 
BRANCH  81  83
ATOM     83  C   UNL A   1      33.133  23.835  23.892  1.00  0.00     0.209 C 
ATOM     84  O   UNL A   1      32.385  22.903  24.185  1.00  0.00    -0.287 OA
BRANCH  83  85
ATOM     85  C   UNL A   1      34.541  23.699  24.314  1.00  0.00     0.024 A 
ATOM     86  C   UNL A   1      35.406  22.937  23.523  1.00  0.00     0.012 A 
ATOM     87  C   UNL A   1      34.999  24.303  25.490  1.00  0.00     0.012 A 
ATOM     88  C   UNL A   1      36.749  22.823  23.882  1.00  0.00     0.001 A 
ATOM     89  C   UNL A   1      36.345  24.191  25.840  1.00  0.00     0.001 A 
ATOM     90  C   UNL A   1      37.218  23.458  25.034  1.00  0.00     0.000 A 
ENDBRANCH  83  85
ENDBRANCH  81  83
ENDBRANCH  72  75
ENDBRANCH  70  71
ENDBRANCH  69  70
ENDBRANCH   1  69
TORSDOF 16
ENDMDL
MODEL 3
REMARK VINA RESULT:     -11.2      1.899      2.646
REMARK SMILES O=C(NCCCCNC(=O)[C@@H]1CCn2c(C(=O)c3ccccc3)ccc21)c1ccc(-c2c3nc(c(-c4ccc(S(=O)(=O)[O-])cc4)c4ccc([nH]4)c(-c4ccc(S(=O)(=O)[O-])cc4)c4nc(c(-c5ccc(S(=O)(=O)[O-])cc5)c5ccc2[nH]5)C=C4)C=C3)cc1
REMARK SMILES IDX 5 1 4 2 3 3 1 4 2 5 27 7 28 8 86 9 29 10 85 11 30 12 31 13
REMARK SMILES IDX 32 14 79 15 33 16 84 17 78 18 80 19 34 20 83 21 77 22 76 23
REMARK SMILES IDX 35 25 65 26 46 27 64 28 47 29 50 30 63 31 81 32 48 33 49 34
REMARK SMILES IDX 62 36 82 37 51 38 36 39 37 40 45 41 38 42 44 43 39 44 40 45
REMARK SMILES IDX 41 46 42 47 43 48 66 49 67 50 75 51 68 52 74 53 69 54 70 55
REMARK SMILES IDX 71 56 72 57 73 58 52 59 53 60 61 61 54 62 60 63 55 64 56 65
REMARK SMILES IDX 57 66 58 67 59 68 6 69 7 70 8 71 9 72 10 74 11 75 12 76
REMARK SMILES IDX 26 77 13 78 14 79 25 80 15 81 24 82 16 83 17 84 18 85 19 86
REMARK SMILES IDX 23 87 20 88 22 89 21 90
REMARK H PARENT 3 6 80 24 50 35 8 73
REMARK Flexibility Score: inf
ROOT
ATOM      1  C   UNL A   1      33.900  28.315  25.136  1.00  0.00     0.023 C 
ENDROOT
BRANCH   1   2
ATOM      2  C   UNL A   1      34.056  28.366  26.652  1.00  0.00     0.116 C 
BRANCH   2   3
ATOM      3  N   UNL A   1      33.756  29.678  27.202  1.00  0.00    -0.352 N 
ATOM      4  O   UNL A   1      34.082  31.492  28.499  1.00  0.00    -0.269 OA
ATOM      5  C   UNL A   1      34.546  30.473  27.993  1.00  0.00     0.251 C 
ATOM      6  H   UNL A   1      32.869  30.042  26.979  1.00  0.00     0.163 HD
BRANCH   5   7
ATOM      7  C   UNL A   1      35.949  30.084  28.250  1.00  0.00     0.039 A 
ATOM      8  C   UNL A   1      36.927  30.258  27.266  1.00  0.00     0.014 A 
ATOM      9  C   UNL A   1      36.289  29.547  29.494  1.00  0.00     0.014 A 
ATOM     10  C   UNL A   1      38.222  29.802  27.490  1.00  0.00     0.010 A 
ATOM     11  C   UNL A   1      37.605  29.152  29.741  1.00  0.00     0.010 A 
ATOM     12  C   UNL A   1      38.579  29.264  28.736  1.00  0.00    -0.014 A 
BRANCH  12  13
ATOM     13  C   UNL A   1      39.997  28.927  29.010  1.00  0.00     0.031 A 
ATOM     14  C   UNL A   1      40.574  27.598  28.615  1.00  0.00     0.074 A 
ATOM     15  C   UNL A   1      40.757  29.842  29.644  1.00  0.00     0.049 A 
ATOM     16  N   UNL A   1      41.785  27.142  28.812  1.00  0.00    -0.248 NA
ATOM     17  C   UNL A   1      39.684  26.657  27.918  1.00  0.00     0.031 C 
ATOM     18  C   UNL A   1      40.295  31.160  30.089  1.00  0.00     0.029 A 
ATOM     19  N   UNL A   1      42.073  29.806  30.028  1.00  0.00    -0.354 N 
ATOM     20  C   UNL A   1      41.799  25.855  28.288  1.00  0.00     0.074 A 
ATOM     21  C   UNL A   1      40.471  25.596  27.770  1.00  0.00     0.031 C 
ATOM     22  C   UNL A   1      41.313  31.813  30.667  1.00  0.00     0.029 A 
ATOM     23  C   UNL A   1      42.481  30.941  30.688  1.00  0.00     0.049 A 
ATOM     24  H   UNL A   1      42.668  29.044  29.847  1.00  0.00     0.167 HD
ATOM     25  C   UNL A   1      42.825  24.972  28.248  1.00  0.00     0.031 A 
ATOM     26  C   UNL A   1      43.652  31.238  31.280  1.00  0.00     0.031 A 
ATOM     27  C   UNL A   1      44.145  25.246  28.757  1.00  0.00     0.049 A 
ATOM     28  C   UNL A   1      44.760  30.227  31.249  1.00  0.00     0.074 A 
ATOM     29  C   UNL A   1      45.272  24.444  28.692  1.00  0.00     0.029 A 
ATOM     30  N   UNL A   1      44.512  26.397  29.437  1.00  0.00    -0.354 N 
ATOM     31  N   UNL A   1      44.775  29.045  30.681  1.00  0.00    -0.248 NA
ATOM     32  C   UNL A   1      46.005  30.583  31.943  1.00  0.00     0.031 C 
ATOM     33  C   UNL A   1      46.304  25.085  29.387  1.00  0.00     0.029 A 
ATOM     34  C   UNL A   1      45.834  26.307  29.837  1.00  0.00     0.049 A 
ATOM     35  H   UNL A   1      43.920  27.164  29.609  1.00  0.00     0.167 HD
ATOM     36  C   UNL A   1      46.032  28.517  30.944  1.00  0.00     0.074 A 
ATOM     37  C   UNL A   1      46.758  29.519  31.700  1.00  0.00     0.031 C 
ATOM     38  C   UNL A   1      46.537  27.310  30.598  1.00  0.00     0.031 A 
BRANCH  25  39
ATOM     39  C   UNL A   1      42.571  23.610  27.660  1.00  0.00    -0.014 A 
ATOM     40  C   UNL A   1      42.899  23.317  26.325  1.00  0.00     0.010 A 
ATOM     41  C   UNL A   1      42.083  22.581  28.488  1.00  0.00     0.010 A 
ATOM     42  C   UNL A   1      42.724  22.023  25.823  1.00  0.00     0.020 A 
ATOM     43  C   UNL A   1      41.925  21.282  27.994  1.00  0.00     0.020 A 
ATOM     44  C   UNL A   1      42.238  21.015  26.661  1.00  0.00     0.054 A 
BRANCH  44  45
ATOM     45  S   UNL A   1      42.066  19.335  25.995  1.00  0.00     0.124 S 
ATOM     46  O   UNL A   1      40.626  19.246  25.770  1.00  0.00    -0.237 OA
ATOM     47  O   UNL A   1      42.887  19.382  24.788  1.00  0.00    -0.237 OA
ATOM     48  O   UNL A   1      42.582  18.483  27.063  1.00  0.00    -0.744 OA
ENDBRANCH  44  45
ENDBRANCH  25  39
BRANCH  26  49
ATOM     49  C   UNL A   1      43.809  32.531  31.999  1.00  0.00    -0.014 A 
ATOM     50  C   UNL A   1      44.260  33.678  31.326  1.00  0.00     0.010 A 
ATOM     51  C   UNL A   1      43.485  32.619  33.365  1.00  0.00     0.010 A 
ATOM     52  C   UNL A   1      44.403  34.887  32.013  1.00  0.00     0.020 A 
ATOM     53  C   UNL A   1      43.599  33.832  34.048  1.00  0.00     0.020 A 
ATOM     54  C   UNL A   1      44.072  34.956  33.369  1.00  0.00     0.054 A 
BRANCH  54  55
ATOM     55  S   UNL A   1      44.224  36.544  34.234  1.00  0.00     0.124 S 
ATOM     56  O   UNL A   1      43.932  36.166  35.612  1.00  0.00    -0.237 OA
ATOM     57  O   UNL A   1      45.607  36.925  33.960  1.00  0.00    -0.237 OA
ATOM     58  O   UNL A   1      43.217  37.382  33.584  1.00  0.00    -0.744 OA
ENDBRANCH  54  55
ENDBRANCH  26  49
BRANCH  38  59
ATOM     59  C   UNL A   1      47.944  27.002  31.030  1.00  0.00    -0.014 A 
ATOM     60  C   UNL A   1      48.193  26.322  32.234  1.00  0.00     0.010 A 
ATOM     61  C   UNL A   1      49.022  27.344  30.194  1.00  0.00     0.010 A 
ATOM     62  C   UNL A   1      49.501  26.003  32.605  1.00  0.00     0.020 A 
ATOM     63  C   UNL A   1      50.329  27.004  30.550  1.00  0.00     0.020 A 
ATOM     64  C   UNL A   1      50.560  26.343  31.759  1.00  0.00     0.054 A 
BRANCH  64  65
ATOM     65  S   UNL A   1      52.244  25.861  32.232  1.00  0.00     0.124 S 
ATOM     66  O   UNL A   1      52.115  24.414  32.386  1.00  0.00    -0.237 OA
ATOM     67  O   UNL A   1      53.039  26.304  31.089  1.00  0.00    -0.237 OA
ATOM     68  O   UNL A   1      52.480  26.601  33.471  1.00  0.00    -0.744 OA
ENDBRANCH  64  65
ENDBRANCH  38  59
ENDBRANCH  12  13
ENDBRANCH   5   7
ENDBRANCH   2   3
ENDBRANCH   1   2
BRANCH   1  69
ATOM     69  C   UNL A   1      32.490  28.607  24.614  1.00  0.00     0.023 C 
BRANCH  69  70
ATOM     70  C   UNL A   1      31.702  27.368  24.189  1.00  0.00     0.116 C 
BRANCH  70  71
ATOM     71  N   UNL A   1      32.327  26.701  23.062  1.00  0.00    -0.356 N 
ATOM     72  C   UNL A   1      33.065  25.555  23.013  1.00  0.00     0.229 C 
ATOM     73  H   UNL A   1      32.197  27.147  22.194  1.00  0.00     0.163 HD
ATOM     74  O   UNL A   1      33.573  25.248  21.932  1.00  0.00    -0.274 OA
BRANCH  72  75
ATOM     75  C   UNL A   1      33.241  24.711  24.268  1.00  0.00     0.127 C 
ATOM     76  C   UNL A   1      34.706  24.741  24.768  1.00  0.00     0.042 C 
ATOM     77  C   UNL A   1      33.046  23.261  23.987  1.00  0.00     0.031 A 
ATOM     78  C   UNL A   1      34.991  23.325  25.287  1.00  0.00     0.124 C 
ATOM     79  N   UNL A   1      34.017  22.507  24.585  1.00  0.00    -0.341 N 
ATOM     80  C   UNL A   1      32.214  22.426  23.295  1.00  0.00     0.025 A 
ATOM     81  C   UNL A   1      33.841  21.177  24.345  1.00  0.00     0.090 A 
ATOM     82  C   UNL A   1      32.719  21.114  23.515  1.00  0.00     0.032 A 
BRANCH  81  83
ATOM     83  C   UNL A   1      34.639  20.043  24.784  1.00  0.00     0.209 C 
ATOM     84  O   UNL A   1      35.790  20.146  25.205  1.00  0.00    -0.287 OA
BRANCH  83  85
ATOM     85  C   UNL A   1      34.077  18.678  24.750  1.00  0.00     0.024 A 
ATOM     86  C   UNL A   1      32.969  18.390  25.554  1.00  0.00     0.012 A 
ATOM     87  C   UNL A   1      34.648  17.685  23.946  1.00  0.00     0.012 A 
ATOM     88  C   UNL A   1      32.399  17.118  25.513  1.00  0.00     0.001 A 
ATOM     89  C   UNL A   1      34.069  16.417  23.904  1.00  0.00     0.001 A 
ATOM     90  C   UNL A   1      32.943  16.138  24.681  1.00  0.00     0.000 A 
ENDBRANCH  83  85
ENDBRANCH  81  83
ENDBRANCH  72  75
ENDBRANCH  70  71
ENDBRANCH  69  70
ENDBRANCH   1  69
TORSDOF 16
ENDMDL
