MODEL 1
REMARK VINA RESULT:     -11.1      0.000      0.000
REMARK SMILES Cc1cccc(C)c1Nc1ccccc1CC(=O)NCCCCNC(=O)c1ccc(-c2c3nc(c(-c4ccc(S(=O)(=O)[O-])cc4)c4ccc([nH]4)c(-c4ccc(S(=O)(=O)[O-])cc4)c4nc(c(-c5ccc(S(=O)(=O)[O-])cc5)c5ccc2[nH]5)C=C4)C=C3)cc1
REMARK SMILES IDX 21 1 20 2 19 3 17 4 18 5 16 7 15 8 10 9 11 10 12 11 14 12
REMARK SMILES IDX 13 13 9 14 8 16 1 17 2 18 3 19 4 20 6 21 5 22 7 23 22 24
REMARK SMILES IDX 23 25 24 26 25 27 26 29 27 30 28 31 86 32 29 33 85 34 30 35
REMARK SMILES IDX 31 36 32 37 79 38 33 39 84 40 78 41 80 42 34 43 83 44 77 45
REMARK SMILES IDX 76 46 35 48 65 49 46 50 64 51 47 52 50 53 63 54 81 55 48 56
REMARK SMILES IDX 49 57 62 59 82 60 51 61 36 62 37 63 45 64 38 65 44 66 39 67
REMARK SMILES IDX 40 68 41 69 42 70 43 71 66 72 67 73 75 74 68 75 74 76 69 77
REMARK SMILES IDX 70 78 71 79 72 80 73 81 52 82 53 83 61 84 54 85 60 86 55 87
REMARK SMILES IDX 56 88 57 89 58 90 59 91
REMARK H PARENT 19 6 9 15 24 28 80 47 50 58
REMARK Flexibility Score: inf
ROOT
ATOM      1  C   UNL A   1      31.583  27.846  25.717  1.00  0.00     0.023 C 
ENDROOT
BRANCH   1   2
ATOM      2  C   UNL A   1      30.642  26.730  25.263  1.00  0.00     0.116 C 
BRANCH   2   3
ATOM      3  N   UNL A   1      30.392  25.781  26.327  1.00  0.00    -0.356 N 
ATOM      4  C   UNL A   1      30.567  24.426  26.301  1.00  0.00     0.224 C 
ATOM      5  O   UNL A   1      30.179  23.762  27.265  1.00  0.00    -0.275 OA
ATOM      6  H   UNL A   1      30.053  26.157  27.172  1.00  0.00     0.163 HD
BRANCH   4   7
ATOM      7  C   UNL A   1      31.271  23.776  25.120  1.00  0.00     0.137 C 
BRANCH   7   8
ATOM      8  C   UNL A   1      32.718  23.405  25.381  1.00  0.00    -0.015 A 
ATOM      9  C   UNL A   1      33.167  22.071  25.479  1.00  0.00     0.042 A 
ATOM     10  C   UNL A   1      34.504  21.834  25.852  1.00  0.00     0.026 A 
ATOM     11  C   UNL A   1      35.394  22.882  26.085  1.00  0.00     0.002 A 
ATOM     12  C   UNL A   1      33.640  24.455  25.588  1.00  0.00     0.006 A 
ATOM     13  C   UNL A   1      34.964  24.195  25.939  1.00  0.00     0.000 A 
BRANCH   9  14
ATOM     14  N   UNL A   1      32.382  20.938  25.186  1.00  0.00    -0.355 N 
ATOM     15  H   UNL A   1      31.644  20.797  25.822  1.00  0.00     0.167 HD
BRANCH  14  16
ATOM     16  C   UNL A   1      32.438  19.963  24.163  1.00  0.00     0.044 A 
ATOM     17  C   UNL A   1      32.869  18.204  25.975  1.00  0.00     0.046 C 
ATOM     18  C   UNL A   1      32.647  18.608  24.540  1.00  0.00    -0.027 A 
ATOM     19  C   UNL A   1      32.617  17.591  23.570  1.00  0.00     0.005 A 
ATOM     20  C   UNL A   1      32.380  17.894  22.235  1.00  0.00     0.001 A 
ATOM     21  C   UNL A   1      32.247  20.262  22.793  1.00  0.00    -0.027 A 
ATOM     22  C   UNL A   1      32.196  19.217  21.852  1.00  0.00     0.005 A 
ATOM     23  C   UNL A   1      32.119  21.664  22.257  1.00  0.00     0.046 C 
ENDBRANCH  14  16
ENDBRANCH   9  14
ENDBRANCH   7   8
ENDBRANCH   4   7
ENDBRANCH   2   3
ENDBRANCH   1   2
BRANCH   1  24
ATOM     24  C   UNL A   1      32.308  27.566  27.034  1.00  0.00     0.023 C 
BRANCH  24  25
ATOM     25  C   UNL A   1      33.632  28.299  27.203  1.00  0.00     0.116 C 
BRANCH  25  26
ATOM     26  N   UNL A   1      33.463  29.706  27.528  1.00  0.00    -0.352 N 
ATOM     27  C   UNL A   1      34.372  30.568  28.090  1.00  0.00     0.251 C 
ATOM     28  H   UNL A   1      32.580  30.091  27.320  1.00  0.00     0.163 HD
ATOM     29  O   UNL A   1      34.025  31.700  28.418  1.00  0.00    -0.269 OA
BRANCH  27  30
ATOM     30  C   UNL A   1      35.756  30.109  28.328  1.00  0.00     0.039 A 
ATOM     31  C   UNL A   1      36.680  30.193  27.285  1.00  0.00     0.014 A 
ATOM     32  C   UNL A   1      36.144  29.618  29.577  1.00  0.00     0.014 A 
ATOM     33  C   UNL A   1      38.008  29.829  27.511  1.00  0.00     0.010 A 
ATOM     34  C   UNL A   1      37.484  29.328  29.821  1.00  0.00     0.010 A 
ATOM     35  C   UNL A   1      38.426  29.419  28.788  1.00  0.00    -0.014 A 
BRANCH  35  36
ATOM     36  C   UNL A   1      39.845  29.065  29.046  1.00  0.00     0.031 A 
ATOM     37  C   UNL A   1      40.772  30.067  29.680  1.00  0.00     0.074 A 
ATOM     38  C   UNL A   1      40.306  27.853  28.680  1.00  0.00     0.049 A 
ATOM     39  N   UNL A   1      42.035  29.936  29.998  1.00  0.00    -0.248 NA
ATOM     40  C   UNL A   1      40.217  31.399  29.972  1.00  0.00     0.031 C 
ATOM     41  C   UNL A   1      39.520  26.813  28.010  1.00  0.00     0.029 A 
ATOM     42  N   UNL A   1      41.547  27.286  28.827  1.00  0.00    -0.354 N 
ATOM     43  C   UNL A   1      42.424  31.164  30.517  1.00  0.00     0.074 A 
ATOM     44  C   UNL A   1      41.284  32.047  30.416  1.00  0.00     0.031 C 
ATOM     45  C   UNL A   1      40.286  25.724  27.840  1.00  0.00     0.029 A 
ATOM     46  C   UNL A   1      41.622  25.995  28.362  1.00  0.00     0.049 A 
ATOM     47  H   UNL A   1      42.311  27.760  29.228  1.00  0.00     0.167 HD
ATOM     48  C   UNL A   1      43.616  31.521  31.054  1.00  0.00     0.031 A 
ATOM     49  C   UNL A   1      42.648  25.123  28.365  1.00  0.00     0.031 A 
ATOM     50  C   UNL A   1      44.748  30.639  31.161  1.00  0.00     0.049 A 
ATOM     51  C   UNL A   1      43.956  25.536  28.981  1.00  0.00     0.074 A 
ATOM     52  C   UNL A   1      45.984  30.888  31.730  1.00  0.00     0.029 A 
ATOM     53  N   UNL A   1      44.779  29.335  30.690  1.00  0.00    -0.354 N 
ATOM     54  N   UNL A   1      44.286  26.683  29.527  1.00  0.00    -0.248 NA
ATOM     55  C   UNL A   1      45.024  24.527  29.001  1.00  0.00     0.031 C 
ATOM     56  C   UNL A   1      46.779  29.747  31.565  1.00  0.00     0.029 A 
ATOM     57  C   UNL A   1      46.018  28.770  30.944  1.00  0.00     0.049 A 
ATOM     58  H   UNL A   1      44.031  28.878  30.242  1.00  0.00     0.167 HD
ATOM     59  C   UNL A   1      45.591  26.523  29.984  1.00  0.00     0.074 A 
ATOM     60  C   UNL A   1      45.980  25.165  29.664  1.00  0.00     0.031 C 
ATOM     61  C   UNL A   1      46.392  27.418  30.614  1.00  0.00     0.031 A 
BRANCH  48  62
ATOM     62  C   UNL A   1      43.748  32.932  31.567  1.00  0.00    -0.014 A 
ATOM     63  C   UNL A   1      43.378  33.262  32.885  1.00  0.00     0.010 A 
ATOM     64  C   UNL A   1      44.268  33.938  30.732  1.00  0.00     0.010 A 
ATOM     65  C   UNL A   1      43.479  34.578  33.341  1.00  0.00     0.020 A 
ATOM     66  C   UNL A   1      44.399  35.250  31.195  1.00  0.00     0.020 A 
ATOM     67  C   UNL A   1      43.985  35.566  32.491  1.00  0.00     0.054 A 
BRANCH  67  68
ATOM     68  S   UNL A   1      44.118  37.264  33.113  1.00  0.00     0.124 S 
ATOM     69  O   UNL A   1      43.827  38.047  31.914  1.00  0.00    -0.237 OA
ATOM     70  O   UNL A   1      43.093  37.306  34.153  1.00  0.00    -0.237 OA
ATOM     71  O   UNL A   1      45.494  37.350  33.595  1.00  0.00    -0.744 OA
ENDBRANCH  67  68
ENDBRANCH  48  62
BRANCH  49  72
ATOM     72  C   UNL A   1      42.465  23.755  27.806  1.00  0.00    -0.014 A 
ATOM     73  C   UNL A   1      42.005  22.707  28.622  1.00  0.00     0.010 A 
ATOM     74  C   UNL A   1      42.741  23.497  26.450  1.00  0.00     0.010 A 
ATOM     75  C   UNL A   1      41.846  21.419  28.099  1.00  0.00     0.020 A 
ATOM     76  C   UNL A   1      42.557  22.217  25.918  1.00  0.00     0.020 A 
ATOM     77  C   UNL A   1      42.122  21.184  26.750  1.00  0.00     0.054 A 
BRANCH  77  78
ATOM     78  S   UNL A   1      41.862  19.517  26.082  1.00  0.00     0.124 S 
ATOM     79  O   UNL A   1      42.318  18.674  27.183  1.00  0.00    -0.237 OA
ATOM     80  O   UNL A   1      40.424  19.501  25.825  1.00  0.00    -0.237 OA
ATOM     81  O   UNL A   1      42.699  19.495  24.885  1.00  0.00    -0.744 OA
ENDBRANCH  77  78
ENDBRANCH  49  72
BRANCH  61  82
ATOM     82  C   UNL A   1      47.756  26.938  31.034  1.00  0.00    -0.014 A 
ATOM     83  C   UNL A   1      47.946  26.219  32.227  1.00  0.00     0.010 A 
ATOM     84  C   UNL A   1      48.864  27.199  30.206  1.00  0.00     0.010 A 
ATOM     85  C   UNL A   1      49.228  25.821  32.614  1.00  0.00     0.020 A 
ATOM     86  C   UNL A   1      50.142  26.775  30.574  1.00  0.00     0.020 A 
ATOM     87  C   UNL A   1      50.320  26.108  31.788  1.00  0.00     0.054 A 
BRANCH  87  88
ATOM     88  S   UNL A   1      51.975  25.579  32.307  1.00  0.00     0.124 S 
ATOM     89  O   UNL A   1      51.745  24.182  32.672  1.00  0.00    -0.237 OA
ATOM     90  O   UNL A   1      52.774  25.790  31.103  1.00  0.00    -0.237 OA
ATOM     91  O   UNL A   1      52.290  26.470  33.421  1.00  0.00    -0.744 OA
ENDBRANCH  87  88
ENDBRANCH  61  82
ENDBRANCH  35  36
ENDBRANCH  27  30
ENDBRANCH  25  26
ENDBRANCH  24  25
ENDBRANCH   1  24
TORSDOF 17
ENDMDL
MODEL 2
REMARK VINA RESULT:     -11.1      1.429      2.465
REMARK SMILES Cc1cccc(C)c1Nc1ccccc1CC(=O)NCCCCNC(=O)c1ccc(-c2c3nc(c(-c4ccc(S(=O)(=O)[O-])cc4)c4ccc([nH]4)c(-c4ccc(S(=O)(=O)[O-])cc4)c4nc(c(-c5ccc(S(=O)(=O)[O-])cc5)c5ccc2[nH]5)C=C4)C=C3)cc1
REMARK SMILES IDX 21 1 20 2 19 3 17 4 18 5 16 7 15 8 10 9 11 10 12 11 14 12
REMARK SMILES IDX 13 13 9 14 8 16 1 17 2 18 3 19 4 20 6 21 5 22 7 23 22 24
REMARK SMILES IDX 23 25 24 26 25 27 26 29 27 30 28 31 86 32 29 33 85 34 30 35
REMARK SMILES IDX 31 36 32 37 79 38 33 39 84 40 78 41 80 42 34 43 83 44 77 45
REMARK SMILES IDX 76 46 35 48 65 49 46 50 64 51 47 52 50 53 63 54 81 55 48 56
REMARK SMILES IDX 49 57 62 59 82 60 51 61 36 62 37 63 45 64 38 65 44 66 39 67
REMARK SMILES IDX 40 68 41 69 42 70 43 71 66 72 67 73 75 74 68 75 74 76 69 77
REMARK SMILES IDX 70 78 71 79 72 80 73 81 52 82 53 83 61 84 54 85 60 86 55 87
REMARK SMILES IDX 56 88 57 89 58 90 59 91
REMARK H PARENT 19 6 9 15 24 28 80 47 50 58
REMARK Flexibility Score: inf
ROOT
ATOM      1  C   UNL A   1      33.478  28.864  24.161  1.00  0.00     0.023 C 
ENDROOT
BRANCH   1   2
ATOM      2  C   UNL A   1      32.659  28.478  22.929  1.00  0.00     0.116 C 
BRANCH   2   3
ATOM      3  N   UNL A   1      33.316  27.443  22.158  1.00  0.00    -0.356 N 
ATOM      4  C   UNL A   1      32.838  26.203  21.839  1.00  0.00     0.224 C 
ATOM      5  O   UNL A   1      33.593  25.406  21.278  1.00  0.00    -0.275 OA
ATOM      6  H   UNL A   1      34.217  27.659  21.823  1.00  0.00     0.163 HD
BRANCH   4   7
ATOM      7  C   UNL A   1      31.389  25.852  22.134  1.00  0.00     0.137 C 
BRANCH   7   8
ATOM      8  C   UNL A   1      31.114  25.494  23.581  1.00  0.00    -0.015 A 
ATOM      9  C   UNL A   1      31.762  24.433  24.250  1.00  0.00     0.042 A 
ATOM     10  C   UNL A   1      31.343  24.100  25.552  1.00  0.00     0.026 A 
ATOM     11  C   UNL A   1      30.338  24.816  26.202  1.00  0.00     0.002 A 
ATOM     12  C   UNL A   1      30.121  26.229  24.265  1.00  0.00     0.006 A 
ATOM     13  C   UNL A   1      29.736  25.891  25.561  1.00  0.00     0.000 A 
BRANCH   9  14
ATOM     14  N   UNL A   1      32.843  23.697  23.726  1.00  0.00    -0.355 N 
ATOM     15  H   UNL A   1      32.980  23.834  22.760  1.00  0.00     0.167 HD
BRANCH  14  16
ATOM     16  C   UNL A   1      33.772  22.801  24.303  1.00  0.00     0.044 A 
ATOM     17  C   UNL A   1      32.318  20.872  23.451  1.00  0.00     0.046 C 
ATOM     18  C   UNL A   1      33.543  21.406  24.150  1.00  0.00    -0.027 A 
ATOM     19  C   UNL A   1      34.485  20.478  24.625  1.00  0.00     0.005 A 
ATOM     20  C   UNL A   1      35.651  20.908  25.245  1.00  0.00     0.001 A 
ATOM     21  C   UNL A   1      34.940  23.224  24.981  1.00  0.00    -0.027 A 
ATOM     22  C   UNL A   1      35.875  22.269  25.420  1.00  0.00     0.005 A 
ATOM     23  C   UNL A   1      35.244  24.665  25.297  1.00  0.00     0.046 C 
ENDBRANCH  14  16
ENDBRANCH   9  14
ENDBRANCH   7   8
ENDBRANCH   4   7
ENDBRANCH   2   3
ENDBRANCH   1   2
BRANCH   1  24
ATOM     24  C   UNL A   1      33.118  28.087  25.428  1.00  0.00     0.023 C 
BRANCH  24  25
ATOM     25  C   UNL A   1      33.999  28.389  26.634  1.00  0.00     0.116 C 
BRANCH  25  26
ATOM     26  N   UNL A   1      33.772  29.716  27.182  1.00  0.00    -0.352 N 
ATOM     27  C   UNL A   1      34.611  30.473  27.963  1.00  0.00     0.251 C 
ATOM     28  H   UNL A   1      32.903  30.126  26.967  1.00  0.00     0.163 HD
ATOM     29  O   UNL A   1      34.214  31.527  28.450  1.00  0.00    -0.269 OA
BRANCH  27  30
ATOM     30  C   UNL A   1      35.980  29.988  28.238  1.00  0.00     0.039 A 
ATOM     31  C   UNL A   1      36.948  30.105  27.239  1.00  0.00     0.014 A 
ATOM     32  C   UNL A   1      36.310  29.439  29.480  1.00  0.00     0.014 A 
ATOM     33  C   UNL A   1      38.261  29.717  27.504  1.00  0.00     0.010 A 
ATOM     34  C   UNL A   1      37.635  29.124  29.767  1.00  0.00     0.010 A 
ATOM     35  C   UNL A   1      38.621  29.247  28.779  1.00  0.00    -0.014 A 
BRANCH  35  36
ATOM     36  C   UNL A   1      40.025  28.867  29.080  1.00  0.00     0.031 A 
ATOM     37  C   UNL A   1      40.941  29.839  29.771  1.00  0.00     0.074 A 
ATOM     38  C   UNL A   1      40.481  27.656  28.703  1.00  0.00     0.049 A 
ATOM     39  N   UNL A   1      42.190  29.682  30.132  1.00  0.00    -0.248 NA
ATOM     40  C   UNL A   1      40.395  31.173  30.073  1.00  0.00     0.031 C 
ATOM     41  C   UNL A   1      39.706  26.644  27.979  1.00  0.00     0.029 A 
ATOM     42  N   UNL A   1      41.708  27.067  28.881  1.00  0.00    -0.354 N 
ATOM     43  C   UNL A   1      42.577  30.892  30.693  1.00  0.00     0.074 A 
ATOM     44  C   UNL A   1      41.454  31.794  30.571  1.00  0.00     0.031 C 
ATOM     45  C   UNL A   1      40.462  25.547  27.812  1.00  0.00     0.029 A 
ATOM     46  C   UNL A   1      41.782  25.786  28.389  1.00  0.00     0.049 A 
ATOM     47  H   UNL A   1      42.463  27.520  29.321  1.00  0.00     0.167 HD
ATOM     48  C   UNL A   1      43.753  31.218  31.282  1.00  0.00     0.031 A 
ATOM     49  C   UNL A   1      42.794  24.899  28.409  1.00  0.00     0.031 A 
ATOM     50  C   UNL A   1      44.868  30.317  31.409  1.00  0.00     0.049 A 
ATOM     51  C   UNL A   1      44.085  25.278  29.081  1.00  0.00     0.074 A 
ATOM     52  C   UNL A   1      46.085  30.534  32.029  1.00  0.00     0.029 A 
ATOM     53  N   UNL A   1      44.898  29.023  30.909  1.00  0.00    -0.354 N 
ATOM     54  N   UNL A   1      44.411  26.407  29.666  1.00  0.00    -0.248 NA
ATOM     55  C   UNL A   1      45.137  24.253  29.117  1.00  0.00     0.031 C 
ATOM     56  C   UNL A   1      46.869  29.386  31.866  1.00  0.00     0.029 A 
ATOM     57  C   UNL A   1      46.118  28.434  31.194  1.00  0.00     0.049 A 
ATOM     58  H   UNL A   1      44.161  28.588  30.423  1.00  0.00     0.167 HD
ATOM     59  C   UNL A   1      45.695  26.217  30.166  1.00  0.00     0.074 A 
ATOM     60  C   UNL A   1      46.076  24.860  29.829  1.00  0.00     0.031 C 
ATOM     61  C   UNL A   1      46.485  27.085  30.846  1.00  0.00     0.031 A 
BRANCH  48  62
ATOM     62  C   UNL A   1      43.887  32.615  31.832  1.00  0.00    -0.014 A 
ATOM     63  C   UNL A   1      43.643  32.884  33.193  1.00  0.00     0.010 A 
ATOM     64  C   UNL A   1      44.281  33.669  30.988  1.00  0.00     0.010 A 
ATOM     65  C   UNL A   1      43.743  34.186  33.687  1.00  0.00     0.020 A 
ATOM     66  C   UNL A   1      44.411  34.968  31.485  1.00  0.00     0.020 A 
ATOM     67  C   UNL A   1      44.122  35.222  32.827  1.00  0.00     0.054 A 
BRANCH  67  68
ATOM     68  S   UNL A   1      44.257  36.902  33.498  1.00  0.00     0.124 S 
ATOM     69  O   UNL A   1      44.888  36.659  34.793  1.00  0.00    -0.237 OA
ATOM     70  O   UNL A   1      45.094  37.577  32.510  1.00  0.00    -0.237 OA
ATOM     71  O   UNL A   1      42.872  37.365  33.557  1.00  0.00    -0.744 OA
ENDBRANCH  67  68
ENDBRANCH  48  62
BRANCH  49  72
ATOM     72  C   UNL A   1      42.613  23.548  27.811  1.00  0.00    -0.014 A 
ATOM     73  C   UNL A   1      42.926  23.318  26.460  1.00  0.00     0.010 A 
ATOM     74  C   UNL A   1      42.135  22.480  28.593  1.00  0.00     0.010 A 
ATOM     75  C   UNL A   1      42.743  22.052  25.895  1.00  0.00     0.020 A 
ATOM     76  C   UNL A   1      41.978  21.206  28.039  1.00  0.00     0.020 A 
ATOM     77  C   UNL A   1      42.271  21.004  26.689  1.00  0.00     0.054 A 
BRANCH  77  78
ATOM     78  S   UNL A   1      42.088  19.358  25.948  1.00  0.00     0.124 S 
ATOM     79  O   UNL A   1      42.589  18.491  27.009  1.00  0.00    -0.237 OA
ATOM     80  O   UNL A   1      40.651  19.284  25.694  1.00  0.00    -0.237 OA
ATOM     81  O   UNL A   1      42.920  19.429  24.749  1.00  0.00    -0.744 OA
ENDBRANCH  77  78
ENDBRANCH  49  72
BRANCH  61  82
ATOM     82  C   UNL A   1      47.826  26.575  31.304  1.00  0.00    -0.014 A 
ATOM     83  C   UNL A   1      48.982  26.746  30.523  1.00  0.00     0.010 A 
ATOM     84  C   UNL A   1      47.929  25.925  32.549  1.00  0.00     0.010 A 
ATOM     85  C   UNL A   1      50.206  26.227  30.951  1.00  0.00     0.020 A 
ATOM     86  C   UNL A   1      49.157  25.434  32.994  1.00  0.00     0.020 A 
ATOM     87  C   UNL A   1      50.284  25.567  32.182  1.00  0.00     0.054 A 
BRANCH  87  88
ATOM     88  S   UNL A   1      51.884  24.904  32.721  1.00  0.00     0.124 S 
ATOM     89  O   UNL A   1      52.062  25.559  34.015  1.00  0.00    -0.237 OA
ATOM     90  O   UNL A   1      51.637  23.466  32.774  1.00  0.00    -0.237 OA
ATOM     91  O   UNL A   1      52.807  25.333  31.673  1.00  0.00    -0.744 OA
ENDBRANCH  87  88
ENDBRANCH  61  82
ENDBRANCH  35  36
ENDBRANCH  27  30
ENDBRANCH  25  26
ENDBRANCH  24  25
ENDBRANCH   1  24
TORSDOF 17
ENDMDL
MODEL 3
REMARK VINA RESULT:     -11.0      4.329      7.426
REMARK SMILES Cc1cccc(C)c1Nc1ccccc1CC(=O)NCCCCNC(=O)c1ccc(-c2c3nc(c(-c4ccc(S(=O)(=O)[O-])cc4)c4ccc([nH]4)c(-c4ccc(S(=O)(=O)[O-])cc4)c4nc(c(-c5ccc(S(=O)(=O)[O-])cc5)c5ccc2[nH]5)C=C4)C=C3)cc1
REMARK SMILES IDX 21 1 20 2 19 3 17 4 18 5 16 7 15 8 10 9 11 10 12 11 14 12
REMARK SMILES IDX 13 13 9 14 8 16 1 17 2 18 3 19 4 20 6 21 5 22 7 23 22 24
REMARK SMILES IDX 23 25 24 26 25 27 26 29 27 30 28 31 86 32 29 33 85 34 30 35
REMARK SMILES IDX 31 36 32 37 79 38 33 39 84 40 78 41 80 42 34 43 83 44 77 45
REMARK SMILES IDX 76 46 35 48 65 49 46 50 64 51 47 52 50 53 63 54 81 55 48 56
REMARK SMILES IDX 49 57 62 59 82 60 51 61 36 62 37 63 45 64 38 65 44 66 39 67
REMARK SMILES IDX 40 68 41 69 42 70 43 71 66 72 67 73 75 74 68 75 74 76 69 77
REMARK SMILES IDX 70 78 71 79 72 80 73 81 52 82 53 83 61 84 54 85 60 86 55 87
REMARK SMILES IDX 56 88 57 89 58 90 59 91
REMARK H PARENT 19 6 9 15 24 28 80 47 50 58
REMARK Flexibility Score: inf
ROOT
ATOM      1  C   UNL A   1      36.941  33.517  29.526  1.00  0.00     0.023 C 
ENDROOT
BRANCH   1   2
ATOM      2  C   UNL A   1      37.519  33.476  30.940  1.00  0.00     0.116 C 
BRANCH   2   3
ATOM      3  N   UNL A   1      36.663  34.163  31.884  1.00  0.00    -0.356 N 
ATOM      4  C   UNL A   1      36.991  34.639  33.122  1.00  0.00     0.224 C 
ATOM      5  O   UNL A   1      36.093  35.087  33.840  1.00  0.00    -0.275 OA
ATOM      6  H   UNL A   1      35.730  34.303  31.600  1.00  0.00     0.163 HD
BRANCH   4   7
ATOM      7  C   UNL A   1      38.444  34.652  33.568  1.00  0.00     0.137 C 
BRANCH   7   8
ATOM      8  C   UNL A   1      38.717  33.869  34.837  1.00  0.00    -0.015 A 
ATOM      9  C   UNL A   1      39.068  32.502  34.839  1.00  0.00     0.042 A 
ATOM     10  C   UNL A   1      39.173  31.834  36.074  1.00  0.00     0.026 A 
ATOM     11  C   UNL A   1      38.979  32.500  37.284  1.00  0.00     0.002 A 
ATOM     12  C   UNL A   1      38.555  34.536  36.071  1.00  0.00     0.006 A 
ATOM     13  C   UNL A   1      38.683  33.857  37.282  1.00  0.00     0.000 A 
BRANCH   9  14
ATOM     14  N   UNL A   1      39.369  31.750  33.686  1.00  0.00    -0.355 N 
ATOM     15  H   UNL A   1      39.713  32.295  32.941  1.00  0.00     0.167 HD
BRANCH  14  16
ATOM     16  C   UNL A   1      39.278  30.373  33.380  1.00  0.00     0.044 A 
ATOM     17  C   UNL A   1      36.795  30.734  32.865  1.00  0.00     0.046 C 
ATOM     18  C   UNL A   1      38.024  29.864  32.945  1.00  0.00    -0.027 A 
ATOM     19  C   UNL A   1      37.906  28.523  32.541  1.00  0.00     0.005 A 
ATOM     20  C   UNL A   1      39.009  27.680  32.557  1.00  0.00     0.001 A 
ATOM     21  C   UNL A   1      40.383  29.490  33.438  1.00  0.00    -0.027 A 
ATOM     22  C   UNL A   1      40.235  28.161  33.000  1.00  0.00     0.005 A 
ATOM     23  C   UNL A   1      41.733  29.880  33.978  1.00  0.00     0.046 C 
ENDBRANCH  14  16
ENDBRANCH   9  14
ENDBRANCH   7   8
ENDBRANCH   4   7
ENDBRANCH   2   3
ENDBRANCH   1   2
BRANCH   1  24
ATOM     24  C   UNL A   1      35.504  33.003  29.414  1.00  0.00     0.023 C 
BRANCH  24  25
ATOM     25  C   UNL A   1      34.974  32.896  27.990  1.00  0.00     0.116 C 
BRANCH  25  26
ATOM     26  N   UNL A   1      34.064  31.777  27.808  1.00  0.00    -0.352 N 
ATOM     27  C   UNL A   1      34.354  30.435  27.788  1.00  0.00     0.251 C 
ATOM     28  H   UNL A   1      33.116  32.012  27.681  1.00  0.00     0.163 HD
ATOM     29  O   UNL A   1      33.482  29.622  27.495  1.00  0.00    -0.269 OA
BRANCH  27  30
ATOM     30  C   UNL A   1      35.730  29.986  28.087  1.00  0.00     0.039 A 
ATOM     31  C   UNL A   1      36.707  30.116  27.099  1.00  0.00     0.014 A 
ATOM     32  C   UNL A   1      36.057  29.459  29.339  1.00  0.00     0.014 A 
ATOM     33  C   UNL A   1      38.026  29.762  27.385  1.00  0.00     0.010 A 
ATOM     34  C   UNL A   1      37.385  29.179  29.646  1.00  0.00     0.010 A 
ATOM     35  C   UNL A   1      38.381  29.315  28.670  1.00  0.00    -0.014 A 
BRANCH  35  36
ATOM     36  C   UNL A   1      39.789  28.972  28.994  1.00  0.00     0.031 A 
ATOM     37  C   UNL A   1      40.673  29.974  29.683  1.00  0.00     0.074 A 
ATOM     38  C   UNL A   1      40.278  27.768  28.638  1.00  0.00     0.049 A 
ATOM     39  N   UNL A   1      41.920  29.851  30.061  1.00  0.00    -0.248 NA
ATOM     40  C   UNL A   1      40.092  31.298  29.961  1.00  0.00     0.031 C 
ATOM     41  C   UNL A   1      39.536  26.729  27.918  1.00  0.00     0.029 A 
ATOM     42  N   UNL A   1      41.516  27.210  28.839  1.00  0.00    -0.354 N 
ATOM     43  C   UNL A   1      42.272  31.077  30.612  1.00  0.00     0.074 A 
ATOM     44  C   UNL A   1      41.130  31.951  30.464  1.00  0.00     0.031 C 
ATOM     45  C   UNL A   1      40.320  25.648  27.775  1.00  0.00     0.029 A 
ATOM     46  C   UNL A   1      41.626  25.925  28.365  1.00  0.00     0.049 A 
ATOM     47  H   UNL A   1      42.254  27.686  29.283  1.00  0.00     0.167 HD
ATOM     48  C   UNL A   1      43.432  31.438  31.211  1.00  0.00     0.031 A 
ATOM     49  C   UNL A   1      42.659  25.062  28.409  1.00  0.00     0.031 A 
ATOM     50  C   UNL A   1      44.566  30.566  31.364  1.00  0.00     0.049 A 
ATOM     51  C   UNL A   1      43.931  25.480  29.093  1.00  0.00     0.074 A 
ATOM     52  C   UNL A   1      45.770  30.819  31.995  1.00  0.00     0.029 A 
ATOM     53  N   UNL A   1      44.633  29.267  30.881  1.00  0.00    -0.354 N 
ATOM     54  N   UNL A   1      44.223  26.624  29.667  1.00  0.00    -0.248 NA
ATOM     55  C   UNL A   1      45.007  24.481  29.154  1.00  0.00     0.031 C 
ATOM     56  C   UNL A   1      46.583  29.688  31.858  1.00  0.00     0.029 A 
ATOM     57  C   UNL A   1      45.863  28.710  31.189  1.00  0.00     0.049 A 
ATOM     58  H   UNL A   1      43.913  28.808  30.391  1.00  0.00     0.167 HD
ATOM     59  C   UNL A   1      45.505  26.471  30.185  1.00  0.00     0.074 A 
ATOM     60  C   UNL A   1      45.922  25.119  29.871  1.00  0.00     0.031 C 
ATOM     61  C   UNL A   1      46.265  27.366  30.864  1.00  0.00     0.031 A 
BRANCH  48  62
ATOM     62  C   UNL A   1      43.526  32.845  31.745  1.00  0.00    -0.014 A 
ATOM     63  C   UNL A   1      43.125  33.149  33.059  1.00  0.00     0.010 A 
ATOM     64  C   UNL A   1      44.041  33.872  30.933  1.00  0.00     0.010 A 
ATOM     65  C   UNL A   1      43.190  34.461  33.535  1.00  0.00     0.020 A 
ATOM     66  C   UNL A   1      44.136  35.180  31.415  1.00  0.00     0.020 A 
ATOM     67  C   UNL A   1      43.691  35.470  32.707  1.00  0.00     0.054 A 
BRANCH  67  68
ATOM     68  S   UNL A   1      43.777  37.162  33.354  1.00  0.00     0.124 S 
ATOM     69  O   UNL A   1      45.049  37.144  34.074  1.00  0.00    -0.237 OA
ATOM     70  O   UNL A   1      43.756  37.972  32.140  1.00  0.00    -0.237 OA
ATOM     71  O   UNL A   1      42.588  37.273  34.195  1.00  0.00    -0.744 OA
ENDBRANCH  67  68
ENDBRANCH  48  62
BRANCH  49  72
ATOM     72  C   UNL A   1      42.517  23.699  27.827  1.00  0.00    -0.014 A 
ATOM     73  C   UNL A   1      41.889  22.674  28.556  1.00  0.00     0.010 A 
ATOM     74  C   UNL A   1      43.000  23.422  26.535  1.00  0.00     0.010 A 
ATOM     75  C   UNL A   1      41.768  21.391  28.014  1.00  0.00     0.020 A 
ATOM     76  C   UNL A   1      42.855  22.148  25.979  1.00  0.00     0.020 A 
ATOM     77  C   UNL A   1      42.251  21.137  26.729  1.00  0.00     0.054 A 
BRANCH  77  78
ATOM     78  S   UNL A   1      42.038  19.477  26.025  1.00  0.00     0.124 S 
ATOM     79  O   UNL A   1      42.882  19.542  24.837  1.00  0.00    -0.237 OA
ATOM     80  O   UNL A   1      42.522  18.615  27.101  1.00  0.00    -0.237 OA
ATOM     81  O   UNL A   1      40.602  19.395  25.772  1.00  0.00    -0.744 OA
ENDBRANCH  77  78
ENDBRANCH  49  72
BRANCH  61  82
ATOM     82  C   UNL A   1      47.612  26.893  31.345  1.00  0.00    -0.014 A 
ATOM     83  C   UNL A   1      47.760  26.226  32.574  1.00  0.00     0.010 A 
ATOM     84  C   UNL A   1      48.747  27.109  30.541  1.00  0.00     0.010 A 
ATOM     85  C   UNL A   1      49.026  25.834  33.016  1.00  0.00     0.020 A 
ATOM     86  C   UNL A   1      50.009  26.690  30.965  1.00  0.00     0.020 A 
ATOM     87  C   UNL A   1      50.144  26.076  32.212  1.00  0.00     0.054 A 
BRANCH  87  88
ATOM     88  S   UNL A   1      51.778  25.556  32.803  1.00  0.00     0.124 S 
ATOM     89  O   UNL A   1      52.511  25.382  31.551  1.00  0.00    -0.237 OA
ATOM     90  O   UNL A   1      52.199  26.687  33.625  1.00  0.00    -0.237 OA
ATOM     91  O   UNL A   1      51.503  24.325  33.541  1.00  0.00    -0.744 OA
ENDBRANCH  87  88
ENDBRANCH  61  82
ENDBRANCH  35  36
ENDBRANCH  27  30
ENDBRANCH  25  26
ENDBRANCH  24  25
ENDBRANCH   1  24
TORSDOF 17
ENDMDL
