MODEL 1
REMARK VINA RESULT:     -11.6      0.000      0.000
REMARK SMILES O=C(NCCCCNC(=O)c1ccc(-c2c3nc(c(-c4ccc(S(=O)(=O)[O-])cc4)c4ccc([nH]4)c(-c4ccc(S(=O)(=O)[O-])cc4)c4nc(c(-c5ccc(S(=O)(=O)[O-])cc5)c5ccc2[nH]5)C=C4)C=C3)cc1)C1=Cc2c(Cl)ccc(Cl)c2O[C@@H]1C(F)(F)F
REMARK SMILES IDX 6 1 5 2 4 3 3 4 1 5 2 6 71 8 72 9 82 10 73 11 81 12 74 13
REMARK SMILES IDX 80 14 75 15 76 16 78 17 77 18 79 19 83 20 84 21 85 22 86 23
REMARK SMILES IDX 7 24 8 25 9 26 10 28 11 29 12 30 70 31 13 32 69 33 14 34
REMARK SMILES IDX 15 35 16 36 63 37 17 38 68 39 62 40 64 41 18 42 67 43 61 44
REMARK SMILES IDX 60 45 19 47 49 48 30 49 48 50 31 51 34 52 47 53 65 54 32 55
REMARK SMILES IDX 33 56 46 58 66 59 35 60 20 61 21 62 29 63 22 64 28 65 23 66
REMARK SMILES IDX 24 67 25 68 26 69 27 70 50 71 51 72 59 73 52 74 58 75 53 76
REMARK SMILES IDX 54 77 55 78 56 79 57 80 36 81 37 82 45 83 38 84 44 85 39 86
REMARK SMILES IDX 40 87 41 88 42 89 43 90
REMARK H PARENT 3 7 8 27 64 46 34 57
REMARK Flexibility Score: inf
ROOT
ATOM      1  C   UNL A   1      32.254  28.638  26.325  1.00  0.00     0.023 C 
ENDROOT
BRANCH   1   2
ATOM      2  C   UNL A   1      31.403  27.434  26.725  1.00  0.00     0.023 C 
BRANCH   2   3
ATOM      3  C   UNL A   1      31.833  26.108  26.101  1.00  0.00     0.116 C 
BRANCH   3   4
ATOM      4  N   UNL A   1      31.682  24.945  26.977  1.00  0.00    -0.352 N 
ATOM      5  O   UNL A   1      32.216  22.885  27.785  1.00  0.00    -0.270 OA
ATOM      6  C   UNL A   1      32.236  23.687  26.861  1.00  0.00     0.251 C 
ATOM      7  H   UNL A   1      31.102  25.080  27.761  1.00  0.00     0.163 HD
BRANCH   6   8
ATOM      8  C   UNL A   1      32.948  23.372  25.606  1.00  0.00     0.067 C 
ATOM      9  C   UNL A   1      34.235  23.727  25.497  1.00  0.00     0.027 C 
ATOM     10  C   UNL A   1      32.318  22.379  24.689  1.00  0.00     0.314 C 
ATOM     11  C   UNL A   1      35.112  22.615  25.061  1.00  0.00     0.037 A 
ATOM     12  O   UNL A   1      33.161  21.223  24.502  1.00  0.00    -0.474 OA
ATOM     13  C   UNL A   1      36.484  22.633  25.389  1.00  0.00     0.052 A 
ATOM     14  C   UNL A   1      34.514  21.376  24.718  1.00  0.00     0.148 A 
ATOM     15  Cl  UNL A   1      37.301  24.073  25.895  1.00  0.00    -0.084 Cl
ATOM     16  C   UNL A   1      37.213  21.442  25.451  1.00  0.00     0.023 A 
ATOM     17  C   UNL A   1      35.269  20.193  24.759  1.00  0.00     0.083 A 
ATOM     18  C   UNL A   1      36.605  20.224  25.152  1.00  0.00     0.026 A 
ATOM     19  Cl  UNL A   1      34.541  18.653  24.470  1.00  0.00    -0.080 Cl
BRANCH  10  20
ATOM     20  C   UNL A   1      31.958  23.014  23.335  1.00  0.00     0.429 C 
ATOM     21  F   UNL A   1      31.380  24.228  23.498  1.00  0.00    -0.167 F 
ATOM     22  F   UNL A   1      33.047  23.201  22.553  1.00  0.00    -0.167 F 
ATOM     23  F   UNL A   1      31.086  22.253  22.628  1.00  0.00    -0.167 F 
ENDBRANCH  10  20
ENDBRANCH   6   8
ENDBRANCH   3   4
ENDBRANCH   2   3
ENDBRANCH   1   2
BRANCH   1  24
ATOM     24  C   UNL A   1      33.501  28.905  27.170  1.00  0.00     0.116 C 
BRANCH  24  25
ATOM     25  N   UNL A   1      33.580  30.248  27.730  1.00  0.00    -0.352 N 
ATOM     26  C   UNL A   1      34.660  30.863  28.339  1.00  0.00     0.251 C 
ATOM     27  H   UNL A   1      32.759  30.787  27.667  1.00  0.00     0.163 HD
ATOM     28  O   UNL A   1      34.564  31.990  28.790  1.00  0.00    -0.269 OA
BRANCH  26  29
ATOM     29  C   UNL A   1      35.918  30.094  28.475  1.00  0.00     0.039 A 
ATOM     30  C   UNL A   1      36.820  30.077  27.408  1.00  0.00     0.014 A 
ATOM     31  C   UNL A   1      36.253  29.516  29.700  1.00  0.00     0.014 A 
ATOM     32  C   UNL A   1      38.113  29.584  27.609  1.00  0.00     0.010 A 
ATOM     33  C   UNL A   1      37.561  29.093  29.917  1.00  0.00     0.010 A 
ATOM     34  C   UNL A   1      38.512  29.150  28.884  1.00  0.00    -0.014 A 
BRANCH  34  35
ATOM     35  C   UNL A   1      39.925  28.797  29.191  1.00  0.00     0.031 A 
ATOM     36  C   UNL A   1      40.860  29.849  29.723  1.00  0.00     0.074 A 
ATOM     37  C   UNL A   1      40.399  27.575  28.866  1.00  0.00     0.049 A 
ATOM     38  N   UNL A   1      42.157  29.796  29.880  1.00  0.00    -0.248 NA
ATOM     39  C   UNL A   1      40.261  31.143  30.091  1.00  0.00     0.031 C 
ATOM     40  C   UNL A   1      39.613  26.478  28.293  1.00  0.00     0.029 A 
ATOM     41  N   UNL A   1      41.669  27.057  28.947  1.00  0.00    -0.354 N 
ATOM     42  C   UNL A   1      42.537  31.060  30.316  1.00  0.00     0.074 A 
ATOM     43  C   UNL A   1      41.336  31.865  30.379  1.00  0.00     0.031 C 
ATOM     44  C   UNL A   1      40.413  25.420  28.086  1.00  0.00     0.029 A 
ATOM     45  C   UNL A   1      41.777  25.771  28.467  1.00  0.00     0.049 A 
ATOM     46  H   UNL A   1      42.432  27.559  29.316  1.00  0.00     0.167 HD
ATOM     47  C   UNL A   1      43.771  31.508  30.642  1.00  0.00     0.031 A 
ATOM     48  C   UNL A   1      42.854  24.971  28.330  1.00  0.00     0.031 A 
ATOM     49  C   UNL A   1      44.954  30.691  30.633  1.00  0.00     0.049 A 
ATOM     50  C   UNL A   1      44.207  25.482  28.743  1.00  0.00     0.074 A 
ATOM     51  C   UNL A   1      46.233  31.030  31.043  1.00  0.00     0.029 A 
ATOM     52  N   UNL A   1      45.005  29.376  30.204  1.00  0.00    -0.354 N 
ATOM     53  N   UNL A   1      44.530  26.658  29.225  1.00  0.00    -0.248 NA
ATOM     54  C   UNL A   1      45.341  24.556  28.601  1.00  0.00     0.031 C 
ATOM     55  C   UNL A   1      47.065  29.929  30.827  1.00  0.00     0.029 A 
ATOM     56  C   UNL A   1      46.296  28.892  30.323  1.00  0.00     0.049 A 
ATOM     57  H   UNL A   1      44.238  28.861  29.864  1.00  0.00     0.167 HD
ATOM     58  C   UNL A   1      45.898  26.600  29.472  1.00  0.00     0.074 A 
ATOM     59  C   UNL A   1      46.340  25.275  29.095  1.00  0.00     0.031 C 
ATOM     60  C   UNL A   1      46.714  27.561  29.968  1.00  0.00     0.031 A 
BRANCH  47  61
ATOM     61  C   UNL A   1      43.913  32.950  31.042  1.00  0.00    -0.014 A 
ATOM     62  C   UNL A   1      43.840  33.341  32.391  1.00  0.00     0.010 A 
ATOM     63  C   UNL A   1      44.194  33.919  30.061  1.00  0.00     0.010 A 
ATOM     64  C   UNL A   1      44.018  34.680  32.748  1.00  0.00     0.020 A 
ATOM     65  C   UNL A   1      44.396  35.254  30.417  1.00  0.00     0.020 A 
ATOM     66  C   UNL A   1      44.294  35.628  31.758  1.00  0.00     0.054 A 
BRANCH  66  67
ATOM     67  S   UNL A   1      44.570  37.351  32.256  1.00  0.00     0.124 S 
ATOM     68  O   UNL A   1      44.709  38.018  30.964  1.00  0.00    -0.237 OA
ATOM     69  O   UNL A   1      43.354  37.670  32.999  1.00  0.00    -0.237 OA
ATOM     70  O   UNL A   1      45.789  37.288  33.059  1.00  0.00    -0.744 OA
ENDBRANCH  66  67
ENDBRANCH  47  61
BRANCH  48  71
ATOM     71  C   UNL A   1      42.708  23.597  27.774  1.00  0.00    -0.014 A 
ATOM     72  C   UNL A   1      42.876  23.367  26.397  1.00  0.00     0.010 A 
ATOM     73  C   UNL A   1      42.369  22.519  28.612  1.00  0.00     0.010 A 
ATOM     74  C   UNL A   1      42.673  22.092  25.861  1.00  0.00     0.020 A 
ATOM     75  C   UNL A   1      42.190  21.237  28.082  1.00  0.00     0.020 A 
ATOM     76  C   UNL A   1      42.324  21.036  26.706  1.00  0.00     0.054 A 
BRANCH  76  77
ATOM     77  S   UNL A   1      42.083  19.384  25.997  1.00  0.00     0.124 S 
ATOM     78  O   UNL A   1      42.553  18.521  27.076  1.00  0.00    -0.237 OA
ATOM     79  O   UNL A   1      40.644  19.353  25.742  1.00  0.00    -0.237 OA
ATOM     80  O   UNL A   1      42.919  19.405  24.799  1.00  0.00    -0.744 OA
ENDBRANCH  76  77
ENDBRANCH  48  71
BRANCH  60  81
ATOM     81  C   UNL A   1      48.158  27.206  30.186  1.00  0.00    -0.014 A 
ATOM     82  C   UNL A   1      49.131  27.487  29.212  1.00  0.00     0.010 A 
ATOM     83  C   UNL A   1      48.555  26.657  31.419  1.00  0.00     0.010 A 
ATOM     84  C   UNL A   1      50.477  27.208  29.462  1.00  0.00     0.020 A 
ATOM     85  C   UNL A   1      49.901  26.398  31.681  1.00  0.00     0.020 A 
ATOM     86  C   UNL A   1      50.855  26.668  30.696  1.00  0.00     0.054 A 
BRANCH  86  87
ATOM     87  S   UNL A   1      52.614  26.379  31.026  1.00  0.00     0.124 S 
ATOM     88  O   UNL A   1      53.161  26.266  29.676  1.00  0.00    -0.237 OA
ATOM     89  O   UNL A   1      53.005  27.578  31.764  1.00  0.00    -0.237 OA
ATOM     90  O   UNL A   1      52.621  25.145  31.807  1.00  0.00    -0.744 OA
ENDBRANCH  86  87
ENDBRANCH  60  81
ENDBRANCH  34  35
ENDBRANCH  26  29
ENDBRANCH  24  25
ENDBRANCH   1  24
TORSDOF 15
ENDMDL
MODEL 2
REMARK VINA RESULT:     -11.4      1.868      3.025
REMARK SMILES O=C(NCCCCNC(=O)c1ccc(-c2c3nc(c(-c4ccc(S(=O)(=O)[O-])cc4)c4ccc([nH]4)c(-c4ccc(S(=O)(=O)[O-])cc4)c4nc(c(-c5ccc(S(=O)(=O)[O-])cc5)c5ccc2[nH]5)C=C4)C=C3)cc1)C1=Cc2c(Cl)ccc(Cl)c2O[C@@H]1C(F)(F)F
REMARK SMILES IDX 6 1 5 2 4 3 3 4 1 5 2 6 71 8 72 9 82 10 73 11 81 12 74 13
REMARK SMILES IDX 80 14 75 15 76 16 78 17 77 18 79 19 83 20 84 21 85 22 86 23
REMARK SMILES IDX 7 24 8 25 9 26 10 28 11 29 12 30 70 31 13 32 69 33 14 34
REMARK SMILES IDX 15 35 16 36 63 37 17 38 68 39 62 40 64 41 18 42 67 43 61 44
REMARK SMILES IDX 60 45 19 47 49 48 30 49 48 50 31 51 34 52 47 53 65 54 32 55
REMARK SMILES IDX 33 56 46 58 66 59 35 60 20 61 21 62 29 63 22 64 28 65 23 66
REMARK SMILES IDX 24 67 25 68 26 69 27 70 50 71 51 72 59 73 52 74 58 75 53 76
REMARK SMILES IDX 54 77 55 78 56 79 57 80 36 81 37 82 45 83 38 84 44 85 39 86
REMARK SMILES IDX 40 87 41 88 42 89 43 90
REMARK H PARENT 3 7 8 27 64 46 34 57
REMARK Flexibility Score: inf
ROOT
ATOM      1  C   UNL A   1      32.143  28.936  26.435  1.00  0.00     0.023 C 
ENDROOT
BRANCH   1   2
ATOM      2  C   UNL A   1      31.456  27.581  26.587  1.00  0.00     0.023 C 
BRANCH   2   3
ATOM      3  C   UNL A   1      32.401  26.382  26.618  1.00  0.00     0.116 C 
BRANCH   3   4
ATOM      4  N   UNL A   1      31.748  25.098  26.880  1.00  0.00    -0.352 N 
ATOM      5  O   UNL A   1      30.996  23.017  26.348  1.00  0.00    -0.270 OA
ATOM      6  C   UNL A   1      31.309  24.143  25.988  1.00  0.00     0.251 C 
ATOM      7  H   UNL A   1      31.600  24.886  27.831  1.00  0.00     0.163 HD
BRANCH   6   8
ATOM      8  C   UNL A   1      31.325  24.497  24.553  1.00  0.00     0.067 C 
ATOM      9  C   UNL A   1      30.280  25.168  24.051  1.00  0.00     0.027 C 
ATOM     10  C   UNL A   1      32.630  24.408  23.837  1.00  0.00     0.314 C 
ATOM     11  C   UNL A   1      30.675  26.378  23.292  1.00  0.00     0.037 A 
ATOM     12  O   UNL A   1      33.038  25.692  23.321  1.00  0.00    -0.474 OA
ATOM     13  C   UNL A   1      29.766  27.448  23.155  1.00  0.00     0.052 A 
ATOM     14  C   UNL A   1      32.056  26.632  23.093  1.00  0.00     0.148 A 
ATOM     15  Cl  UNL A   1      28.068  27.272  23.447  1.00  0.00    -0.084 Cl
ATOM     16  C   UNL A   1      30.230  28.744  22.909  1.00  0.00     0.023 A 
ATOM     17  C   UNL A   1      32.501  27.935  22.819  1.00  0.00     0.083 A 
ATOM     18  C   UNL A   1      31.594  28.990  22.757  1.00  0.00     0.026 A 
ATOM     19  Cl  UNL A   1      34.185  28.301  22.698  1.00  0.00    -0.080 Cl
BRANCH  10  20
ATOM     20  C   UNL A   1      32.584  23.359  22.712  1.00  0.00     0.429 C 
ATOM     21  F   UNL A   1      31.371  22.761  22.646  1.00  0.00    -0.167 F 
ATOM     22  F   UNL A   1      32.817  23.906  21.496  1.00  0.00    -0.167 F 
ATOM     23  F   UNL A   1      33.501  22.377  22.890  1.00  0.00    -0.167 F 
ENDBRANCH  10  20
ENDBRANCH   6   8
ENDBRANCH   3   4
ENDBRANCH   2   3
ENDBRANCH   1   2
BRANCH   1  24
ATOM     24  C   UNL A   1      33.392  29.169  27.286  1.00  0.00     0.116 C 
BRANCH  24  25
ATOM     25  N   UNL A   1      33.516  30.515  27.829  1.00  0.00    -0.352 N 
ATOM     26  C   UNL A   1      34.620  31.107  28.418  1.00  0.00     0.251 C 
ATOM     27  H   UNL A   1      32.709  31.076  27.771  1.00  0.00     0.163 HD
ATOM     28  O   UNL A   1      34.562  32.241  28.858  1.00  0.00    -0.269 OA
BRANCH  26  29
ATOM     29  C   UNL A   1      35.859  30.305  28.545  1.00  0.00     0.039 A 
ATOM     30  C   UNL A   1      36.759  30.275  27.478  1.00  0.00     0.014 A 
ATOM     31  C   UNL A   1      36.179  29.708  29.766  1.00  0.00     0.014 A 
ATOM     32  C   UNL A   1      38.039  29.747  27.674  1.00  0.00     0.010 A 
ATOM     33  C   UNL A   1      37.476  29.250  29.978  1.00  0.00     0.010 A 
ATOM     34  C   UNL A   1      38.429  29.292  28.944  1.00  0.00    -0.014 A 
BRANCH  34  35
ATOM     35  C   UNL A   1      39.832  28.901  29.247  1.00  0.00     0.031 A 
ATOM     36  C   UNL A   1      40.790  29.920  29.801  1.00  0.00     0.074 A 
ATOM     37  C   UNL A   1      40.279  27.675  28.900  1.00  0.00     0.049 A 
ATOM     38  N   UNL A   1      42.085  29.834  29.959  1.00  0.00    -0.248 NA
ATOM     39  C   UNL A   1      40.221  31.221  30.192  1.00  0.00     0.031 C 
ATOM     40  C   UNL A   1      39.468  26.607  28.305  1.00  0.00     0.029 A 
ATOM     41  N   UNL A   1      41.536  27.125  28.973  1.00  0.00    -0.354 N 
ATOM     42  C   UNL A   1      42.493  31.081  30.419  1.00  0.00     0.074 A 
ATOM     43  C   UNL A   1      41.311  31.912  30.495  1.00  0.00     0.031 C 
ATOM     44  C   UNL A   1      40.244  25.534  28.079  1.00  0.00     0.029 A 
ATOM     45  C   UNL A   1      41.615  25.846  28.469  1.00  0.00     0.049 A 
ATOM     46  H   UNL A   1      42.310  27.602  29.353  1.00  0.00     0.167 HD
ATOM     47  C   UNL A   1      43.737  31.493  30.756  1.00  0.00     0.031 A 
ATOM     48  C   UNL A   1      42.673  25.024  28.319  1.00  0.00     0.031 A 
ATOM     49  C   UNL A   1      44.901  30.650  30.734  1.00  0.00     0.049 A 
ATOM     50  C   UNL A   1      44.037  25.496  28.744  1.00  0.00     0.074 A 
ATOM     51  C   UNL A   1      46.186  30.951  31.152  1.00  0.00     0.029 A 
ATOM     52  N   UNL A   1      44.922  29.342  30.280  1.00  0.00    -0.354 N 
ATOM     53  N   UNL A   1      44.386  26.655  29.248  1.00  0.00    -0.248 NA
ATOM     54  C   UNL A   1      45.150  24.547  28.586  1.00  0.00     0.031 C 
ATOM     55  C   UNL A   1      46.993  29.835  30.916  1.00  0.00     0.029 A 
ATOM     56  C   UNL A   1      46.201  28.826  30.391  1.00  0.00     0.049 A 
ATOM     57  H   UNL A   1      44.144  28.852  29.929  1.00  0.00     0.167 HD
ATOM     58  C   UNL A   1      45.751  26.561  29.497  1.00  0.00     0.074 A 
ATOM     59  C   UNL A   1      46.163  25.233  29.096  1.00  0.00     0.031 C 
ATOM     60  C   UNL A   1      46.588  27.493  30.012  1.00  0.00     0.031 A 
BRANCH  47  61
ATOM     61  C   UNL A   1      43.912  32.925  31.183  1.00  0.00    -0.014 A 
ATOM     62  C   UNL A   1      43.811  33.296  32.536  1.00  0.00     0.010 A 
ATOM     63  C   UNL A   1      44.251  33.899  30.226  1.00  0.00     0.010 A 
ATOM     64  C   UNL A   1      44.019  34.623  32.920  1.00  0.00     0.020 A 
ATOM     65  C   UNL A   1      44.484  35.222  30.610  1.00  0.00     0.020 A 
ATOM     66  C   UNL A   1      44.354  35.578  31.954  1.00  0.00     0.054 A 
BRANCH  66  67
ATOM     67  S   UNL A   1      44.668  37.283  32.487  1.00  0.00     0.124 S 
ATOM     68  O   UNL A   1      44.173  37.262  33.862  1.00  0.00    -0.237 OA
ATOM     69  O   UNL A   1      46.116  37.404  32.343  1.00  0.00    -0.237 OA
ATOM     70  O   UNL A   1      43.882  38.088  31.554  1.00  0.00    -0.744 OA
ENDBRANCH  66  67
ENDBRANCH  47  61
BRANCH  48  71
ATOM     71  C   UNL A   1      42.497  23.665  27.737  1.00  0.00    -0.014 A 
ATOM     72  C   UNL A   1      42.186  22.573  28.567  1.00  0.00     0.010 A 
ATOM     73  C   UNL A   1      42.671  23.449  26.358  1.00  0.00     0.010 A 
ATOM     74  C   UNL A   1      42.087  21.284  28.034  1.00  0.00     0.020 A 
ATOM     75  C   UNL A   1      42.548  22.165  25.818  1.00  0.00     0.020 A 
ATOM     76  C   UNL A   1      42.276  21.087  26.664  1.00  0.00     0.054 A 
BRANCH  76  77
ATOM     77  S   UNL A   1      42.126  19.410  25.987  1.00  0.00     0.124 S 
ATOM     78  O   UNL A   1      42.911  19.509  24.761  1.00  0.00    -0.237 OA
ATOM     79  O   UNL A   1      42.704  18.585  27.046  1.00  0.00    -0.237 OA
ATOM     80  O   UNL A   1      40.685  19.249  25.800  1.00  0.00    -0.744 OA
ENDBRANCH  76  77
ENDBRANCH  48  71
BRANCH  60  81
ATOM     81  C   UNL A   1      48.023  27.101  30.226  1.00  0.00    -0.014 A 
ATOM     82  C   UNL A   1      49.016  27.435  29.289  1.00  0.00     0.010 A 
ATOM     83  C   UNL A   1      48.392  26.458  31.422  1.00  0.00     0.010 A 
ATOM     84  C   UNL A   1      50.354  27.117  29.539  1.00  0.00     0.020 A 
ATOM     85  C   UNL A   1      49.730  26.160  31.685  1.00  0.00     0.020 A 
ATOM     86  C   UNL A   1      50.703  26.484  30.737  1.00  0.00     0.054 A 
BRANCH  86  87
ATOM     87  S   UNL A   1      52.453  26.145  31.071  1.00  0.00     0.124 S 
ATOM     88  O   UNL A   1      52.875  27.369  31.746  1.00  0.00    -0.237 OA
ATOM     89  O   UNL A   1      52.395  24.951  31.912  1.00  0.00    -0.237 OA
ATOM     90  O   UNL A   1      53.024  25.935  29.743  1.00  0.00    -0.744 OA
ENDBRANCH  86  87
ENDBRANCH  60  81
ENDBRANCH  34  35
ENDBRANCH  26  29
ENDBRANCH  24  25
ENDBRANCH   1  24
TORSDOF 15
ENDMDL
MODEL 3
REMARK VINA RESULT:     -11.4      4.577     10.756
REMARK SMILES O=C(NCCCCNC(=O)c1ccc(-c2c3nc(c(-c4ccc(S(=O)(=O)[O-])cc4)c4ccc([nH]4)c(-c4ccc(S(=O)(=O)[O-])cc4)c4nc(c(-c5ccc(S(=O)(=O)[O-])cc5)c5ccc2[nH]5)C=C4)C=C3)cc1)C1=Cc2c(Cl)ccc(Cl)c2O[C@@H]1C(F)(F)F
REMARK SMILES IDX 6 1 5 2 4 3 3 4 1 5 2 6 71 8 72 9 82 10 73 11 81 12 74 13
REMARK SMILES IDX 80 14 75 15 76 16 78 17 77 18 79 19 83 20 84 21 85 22 86 23
REMARK SMILES IDX 7 24 8 25 9 26 10 28 11 29 12 30 70 31 13 32 69 33 14 34
REMARK SMILES IDX 15 35 16 36 63 37 17 38 68 39 62 40 64 41 18 42 67 43 61 44
REMARK SMILES IDX 60 45 19 47 49 48 30 49 48 50 31 51 34 52 47 53 65 54 32 55
REMARK SMILES IDX 33 56 46 58 66 59 35 60 20 61 21 62 29 63 22 64 28 65 23 66
REMARK SMILES IDX 24 67 25 68 26 69 27 70 50 71 51 72 59 73 52 74 58 75 53 76
REMARK SMILES IDX 54 77 55 78 56 79 57 80 36 81 37 82 45 83 38 84 44 85 39 86
REMARK SMILES IDX 40 87 41 88 42 89 43 90
REMARK H PARENT 3 7 8 27 64 46 34 57
REMARK Flexibility Score: inf
ROOT
ATOM      1  C   UNL A   1      41.104  21.454  25.984  1.00  0.00     0.023 C 
ENDROOT
BRANCH   1   2
ATOM      2  C   UNL A   1      42.289  21.469  26.947  1.00  0.00     0.023 C 
BRANCH   2   3
ATOM      3  C   UNL A   1      42.375  22.706  27.839  1.00  0.00     0.116 C 
BRANCH   3   4
ATOM      4  N   UNL A   1      43.681  22.915  28.467  1.00  0.00    -0.352 N 
ATOM      5  O   UNL A   1      45.704  23.922  28.740  1.00  0.00    -0.270 OA
ATOM      6  C   UNL A   1      44.763  23.637  28.011  1.00  0.00     0.251 C 
ATOM      7  H   UNL A   1      43.804  22.476  29.340  1.00  0.00     0.163 HD
BRANCH   6   8
ATOM      8  C   UNL A   1      44.704  24.146  26.625  1.00  0.00     0.067 C 
ATOM      9  C   UNL A   1      44.187  25.364  26.415  1.00  0.00     0.027 C 
ATOM     10  C   UNL A   1      45.532  23.447  25.600  1.00  0.00     0.314 C 
ATOM     11  C   UNL A   1      45.064  26.237  25.600  1.00  0.00     0.037 A 
ATOM     12  O   UNL A   1      46.511  24.334  25.018  1.00  0.00    -0.474 OA
ATOM     13  C   UNL A   1      44.961  27.639  25.716  1.00  0.00     0.052 A 
ATOM     14  C   UNL A   1      46.255  25.687  25.061  1.00  0.00     0.148 A 
ATOM     15  Cl  UNL A   1      43.587  28.417  26.426  1.00  0.00    -0.084 Cl
ATOM     16  C   UNL A   1      46.043  28.459  25.380  1.00  0.00     0.023 A 
ATOM     17  C   UNL A   1      47.321  26.528  24.704  1.00  0.00     0.083 A 
ATOM     18  C   UNL A   1      47.225  27.905  24.891  1.00  0.00     0.026 A 
ATOM     19  Cl  UNL A   1      48.831  25.883  24.165  1.00  0.00    -0.080 Cl
BRANCH  10  20
ATOM     20  C   UNL A   1      44.655  22.812  24.507  1.00  0.00     0.429 C 
ATOM     21  F   UNL A   1      45.217  22.950  23.282  1.00  0.00    -0.167 F 
ATOM     22  F   UNL A   1      44.473  21.486  24.707  1.00  0.00    -0.167 F 
ATOM     23  F   UNL A   1      43.425  23.379  24.444  1.00  0.00    -0.167 F 
ENDBRANCH  10  20
ENDBRANCH   6   8
ENDBRANCH   3   4
ENDBRANCH   2   3
ENDBRANCH   1   2
BRANCH   1  24
ATOM     24  C   UNL A   1      39.710  21.443  26.613  1.00  0.00     0.116 C 
BRANCH  24  25
ATOM     25  N   UNL A   1      38.682  22.113  25.828  1.00  0.00    -0.352 N 
ATOM     26  C   UNL A   1      38.378  23.462  25.781  1.00  0.00     0.251 C 
ATOM     27  H   UNL A   1      38.131  21.530  25.257  1.00  0.00     0.163 HD
ATOM     28  O   UNL A   1      37.461  23.873  25.093  1.00  0.00    -0.269 OA
BRANCH  26  29
ATOM     29  C   UNL A   1      39.164  24.386  26.630  1.00  0.00     0.039 A 
ATOM     30  C   UNL A   1      40.107  25.222  26.029  1.00  0.00     0.014 A 
ATOM     31  C   UNL A   1      38.863  24.512  27.987  1.00  0.00     0.014 A 
ATOM     32  C   UNL A   1      40.664  26.272  26.765  1.00  0.00     0.010 A 
ATOM     33  C   UNL A   1      39.363  25.601  28.696  1.00  0.00     0.010 A 
ATOM     34  C   UNL A   1      40.245  26.509  28.084  1.00  0.00    -0.014 A 
BRANCH  34  35
ATOM     35  C   UNL A   1      40.664  27.720  28.841  1.00  0.00     0.031 A 
ATOM     36  C   UNL A   1      41.965  27.718  29.597  1.00  0.00     0.074 A 
ATOM     37  C   UNL A   1      39.817  28.766  28.958  1.00  0.00     0.049 A 
ATOM     38  N   UNL A   1      42.421  28.592  30.456  1.00  0.00    -0.248 NA
ATOM     39  C   UNL A   1      42.851  26.561  29.386  1.00  0.00     0.031 C 
ATOM     40  C   UNL A   1      38.501  28.876  28.320  1.00  0.00     0.029 A 
ATOM     41  N   UNL A   1      39.927  29.930  29.680  1.00  0.00    -0.354 N 
ATOM     42  C   UNL A   1      43.620  28.069  30.925  1.00  0.00     0.074 A 
ATOM     43  C   UNL A   1      43.811  26.792  30.272  1.00  0.00     0.031 C 
ATOM     44  C   UNL A   1      37.935  30.042  28.670  1.00  0.00     0.029 A 
ATOM     45  C   UNL A   1      38.821  30.746  29.591  1.00  0.00     0.049 A 
ATOM     46  H   UNL A   1      40.724  30.160  30.211  1.00  0.00     0.167 HD
ATOM     47  C   UNL A   1      44.487  28.607  31.814  1.00  0.00     0.031 A 
ATOM     48  C   UNL A   1      38.543  31.918  30.196  1.00  0.00     0.031 A 
ATOM     49  C   UNL A   1      44.324  29.900  32.420  1.00  0.00     0.049 A 
ATOM     50  C   UNL A   1      39.547  32.513  31.145  1.00  0.00     0.074 A 
ATOM     51  C   UNL A   1      45.199  30.572  33.256  1.00  0.00     0.029 A 
ATOM     52  N   UNL A   1      43.222  30.721  32.249  1.00  0.00    -0.354 N 
ATOM     53  N   UNL A   1      40.710  32.035  31.517  1.00  0.00    -0.248 NA
ATOM     54  C   UNL A   1      39.205  33.808  31.753  1.00  0.00     0.031 C 
ATOM     55  C   UNL A   1      44.609  31.785  33.620  1.00  0.00     0.029 A 
ATOM     56  C   UNL A   1      43.386  31.886  32.977  1.00  0.00     0.049 A 
ATOM     57  H   UNL A   1      42.438  30.508  31.694  1.00  0.00     0.167 HD
ATOM     58  C   UNL A   1      41.251  32.987  32.375  1.00  0.00     0.074 A 
ATOM     59  C   UNL A   1      40.294  34.069  32.463  1.00  0.00     0.031 C 
ATOM     60  C   UNL A   1      42.435  32.965  33.032  1.00  0.00     0.031 A 
BRANCH  47  61
ATOM     61  C   UNL A   1      45.700  27.801  32.190  1.00  0.00    -0.014 A 
ATOM     62  C   UNL A   1      45.634  26.810  33.185  1.00  0.00     0.010 A 
ATOM     63  C   UNL A   1      46.904  27.990  31.487  1.00  0.00     0.010 A 
ATOM     64  C   UNL A   1      46.760  26.041  33.490  1.00  0.00     0.020 A 
ATOM     65  C   UNL A   1      48.025  27.207  31.773  1.00  0.00     0.020 A 
ATOM     66  C   UNL A   1      47.949  26.245  32.782  1.00  0.00     0.054 A 
BRANCH  66  67
ATOM     67  S   UNL A   1      49.380  25.199  33.165  1.00  0.00     0.124 S 
ATOM     68  O   UNL A   1      50.276  26.146  33.823  1.00  0.00    -0.237 OA
ATOM     69  O   UNL A   1      48.806  24.173  34.032  1.00  0.00    -0.237 OA
ATOM     70  O   UNL A   1      49.824  24.727  31.855  1.00  0.00    -0.744 OA
ENDBRANCH  66  67
ENDBRANCH  47  61
BRANCH  48  71
ATOM     71  C   UNL A   1      37.255  32.618  29.931  1.00  0.00    -0.014 A 
ATOM     72  C   UNL A   1      37.145  33.518  28.856  1.00  0.00     0.010 A 
ATOM     73  C   UNL A   1      36.144  32.414  30.769  1.00  0.00     0.010 A 
ATOM     74  C   UNL A   1      35.959  34.228  28.645  1.00  0.00     0.020 A 
ATOM     75  C   UNL A   1      34.949  33.104  30.545  1.00  0.00     0.020 A 
ATOM     76  C   UNL A   1      34.871  34.022  29.495  1.00  0.00     0.054 A 
BRANCH  76  77
ATOM     77  S   UNL A   1      33.334  34.938  29.196  1.00  0.00     0.124 S 
ATOM     78  O   UNL A   1      32.742  34.978  30.529  1.00  0.00    -0.237 OA
ATOM     79  O   UNL A   1      33.819  36.216  28.679  1.00  0.00    -0.237 OA
ATOM     80  O   UNL A   1      32.630  34.108  28.220  1.00  0.00    -0.744 OA
ENDBRANCH  76  77
ENDBRANCH  48  71
BRANCH  60  81
ATOM     81  C   UNL A   1      42.795  34.165  33.862  1.00  0.00    -0.014 A 
ATOM     82  C   UNL A   1      42.471  34.229  35.228  1.00  0.00     0.010 A 
ATOM     83  C   UNL A   1      43.540  35.208  33.280  1.00  0.00     0.010 A 
ATOM     84  C   UNL A   1      42.873  35.325  35.995  1.00  0.00     0.020 A 
ATOM     85  C   UNL A   1      43.962  36.294  34.049  1.00  0.00     0.020 A 
ATOM     86  C   UNL A   1      43.618  36.350  35.402  1.00  0.00     0.054 A 
BRANCH  86  87
ATOM     87  S   UNL A   1      44.189  37.729  36.432  1.00  0.00     0.124 S 
ATOM     88  O   UNL A   1      45.570  37.346  36.713  1.00  0.00    -0.237 OA
ATOM     89  O   UNL A   1      44.023  38.882  35.550  1.00  0.00    -0.237 OA
ATOM     90  O   UNL A   1      43.287  37.698  37.581  1.00  0.00    -0.744 OA
ENDBRANCH  86  87
ENDBRANCH  60  81
ENDBRANCH  34  35
ENDBRANCH  26  29
ENDBRANCH  24  25
ENDBRANCH   1  24
TORSDOF 15
ENDMDL
