MODEL 1
REMARK VINA RESULT:     -11.2      0.000      0.000
REMARK SMILES CC[C@@H](C)[C@@H](NC(=O)Cn1nc(-c2ccc3ccccc3c2)ccc1=O)C(=O)NCCCCNC(=O)c1ccc(-c2c3nc(c(-c4ccc(S(=O)(=O)[O-])cc4)c4ccc([nH]4)c(-c4ccc(S(=O)(=O)[O-])cc4)c4nc(c(-c5ccc(S(=O)(=O)[O-])cc5)c5ccc2[nH]5)C=C4)C=C3)cc1
REMARK SMILES IDX 31 1 30 2 29 3 27 4 28 5 5 7 3 8 4 9 2 10 1 11 6 12 7 13
REMARK SMILES IDX 8 15 9 16 10 17 11 18 25 19 12 20 24 21 26 22 23 23 13 24
REMARK SMILES IDX 14 25 22 26 15 27 21 28 16 29 20 30 17 31 19 32 18 33 32 34
REMARK SMILES IDX 33 35 34 36 35 37 36 39 37 40 38 41 96 42 39 43 95 44 40 45
REMARK SMILES IDX 41 46 42 47 89 48 43 49 94 50 88 51 90 52 44 53 93 54 87 55
REMARK SMILES IDX 86 56 45 58 75 59 56 60 74 61 57 62 60 63 73 64 91 65 58 66
REMARK SMILES IDX 59 67 72 69 92 70 61 71 46 72 47 73 55 74 48 75 54 76 49 77
REMARK SMILES IDX 50 78 51 79 52 80 53 81 76 82 77 83 85 84 78 85 84 86 79 87
REMARK SMILES IDX 80 88 81 89 82 90 83 91 62 92 63 93 71 94 64 95 70 96 65 97
REMARK SMILES IDX 66 98 67 99 68 100 69 101
REMARK H PARENT 29 6 6 14 34 38 90 57 60 68
REMARK Flexibility Score: inf
ROOT
ATOM      1  C   UNL A   1      39.383  23.041  26.804  1.00  0.00     0.023 C 
ENDROOT
BRANCH   1   2
ATOM      2  C   UNL A   1      38.304  23.936  26.070  1.00  0.00     0.116 C 
BRANCH   2   3
ATOM      3  N   UNL A   1      37.710  23.511  24.813  1.00  0.00    -0.354 N 
ATOM      4  C   UNL A   1      36.425  23.562  24.320  1.00  0.00     0.242 C 
ATOM      5  O   UNL A   1      36.318  23.229  23.129  1.00  0.00    -0.273 OA
ATOM      6  H   UNL A   1      38.355  23.106  24.189  1.00  0.00     0.163 HD
BRANCH   4   7
ATOM      7  C   UNL A   1      35.098  24.003  25.077  1.00  0.00     0.174 C 
BRANCH   7   8
ATOM      8  C   UNL A   1      34.815  23.203  26.387  1.00  0.00     0.018 C 
ATOM      9  C   UNL A   1      35.354  21.770  26.270  1.00  0.00     0.010 C 
BRANCH   8  10
ATOM     10  C   UNL A   1      33.303  23.110  26.766  1.00  0.00     0.002 C 
ATOM     11  C   UNL A   1      33.078  22.294  28.035  1.00  0.00     0.004 C 
ENDBRANCH   8  10
ENDBRANCH   7   8
BRANCH   7  12
ATOM     12  N   UNL A   1      34.833  25.440  25.291  1.00  0.00    -0.342 N 
ATOM     13  C   UNL A   1      33.855  26.237  24.736  1.00  0.00     0.242 C 
ATOM     14  H   UNL A   1      35.440  25.893  25.920  1.00  0.00     0.164 HD
ATOM     15  O   UNL A   1      33.208  26.971  25.489  1.00  0.00    -0.273 OA
BRANCH  13  16
ATOM     16  C   UNL A   1      33.651  26.264  23.231  1.00  0.00     0.248 C 
BRANCH  16  17
ATOM     17  N   UNL A   1      32.556  25.365  22.920  1.00  0.00    -0.220 N 
ATOM     18  N   UNL A   1      32.875  24.017  22.752  1.00  0.00    -0.169 NA
ATOM     19  C   UNL A   1      31.272  25.873  23.009  1.00  0.00     0.267 A 
ATOM     20  C   UNL A   1      31.999  23.142  23.137  1.00  0.00     0.091 A 
ATOM     21  C   UNL A   1      30.281  24.891  23.446  1.00  0.00     0.075 A 
ATOM     22  O   UNL A   1      30.960  27.057  22.928  1.00  0.00    -0.268 OA
ATOM     23  C   UNL A   1      30.691  23.635  23.625  1.00  0.00     0.036 A 
BRANCH  20  24
ATOM     24  C   UNL A   1      32.356  21.639  23.098  1.00  0.00     0.003 A 
ATOM     25  C   UNL A   1      32.018  20.888  21.979  1.00  0.00     0.011 A 
ATOM     26  C   UNL A   1      32.969  20.910  24.129  1.00  0.00     0.019 A 
ATOM     27  C   UNL A   1      32.111  19.480  21.995  1.00  0.00     0.009 A 
ATOM     28  C   UNL A   1      32.864  19.511  24.275  1.00  0.00    -0.018 A 
ATOM     29  C   UNL A   1      32.437  18.774  23.171  1.00  0.00    -0.018 A 
ATOM     30  C   UNL A   1      33.095  18.857  25.511  1.00  0.00     0.009 A 
ATOM     31  C   UNL A   1      32.317  17.376  23.303  1.00  0.00     0.009 A 
ATOM     32  C   UNL A   1      32.879  17.487  25.650  1.00  0.00     0.001 A 
ATOM     33  C   UNL A   1      32.512  16.742  24.537  1.00  0.00     0.001 A 
ENDBRANCH  20  24
ENDBRANCH  16  17
ENDBRANCH  13  16
ENDBRANCH   7  12
ENDBRANCH   4   7
ENDBRANCH   2   3
ENDBRANCH   1   2
BRANCH   1  34
ATOM     34  C   UNL A   1      40.322  21.798  26.452  1.00  0.00     0.023 C 
BRANCH  34  35
ATOM     35  C   UNL A   1      41.836  21.338  26.671  1.00  0.00     0.116 C 
BRANCH  35  36
ATOM     36  N   UNL A   1      42.498  20.346  25.808  1.00  0.00    -0.352 N 
ATOM     37  C   UNL A   1      43.593  20.351  24.981  1.00  0.00     0.251 C 
ATOM     38  H   UNL A   1      42.047  19.471  25.827  1.00  0.00     0.163 HD
ATOM     39  O   UNL A   1      44.004  19.355  24.428  1.00  0.00    -0.269 OA
BRANCH  37  40
ATOM     40  C   UNL A   1      44.366  21.561  25.009  1.00  0.00     0.039 A 
ATOM     41  C   UNL A   1      45.183  21.659  26.133  1.00  0.00     0.014 A 
ATOM     42  C   UNL A   1      43.952  22.628  24.220  1.00  0.00     0.014 A 
ATOM     43  C   UNL A   1      45.422  22.914  26.610  1.00  0.00     0.010 A 
ATOM     44  C   UNL A   1      44.289  23.889  24.650  1.00  0.00     0.010 A 
ATOM     45  C   UNL A   1      44.960  24.020  25.875  1.00  0.00    -0.014 A 
BRANCH  45  46
ATOM     46  C   UNL A   1      45.238  25.341  26.423  1.00  0.00     0.031 A 
ATOM     47  C   UNL A   1      46.584  25.950  26.245  1.00  0.00     0.074 A 
ATOM     48  C   UNL A   1      44.185  25.964  26.970  1.00  0.00     0.049 A 
ATOM     49  N   UNL A   1      46.980  27.140  26.595  1.00  0.00    -0.248 NA
ATOM     50  C   UNL A   1      47.627  25.134  25.595  1.00  0.00     0.031 C 
ATOM     51  C   UNL A   1      42.844  25.375  27.087  1.00  0.00     0.029 A 
ATOM     52  N   UNL A   1      44.045  27.225  27.457  1.00  0.00    -0.354 N 
ATOM     53  C   UNL A   1      48.322  27.205  26.249  1.00  0.00     0.074 A 
ATOM     54  C   UNL A   1      48.680  25.941  25.652  1.00  0.00     0.031 C 
ATOM     55  C   UNL A   1      41.996  26.311  27.520  1.00  0.00     0.029 A 
ATOM     56  C   UNL A   1      42.753  27.520  27.810  1.00  0.00     0.049 A 
ATOM     57  H   UNL A   1      44.792  27.860  27.546  1.00  0.00     0.167 HD
ATOM     58  C   UNL A   1      49.160  28.245  26.446  1.00  0.00     0.031 A 
ATOM     59  C   UNL A   1      42.244  28.647  28.331  1.00  0.00     0.031 A 
ATOM     60  C   UNL A   1      48.724  29.477  27.050  1.00  0.00     0.049 A 
ATOM     61  C   UNL A   1      43.199  29.772  28.558  1.00  0.00     0.074 A 
ATOM     62  C   UNL A   1      49.460  30.614  27.309  1.00  0.00     0.029 A 
ATOM     63  N   UNL A   1      47.426  29.721  27.492  1.00  0.00    -0.354 N 
ATOM     64  N   UNL A   1      44.474  29.827  28.244  1.00  0.00    -0.248 NA
ATOM     65  C   UNL A   1      42.679  30.966  29.222  1.00  0.00     0.031 C 
ATOM     66  C   UNL A   1      48.625  31.520  27.969  1.00  0.00     0.029 A 
ATOM     67  C   UNL A   1      47.349  30.978  28.059  1.00  0.00     0.049 A 
ATOM     68  H   UNL A   1      46.674  29.091  27.413  1.00  0.00     0.167 HD
ATOM     69  C   UNL A   1      44.921  31.059  28.688  1.00  0.00     0.074 A 
ATOM     70  C   UNL A   1      43.767  31.729  29.266  1.00  0.00     0.031 C 
ATOM     71  C   UNL A   1      46.170  31.584  28.636  1.00  0.00     0.031 A 
BRANCH  58  72
ATOM     72  C   UNL A   1      50.609  28.086  26.074  1.00  0.00    -0.014 A 
ATOM     73  C   UNL A   1      51.025  28.410  24.769  1.00  0.00     0.010 A 
ATOM     74  C   UNL A   1      51.551  27.554  26.975  1.00  0.00     0.010 A 
ATOM     75  C   UNL A   1      52.343  28.186  24.361  1.00  0.00     0.020 A 
ATOM     76  C   UNL A   1      52.878  27.351  26.577  1.00  0.00     0.020 A 
ATOM     77  C   UNL A   1      53.261  27.651  25.267  1.00  0.00     0.054 A 
BRANCH  77  78
ATOM     78  S   UNL A   1      54.969  27.370  24.722  1.00  0.00     0.124 S 
ATOM     79  O   UNL A   1      55.698  27.355  25.984  1.00  0.00    -0.237 OA
ATOM     80  O   UNL A   1      54.877  26.088  24.027  1.00  0.00    -0.237 OA
ATOM     81  O   UNL A   1      55.239  28.516  23.855  1.00  0.00    -0.744 OA
ENDBRANCH  77  78
ENDBRANCH  58  72
BRANCH  59  82
ATOM     82  C   UNL A   1      40.790  28.681  28.629  1.00  0.00    -0.014 A 
ATOM     83  C   UNL A   1      39.894  29.209  27.676  1.00  0.00     0.010 A 
ATOM     84  C   UNL A   1      40.335  28.439  29.935  1.00  0.00     0.010 A 
ATOM     85  C   UNL A   1      38.603  29.591  28.049  1.00  0.00     0.020 A 
ATOM     86  C   UNL A   1      39.031  28.789  30.303  1.00  0.00     0.020 A 
ATOM     87  C   UNL A   1      38.190  29.403  29.369  1.00  0.00     0.054 A 
BRANCH  87  88
ATOM     88  S   UNL A   1      36.560  30.026  29.866  1.00  0.00     0.124 S 
ATOM     89  O   UNL A   1      36.364  29.358  31.149  1.00  0.00    -0.237 OA
ATOM     90  O   UNL A   1      36.776  31.469  29.933  1.00  0.00    -0.237 OA
ATOM     91  O   UNL A   1      35.683  29.580  28.786  1.00  0.00    -0.744 OA
ENDBRANCH  87  88
ENDBRANCH  59  82
BRANCH  71  92
ATOM     92  C   UNL A   1      46.364  32.938  29.247  1.00  0.00    -0.014 A 
ATOM     93  C   UNL A   1      46.620  33.045  30.625  1.00  0.00     0.010 A 
ATOM     94  C   UNL A   1      46.119  34.095  28.489  1.00  0.00     0.010 A 
ATOM     95  C   UNL A   1      46.568  34.289  31.251  1.00  0.00     0.020 A 
ATOM     96  C   UNL A   1      46.095  35.344  29.107  1.00  0.00     0.020 A 
ATOM     97  C   UNL A   1      46.288  35.428  30.488  1.00  0.00     0.054 A 
BRANCH  97  98
ATOM     98  S   UNL A   1      46.148  37.024  31.333  1.00  0.00     0.124 S 
ATOM     99  O   UNL A   1      44.860  36.899  32.009  1.00  0.00    -0.237 OA
ATOM    100  O   UNL A   1      47.320  37.029  32.204  1.00  0.00    -0.237 OA
ATOM    101  O   UNL A   1      46.189  37.994  30.239  1.00  0.00    -0.744 OA
ENDBRANCH  97  98
ENDBRANCH  71  92
ENDBRANCH  45  46
ENDBRANCH  37  40
ENDBRANCH  35  36
ENDBRANCH  34  35
ENDBRANCH   1  34
TORSDOF 20
ENDMDL
MODEL 2
REMARK VINA RESULT:      -9.7      6.451     12.417
REMARK SMILES CC[C@@H](C)[C@@H](NC(=O)Cn1nc(-c2ccc3ccccc3c2)ccc1=O)C(=O)NCCCCNC(=O)c1ccc(-c2c3nc(c(-c4ccc(S(=O)(=O)[O-])cc4)c4ccc([nH]4)c(-c4ccc(S(=O)(=O)[O-])cc4)c4nc(c(-c5ccc(S(=O)(=O)[O-])cc5)c5ccc2[nH]5)C=C4)C=C3)cc1
REMARK SMILES IDX 31 1 30 2 29 3 27 4 28 5 5 7 3 8 4 9 2 10 1 11 6 12 7 13
REMARK SMILES IDX 8 15 9 16 10 17 11 18 25 19 12 20 24 21 26 22 23 23 13 24
REMARK SMILES IDX 14 25 22 26 15 27 21 28 16 29 20 30 17 31 19 32 18 33 32 34
REMARK SMILES IDX 33 35 34 36 35 37 36 39 37 40 38 41 96 42 39 43 95 44 40 45
REMARK SMILES IDX 41 46 42 47 89 48 43 49 94 50 88 51 90 52 44 53 93 54 87 55
REMARK SMILES IDX 86 56 45 58 75 59 56 60 74 61 57 62 60 63 73 64 91 65 58 66
REMARK SMILES IDX 59 67 72 69 92 70 61 71 46 72 47 73 55 74 48 75 54 76 49 77
REMARK SMILES IDX 50 78 51 79 52 80 53 81 76 82 77 83 85 84 78 85 84 86 79 87
REMARK SMILES IDX 80 88 81 89 82 90 83 91 62 92 63 93 71 94 64 95 70 96 65 97
REMARK SMILES IDX 66 98 67 99 68 100 69 101
REMARK H PARENT 29 6 6 14 34 38 90 57 60 68
REMARK Flexibility Score: inf
ROOT
ATOM      1  C   UNL A   1      41.266  34.439  31.625  1.00  0.00     0.023 C 
ENDROOT
BRANCH   1   2
ATOM      2  C   UNL A   1      40.209  33.635  32.488  1.00  0.00     0.116 C 
BRANCH   2   3
ATOM      3  N   UNL A   1      39.267  34.327  33.351  1.00  0.00    -0.354 N 
ATOM      4  C   UNL A   1      38.012  34.003  33.817  1.00  0.00     0.242 C 
ATOM      5  O   UNL A   1      37.559  34.789  34.664  1.00  0.00    -0.273 OA
ATOM      6  H   UNL A   1      39.590  35.202  33.666  1.00  0.00     0.163 HD
BRANCH   4   7
ATOM      7  C   UNL A   1      37.104  32.760  33.415  1.00  0.00     0.174 C 
BRANCH   7   8
ATOM      8  C   UNL A   1      37.585  31.400  34.012  1.00  0.00     0.018 C 
ATOM      9  C   UNL A   1      38.527  31.637  35.202  1.00  0.00     0.010 C 
BRANCH   8  10
ATOM     10  C   UNL A   1      38.333  30.484  32.992  1.00  0.00     0.002 C 
ATOM     11  C   UNL A   1      37.384  29.524  32.280  1.00  0.00     0.004 C 
ENDBRANCH   8  10
ENDBRANCH   7   8
BRANCH   7  12
ATOM     12  N   UNL A   1      35.636  32.874  33.524  1.00  0.00    -0.342 N 
ATOM     13  C   UNL A   1      34.723  33.293  32.581  1.00  0.00     0.242 C 
ATOM     14  H   UNL A   1      35.256  32.612  34.394  1.00  0.00     0.164 HD
ATOM     15  O   UNL A   1      33.712  32.606  32.407  1.00  0.00    -0.273 OA
BRANCH  13  16
ATOM     16  C   UNL A   1      34.926  34.609  31.850  1.00  0.00     0.248 C 
BRANCH  16  17
ATOM     17  N   UNL A   1      35.182  34.302  30.456  1.00  0.00    -0.220 N 
ATOM     18  N   UNL A   1      36.273  33.476  30.182  1.00  0.00    -0.169 NA
ATOM     19  C   UNL A   1      34.223  34.682  29.534  1.00  0.00     0.267 A 
ATOM     20  C   UNL A   1      36.172  32.664  29.176  1.00  0.00     0.091 A 
ATOM     21  C   UNL A   1      34.102  33.767  28.399  1.00  0.00     0.075 A 
ATOM     22  O   UNL A   1      33.395  35.575  29.685  1.00  0.00    -0.268 OA
ATOM     23  C   UNL A   1      34.958  32.747  28.334  1.00  0.00     0.036 A 
BRANCH  20  24
ATOM     24  C   UNL A   1      37.295  31.635  28.913  1.00  0.00     0.003 A 
ATOM     25  C   UNL A   1      36.980  30.425  28.305  1.00  0.00     0.011 A 
ATOM     26  C   UNL A   1      38.643  31.774  29.275  1.00  0.00     0.019 A 
ATOM     27  C   UNL A   1      37.917  29.371  28.259  1.00  0.00     0.009 A 
ATOM     28  C   UNL A   1      39.527  30.690  29.457  1.00  0.00    -0.018 A 
ATOM     29  C   UNL A   1      39.159  29.457  28.920  1.00  0.00    -0.018 A 
ATOM     30  C   UNL A   1      40.712  30.798  30.226  1.00  0.00     0.009 A 
ATOM     31  C   UNL A   1      40.027  28.361  29.102  1.00  0.00     0.009 A 
ATOM     32  C   UNL A   1      41.510  29.682  30.478  1.00  0.00     0.001 A 
ATOM     33  C   UNL A   1      41.177  28.466  29.894  1.00  0.00     0.001 A 
ENDBRANCH  20  24
ENDBRANCH  16  17
ENDBRANCH  13  16
ENDBRANCH   7  12
ENDBRANCH   4   7
ENDBRANCH   2   3
ENDBRANCH   1   2
BRANCH   1  34
ATOM     34  C   UNL A   1      41.899  34.359  30.161  1.00  0.00     0.023 C 
BRANCH  34  35
ATOM     35  C   UNL A   1      41.440  34.547  28.643  1.00  0.00     0.116 C 
BRANCH  35  36
ATOM     36  N   UNL A   1      41.270  35.871  28.022  1.00  0.00    -0.352 N 
ATOM     37  C   UNL A   1      42.086  36.739  27.341  1.00  0.00     0.251 C 
ATOM     38  H   UNL A   1      40.353  36.215  28.119  1.00  0.00     0.163 HD
ATOM     39  O   UNL A   1      41.681  37.761  26.835  1.00  0.00    -0.269 OA
BRANCH  37  40
ATOM     40  C   UNL A   1      43.401  36.236  27.057  1.00  0.00     0.039 A 
ATOM     41  C   UNL A   1      43.443  35.437  25.917  1.00  0.00     0.014 A 
ATOM     42  C   UNL A   1      44.339  36.226  28.082  1.00  0.00     0.014 A 
ATOM     43  C   UNL A   1      44.361  34.429  25.908  1.00  0.00     0.010 A 
ATOM     44  C   UNL A   1      45.328  35.273  28.012  1.00  0.00     0.010 A 
ATOM     45  C   UNL A   1      45.287  34.344  26.962  1.00  0.00    -0.014 A 
BRANCH  45  46
ATOM     46  C   UNL A   1      46.249  33.250  26.911  1.00  0.00     0.031 A 
ATOM     47  C   UNL A   1      45.772  31.841  26.925  1.00  0.00     0.074 A 
ATOM     48  C   UNL A   1      47.526  33.621  26.740  1.00  0.00     0.049 A 
ATOM     49  N   UNL A   1      46.476  30.753  26.807  1.00  0.00    -0.248 NA
ATOM     50  C   UNL A   1      44.325  31.607  27.093  1.00  0.00     0.031 C 
ATOM     51  C   UNL A   1      47.979  35.018  26.668  1.00  0.00     0.029 A 
ATOM     52  N   UNL A   1      48.650  32.889  26.529  1.00  0.00    -0.354 N 
ATOM     53  C   UNL A   1      45.573  29.706  26.926  1.00  0.00     0.074 A 
ATOM     54  C   UNL A   1      44.264  30.281  27.119  1.00  0.00     0.031 C 
ATOM     55  C   UNL A   1      49.270  35.037  26.328  1.00  0.00     0.029 A 
ATOM     56  C   UNL A   1      49.751  33.665  26.268  1.00  0.00     0.049 A 
ATOM     57  H   UNL A   1      48.672  31.905  26.558  1.00  0.00     0.167 HD
ATOM     58  C   UNL A   1      45.853  28.386  26.892  1.00  0.00     0.031 A 
ATOM     59  C   UNL A   1      51.018  33.297  26.026  1.00  0.00     0.031 A 
ATOM     60  C   UNL A   1      47.191  27.892  26.695  1.00  0.00     0.049 A 
ATOM     61  C   UNL A   1      51.302  31.831  26.016  1.00  0.00     0.074 A 
ATOM     62  C   UNL A   1      47.623  26.583  26.634  1.00  0.00     0.029 A 
ATOM     63  N   UNL A   1      48.313  28.700  26.529  1.00  0.00    -0.354 N 
ATOM     64  N   UNL A   1      50.448  30.841  26.145  1.00  0.00    -0.248 NA
ATOM     65  C   UNL A   1      52.697  31.422  25.859  1.00  0.00     0.031 C 
ATOM     66  C   UNL A   1      49.014  26.600  26.502  1.00  0.00     0.029 A 
ATOM     67  C   UNL A   1      49.445  27.917  26.407  1.00  0.00     0.049 A 
ATOM     68  H   UNL A   1      48.302  29.684  26.504  1.00  0.00     0.167 HD
ATOM     69  C   UNL A   1      51.203  29.681  26.103  1.00  0.00     0.074 A 
ATOM     70  C   UNL A   1      52.582  30.099  25.905  1.00  0.00     0.031 C 
ATOM     71  C   UNL A   1      50.798  28.394  26.228  1.00  0.00     0.031 A 
BRANCH  58  72
ATOM     72  C   UNL A   1      44.738  27.404  27.127  1.00  0.00    -0.014 A 
ATOM     73  C   UNL A   1      44.488  26.946  28.434  1.00  0.00     0.010 A 
ATOM     74  C   UNL A   1      43.981  26.875  26.066  1.00  0.00     0.010 A 
ATOM     75  C   UNL A   1      43.524  25.965  28.677  1.00  0.00     0.020 A 
ATOM     76  C   UNL A   1      42.997  25.909  26.308  1.00  0.00     0.020 A 
ATOM     77  C   UNL A   1      42.788  25.447  27.610  1.00  0.00     0.054 A 
BRANCH  77  78
ATOM     78  S   UNL A   1      41.537  24.175  27.943  1.00  0.00     0.124 S 
ATOM     79  O   UNL A   1      42.196  23.348  28.948  1.00  0.00    -0.237 OA
ATOM     80  O   UNL A   1      40.399  24.960  28.416  1.00  0.00    -0.237 OA
ATOM     81  O   UNL A   1      41.343  23.542  26.640  1.00  0.00    -0.744 OA
ENDBRANCH  77  78
ENDBRANCH  58  72
BRANCH  59  82
ATOM     82  C   UNL A   1      52.019  34.368  25.786  1.00  0.00    -0.014 A 
ATOM     83  C   UNL A   1      52.619  35.020  26.883  1.00  0.00     0.010 A 
ATOM     84  C   UNL A   1      52.175  34.909  24.500  1.00  0.00     0.010 A 
ATOM     85  C   UNL A   1      53.267  36.246  26.714  1.00  0.00     0.020 A 
ATOM     86  C   UNL A   1      52.854  36.119  24.322  1.00  0.00     0.020 A 
ATOM     87  C   UNL A   1      53.356  36.801  25.436  1.00  0.00     0.054 A 
BRANCH  87  88
ATOM     88  S   UNL A   1      54.082  38.453  25.255  1.00  0.00     0.124 S 
ATOM     89  O   UNL A   1      53.502  38.897  23.991  1.00  0.00    -0.237 OA
ATOM     90  O   UNL A   1      53.601  39.147  26.447  1.00  0.00    -0.237 OA
ATOM     91  O   UNL A   1      55.519  38.191  25.227  1.00  0.00    -0.744 OA
ENDBRANCH  87  88
ENDBRANCH  59  82
BRANCH  71  92
ATOM     92  C   UNL A   1      51.862  27.340  26.187  1.00  0.00    -0.014 A 
ATOM     93  C   UNL A   1      52.534  26.988  27.370  1.00  0.00     0.010 A 
ATOM     94  C   UNL A   1      52.306  26.836  24.953  1.00  0.00     0.010 A 
ATOM     95  C   UNL A   1      53.675  26.191  27.314  1.00  0.00     0.020 A 
ATOM     96  C   UNL A   1      53.431  26.015  24.897  1.00  0.00     0.020 A 
ATOM     97  C   UNL A   1      54.126  25.726  26.075  1.00  0.00     0.054 A 
BRANCH  97  98
ATOM     98  S   UNL A   1      55.656  24.757  26.016  1.00  0.00     0.124 S 
ATOM     99  O   UNL A   1      56.314  25.152  27.258  1.00  0.00    -0.237 OA
ATOM    100  O   UNL A   1      55.164  23.384  25.970  1.00  0.00    -0.237 OA
ATOM    101  O   UNL A   1      56.305  25.220  24.790  1.00  0.00    -0.744 OA
ENDBRANCH  97  98
ENDBRANCH  71  92
ENDBRANCH  45  46
ENDBRANCH  37  40
ENDBRANCH  35  36
ENDBRANCH  34  35
ENDBRANCH   1  34
TORSDOF 20
ENDMDL
MODEL 3
REMARK VINA RESULT:      -9.6      8.105     13.998
REMARK SMILES CC[C@@H](C)[C@@H](NC(=O)Cn1nc(-c2ccc3ccccc3c2)ccc1=O)C(=O)NCCCCNC(=O)c1ccc(-c2c3nc(c(-c4ccc(S(=O)(=O)[O-])cc4)c4ccc([nH]4)c(-c4ccc(S(=O)(=O)[O-])cc4)c4nc(c(-c5ccc(S(=O)(=O)[O-])cc5)c5ccc2[nH]5)C=C4)C=C3)cc1
REMARK SMILES IDX 31 1 30 2 29 3 27 4 28 5 5 7 3 8 4 9 2 10 1 11 6 12 7 13
REMARK SMILES IDX 8 15 9 16 10 17 11 18 25 19 12 20 24 21 26 22 23 23 13 24
REMARK SMILES IDX 14 25 22 26 15 27 21 28 16 29 20 30 17 31 19 32 18 33 32 34
REMARK SMILES IDX 33 35 34 36 35 37 36 39 37 40 38 41 96 42 39 43 95 44 40 45
REMARK SMILES IDX 41 46 42 47 89 48 43 49 94 50 88 51 90 52 44 53 93 54 87 55
REMARK SMILES IDX 86 56 45 58 75 59 56 60 74 61 57 62 60 63 73 64 91 65 58 66
REMARK SMILES IDX 59 67 72 69 92 70 61 71 46 72 47 73 55 74 48 75 54 76 49 77
REMARK SMILES IDX 50 78 51 79 52 80 53 81 76 82 77 83 85 84 78 85 84 86 79 87
REMARK SMILES IDX 80 88 81 89 82 90 83 91 62 92 63 93 71 94 64 95 70 96 65 97
REMARK SMILES IDX 66 98 67 99 68 100 69 101
REMARK H PARENT 29 6 6 14 34 38 90 57 60 68
REMARK Flexibility Score: inf
ROOT
ATOM      1  C   UNL A   1      48.980  24.267  38.254  1.00  0.00     0.023 C 
ENDROOT
BRANCH   1   2
ATOM      2  C   UNL A   1      48.771  23.245  39.444  1.00  0.00     0.116 C 
BRANCH   2   3
ATOM      3  N   UNL A   1      47.455  22.707  39.746  1.00  0.00    -0.354 N 
ATOM      4  C   UNL A   1      46.784  21.581  39.322  1.00  0.00     0.242 C 
ATOM      5  O   UNL A   1      45.714  21.367  39.913  1.00  0.00    -0.273 OA
ATOM      6  H   UNL A   1      46.940  23.256  40.379  1.00  0.00     0.163 HD
BRANCH   4   7
ATOM      7  C   UNL A   1      47.220  20.539  38.202  1.00  0.00     0.174 C 
BRANCH   7   8
ATOM      8  C   UNL A   1      47.598  19.129  38.754  1.00  0.00     0.018 C 
ATOM      9  C   UNL A   1      46.333  18.343  39.132  1.00  0.00     0.010 C 
BRANCH   8  10
ATOM     10  C   UNL A   1      48.527  19.161  40.009  1.00  0.00     0.002 C 
ATOM     11  C   UNL A   1      48.342  17.930  40.891  1.00  0.00     0.004 C 
ENDBRANCH   8  10
ENDBRANCH   7   8
BRANCH   7  12
ATOM     12  N   UNL A   1      46.398  20.405  36.982  1.00  0.00    -0.342 N 
ATOM     13  C   UNL A   1      46.684  19.742  35.809  1.00  0.00     0.242 C 
ATOM     14  H   UNL A   1      45.522  20.852  37.012  1.00  0.00     0.164 HD
ATOM     15  O   UNL A   1      45.819  19.000  35.336  1.00  0.00    -0.273 OA
BRANCH  13  16
ATOM     16  C   UNL A   1      47.996  19.996  35.085  1.00  0.00     0.248 C 
BRANCH  16  17
ATOM     17  N   UNL A   1      47.927  21.324  34.504  1.00  0.00    -0.220 N 
ATOM     18  N   UNL A   1      46.664  21.911  34.421  1.00  0.00    -0.169 NA
ATOM     19  C   UNL A   1      49.123  21.976  34.264  1.00  0.00     0.267 A 
ATOM     20  C   UNL A   1      46.591  23.197  34.570  1.00  0.00     0.091 A 
ATOM     21  C   UNL A   1      49.047  23.426  34.434  1.00  0.00     0.075 A 
ATOM     22  O   UNL A   1      50.216  21.439  34.108  1.00  0.00    -0.268 OA
ATOM     23  C   UNL A   1      47.855  23.955  34.709  1.00  0.00     0.036 A 
BRANCH  20  24
ATOM     24  C   UNL A   1      45.205  23.880  34.622  1.00  0.00     0.003 A 
ATOM     25  C   UNL A   1      44.699  24.479  33.475  1.00  0.00     0.011 A 
ATOM     26  C   UNL A   1      44.389  24.006  35.757  1.00  0.00     0.019 A 
ATOM     27  C   UNL A   1      43.559  25.309  33.532  1.00  0.00     0.009 A 
ATOM     28  C   UNL A   1      43.396  24.996  35.908  1.00  0.00    -0.018 A 
ATOM     29  C   UNL A   1      42.958  25.655  34.760  1.00  0.00    -0.018 A 
ATOM     30  C   UNL A   1      42.903  25.389  37.177  1.00  0.00     0.009 A 
ATOM     31  C   UNL A   1      41.974  26.655  34.895  1.00  0.00     0.009 A 
ATOM     32  C   UNL A   1      42.001  26.445  37.302  1.00  0.00     0.001 A 
ATOM     33  C   UNL A   1      41.518  27.062  36.156  1.00  0.00     0.001 A 
ENDBRANCH  20  24
ENDBRANCH  16  17
ENDBRANCH  13  16
ENDBRANCH   7  12
ENDBRANCH   4   7
ENDBRANCH   2   3
ENDBRANCH   1   2
BRANCH   1  34
ATOM     34  C   UNL A   1      48.505  25.742  37.868  1.00  0.00     0.023 C 
BRANCH  34  35
ATOM     35  C   UNL A   1      49.149  27.176  37.591  1.00  0.00     0.116 C 
BRANCH  35  36
ATOM     36  N   UNL A   1      48.766  28.380  38.347  1.00  0.00    -0.352 N 
ATOM     37  C   UNL A   1      47.849  29.387  38.177  1.00  0.00     0.251 C 
ATOM     38  H   UNL A   1      49.294  28.489  39.171  1.00  0.00     0.163 HD
ATOM     39  O   UNL A   1      47.655  30.246  39.007  1.00  0.00    -0.269 OA
BRANCH  37  40
ATOM     40  C   UNL A   1      46.962  29.214  37.061  1.00  0.00     0.039 A 
ATOM     41  C   UNL A   1      47.163  30.156  36.055  1.00  0.00     0.014 A 
ATOM     42  C   UNL A   1      45.802  28.471  37.248  1.00  0.00     0.014 A 
ATOM     43  C   UNL A   1      46.067  30.522  35.330  1.00  0.00     0.010 A 
ATOM     44  C   UNL A   1      44.732  28.773  36.440  1.00  0.00     0.010 A 
ATOM     45  C   UNL A   1      44.856  29.840  35.538  1.00  0.00    -0.014 A 
BRANCH  45  46
ATOM     46  C   UNL A   1      43.712  30.266  34.742  1.00  0.00     0.031 A 
ATOM     47  C   UNL A   1      43.427  29.606  33.439  1.00  0.00     0.074 A 
ATOM     48  C   UNL A   1      42.922  31.180  35.323  1.00  0.00     0.049 A 
ATOM     49  N   UNL A   1      42.416  29.802  32.644  1.00  0.00    -0.248 NA
ATOM     50  C   UNL A   1      44.389  28.597  32.956  1.00  0.00     0.031 C 
ATOM     51  C   UNL A   1      43.182  31.783  36.638  1.00  0.00     0.029 A 
ATOM     52  N   UNL A   1      41.729  31.705  34.939  1.00  0.00    -0.354 N 
ATOM     53  C   UNL A   1      42.634  28.977  31.550  1.00  0.00     0.074 A 
ATOM     54  C   UNL A   1      43.870  28.268  31.778  1.00  0.00     0.031 C 
ATOM     55  C   UNL A   1      42.126  32.519  36.994  1.00  0.00     0.029 A 
ATOM     56  C   UNL A   1      41.175  32.523  35.892  1.00  0.00     0.049 A 
ATOM     57  H   UNL A   1      41.306  31.517  34.071  1.00  0.00     0.167 HD
ATOM     58  C   UNL A   1      41.856  28.862  30.453  1.00  0.00     0.031 A 
ATOM     59  C   UNL A   1      40.027  33.216  35.861  1.00  0.00     0.031 A 
ATOM     60  C   UNL A   1      40.634  29.608  30.300  1.00  0.00     0.049 A 
ATOM     61  C   UNL A   1      39.197  33.087  34.626  1.00  0.00     0.074 A 
ATOM     62  C   UNL A   1      39.743  29.590  29.246  1.00  0.00     0.029 A 
ATOM     63  N   UNL A   1      40.138  30.510  31.238  1.00  0.00    -0.354 N 
ATOM     64  N   UNL A   1      39.414  32.317  33.583  1.00  0.00    -0.248 NA
ATOM     65  C   UNL A   1      37.998  33.918  34.537  1.00  0.00     0.031 C 
ATOM     66  C   UNL A   1      38.746  30.531  29.516  1.00  0.00     0.029 A 
ATOM     67  C   UNL A   1      38.973  31.086  30.770  1.00  0.00     0.049 A 
ATOM     68  H   UNL A   1      40.556  30.708  32.107  1.00  0.00     0.167 HD
ATOM     69  C   UNL A   1      38.385  32.582  32.696  1.00  0.00     0.074 A 
ATOM     70  C   UNL A   1      37.529  33.563  33.345  1.00  0.00     0.031 C 
ATOM     71  C   UNL A   1      38.172  32.073  31.458  1.00  0.00     0.031 A 
BRANCH  58  72
ATOM     72  C   UNL A   1      42.314  27.971  29.331  1.00  0.00    -0.014 A 
ATOM     73  C   UNL A   1      41.715  26.708  29.167  1.00  0.00     0.010 A 
ATOM     74  C   UNL A   1      43.376  28.334  28.482  1.00  0.00     0.010 A 
ATOM     75  C   UNL A   1      42.178  25.816  28.196  1.00  0.00     0.020 A 
ATOM     76  C   UNL A   1      43.827  27.453  27.492  1.00  0.00     0.020 A 
ATOM     77  C   UNL A   1      43.238  26.192  27.368  1.00  0.00     0.054 A 
BRANCH  77  78
ATOM     78  S   UNL A   1      43.825  25.023  26.110  1.00  0.00     0.124 S 
ATOM     79  O   UNL A   1      45.273  25.124  26.247  1.00  0.00    -0.237 OA
ATOM     80  O   UNL A   1      43.233  23.760  26.544  1.00  0.00    -0.237 OA
ATOM     81  O   UNL A   1      43.273  25.560  24.867  1.00  0.00    -0.744 OA
ENDBRANCH  77  78
ENDBRANCH  58  72
BRANCH  59  82
ATOM     82  C   UNL A   1      39.680  34.040  37.046  1.00  0.00    -0.014 A 
ATOM     83  C   UNL A   1      40.189  35.351  37.157  1.00  0.00     0.010 A 
ATOM     84  C   UNL A   1      39.077  33.445  38.165  1.00  0.00     0.010 A 
ATOM     85  C   UNL A   1      40.194  36.010  38.389  1.00  0.00     0.020 A 
ATOM     86  C   UNL A   1      39.049  34.116  39.392  1.00  0.00     0.020 A 
ATOM     87  C   UNL A   1      39.648  35.375  39.505  1.00  0.00     0.054 A 
BRANCH  87  88
ATOM     88  S   UNL A   1      39.784  36.189  41.121  1.00  0.00     0.124 S 
ATOM     89  O   UNL A   1      40.861  37.145  40.884  1.00  0.00    -0.237 OA
ATOM     90  O   UNL A   1      38.455  36.768  41.300  1.00  0.00    -0.237 OA
ATOM     91  O   UNL A   1      40.109  35.091  42.028  1.00  0.00    -0.744 OA
ENDBRANCH  87  88
ENDBRANCH  59  82
BRANCH  71  92
ATOM     92  C   UNL A   1      36.984  32.590  30.706  1.00  0.00    -0.014 A 
ATOM     93  C   UNL A   1      37.170  33.534  29.681  1.00  0.00     0.010 A 
ATOM     94  C   UNL A   1      35.685  32.270  31.135  1.00  0.00     0.010 A 
ATOM     95  C   UNL A   1      36.074  34.198  29.135  1.00  0.00     0.020 A 
ATOM     96  C   UNL A   1      34.584  32.912  30.571  1.00  0.00     0.020 A 
ATOM     97  C   UNL A   1      34.789  33.894  29.598  1.00  0.00     0.054 A 
BRANCH  97  98
ATOM     98  S   UNL A   1      33.385  34.824  28.931  1.00  0.00     0.124 S 
ATOM     99  O   UNL A   1      32.559  35.021  30.119  1.00  0.00    -0.237 OA
ATOM    100  O   UNL A   1      34.021  36.026  28.399  1.00  0.00    -0.237 OA
ATOM    101  O   UNL A   1      32.827  33.924  27.923  1.00  0.00    -0.744 OA
ENDBRANCH  97  98
ENDBRANCH  71  92
ENDBRANCH  45  46
ENDBRANCH  37  40
ENDBRANCH  35  36
ENDBRANCH  34  35
ENDBRANCH   1  34
TORSDOF 20
ENDMDL
