MODEL 1
REMARK VINA RESULT:     -10.9      0.000      0.000
REMARK SMILES C[C@@H](CC(=O)NCCCCNC(=O)c1ccc(-c2c3nc(c(-c4ccc(S(=O)(=O)[O-])cc4)c4ccc([nH]4)c(-c4ccc(S(=O)(=O)[O-])cc4)c4nc(c(-c5ccc(S(=O)(=O)[O-])cc5)c5ccc2[nH]5)C=C4)C=C3)cc1)CC(=O)N1C[C@H](C)[C@@H](C)C1
REMARK SMILES IDX 8 1 7 2 6 3 4 4 5 5 3 7 2 8 1 9 74 10 75 11 76 12 77 13
REMARK SMILES IDX 78 14 83 15 79 16 81 17 80 18 82 19 9 20 10 21 11 22 12 23
REMARK SMILES IDX 13 25 14 26 15 27 73 28 16 29 72 30 17 31 18 32 19 33 66 34
REMARK SMILES IDX 20 35 71 36 65 37 67 38 21 39 70 40 64 41 63 42 22 44 52 45
REMARK SMILES IDX 33 46 51 47 34 48 37 49 50 50 68 51 35 52 36 53 49 55 69 56
REMARK SMILES IDX 38 57 23 58 24 59 32 60 25 61 31 62 26 63 27 64 28 65 29 66
REMARK SMILES IDX 30 67 53 68 54 69 62 70 55 71 61 72 56 73 57 74 58 75 59 76
REMARK SMILES IDX 60 77 39 78 40 79 48 80 41 81 47 82 42 83 43 84 44 85 45 86
REMARK SMILES IDX 46 87
REMARK H PARENT 6 6 11 24 67 43 37 54
REMARK Flexibility Score: inf
ROOT
ATOM      1  C   UNL A   1      33.261  30.178  27.220  1.00  0.00     0.023 C 
ENDROOT
BRANCH   1   2
ATOM      2  C   UNL A   1      32.143  29.210  26.841  1.00  0.00     0.116 C 
BRANCH   2   3
ATOM      3  N   UNL A   1      32.346  28.673  25.511  1.00  0.00    -0.356 N 
ATOM      4  C   UNL A   1      32.517  27.388  25.101  1.00  0.00     0.220 C 
ATOM      5  O   UNL A   1      32.766  27.184  23.912  1.00  0.00    -0.275 OA
ATOM      6  H   UNL A   1      32.362  29.344  24.791  1.00  0.00     0.163 HD
BRANCH   4   7
ATOM      7  C   UNL A   1      32.380  26.223  26.073  1.00  0.00     0.103 C 
BRANCH   7   8
ATOM      8  C   UNL A   1      31.337  25.116  25.766  1.00  0.00     0.004 C 
ATOM      9  C   UNL A   1      29.925  25.697  25.827  1.00  0.00     0.009 C 
BRANCH   8  10
ATOM     10  C   UNL A   1      31.567  23.824  26.565  1.00  0.00     0.104 C 
BRANCH  10  11
ATOM     11  C   UNL A   1      32.264  22.641  25.900  1.00  0.00     0.222 C 
ATOM     12  O   UNL A   1      31.633  21.641  25.559  1.00  0.00    -0.275 OA
ATOM     13  N   UNL A   1      33.595  22.839  25.556  1.00  0.00    -0.342 N 
ATOM     14  C   UNL A   1      34.119  22.357  24.286  1.00  0.00     0.123 C 
ATOM     15  C   UNL A   1      34.650  22.878  26.554  1.00  0.00     0.123 C 
ATOM     16  C   UNL A   1      35.500  21.777  24.604  1.00  0.00     0.010 C 
ATOM     17  C   UNL A   1      35.959  22.603  25.816  1.00  0.00     0.010 C 
ATOM     18  C   UNL A   1      35.389  20.290  24.945  1.00  0.00     0.010 C 
ATOM     19  C   UNL A   1      36.662  23.901  25.417  1.00  0.00     0.010 C 
ENDBRANCH  10  11
ENDBRANCH   8  10
ENDBRANCH   7   8
ENDBRANCH   4   7
ENDBRANCH   2   3
ENDBRANCH   1   2
BRANCH   1  20
ATOM     20  C   UNL A   1      34.662  29.581  27.282  1.00  0.00     0.023 C 
BRANCH  20  21
ATOM     21  C   UNL A   1      35.648  30.409  28.085  1.00  0.00     0.116 C 
BRANCH  21  22
ATOM     22  N   UNL A   1      35.562  30.167  29.517  1.00  0.00    -0.352 N 
ATOM     23  C   UNL A   1      36.537  29.738  30.387  1.00  0.00     0.251 C 
ATOM     24  H   UNL A   1      34.680  30.333  29.922  1.00  0.00     0.163 HD
ATOM     25  O   UNL A   1      36.248  29.483  31.545  1.00  0.00    -0.269 OA
BRANCH  23  26
ATOM     26  C   UNL A   1      37.920  29.550  29.892  1.00  0.00     0.039 A 
ATOM     27  C   UNL A   1      38.917  29.214  30.808  1.00  0.00     0.014 A 
ATOM     28  C   UNL A   1      38.226  29.674  28.534  1.00  0.00     0.014 A 
ATOM     29  C   UNL A   1      40.207  28.944  30.350  1.00  0.00     0.010 A 
ATOM     30  C   UNL A   1      39.482  29.302  28.070  1.00  0.00     0.010 A 
ATOM     31  C   UNL A   1      40.491  28.950  28.973  1.00  0.00    -0.014 A 
BRANCH  31  32
ATOM     32  C   UNL A   1      41.845  28.600  28.475  1.00  0.00     0.031 A 
ATOM     33  C   UNL A   1      42.925  29.646  28.410  1.00  0.00     0.074 A 
ATOM     34  C   UNL A   1      42.089  27.343  28.054  1.00  0.00     0.049 A 
ATOM     35  N   UNL A   1      44.176  29.515  28.049  1.00  0.00    -0.248 NA
ATOM     36  C   UNL A   1      42.550  31.025  28.766  1.00  0.00     0.031 C 
ATOM     37  C   UNL A   1      41.103  26.260  28.001  1.00  0.00     0.029 A 
ATOM     38  N   UNL A   1      43.245  26.759  27.603  1.00  0.00    -0.354 N 
ATOM     39  C   UNL A   1      44.729  30.788  28.127  1.00  0.00     0.074 A 
ATOM     40  C   UNL A   1      43.664  31.689  28.501  1.00  0.00     0.031 C 
ATOM     41  C   UNL A   1      41.709  25.132  27.596  1.00  0.00     0.029 A 
ATOM     42  C   UNL A   1      43.115  25.417  27.330  1.00  0.00     0.049 A 
ATOM     43  H   UNL A   1      44.088  27.254  27.486  1.00  0.00     0.167 HD
ATOM     44  C   UNL A   1      46.014  31.169  27.934  1.00  0.00     0.031 A 
ATOM     45  C   UNL A   1      44.030  24.514  26.928  1.00  0.00     0.031 A 
ATOM     46  C   UNL A   1      47.072  30.265  27.572  1.00  0.00     0.049 A 
ATOM     47  C   UNL A   1      45.456  24.955  26.750  1.00  0.00     0.074 A 
ATOM     48  C   UNL A   1      48.419  30.537  27.407  1.00  0.00     0.029 A 
ATOM     49  N   UNL A   1      46.903  28.912  27.322  1.00  0.00    -0.354 N 
ATOM     50  N   UNL A   1      45.977  26.150  26.906  1.00  0.00    -0.248 NA
ATOM     51  C   UNL A   1      46.423  23.920  26.364  1.00  0.00     0.031 C 
ATOM     52  C   UNL A   1      49.056  29.357  27.009  1.00  0.00     0.029 A 
ATOM     53  C   UNL A   1      48.117  28.337  26.987  1.00  0.00     0.049 A 
ATOM     54  H   UNL A   1      46.046  28.430  27.373  1.00  0.00     0.167 HD
ATOM     55  C   UNL A   1      47.338  26.002  26.668  1.00  0.00     0.074 A 
ATOM     56  C   UNL A   1      47.561  24.600  26.377  1.00  0.00     0.031 C 
ATOM     57  C   UNL A   1      48.318  26.942  26.692  1.00  0.00     0.031 A 
BRANCH  44  58
ATOM     58  C   UNL A   1      46.340  32.630  28.115  1.00  0.00    -0.014 A 
ATOM     59  C   UNL A   1      46.721  33.140  29.371  1.00  0.00     0.010 A 
ATOM     60  C   UNL A   1      46.293  33.501  27.012  1.00  0.00     0.010 A 
ATOM     61  C   UNL A   1      47.003  34.499  29.530  1.00  0.00     0.020 A 
ATOM     62  C   UNL A   1      46.605  34.856  27.160  1.00  0.00     0.020 A 
ATOM     63  C   UNL A   1      46.940  35.349  28.423  1.00  0.00     0.054 A 
BRANCH  63  64
ATOM     64  S   UNL A   1      47.331  37.105  28.654  1.00  0.00     0.124 S 
ATOM     65  O   UNL A   1      48.782  37.116  28.476  1.00  0.00    -0.237 OA
ATOM     66  O   UNL A   1      46.564  37.748  27.591  1.00  0.00    -0.237 OA
ATOM     67  O   UNL A   1      46.869  37.388  30.011  1.00  0.00    -0.744 OA
ENDBRANCH  63  64
ENDBRANCH  44  58
BRANCH  45  68
ATOM     68  C   UNL A   1      43.630  23.096  26.716  1.00  0.00    -0.014 A 
ATOM     69  C   UNL A   1      44.020  22.409  25.553  1.00  0.00     0.010 A 
ATOM     70  C   UNL A   1      42.868  22.419  27.687  1.00  0.00     0.010 A 
ATOM     71  C   UNL A   1      43.639  21.078  25.354  1.00  0.00     0.020 A 
ATOM     72  C   UNL A   1      42.511  21.079  27.504  1.00  0.00     0.020 A 
ATOM     73  C   UNL A   1      42.889  20.421  26.333  1.00  0.00     0.054 A 
BRANCH  73  74
ATOM     74  S   UNL A   1      42.450  18.679  26.078  1.00  0.00     0.124 S 
ATOM     75  O   UNL A   1      42.723  18.101  27.390  1.00  0.00    -0.237 OA
ATOM     76  O   UNL A   1      41.040  18.761  25.702  1.00  0.00    -0.237 OA
ATOM     77  O   UNL A   1      43.348  18.255  25.007  1.00  0.00    -0.744 OA
ENDBRANCH  73  74
ENDBRANCH  45  68
BRANCH  57  78
ATOM     78  C   UNL A   1      49.725  26.471  26.433  1.00  0.00    -0.014 A 
ATOM     79  C   UNL A   1      50.527  25.951  27.464  1.00  0.00     0.010 A 
ATOM     80  C   UNL A   1      50.243  26.534  25.126  1.00  0.00     0.010 A 
ATOM     81  C   UNL A   1      51.842  25.556  27.204  1.00  0.00     0.020 A 
ATOM     82  C   UNL A   1      51.546  26.110  24.856  1.00  0.00     0.020 A 
ATOM     83  C   UNL A   1      52.345  25.645  25.903  1.00  0.00     0.054 A 
BRANCH  83  84
ATOM     84  S   UNL A   1      54.053  25.126  25.588  1.00  0.00     0.124 S 
ATOM     85  O   UNL A   1      54.762  25.716  26.719  1.00  0.00    -0.237 OA
ATOM     86  O   UNL A   1      53.952  23.667  25.600  1.00  0.00    -0.237 OA
ATOM     87  O   UNL A   1      54.359  25.711  24.285  1.00  0.00    -0.744 OA
ENDBRANCH  83  84
ENDBRANCH  57  78
ENDBRANCH  31  32
ENDBRANCH  23  26
ENDBRANCH  21  22
ENDBRANCH  20  21
ENDBRANCH   1  20
TORSDOF 17
ENDMDL
MODEL 2
REMARK VINA RESULT:     -10.8      6.460      8.652
REMARK SMILES C[C@@H](CC(=O)NCCCCNC(=O)c1ccc(-c2c3nc(c(-c4ccc(S(=O)(=O)[O-])cc4)c4ccc([nH]4)c(-c4ccc(S(=O)(=O)[O-])cc4)c4nc(c(-c5ccc(S(=O)(=O)[O-])cc5)c5ccc2[nH]5)C=C4)C=C3)cc1)CC(=O)N1C[C@H](C)[C@@H](C)C1
REMARK SMILES IDX 8 1 7 2 6 3 4 4 5 5 3 7 2 8 1 9 74 10 75 11 76 12 77 13
REMARK SMILES IDX 78 14 83 15 79 16 81 17 80 18 82 19 9 20 10 21 11 22 12 23
REMARK SMILES IDX 13 25 14 26 15 27 73 28 16 29 72 30 17 31 18 32 19 33 66 34
REMARK SMILES IDX 20 35 71 36 65 37 67 38 21 39 70 40 64 41 63 42 22 44 52 45
REMARK SMILES IDX 33 46 51 47 34 48 37 49 50 50 68 51 35 52 36 53 49 55 69 56
REMARK SMILES IDX 38 57 23 58 24 59 32 60 25 61 31 62 26 63 27 64 28 65 29 66
REMARK SMILES IDX 30 67 53 68 54 69 62 70 55 71 61 72 56 73 57 74 58 75 59 76
REMARK SMILES IDX 60 77 39 78 40 79 48 80 41 81 47 82 42 83 43 84 44 85 45 86
REMARK SMILES IDX 46 87
REMARK H PARENT 6 6 11 24 67 43 37 54
REMARK Flexibility Score: inf
ROOT
ATOM      1  C   UNL A   1      34.782  31.137  28.006  1.00  0.00     0.023 C 
ENDROOT
BRANCH   1   2
ATOM      2  C   UNL A   1      34.715  29.678  27.563  1.00  0.00     0.116 C 
BRANCH   2   3
ATOM      3  N   UNL A   1      34.485  29.576  26.136  1.00  0.00    -0.356 N 
ATOM      4  C   UNL A   1      33.888  28.592  25.412  1.00  0.00     0.220 C 
ATOM      5  O   UNL A   1      33.891  28.690  24.184  1.00  0.00    -0.275 OA
ATOM      6  H   UNL A   1      34.813  30.340  25.608  1.00  0.00     0.163 HD
BRANCH   4   7
ATOM      7  C   UNL A   1      33.207  27.412  26.093  1.00  0.00     0.103 C 
BRANCH   7   8
ATOM      8  C   UNL A   1      31.669  27.457  26.298  1.00  0.00     0.004 C 
ATOM      9  C   UNL A   1      31.345  27.913  27.719  1.00  0.00     0.009 C 
BRANCH   8  10
ATOM     10  C   UNL A   1      30.955  26.182  25.822  1.00  0.00     0.104 C 
BRANCH  10  11
ATOM     11  C   UNL A   1      31.532  24.816  26.181  1.00  0.00     0.222 C 
ATOM     12  O   UNL A   1      31.472  24.383  27.331  1.00  0.00    -0.275 OA
ATOM     13  N   UNL A   1      31.961  24.042  25.110  1.00  0.00    -0.342 N 
ATOM     14  C   UNL A   1      31.690  22.613  25.066  1.00  0.00     0.123 C 
ATOM     15  C   UNL A   1      33.180  24.347  24.379  1.00  0.00     0.123 C 
ATOM     16  C   UNL A   1      32.975  21.966  24.541  1.00  0.00     0.010 C 
ATOM     17  C   UNL A   1      33.587  23.065  23.657  1.00  0.00     0.010 C 
ATOM     18  C   UNL A   1      33.900  21.597  25.702  1.00  0.00     0.010 C 
ATOM     19  C   UNL A   1      33.058  23.035  22.223  1.00  0.00     0.010 C 
ENDBRANCH  10  11
ENDBRANCH   8  10
ENDBRANCH   7   8
ENDBRANCH   4   7
ENDBRANCH   2   3
ENDBRANCH   1   2
BRANCH   1  20
ATOM     20  C   UNL A   1      33.465  31.904  27.967  1.00  0.00     0.023 C 
BRANCH  20  21
ATOM     21  C   UNL A   1      33.574  33.278  27.332  1.00  0.00     0.116 C 
BRANCH  21  22
ATOM     22  N   UNL A   1      32.886  34.311  28.091  1.00  0.00    -0.352 N 
ATOM     23  C   UNL A   1      33.172  34.807  29.342  1.00  0.00     0.251 C 
ATOM     24  H   UNL A   1      32.103  34.712  27.648  1.00  0.00     0.163 HD
ATOM     25  O   UNL A   1      32.410  35.603  29.868  1.00  0.00    -0.269 OA
BRANCH  23  26
ATOM     26  C   UNL A   1      34.382  34.335  30.051  1.00  0.00     0.039 A 
ATOM     27  C   UNL A   1      34.223  33.577  31.212  1.00  0.00     0.014 A 
ATOM     28  C   UNL A   1      35.662  34.610  29.562  1.00  0.00     0.014 A 
ATOM     29  C   UNL A   1      35.348  33.047  31.845  1.00  0.00     0.010 A 
ATOM     30  C   UNL A   1      36.770  33.995  30.132  1.00  0.00     0.010 A 
ATOM     31  C   UNL A   1      36.628  33.221  31.289  1.00  0.00    -0.014 A 
BRANCH  31  32
ATOM     32  C   UNL A   1      37.820  32.604  31.921  1.00  0.00     0.031 A 
ATOM     33  C   UNL A   1      38.318  33.101  33.252  1.00  0.00     0.074 A 
ATOM     34  C   UNL A   1      38.472  31.614  31.278  1.00  0.00     0.049 A 
ATOM     35  N   UNL A   1      39.312  32.655  33.977  1.00  0.00    -0.248 NA
ATOM     36  C   UNL A   1      37.633  34.267  33.834  1.00  0.00     0.031 C 
ATOM     37  C   UNL A   1      38.129  31.097  29.950  1.00  0.00     0.029 A 
ATOM     38  N   UNL A   1      39.550  30.858  31.659  1.00  0.00    -0.354 N 
ATOM     39  C   UNL A   1      39.375  33.487  35.089  1.00  0.00     0.074 A 
ATOM     40  C   UNL A   1      38.366  34.506  34.911  1.00  0.00     0.031 C 
ATOM     41  C   UNL A   1      38.945  30.073  29.653  1.00  0.00     0.029 A 
ATOM     42  C   UNL A   1      39.887  29.882  30.750  1.00  0.00     0.049 A 
ATOM     43  H   UNL A   1      40.036  31.000  32.503  1.00  0.00     0.167 HD
ATOM     44  C   UNL A   1      40.178  33.395  36.175  1.00  0.00     0.031 A 
ATOM     45  C   UNL A   1      40.838  28.930  30.802  1.00  0.00     0.031 A 
ATOM     46  C   UNL A   1      41.173  32.371  36.351  1.00  0.00     0.049 A 
ATOM     47  C   UNL A   1      41.698  28.829  32.031  1.00  0.00     0.074 A 
ATOM     48  C   UNL A   1      42.001  32.153  37.437  1.00  0.00     0.029 A 
ATOM     49  N   UNL A   1      41.472  31.392  35.416  1.00  0.00    -0.354 N 
ATOM     50  N   UNL A   1      41.688  29.577  33.110  1.00  0.00    -0.248 NA
ATOM     51  C   UNL A   1      42.681  27.738  32.061  1.00  0.00     0.031 C 
ATOM     52  C   UNL A   1      42.836  31.071  37.138  1.00  0.00     0.029 A 
ATOM     53  C   UNL A   1      42.484  30.577  35.892  1.00  0.00     0.049 A 
ATOM     54  H   UNL A   1      41.031  31.292  34.542  1.00  0.00     0.167 HD
ATOM     55  C   UNL A   1      42.643  29.028  33.959  1.00  0.00     0.074 A 
ATOM     56  C   UNL A   1      43.194  27.875  33.276  1.00  0.00     0.031 C 
ATOM     57  C   UNL A   1      43.026  29.439  35.194  1.00  0.00     0.031 A 
BRANCH  44  58
ATOM     58  C   UNL A   1      40.007  34.433  37.256  1.00  0.00    -0.014 A 
ATOM     59  C   UNL A   1      39.251  34.160  38.411  1.00  0.00     0.010 A 
ATOM     60  C   UNL A   1      40.632  35.686  37.130  1.00  0.00     0.010 A 
ATOM     61  C   UNL A   1      39.085  35.135  39.398  1.00  0.00     0.020 A 
ATOM     62  C   UNL A   1      40.494  36.654  38.129  1.00  0.00     0.020 A 
ATOM     63  C   UNL A   1      39.705  36.379  39.248  1.00  0.00     0.054 A 
BRANCH  63  64
ATOM     64  S   UNL A   1      39.489  37.618  40.554  1.00  0.00     0.124 S 
ATOM     65  O   UNL A   1      38.633  38.603  39.895  1.00  0.00    -0.237 OA
ATOM     66  O   UNL A   1      38.855  36.851  41.623  1.00  0.00    -0.237 OA
ATOM     67  O   UNL A   1      40.850  38.067  40.836  1.00  0.00    -0.744 OA
ENDBRANCH  63  64
ENDBRANCH  44  58
BRANCH  45  68
ATOM     68  C   UNL A   1      40.989  27.968  29.676  1.00  0.00    -0.014 A 
ATOM     69  C   UNL A   1      41.977  28.165  28.695  1.00  0.00     0.010 A 
ATOM     70  C   UNL A   1      40.154  26.839  29.587  1.00  0.00     0.010 A 
ATOM     71  C   UNL A   1      42.114  27.264  27.635  1.00  0.00     0.020 A 
ATOM     72  C   UNL A   1      40.308  25.920  28.545  1.00  0.00     0.020 A 
ATOM     73  C   UNL A   1      41.279  26.145  27.569  1.00  0.00     0.054 A 
BRANCH  73  74
ATOM     74  S   UNL A   1      41.509  24.960  26.213  1.00  0.00     0.124 S 
ATOM     75  O   UNL A   1      41.740  25.843  25.074  1.00  0.00    -0.237 OA
ATOM     76  O   UNL A   1      42.666  24.189  26.662  1.00  0.00    -0.237 OA
ATOM     77  O   UNL A   1      40.249  24.221  26.189  1.00  0.00    -0.744 OA
ENDBRANCH  73  74
ENDBRANCH  45  68
BRANCH  57  78
ATOM     78  C   UNL A   1      44.066  28.609  35.900  1.00  0.00    -0.014 A 
ATOM     79  C   UNL A   1      43.707  27.523  36.718  1.00  0.00     0.010 A 
ATOM     80  C   UNL A   1      45.428  28.913  35.722  1.00  0.00     0.010 A 
ATOM     81  C   UNL A   1      44.690  26.792  37.392  1.00  0.00     0.020 A 
ATOM     82  C   UNL A   1      46.415  28.165  36.368  1.00  0.00     0.020 A 
ATOM     83  C   UNL A   1      46.037  27.123  37.217  1.00  0.00     0.054 A 
BRANCH  83  84
ATOM     84  S   UNL A   1      47.295  26.160  38.099  1.00  0.00     0.124 S 
ATOM     85  O   UNL A   1      46.476  25.299  38.948  1.00  0.00    -0.237 OA
ATOM     86  O   UNL A   1      48.002  25.485  37.013  1.00  0.00    -0.237 OA
ATOM     87  O   UNL A   1      48.075  27.174  38.806  1.00  0.00    -0.744 OA
ENDBRANCH  83  84
ENDBRANCH  57  78
ENDBRANCH  31  32
ENDBRANCH  23  26
ENDBRANCH  21  22
ENDBRANCH  20  21
ENDBRANCH   1  20
TORSDOF 17
ENDMDL
MODEL 3
REMARK VINA RESULT:     -10.8      2.318      9.063
REMARK SMILES C[C@@H](CC(=O)NCCCCNC(=O)c1ccc(-c2c3nc(c(-c4ccc(S(=O)(=O)[O-])cc4)c4ccc([nH]4)c(-c4ccc(S(=O)(=O)[O-])cc4)c4nc(c(-c5ccc(S(=O)(=O)[O-])cc5)c5ccc2[nH]5)C=C4)C=C3)cc1)CC(=O)N1C[C@H](C)[C@@H](C)C1
REMARK SMILES IDX 8 1 7 2 6 3 4 4 5 5 3 7 2 8 1 9 74 10 75 11 76 12 77 13
REMARK SMILES IDX 78 14 83 15 79 16 81 17 80 18 82 19 9 20 10 21 11 22 12 23
REMARK SMILES IDX 13 25 14 26 15 27 73 28 16 29 72 30 17 31 18 32 19 33 66 34
REMARK SMILES IDX 20 35 71 36 65 37 67 38 21 39 70 40 64 41 63 42 22 44 52 45
REMARK SMILES IDX 33 46 51 47 34 48 37 49 50 50 68 51 35 52 36 53 49 55 69 56
REMARK SMILES IDX 38 57 23 58 24 59 32 60 25 61 31 62 26 63 27 64 28 65 29 66
REMARK SMILES IDX 30 67 53 68 54 69 62 70 55 71 61 72 56 73 57 74 58 75 59 76
REMARK SMILES IDX 60 77 39 78 40 79 48 80 41 81 47 82 42 83 43 84 44 85 45 86
REMARK SMILES IDX 46 87
REMARK H PARENT 6 6 11 24 67 43 37 54
REMARK Flexibility Score: inf
ROOT
ATOM      1  C   UNL A   1      37.403  19.904  25.000  1.00  0.00     0.023 C 
ENDROOT
BRANCH   1   2
ATOM      2  C   UNL A   1      35.881  19.986  24.925  1.00  0.00     0.116 C 
BRANCH   2   3
ATOM      3  N   UNL A   1      35.371  21.026  25.796  1.00  0.00    -0.356 N 
ATOM      4  C   UNL A   1      34.837  22.239  25.492  1.00  0.00     0.220 C 
ATOM      5  O   UNL A   1      34.553  22.998  26.420  1.00  0.00    -0.275 OA
ATOM      6  H   UNL A   1      35.419  20.822  26.758  1.00  0.00     0.163 HD
BRANCH   4   7
ATOM      7  C   UNL A   1      34.567  22.646  24.050  1.00  0.00     0.103 C 
BRANCH   7   8
ATOM      8  C   UNL A   1      33.096  22.722  23.560  1.00  0.00     0.004 C 
ATOM      9  C   UNL A   1      32.483  21.324  23.532  1.00  0.00     0.009 C 
BRANCH   8  10
ATOM     10  C   UNL A   1      32.923  23.558  22.283  1.00  0.00     0.104 C 
BRANCH  10  11
ATOM     11  C   UNL A   1      32.992  25.080  22.364  1.00  0.00     0.222 C 
ATOM     12  O   UNL A   1      33.995  25.692  21.999  1.00  0.00    -0.275 OA
ATOM     13  N   UNL A   1      31.807  25.721  22.703  1.00  0.00    -0.342 N 
ATOM     14  C   UNL A   1      31.399  26.945  22.029  1.00  0.00     0.123 C 
ATOM     15  C   UNL A   1      31.275  25.690  24.055  1.00  0.00     0.123 C 
ATOM     16  C   UNL A   1      30.844  27.856  23.127  1.00  0.00     0.010 C 
ATOM     17  C   UNL A   1      30.304  26.863  24.169  1.00  0.00     0.010 C 
ATOM     18  C   UNL A   1      31.957  28.731  23.708  1.00  0.00     0.010 C 
ATOM     19  C   UNL A   1      28.865  26.430  23.885  1.00  0.00     0.010 C 
ENDBRANCH  10  11
ENDBRANCH   8  10
ENDBRANCH   7   8
ENDBRANCH   4   7
ENDBRANCH   2   3
ENDBRANCH   1   2
BRANCH   1  20
ATOM     20  C   UNL A   1      38.136  21.237  25.090  1.00  0.00     0.023 C 
BRANCH  20  21
ATOM     21  C   UNL A   1      39.214  21.275  26.158  1.00  0.00     0.116 C 
BRANCH  21  22
ATOM     22  N   UNL A   1      40.158  20.173  26.052  1.00  0.00    -0.352 N 
ATOM     23  C   UNL A   1      41.532  20.194  26.132  1.00  0.00     0.251 C 
ATOM     24  H   UNL A   1      39.758  19.286  25.902  1.00  0.00     0.163 HD
ATOM     25  O   UNL A   1      42.168  19.177  25.907  1.00  0.00    -0.269 OA
BRANCH  23  26
ATOM     26  C   UNL A   1      42.222  21.465  26.448  1.00  0.00     0.039 A 
ATOM     27  C   UNL A   1      42.464  22.369  25.413  1.00  0.00     0.014 A 
ATOM     28  C   UNL A   1      42.599  21.778  27.757  1.00  0.00     0.014 A 
ATOM     29  C   UNL A   1      43.032  23.610  25.705  1.00  0.00     0.010 A 
ATOM     30  C   UNL A   1      43.064  23.051  28.059  1.00  0.00     0.010 A 
ATOM     31  C   UNL A   1      43.303  23.976  27.035  1.00  0.00    -0.014 A 
BRANCH  31  32
ATOM     32  C   UNL A   1      43.844  25.319  27.358  1.00  0.00     0.031 A 
ATOM     33  C   UNL A   1      45.277  25.657  27.043  1.00  0.00     0.074 A 
ATOM     34  C   UNL A   1      43.049  26.224  27.965  1.00  0.00     0.049 A 
ATOM     35  N   UNL A   1      45.910  26.790  27.209  1.00  0.00    -0.248 NA
ATOM     36  C   UNL A   1      46.119  24.579  26.498  1.00  0.00     0.031 C 
ATOM     37  C   UNL A   1      41.666  25.989  28.387  1.00  0.00     0.029 A 
ATOM     38  N   UNL A   1      43.286  27.527  28.319  1.00  0.00    -0.354 N 
ATOM     39  C   UNL A   1      47.218  26.558  26.799  1.00  0.00     0.074 A 
ATOM     40  C   UNL A   1      47.307  25.161  26.442  1.00  0.00     0.031 C 
ATOM     41  C   UNL A   1      41.161  27.125  28.893  1.00  0.00     0.029 A 
ATOM     42  C   UNL A   1      42.191  28.158  28.861  1.00  0.00     0.049 A 
ATOM     43  H   UNL A   1      44.158  27.969  28.198  1.00  0.00     0.167 HD
ATOM     44  C   UNL A   1      48.245  27.434  26.699  1.00  0.00     0.031 A 
ATOM     45  C   UNL A   1      42.029  29.431  29.270  1.00  0.00     0.031 A 
ATOM     46  C   UNL A   1      48.147  28.827  27.044  1.00  0.00     0.049 A 
ATOM     47  C   UNL A   1      43.175  30.393  29.121  1.00  0.00     0.074 A 
ATOM     48  C   UNL A   1      49.109  29.814  26.928  1.00  0.00     0.029 A 
ATOM     49  N   UNL A   1      47.016  29.431  27.573  1.00  0.00    -0.354 N 
ATOM     50  N   UNL A   1      44.382  30.174  28.655  1.00  0.00    -0.248 NA
ATOM     51  C   UNL A   1      42.928  31.782  29.530  1.00  0.00     0.031 C 
ATOM     52  C   UNL A   1      48.577  31.004  27.432  1.00  0.00     0.029 A 
ATOM     53  C   UNL A   1      47.261  30.773  27.804  1.00  0.00     0.049 A 
ATOM     54  H   UNL A   1      46.164  28.973  27.758  1.00  0.00     0.167 HD
ATOM     55  C   UNL A   1      45.029  31.404  28.687  1.00  0.00     0.074 A 
ATOM     56  C   UNL A   1      44.072  32.365  29.199  1.00  0.00     0.031 C 
ATOM     57  C   UNL A   1      46.299  31.712  28.322  1.00  0.00     0.031 A 
BRANCH  44  58
ATOM     58  C   UNL A   1      49.562  26.905  26.191  1.00  0.00    -0.014 A 
ATOM     59  C   UNL A   1      50.485  26.294  27.061  1.00  0.00     0.010 A 
ATOM     60  C   UNL A   1      49.873  26.993  24.822  1.00  0.00     0.010 A 
ATOM     61  C   UNL A   1      51.709  25.823  26.582  1.00  0.00     0.020 A 
ATOM     62  C   UNL A   1      51.085  26.496  24.333  1.00  0.00     0.020 A 
ATOM     63  C   UNL A   1      52.003  25.931  25.220  1.00  0.00     0.054 A 
BRANCH  63  64
ATOM     64  S   UNL A   1      53.592  25.293  24.622  1.00  0.00     0.124 S 
ATOM     65  O   UNL A   1      53.500  23.878  24.977  1.00  0.00    -0.237 OA
ATOM     66  O   UNL A   1      53.538  25.586  23.192  1.00  0.00    -0.237 OA
ATOM     67  O   UNL A   1      54.580  26.061  25.376  1.00  0.00    -0.744 OA
ENDBRANCH  63  64
ENDBRANCH  44  58
BRANCH  45  68
ATOM     68  C   UNL A   1      40.716  29.876  29.812  1.00  0.00    -0.014 A 
ATOM     69  C   UNL A   1      40.493  29.922  31.199  1.00  0.00     0.010 A 
ATOM     70  C   UNL A   1      39.684  30.273  28.941  1.00  0.00     0.010 A 
ATOM     71  C   UNL A   1      39.257  30.335  31.706  1.00  0.00     0.020 A 
ATOM     72  C   UNL A   1      38.457  30.715  29.445  1.00  0.00     0.020 A 
ATOM     73  C   UNL A   1      38.248  30.732  30.824  1.00  0.00     0.054 A 
BRANCH  73  74
ATOM     74  S   UNL A   1      36.669  31.315  31.505  1.00  0.00     0.124 S 
ATOM     75  O   UNL A   1      37.095  31.981  32.732  1.00  0.00    -0.237 OA
ATOM     76  O   UNL A   1      36.175  32.192  30.447  1.00  0.00    -0.237 OA
ATOM     77  O   UNL A   1      35.904  30.084  31.693  1.00  0.00    -0.744 OA
ENDBRANCH  73  74
ENDBRANCH  45  68
BRANCH  57  78
ATOM     78  C   UNL A   1      46.710  33.157  28.428  1.00  0.00    -0.014 A 
ATOM     79  C   UNL A   1      47.307  33.667  29.595  1.00  0.00     0.010 A 
ATOM     80  C   UNL A   1      46.510  34.013  27.329  1.00  0.00     0.010 A 
ATOM     81  C   UNL A   1      47.644  35.021  29.681  1.00  0.00     0.020 A 
ATOM     82  C   UNL A   1      46.875  35.359  27.400  1.00  0.00     0.020 A 
ATOM     83  C   UNL A   1      47.420  35.859  28.585  1.00  0.00     0.054 A 
BRANCH  83  84
ATOM     84  S   UNL A   1      47.867  37.611  28.718  1.00  0.00     0.124 S 
ATOM     85  O   UNL A   1      46.557  38.252  28.805  1.00  0.00    -0.237 OA
ATOM     86  O   UNL A   1      48.667  37.646  29.940  1.00  0.00    -0.237 OA
ATOM     87  O   UNL A   1      48.609  37.874  27.487  1.00  0.00    -0.744 OA
ENDBRANCH  83  84
ENDBRANCH  57  78
ENDBRANCH  31  32
ENDBRANCH  23  26
ENDBRANCH  21  22
ENDBRANCH  20  21
ENDBRANCH   1  20
TORSDOF 17
ENDMDL
