MODEL 1
REMARK VINA RESULT:     -11.8      0.000      0.000
REMARK SMILES CCCCc1ncc(C[N@H+]2C[C@@H]3c4ccccc4OC[C@]3(C(=O)NCCCCNC(=O)c3ccc(-c4c5nc(c(-c6ccc(S(=O)(=O)[O-])cc6)c6ccc([nH]6)c(-c6ccc(S(=O)(=O)[O-])cc6)c6nc(c(-c7ccc(S(=O)(=O)[O-])cc7)c7ccc4[nH]7)C=C6)C=C5)cc3)C2)[nH]1
REMARK SMILES IDX 25 1 24 2 22 3 23 4 21 6 10 7 11 8 92 9 12 11 13 12 20 13
REMARK SMILES IDX 14 14 18 15 19 16 15 17 17 18 16 19 9 20 8 21 5 22 6 23
REMARK SMILES IDX 93 24 7 25 4 27 3 28 2 29 1 30 26 31 27 32 28 33 29 34 30 35
REMARK SMILES IDX 31 37 32 38 33 39 91 40 34 41 90 42 35 43 36 44 37 45 84 46
REMARK SMILES IDX 38 47 89 48 83 49 85 50 39 51 88 52 82 53 81 54 40 56 70 57
REMARK SMILES IDX 51 58 69 59 52 60 55 61 68 62 86 63 53 64 54 65 67 67 87 68
REMARK SMILES IDX 56 69 41 70 42 71 50 72 43 73 49 74 44 75 45 76 46 77 47 78
REMARK SMILES IDX 48 79 71 80 72 81 80 82 73 83 79 84 74 85 75 86 76 87 77 88
REMARK SMILES IDX 78 89 57 90 58 91 66 92 59 93 65 94 60 95 61 96 62 97 63 98
REMARK SMILES IDX 64 99
REMARK H PARENT 24 5 10 10 93 26 29 36 85 55 55 66
REMARK Flexibility Score: inf
ROOT
ATOM      1  C   UNL A   1      34.287  24.233  23.462  1.00  0.00     0.116 C 
ENDROOT
BRANCH   1   2
ATOM      2  N   UNL A   1      33.294  24.212  22.397  1.00  0.00    -0.355 N 
ATOM      3  C   UNL A   1      32.265  25.129  22.254  1.00  0.00     0.236 C 
ATOM      4  O   UNL A   1      31.876  25.411  21.118  1.00  0.00    -0.274 OA
ATOM      5  H   UNL A   1      33.359  23.492  21.728  1.00  0.00     0.163 HD
BRANCH   3   6
ATOM      6  C   UNL A   1      31.658  25.711  23.584  1.00  0.00     0.144 C 
ATOM      7  N   UNL A   1      30.718  23.998  25.008  1.00  0.00    -0.328 N 
ATOM      8  C   UNL A   1      30.954  25.106  25.907  1.00  0.00     0.272 C 
ATOM      9  C   UNL A   1      31.736  24.148  23.970  1.00  0.00     0.284 C 
ATOM     10  H   UNL A   1      29.785  24.036  24.598  1.00  0.00     0.348 HD
ATOM     11  C   UNL A   1      31.969  25.979  25.140  1.00  0.00     0.103 C 
ATOM     12  C   UNL A   1      31.917  27.387  25.692  1.00  0.00     0.004 A 
ATOM     13  C   UNL A   1      32.420  27.031  23.099  1.00  0.00     0.253 C 
ATOM     14  C   UNL A   1      32.053  27.659  27.062  1.00  0.00     0.008 A 
ATOM     15  C   UNL A   1      31.806  28.452  24.812  1.00  0.00     0.123 A 
ATOM     16  O   UNL A   1      31.701  28.225  23.476  1.00  0.00    -0.492 OA
ATOM     17  C   UNL A   1      32.056  28.975  27.526  1.00  0.00     0.001 A 
ATOM     18  C   UNL A   1      31.803  29.769  25.264  1.00  0.00     0.047 A 
ATOM     19  C   UNL A   1      31.937  30.032  26.626  1.00  0.00     0.004 A 
BRANCH   7  20
ATOM     20  C   UNL A   1      30.577  22.682  25.627  1.00  0.00     0.319 C 
BRANCH  20  21
ATOM     21  C   UNL A   1      31.857  21.965  25.841  1.00  0.00     0.090 A 
ATOM     22  C   UNL A   1      33.468  20.495  25.436  1.00  0.00     0.106 A 
ATOM     23  N   UNL A   1      33.970  21.325  26.329  1.00  0.00    -0.241 NA
ATOM     24  N   UNL A   1      32.144  20.771  25.232  1.00  0.00    -0.341 N 
ATOM     25  C   UNL A   1      32.977  22.237  26.591  1.00  0.00     0.140 A 
ATOM     26  H   UNL A   1      31.507  20.209  24.734  1.00  0.00     0.168 HD
BRANCH  22  27
ATOM     27  C   UNL A   1      34.220  19.494  24.623  1.00  0.00     0.075 C 
BRANCH  27  28
ATOM     28  C   UNL A   1      33.685  18.061  24.669  1.00  0.00     0.008 C 
BRANCH  28  29
ATOM     29  C   UNL A   1      33.370  17.376  23.332  1.00  0.00    -0.003 C 
ATOM     30  C   UNL A   1      32.436  18.157  22.420  1.00  0.00     0.004 C 
ENDBRANCH  28  29
ENDBRANCH  27  28
ENDBRANCH  22  27
ENDBRANCH  20  21
ENDBRANCH   7  20
ENDBRANCH   3   6
ENDBRANCH   1   2
BRANCH   1  31
ATOM     31  C   UNL A   1      35.237  23.049  23.507  1.00  0.00     0.023 C 
BRANCH  31  32
ATOM     32  C   UNL A   1      36.686  23.350  23.867  1.00  0.00     0.023 C 
BRANCH  32  33
ATOM     33  C   UNL A   1      37.086  23.170  25.325  1.00  0.00     0.116 C 
BRANCH  33  34
ATOM     34  N   UNL A   1      38.323  22.431  25.531  1.00  0.00    -0.352 N 
ATOM     35  C   UNL A   1      39.474  22.826  26.180  1.00  0.00     0.251 C 
ATOM     36  H   UNL A   1      38.341  21.521  25.154  1.00  0.00     0.163 HD
ATOM     37  O   UNL A   1      40.442  22.073  26.239  1.00  0.00    -0.269 OA
BRANCH  35  38
ATOM     38  C   UNL A   1      39.552  24.188  26.748  1.00  0.00     0.039 A 
ATOM     39  C   UNL A   1      40.146  25.224  26.025  1.00  0.00     0.014 A 
ATOM     40  C   UNL A   1      39.117  24.401  28.059  1.00  0.00     0.014 A 
ATOM     41  C   UNL A   1      40.505  26.394  26.685  1.00  0.00     0.010 A 
ATOM     42  C   UNL A   1      39.391  25.619  28.688  1.00  0.00     0.010 A 
ATOM     43  C   UNL A   1      40.146  26.601  28.029  1.00  0.00    -0.014 A 
BRANCH  43  44
ATOM     44  C   UNL A   1      40.584  27.842  28.721  1.00  0.00     0.031 A 
ATOM     45  C   UNL A   1      42.018  28.030  29.143  1.00  0.00     0.074 A 
ATOM     46  C   UNL A   1      39.692  28.837  28.904  1.00  0.00     0.049 A 
ATOM     47  N   UNL A   1      42.569  29.057  29.741  1.00  0.00    -0.248 NA
ATOM     48  C   UNL A   1      42.961  26.932  28.862  1.00  0.00     0.031 C 
ATOM     49  C   UNL A   1      38.284  28.784  28.508  1.00  0.00     0.029 A 
ATOM     50  N   UNL A   1      39.842  30.095  29.432  1.00  0.00    -0.354 N 
ATOM     51  C   UNL A   1      43.906  28.724  29.925  1.00  0.00     0.074 A 
ATOM     52  C   UNL A   1      44.086  27.390  29.396  1.00  0.00     0.031 C 
ATOM     53  C   UNL A   1      37.719  29.977  28.737  1.00  0.00     0.029 A 
ATOM     54  C   UNL A   1      38.697  30.854  29.372  1.00  0.00     0.049 A 
ATOM     55  H   UNL A   1      40.687  30.422  29.816  1.00  0.00     0.167 HD
ATOM     56  C   UNL A   1      44.895  29.469  30.476  1.00  0.00     0.031 A 
ATOM     57  C   UNL A   1      38.446  32.109  29.792  1.00  0.00     0.031 A 
ATOM     58  C   UNL A   1      44.714  30.806  30.980  1.00  0.00     0.049 A 
ATOM     59  C   UNL A   1      39.545  32.894  30.445  1.00  0.00     0.074 A 
ATOM     60  C   UNL A   1      45.662  31.642  31.543  1.00  0.00     0.029 A 
ATOM     61  N   UNL A   1      43.516  31.504  30.977  1.00  0.00    -0.354 N 
ATOM     62  N   UNL A   1      40.796  32.551  30.627  1.00  0.00    -0.248 NA
ATOM     63  C   UNL A   1      39.199  34.224  30.962  1.00  0.00     0.031 C 
ATOM     64  C   UNL A   1      45.026  32.823  31.933  1.00  0.00     0.029 A 
ATOM     65  C   UNL A   1      43.695  32.749  31.555  1.00  0.00     0.049 A 
ATOM     66  H   UNL A   1      42.665  31.165  30.617  1.00  0.00     0.167 HD
ATOM     67  C   UNL A   1      41.390  33.621  31.286  1.00  0.00     0.074 A 
ATOM     68  C   UNL A   1      40.366  34.634  31.445  1.00  0.00     0.031 C 
ATOM     69  C   UNL A   1      42.665  33.743  31.724  1.00  0.00     0.031 A 
BRANCH  56  70
ATOM     70  C   UNL A   1      46.276  28.873  30.578  1.00  0.00    -0.014 A 
ATOM     71  C   UNL A   1      46.660  28.204  31.757  1.00  0.00     0.010 A 
ATOM     72  C   UNL A   1      47.234  29.088  29.571  1.00  0.00     0.010 A 
ATOM     73  C   UNL A   1      47.982  27.790  31.941  1.00  0.00     0.020 A 
ATOM     74  C   UNL A   1      48.552  28.652  29.742  1.00  0.00     0.020 A 
ATOM     75  C   UNL A   1      48.923  28.027  30.936  1.00  0.00     0.054 A 
BRANCH  75  76
ATOM     76  S   UNL A   1      50.641  27.508  31.203  1.00  0.00     0.124 S 
ATOM     77  O   UNL A   1      51.205  28.653  31.911  1.00  0.00    -0.237 OA
ATOM     78  O   UNL A   1      50.489  26.288  31.993  1.00  0.00    -0.237 OA
ATOM     79  O   UNL A   1      51.147  27.298  29.847  1.00  0.00    -0.744 OA
ENDBRANCH  75  76
ENDBRANCH  56  70
BRANCH  57  80
ATOM     80  C   UNL A   1      37.085  32.676  29.592  1.00  0.00    -0.014 A 
ATOM     81  C   UNL A   1      36.711  33.194  28.339  1.00  0.00     0.010 A 
ATOM     82  C   UNL A   1      36.201  32.803  30.677  1.00  0.00     0.010 A 
ATOM     83  C   UNL A   1      35.512  33.894  28.189  1.00  0.00     0.020 A 
ATOM     84  C   UNL A   1      34.985  33.477  30.523  1.00  0.00     0.020 A 
ATOM     85  C   UNL A   1      34.666  34.048  29.288  1.00  0.00     0.054 A 
BRANCH  85  86
ATOM     86  S   UNL A   1      33.147  35.020  29.093  1.00  0.00     0.124 S 
ATOM     87  O   UNL A   1      33.675  36.312  28.664  1.00  0.00    -0.237 OA
ATOM     88  O   UNL A   1      32.413  34.271  28.076  1.00  0.00    -0.237 OA
ATOM     89  O   UNL A   1      32.555  34.997  30.427  1.00  0.00    -0.744 OA
ENDBRANCH  85  86
ENDBRANCH  57  80
BRANCH  69  90
ATOM     90  C   UNL A   1      43.046  35.008  32.445  1.00  0.00    -0.014 A 
ATOM     91  C   UNL A   1      43.577  36.094  31.723  1.00  0.00     0.010 A 
ATOM     92  C   UNL A   1      43.001  35.071  33.848  1.00  0.00     0.010 A 
ATOM     93  C   UNL A   1      44.092  37.204  32.393  1.00  0.00     0.020 A 
ATOM     94  C   UNL A   1      43.492  36.192  34.521  1.00  0.00     0.020 A 
ATOM     95  C   UNL A   1      44.058  37.240  33.790  1.00  0.00     0.054 A 
BRANCH  95  96
ATOM     96  S   UNL A   1      44.766  38.674  34.647  1.00  0.00     0.124 S 
ATOM     97  O   UNL A   1      44.460  39.764  33.725  1.00  0.00    -0.237 OA
ATOM     98  O   UNL A   1      44.031  38.691  35.909  1.00  0.00    -0.237 OA
ATOM     99  O   UNL A   1      46.183  38.336  34.766  1.00  0.00    -0.744 OA
ENDBRANCH  95  96
ENDBRANCH  69  90
ENDBRANCH  43  44
ENDBRANCH  35  38
ENDBRANCH  33  34
ENDBRANCH  32  33
ENDBRANCH  31  32
ENDBRANCH   1  31
TORSDOF 19
ENDMDL
MODEL 2
REMARK VINA RESULT:     -11.7      0.557      7.884
REMARK SMILES CCCCc1ncc(C[N@H+]2C[C@@H]3c4ccccc4OC[C@]3(C(=O)NCCCCNC(=O)c3ccc(-c4c5nc(c(-c6ccc(S(=O)(=O)[O-])cc6)c6ccc([nH]6)c(-c6ccc(S(=O)(=O)[O-])cc6)c6nc(c(-c7ccc(S(=O)(=O)[O-])cc7)c7ccc4[nH]7)C=C6)C=C5)cc3)C2)[nH]1
REMARK SMILES IDX 25 1 24 2 22 3 23 4 21 6 10 7 11 8 92 9 12 11 13 12 20 13
REMARK SMILES IDX 14 14 18 15 19 16 15 17 17 18 16 19 9 20 8 21 5 22 6 23
REMARK SMILES IDX 93 24 7 25 4 27 3 28 2 29 1 30 26 31 27 32 28 33 29 34 30 35
REMARK SMILES IDX 31 37 32 38 33 39 91 40 34 41 90 42 35 43 36 44 37 45 84 46
REMARK SMILES IDX 38 47 89 48 83 49 85 50 39 51 88 52 82 53 81 54 40 56 70 57
REMARK SMILES IDX 51 58 69 59 52 60 55 61 68 62 86 63 53 64 54 65 67 67 87 68
REMARK SMILES IDX 56 69 41 70 42 71 50 72 43 73 49 74 44 75 45 76 46 77 47 78
REMARK SMILES IDX 48 79 71 80 72 81 80 82 73 83 79 84 74 85 75 86 76 87 77 88
REMARK SMILES IDX 78 89 57 90 58 91 66 92 59 93 65 94 60 95 61 96 62 97 63 98
REMARK SMILES IDX 64 99
REMARK H PARENT 24 5 10 10 93 26 29 36 85 55 55 66
REMARK Flexibility Score: inf
ROOT
ATOM      1  C   UNL A   1      34.235  24.255  23.409  1.00  0.00     0.116 C 
ENDROOT
BRANCH   1   2
ATOM      2  N   UNL A   1      33.242  24.245  22.344  1.00  0.00    -0.355 N 
ATOM      3  C   UNL A   1      32.215  25.167  22.209  1.00  0.00     0.236 C 
ATOM      4  O   UNL A   1      31.826  25.459  21.076  1.00  0.00    -0.274 OA
ATOM      5  H   UNL A   1      33.303  23.531  21.669  1.00  0.00     0.163 HD
BRANCH   3   6
ATOM      6  C   UNL A   1      31.610  25.740  23.544  1.00  0.00     0.144 C 
ATOM      7  N   UNL A   1      30.688  24.015  24.965  1.00  0.00    -0.328 N 
ATOM      8  C   UNL A   1      30.921  25.121  25.868  1.00  0.00     0.272 C 
ATOM      9  C   UNL A   1      31.700  24.175  23.924  1.00  0.00     0.284 C 
ATOM     10  H   UNL A   1      29.752  24.050  24.560  1.00  0.00     0.348 HD
ATOM     11  C   UNL A   1      31.928  26.003  25.100  1.00  0.00     0.103 C 
ATOM     12  C   UNL A   1      31.870  27.408  25.658  1.00  0.00     0.004 A 
ATOM     13  C   UNL A   1      32.363  27.066  23.061  1.00  0.00     0.253 C 
ATOM     14  C   UNL A   1      32.010  27.676  27.029  1.00  0.00     0.008 A 
ATOM     15  C   UNL A   1      31.749  28.476  24.783  1.00  0.00     0.123 A 
ATOM     16  O   UNL A   1      31.639  28.255  23.446  1.00  0.00    -0.492 OA
ATOM     17  C   UNL A   1      32.008  28.990  27.498  1.00  0.00     0.001 A 
ATOM     18  C   UNL A   1      31.740  29.791  25.240  1.00  0.00     0.047 A 
ATOM     19  C   UNL A   1      31.878  30.050  26.602  1.00  0.00     0.004 A 
BRANCH   7  20
ATOM     20  C   UNL A   1      30.556  22.696  25.580  1.00  0.00     0.319 C 
BRANCH  20  21
ATOM     21  C   UNL A   1      31.845  22.003  25.824  1.00  0.00     0.090 A 
ATOM     22  C   UNL A   1      33.491  20.562  25.459  1.00  0.00     0.106 A 
ATOM     23  N   UNL A   1      33.958  21.404  26.360  1.00  0.00    -0.241 NA
ATOM     24  N   UNL A   1      32.167  20.813  25.225  1.00  0.00    -0.341 N 
ATOM     25  C   UNL A   1      32.943  22.298  26.597  1.00  0.00     0.140 A 
ATOM     26  H   UNL A   1      31.551  20.238  24.715  1.00  0.00     0.168 HD
BRANCH  22  27
ATOM     27  C   UNL A   1      34.279  19.573  24.666  1.00  0.00     0.075 C 
BRANCH  27  28
ATOM     28  C   UNL A   1      33.728  18.146  24.644  1.00  0.00     0.008 C 
BRANCH  28  29
ATOM     29  C   UNL A   1      33.500  17.491  23.273  1.00  0.00    -0.003 C 
ATOM     30  C   UNL A   1      32.379  18.108  22.451  1.00  0.00     0.004 C 
ENDBRANCH  28  29
ENDBRANCH  27  28
ENDBRANCH  22  27
ENDBRANCH  20  21
ENDBRANCH   7  20
ENDBRANCH   3   6
ENDBRANCH   1   2
BRANCH   1  31
ATOM     31  C   UNL A   1      35.203  23.084  23.424  1.00  0.00     0.023 C 
BRANCH  31  32
ATOM     32  C   UNL A   1      36.649  23.399  23.785  1.00  0.00     0.023 C 
BRANCH  32  33
ATOM     33  C   UNL A   1      37.043  23.249  25.248  1.00  0.00     0.116 C 
BRANCH  33  34
ATOM     34  N   UNL A   1      38.245  22.462  25.477  1.00  0.00    -0.352 N 
ATOM     35  C   UNL A   1      39.395  22.810  26.155  1.00  0.00     0.251 C 
ATOM     36  H   UNL A   1      38.237  21.554  25.097  1.00  0.00     0.163 HD
ATOM     37  O   UNL A   1      40.331  22.019  26.232  1.00  0.00    -0.269 OA
BRANCH  35  38
ATOM     38  C   UNL A   1      39.512  24.165  26.732  1.00  0.00     0.039 A 
ATOM     39  C   UNL A   1      40.163  25.180  26.029  1.00  0.00     0.014 A 
ATOM     40  C   UNL A   1      39.056  24.389  28.033  1.00  0.00     0.014 A 
ATOM     41  C   UNL A   1      40.552  26.332  26.703  1.00  0.00     0.010 A 
ATOM     42  C   UNL A   1      39.362  25.593  28.675  1.00  0.00     0.010 A 
ATOM     43  C   UNL A   1      40.170  26.547  28.039  1.00  0.00    -0.014 A 
BRANCH  43  44
ATOM     44  C   UNL A   1      40.639  27.768  28.747  1.00  0.00     0.031 A 
ATOM     45  C   UNL A   1      39.716  28.939  28.969  1.00  0.00     0.074 A 
ATOM     46  C   UNL A   1      41.888  27.789  29.256  1.00  0.00     0.049 A 
ATOM     47  N   UNL A   1      39.961  30.071  29.580  1.00  0.00    -0.248 NA
ATOM     48  C   UNL A   1      38.344  28.834  28.442  1.00  0.00     0.031 C 
ATOM     49  C   UNL A   1      42.860  26.702  29.134  1.00  0.00     0.029 A 
ATOM     50  N   UNL A   1      42.539  28.735  30.007  1.00  0.00    -0.354 N 
ATOM     51  C   UNL A   1      38.790  30.816  29.495  1.00  0.00     0.074 A 
ATOM     52  C   UNL A   1      37.837  30.020  28.754  1.00  0.00     0.031 C 
ATOM     53  C   UNL A   1      43.953  27.009  29.846  1.00  0.00     0.029 A 
ATOM     54  C   UNL A   1      43.796  28.347  30.407  1.00  0.00     0.049 A 
ATOM     55  H   UNL A   1      42.144  29.607  30.237  1.00  0.00     0.167 HD
ATOM     56  C   UNL A   1      38.533  32.047  29.999  1.00  0.00     0.031 A 
ATOM     57  C   UNL A   1      44.731  28.992  31.131  1.00  0.00     0.031 A 
ATOM     58  C   UNL A   1      39.480  32.824  30.756  1.00  0.00     0.049 A 
ATOM     59  C   UNL A   1      44.440  30.375  31.633  1.00  0.00     0.074 A 
ATOM     60  C   UNL A   1      39.302  34.076  31.318  1.00  0.00     0.029 A 
ATOM     61  N   UNL A   1      40.772  32.427  31.064  1.00  0.00    -0.354 N 
ATOM     62  N   UNL A   1      43.333  31.068  31.522  1.00  0.00    -0.248 NA
ATOM     63  C   UNL A   1      45.522  31.070  32.343  1.00  0.00     0.031 C 
ATOM     64  C   UNL A   1      40.504  34.460  31.917  1.00  0.00     0.029 A 
ATOM     65  C   UNL A   1      41.412  33.422  31.784  1.00  0.00     0.049 A 
ATOM     66  H   UNL A   1      41.175  31.566  30.810  1.00  0.00     0.167 HD
ATOM     67  C   UNL A   1      43.585  32.285  32.144  1.00  0.00     0.074 A 
ATOM     68  C   UNL A   1      44.940  32.223  32.652  1.00  0.00     0.031 C 
ATOM     69  C   UNL A   1      42.766  33.356  32.271  1.00  0.00     0.031 A 
BRANCH  56  70
ATOM     70  C   UNL A   1      37.175  32.656  29.757  1.00  0.00    -0.014 A 
ATOM     71  C   UNL A   1      36.983  33.510  28.653  1.00  0.00     0.010 A 
ATOM     72  C   UNL A   1      36.133  32.496  30.687  1.00  0.00     0.010 A 
ATOM     73  C   UNL A   1      35.786  34.215  28.501  1.00  0.00     0.020 A 
ATOM     74  C   UNL A   1      34.925  33.182  30.523  1.00  0.00     0.020 A 
ATOM     75  C   UNL A   1      34.768  34.056  29.444  1.00  0.00     0.054 A 
BRANCH  75  76
ATOM     76  S   UNL A   1      33.232  35.001  29.246  1.00  0.00     0.124 S 
ATOM     77  O   UNL A   1      32.707  35.028  30.607  1.00  0.00    -0.237 OA
ATOM     78  O   UNL A   1      33.707  36.281  28.725  1.00  0.00    -0.237 OA
ATOM     79  O   UNL A   1      32.462  34.201  28.293  1.00  0.00    -0.744 OA
ENDBRANCH  75  76
ENDBRANCH  56  70
BRANCH  57  80
ATOM     80  C   UNL A   1      46.024  28.310  31.407  1.00  0.00    -0.014 A 
ATOM     81  C   UNL A   1      46.193  27.567  32.591  1.00  0.00     0.010 A 
ATOM     82  C   UNL A   1      47.122  28.492  30.550  1.00  0.00     0.010 A 
ATOM     83  C   UNL A   1      47.451  27.081  32.950  1.00  0.00     0.020 A 
ATOM     84  C   UNL A   1      48.378  27.979  30.892  1.00  0.00     0.020 A 
ATOM     85  C   UNL A   1      48.540  27.308  32.107  1.00  0.00     0.054 A 
BRANCH  85  86
ATOM     86  S   UNL A   1      50.180  26.731  32.624  1.00  0.00     0.124 S 
ATOM     87  O   UNL A   1      50.078  25.294  32.388  1.00  0.00    -0.237 OA
ATOM     88  O   UNL A   1      51.075  27.454  31.723  1.00  0.00    -0.237 OA
ATOM     89  O   UNL A   1      50.256  27.133  34.025  1.00  0.00    -0.744 OA
ENDBRANCH  85  86
ENDBRANCH  57  80
BRANCH  69  90
ATOM     90  C   UNL A   1      43.304  34.576  32.970  1.00  0.00    -0.014 A 
ATOM     91  C   UNL A   1      43.158  34.706  34.364  1.00  0.00     0.010 A 
ATOM     92  C   UNL A   1      43.829  35.648  32.229  1.00  0.00     0.010 A 
ATOM     93  C   UNL A   1      43.495  35.901  35.000  1.00  0.00     0.020 A 
ATOM     94  C   UNL A   1      44.192  36.837  32.868  1.00  0.00     0.020 A 
ATOM     95  C   UNL A   1      43.998  36.965  34.246  1.00  0.00     0.054 A 
BRANCH  95  96
ATOM     96  S   UNL A   1      44.395  38.524  35.084  1.00  0.00     0.124 S 
ATOM     97  O   UNL A   1      43.633  39.494  34.304  1.00  0.00    -0.237 OA
ATOM     98  O   UNL A   1      43.915  38.291  36.444  1.00  0.00    -0.237 OA
ATOM     99  O   UNL A   1      45.848  38.620  34.953  1.00  0.00    -0.744 OA
ENDBRANCH  95  96
ENDBRANCH  69  90
ENDBRANCH  43  44
ENDBRANCH  35  38
ENDBRANCH  33  34
ENDBRANCH  32  33
ENDBRANCH  31  32
ENDBRANCH   1  31
TORSDOF 19
ENDMDL
MODEL 3
REMARK VINA RESULT:     -11.1      2.514      8.007
REMARK SMILES CCCCc1ncc(C[N@H+]2C[C@@H]3c4ccccc4OC[C@]3(C(=O)NCCCCNC(=O)c3ccc(-c4c5nc(c(-c6ccc(S(=O)(=O)[O-])cc6)c6ccc([nH]6)c(-c6ccc(S(=O)(=O)[O-])cc6)c6nc(c(-c7ccc(S(=O)(=O)[O-])cc7)c7ccc4[nH]7)C=C6)C=C5)cc3)C2)[nH]1
REMARK SMILES IDX 25 1 24 2 22 3 23 4 21 6 10 7 11 8 92 9 12 11 13 12 20 13
REMARK SMILES IDX 14 14 18 15 19 16 15 17 17 18 16 19 9 20 8 21 5 22 6 23
REMARK SMILES IDX 93 24 7 25 4 27 3 28 2 29 1 30 26 31 27 32 28 33 29 34 30 35
REMARK SMILES IDX 31 37 32 38 33 39 91 40 34 41 90 42 35 43 36 44 37 45 84 46
REMARK SMILES IDX 38 47 89 48 83 49 85 50 39 51 88 52 82 53 81 54 40 56 70 57
REMARK SMILES IDX 51 58 69 59 52 60 55 61 68 62 86 63 53 64 54 65 67 67 87 68
REMARK SMILES IDX 56 69 41 70 42 71 50 72 43 73 49 74 44 75 45 76 46 77 47 78
REMARK SMILES IDX 48 79 71 80 72 81 80 82 73 83 79 84 74 85 75 86 76 87 77 88
REMARK SMILES IDX 78 89 57 90 58 91 66 92 59 93 65 94 60 95 61 96 62 97 63 98
REMARK SMILES IDX 64 99
REMARK H PARENT 24 5 10 10 93 26 29 36 85 55 55 66
REMARK Flexibility Score: inf
ROOT
ATOM      1  C   UNL A   1      34.384  23.983  23.909  1.00  0.00     0.116 C 
ENDROOT
BRANCH   1   2
ATOM      2  N   UNL A   1      33.520  23.967  22.737  1.00  0.00    -0.355 N 
ATOM      3  C   UNL A   1      32.556  24.921  22.449  1.00  0.00     0.236 C 
ATOM      4  O   UNL A   1      32.313  25.179  21.268  1.00  0.00    -0.274 OA
ATOM      5  H   UNL A   1      33.627  23.222  22.102  1.00  0.00     0.163 HD
BRANCH   3   6
ATOM      6  C   UNL A   1      31.829  25.575  23.681  1.00  0.00     0.144 C 
ATOM      7  N   UNL A   1      30.752  23.941  25.101  1.00  0.00    -0.328 N 
ATOM      8  C   UNL A   1      30.906  25.097  25.957  1.00  0.00     0.272 C 
ATOM      9  C   UNL A   1      31.864  24.034  24.158  1.00  0.00     0.284 C 
ATOM     10  H   UNL A   1      29.861  23.956  24.603  1.00  0.00     0.348 HD
ATOM     11  C   UNL A   1      31.993  25.927  25.243  1.00  0.00     0.103 C 
ATOM     12  C   UNL A   1      31.896  27.363  25.710  1.00  0.00     0.004 A 
ATOM     13  C   UNL A   1      32.639  26.866  23.200  1.00  0.00     0.253 C 
ATOM     14  C   UNL A   1      31.902  27.710  27.070  1.00  0.00     0.008 A 
ATOM     15  C   UNL A   1      31.873  28.378  24.766  1.00  0.00     0.123 A 
ATOM     16  O   UNL A   1      31.893  28.079  23.441  1.00  0.00    -0.492 OA
ATOM     17  C   UNL A   1      31.868  29.050  27.460  1.00  0.00     0.001 A 
ATOM     18  C   UNL A   1      31.833  29.718  25.144  1.00  0.00     0.047 A 
ATOM     19  C   UNL A   1      31.838  30.055  26.495  1.00  0.00     0.004 A 
BRANCH   7  20
ATOM     20  C   UNL A   1      30.546  22.661  25.776  1.00  0.00     0.319 C 
BRANCH  20  21
ATOM     21  C   UNL A   1      31.781  21.861  25.961  1.00  0.00     0.090 A 
ATOM     22  C   UNL A   1      33.323  20.340  25.478  1.00  0.00     0.106 A 
ATOM     23  N   UNL A   1      33.845  21.073  26.442  1.00  0.00    -0.241 NA
ATOM     24  N   UNL A   1      32.020  20.702  25.269  1.00  0.00    -0.341 N 
ATOM     25  C   UNL A   1      32.896  22.015  26.752  1.00  0.00     0.140 A 
ATOM     26  H   UNL A   1      31.367  20.215  24.716  1.00  0.00     0.168 HD
BRANCH  22  27
ATOM     27  C   UNL A   1      34.040  19.363  24.607  1.00  0.00     0.075 C 
BRANCH  27  28
ATOM     28  C   UNL A   1      33.158  18.354  23.870  1.00  0.00     0.008 C 
BRANCH  28  29
ATOM     29  C   UNL A   1      33.783  17.003  23.493  1.00  0.00    -0.003 C 
ATOM     30  C   UNL A   1      34.676  16.394  24.563  1.00  0.00     0.004 C 
ENDBRANCH  28  29
ENDBRANCH  27  28
ENDBRANCH  22  27
ENDBRANCH  20  21
ENDBRANCH   7  20
ENDBRANCH   3   6
ENDBRANCH   1   2
BRANCH   1  31
ATOM     31  C   UNL A   1      35.851  23.678  23.656  1.00  0.00     0.023 C 
BRANCH  31  32
ATOM     32  C   UNL A   1      36.361  22.330  24.147  1.00  0.00     0.023 C 
BRANCH  32  33
ATOM     33  C   UNL A   1      37.043  22.305  25.509  1.00  0.00     0.116 C 
BRANCH  33  34
ATOM     34  N   UNL A   1      38.148  21.364  25.620  1.00  0.00    -0.352 N 
ATOM     35  C   UNL A   1      39.397  21.553  26.173  1.00  0.00     0.251 C 
ATOM     36  H   UNL A   1      37.979  20.467  25.250  1.00  0.00     0.163 HD
ATOM     37  O   UNL A   1      40.223  20.645  26.159  1.00  0.00    -0.269 OA
BRANCH  35  38
ATOM     38  C   UNL A   1      39.752  22.878  26.722  1.00  0.00     0.039 A 
ATOM     39  C   UNL A   1      39.390  24.045  26.048  1.00  0.00     0.014 A 
ATOM     40  C   UNL A   1      40.545  22.944  27.870  1.00  0.00     0.014 A 
ATOM     41  C   UNL A   1      40.002  25.245  26.390  1.00  0.00     0.010 A 
ATOM     42  C   UNL A   1      41.078  24.172  28.272  1.00  0.00     0.010 A 
ATOM     43  C   UNL A   1      40.866  25.322  27.497  1.00  0.00    -0.014 A 
BRANCH  43  44
ATOM     44  C   UNL A   1      41.541  26.609  27.811  1.00  0.00     0.031 A 
ATOM     45  C   UNL A   1      40.812  27.710  28.538  1.00  0.00     0.074 A 
ATOM     46  C   UNL A   1      42.844  26.757  27.499  1.00  0.00     0.049 A 
ATOM     47  N   UNL A   1      41.257  28.886  28.902  1.00  0.00    -0.248 NA
ATOM     48  C   UNL A   1      39.406  27.468  28.906  1.00  0.00     0.031 C 
ATOM     49  C   UNL A   1      43.664  25.748  26.825  1.00  0.00     0.029 A 
ATOM     50  N   UNL A   1      43.717  27.788  27.739  1.00  0.00    -0.354 N 
ATOM     51  C   UNL A   1      40.190  29.528  29.520  1.00  0.00     0.074 A 
ATOM     52  C   UNL A   1      39.064  28.623  29.464  1.00  0.00     0.031 C 
ATOM     53  C   UNL A   1      44.932  26.178  26.771  1.00  0.00     0.029 A 
ATOM     54  C   UNL A   1      45.003  27.524  27.331  1.00  0.00     0.049 A 
ATOM     55  H   UNL A   1      43.449  28.635  28.164  1.00  0.00     0.167 HD
ATOM     56  C   UNL A   1      40.157  30.757  30.090  1.00  0.00     0.031 A 
ATOM     57  C   UNL A   1      46.119  28.277  27.382  1.00  0.00     0.031 A 
ATOM     58  C   UNL A   1      41.290  31.644  30.162  1.00  0.00     0.049 A 
ATOM     59  C   UNL A   1      46.044  29.654  27.972  1.00  0.00     0.074 A 
ATOM     60  C   UNL A   1      41.352  32.903  30.734  1.00  0.00     0.029 A 
ATOM     61  N   UNL A   1      42.551  31.369  29.659  1.00  0.00    -0.354 N 
ATOM     62  N   UNL A   1      45.018  30.248  28.531  1.00  0.00    -0.248 NA
ATOM     63  C   UNL A   1      47.265  30.468  27.926  1.00  0.00     0.031 C 
ATOM     64  C   UNL A   1      42.636  33.413  30.525  1.00  0.00     0.029 A 
ATOM     65  C   UNL A   1      43.392  32.446  29.881  1.00  0.00     0.049 A 
ATOM     66  H   UNL A   1      42.811  30.532  29.210  1.00  0.00     0.167 HD
ATOM     67  C   UNL A   1      45.467  31.510  28.900  1.00  0.00     0.074 A 
ATOM     68  C   UNL A   1      46.865  31.583  28.526  1.00  0.00     0.031 C 
ATOM     69  C   UNL A   1      44.777  32.515  29.488  1.00  0.00     0.031 A 
BRANCH  56  70
ATOM     70  C   UNL A   1      38.860  31.241  30.688  1.00  0.00    -0.014 A 
ATOM     71  C   UNL A   1      37.979  32.012  29.906  1.00  0.00     0.010 A 
ATOM     72  C   UNL A   1      38.575  31.050  32.052  1.00  0.00     0.010 A 
ATOM     73  C   UNL A   1      36.855  32.610  30.482  1.00  0.00     0.020 A 
ATOM     74  C   UNL A   1      37.437  31.627  32.625  1.00  0.00     0.020 A 
ATOM     75  C   UNL A   1      36.597  32.423  31.842  1.00  0.00     0.054 A 
BRANCH  75  76
ATOM     76  S   UNL A   1      35.149  33.229  32.580  1.00  0.00     0.124 S 
ATOM     77  O   UNL A   1      34.044  32.563  31.898  1.00  0.00    -0.237 OA
ATOM     78  O   UNL A   1      35.296  32.917  34.000  1.00  0.00    -0.237 OA
ATOM     79  O   UNL A   1      35.336  34.639  32.242  1.00  0.00    -0.744 OA
ENDBRANCH  75  76
ENDBRANCH  56  70
BRANCH  57  80
ATOM     80  C   UNL A   1      47.390  27.717  26.849  1.00  0.00    -0.014 A 
ATOM     81  C   UNL A   1      48.324  27.127  27.722  1.00  0.00     0.010 A 
ATOM     82  C   UNL A   1      47.723  27.870  25.493  1.00  0.00     0.010 A 
ATOM     83  C   UNL A   1      49.594  26.768  27.265  1.00  0.00     0.020 A 
ATOM     84  C   UNL A   1      48.983  27.484  25.026  1.00  0.00     0.020 A 
ATOM     85  C   UNL A   1      49.922  26.968  25.924  1.00  0.00     0.054 A 
BRANCH  85  86
ATOM     86  S   UNL A   1      51.599  26.563  25.365  1.00  0.00     0.124 S 
ATOM     87  O   UNL A   1      52.400  27.543  26.093  1.00  0.00    -0.237 OA
ATOM     88  O   UNL A   1      51.757  25.176  25.797  1.00  0.00    -0.237 OA
ATOM     89  O   UNL A   1      51.532  26.757  23.919  1.00  0.00    -0.744 OA
ENDBRANCH  85  86
ENDBRANCH  57  80
BRANCH  69  90
ATOM     90  C   UNL A   1      45.502  33.807  29.755  1.00  0.00    -0.014 A 
ATOM     91  C   UNL A   1      45.556  34.799  28.759  1.00  0.00     0.010 A 
ATOM     92  C   UNL A   1      46.238  33.980  30.940  1.00  0.00     0.010 A 
ATOM     93  C   UNL A   1      46.364  35.925  28.926  1.00  0.00     0.020 A 
ATOM     94  C   UNL A   1      47.028  35.118  31.121  1.00  0.00     0.020 A 
ATOM     95  C   UNL A   1      47.106  36.070  30.101  1.00  0.00     0.054 A 
BRANCH  95  96
ATOM     96  S   UNL A   1      48.179  37.521  30.286  1.00  0.00     0.124 S 
ATOM     97  O   UNL A   1      49.421  37.064  29.669  1.00  0.00    -0.237 OA
ATOM     98  O   UNL A   1      47.454  38.555  29.552  1.00  0.00    -0.237 OA
ATOM     99  O   UNL A   1      48.238  37.720  31.733  1.00  0.00    -0.744 OA
ENDBRANCH  95  96
ENDBRANCH  69  90
ENDBRANCH  43  44
ENDBRANCH  35  38
ENDBRANCH  33  34
ENDBRANCH  32  33
ENDBRANCH  31  32
ENDBRANCH   1  31
TORSDOF 19
ENDMDL
