MODEL 1
REMARK VINA RESULT:     -11.0      0.000      0.000
REMARK SMILES [NH3+][C@]1(C(=O)NCCCCNC(=O)c2ccc(-c3c4nc(c(-c5ccc(S(=O)(=O)[O-])cc5)c5ccc([nH]5)c(-c5ccc(S(=O)(=O)[O-])cc5)c5nc(c(-c6ccc(S(=O)(=O)[O-])cc6)c6ccc3[nH]6)C=C5)C=C4)cc2)CCC[C@@H](Oc2ccc3c(c2)CCC3)C1
REMARK SMILES IDX 8 1 7 2 6 3 5 4 3 5 4 6 2 8 73 9 87 10 74 11 76 12 75 13
REMARK SMILES IDX 1 14 77 18 78 19 79 20 83 21 80 22 82 23 81 24 84 25 86 26
REMARK SMILES IDX 85 27 9 28 10 29 11 30 12 32 13 33 14 34 72 35 15 36 71 37
REMARK SMILES IDX 16 38 17 39 18 40 65 41 19 42 70 43 64 44 66 45 20 46 69 47
REMARK SMILES IDX 63 48 62 49 21 51 51 52 32 53 50 54 33 55 36 56 49 57 67 58
REMARK SMILES IDX 34 59 35 60 48 62 68 63 37 64 22 65 23 66 31 67 24 68 30 69
REMARK SMILES IDX 25 70 26 71 27 72 28 73 29 74 52 75 53 76 61 77 54 78 60 79
REMARK SMILES IDX 55 80 56 81 57 82 58 83 59 84 38 85 39 86 47 87 40 88 46 89
REMARK SMILES IDX 41 90 42 91 43 92 44 93 45 94
REMARK H PARENT 5 7 1 15 1 16 1 17 10 31 66 50 36 61
REMARK Flexibility Score: inf
ROOT
ATOM      1  C   UNL A   1      35.281  23.028  26.455  1.00  0.00     0.023 C 
ENDROOT
BRANCH   1   2
ATOM      2  C   UNL A   1      34.885  21.630  25.967  1.00  0.00     0.023 C 
BRANCH   2   3
ATOM      3  C   UNL A   1      34.347  21.397  24.539  1.00  0.00     0.116 C 
BRANCH   3   4
ATOM      4  N   UNL A   1      34.478  22.465  23.557  1.00  0.00    -0.351 N 
ATOM      5  C   UNL A   1      33.624  23.400  23.015  1.00  0.00     0.281 C 
ATOM      6  O   UNL A   1      34.159  24.309  22.369  1.00  0.00    -0.268 OA
ATOM      7  H   UNL A   1      35.392  22.536  23.195  1.00  0.00     0.163 HD
BRANCH   5   8
ATOM      8  C   UNL A   1      32.080  23.408  23.290  1.00  0.00     0.177 C 
ATOM      9  C   UNL A   1      31.752  23.143  24.788  1.00  0.00     0.079 C 
ATOM     10  C   UNL A   1      31.340  24.673  22.812  1.00  0.00     0.124 C 
ATOM     11  C   UNL A   1      31.810  24.367  25.703  1.00  0.00     0.011 C 
ATOM     12  C   UNL A   1      31.337  25.907  23.747  1.00  0.00     0.180 C 
ATOM     13  C   UNL A   1      30.978  25.529  25.178  1.00  0.00     0.046 C 
BRANCH   8  14
ATOM     14  N   UNL A   1      31.563  22.190  22.591  1.00  0.00    -0.345 N 
ATOM     15  H   UNL A   1      32.326  21.735  22.090  1.00  0.00     0.345 HD
ATOM     16  H   UNL A   1      30.835  22.461  21.929  1.00  0.00     0.345 HD
ATOM     17  H   UNL A   1      31.174  21.544  23.278  1.00  0.00     0.345 HD
ENDBRANCH   8  14
BRANCH  12  18
ATOM     18  O   UNL A   1      32.381  26.887  23.570  1.00  0.00    -0.490 OA
BRANCH  18  19
ATOM     19  C   UNL A   1      32.461  27.950  24.417  1.00  0.00     0.120 A 
ATOM     20  C   UNL A   1      31.513  28.975  24.456  1.00  0.00     0.047 A 
ATOM     21  C   UNL A   1      33.610  28.070  25.177  1.00  0.00     0.050 A 
ATOM     22  C   UNL A   1      31.645  30.029  25.380  1.00  0.00     0.008 A 
ATOM     23  C   UNL A   1      33.728  29.075  26.117  1.00  0.00    -0.041 A 
ATOM     24  C   UNL A   1      32.742  30.045  26.230  1.00  0.00    -0.045 A 
ATOM     25  C   UNL A   1      34.764  29.206  27.187  1.00  0.00     0.036 C 
ATOM     26  C   UNL A   1      33.035  30.948  27.389  1.00  0.00     0.036 C 
ATOM     27  C   UNL A   1      34.515  30.634  27.675  1.00  0.00     0.010 C 
ENDBRANCH  18  19
ENDBRANCH  12  18
ENDBRANCH   5   8
ENDBRANCH   3   4
ENDBRANCH   2   3
ENDBRANCH   1   2
BRANCH   1  28
ATOM     28  C   UNL A   1      36.534  23.648  25.873  1.00  0.00     0.116 C 
BRANCH  28  29
ATOM     29  N   UNL A   1      37.676  22.760  25.959  1.00  0.00    -0.352 N 
ATOM     30  C   UNL A   1      38.966  23.006  26.365  1.00  0.00     0.251 C 
ATOM     31  H   UNL A   1      37.499  21.831  25.683  1.00  0.00     0.163 HD
ATOM     32  O   UNL A   1      39.817  22.142  26.180  1.00  0.00    -0.269 OA
BRANCH  30  33
ATOM     33  C   UNL A   1      39.347  24.297  26.992  1.00  0.00     0.039 A 
ATOM     34  C   UNL A   1      38.953  24.538  28.313  1.00  0.00     0.014 A 
ATOM     35  C   UNL A   1      40.045  25.286  26.294  1.00  0.00     0.014 A 
ATOM     36  C   UNL A   1      39.307  25.734  28.946  1.00  0.00     0.010 A 
ATOM     37  C   UNL A   1      40.467  26.443  26.950  1.00  0.00     0.010 A 
ATOM     38  C   UNL A   1      40.099  26.684  28.281  1.00  0.00    -0.014 A 
BRANCH  38  39
ATOM     39  C   UNL A   1      40.554  27.926  28.964  1.00  0.00     0.031 A 
ATOM     40  C   UNL A   1      41.921  27.997  29.592  1.00  0.00     0.074 A 
ATOM     41  C   UNL A   1      39.713  28.976  29.071  1.00  0.00     0.049 A 
ATOM     42  N   UNL A   1      42.465  28.969  30.279  1.00  0.00    -0.248 NA
ATOM     43  C   UNL A   1      42.783  26.813  29.447  1.00  0.00     0.031 C 
ATOM     44  C   UNL A   1      38.352  29.029  28.534  1.00  0.00     0.029 A 
ATOM     45  N   UNL A   1      39.877  30.199  29.674  1.00  0.00    -0.354 N 
ATOM     46  C   UNL A   1      43.720  28.511  30.662  1.00  0.00     0.074 A 
ATOM     47  C   UNL A   1      43.840  27.155  30.170  1.00  0.00     0.031 C 
ATOM     48  C   UNL A   1      37.815  30.229  28.809  1.00  0.00     0.029 A 
ATOM     49  C   UNL A   1      38.772  31.014  29.583  1.00  0.00     0.049 A 
ATOM     50  H   UNL A   1      40.708  30.469  30.128  1.00  0.00     0.167 HD
ATOM     51  C   UNL A   1      44.693  29.162  31.345  1.00  0.00     0.031 A 
ATOM     52  C   UNL A   1      38.545  32.248  30.076  1.00  0.00     0.031 A 
ATOM     53  C   UNL A   1      44.574  30.513  31.830  1.00  0.00     0.049 A 
ATOM     54  C   UNL A   1      39.629  32.939  30.857  1.00  0.00     0.074 A 
ATOM     55  C   UNL A   1      45.524  31.276  32.489  1.00  0.00     0.029 A 
ATOM     56  N   UNL A   1      43.438  31.300  31.719  1.00  0.00    -0.354 N 
ATOM     57  N   UNL A   1      40.833  32.511  31.152  1.00  0.00    -0.248 NA
ATOM     58  C   UNL A   1      39.327  34.286  31.363  1.00  0.00     0.031 C 
ATOM     59  C   UNL A   1      44.942  32.501  32.828  1.00  0.00     0.029 A 
ATOM     60  C   UNL A   1      43.652  32.528  32.321  1.00  0.00     0.049 A 
ATOM     61  H   UNL A   1      42.602  31.026  31.277  1.00  0.00     0.167 HD
ATOM     62  C   UNL A   1      41.442  33.546  31.852  1.00  0.00     0.074 A 
ATOM     63  C   UNL A   1      40.479  34.627  31.923  1.00  0.00     0.031 C 
ATOM     64  C   UNL A   1      42.688  33.599  32.386  1.00  0.00     0.031 A 
BRANCH  51  65
ATOM     65  C   UNL A   1      45.975  28.416  31.620  1.00  0.00    -0.014 A 
ATOM     66  C   UNL A   1      47.001  28.353  30.660  1.00  0.00     0.010 A 
ATOM     67  C   UNL A   1      46.175  27.810  32.874  1.00  0.00     0.010 A 
ATOM     68  C   UNL A   1      48.184  27.661  30.932  1.00  0.00     0.020 A 
ATOM     69  C   UNL A   1      47.370  27.143  33.162  1.00  0.00     0.020 A 
ATOM     70  C   UNL A   1      48.360  27.058  32.181  1.00  0.00     0.054 A 
BRANCH  70  71
ATOM     71  S   UNL A   1      49.915  26.184  32.512  1.00  0.00     0.124 S 
ATOM     72  O   UNL A   1      49.801  25.024  31.631  1.00  0.00    -0.237 OA
ATOM     73  O   UNL A   1      50.924  27.168  32.126  1.00  0.00    -0.237 OA
ATOM     74  O   UNL A   1      49.851  25.889  33.941  1.00  0.00    -0.744 OA
ENDBRANCH  70  71
ENDBRANCH  51  65
BRANCH  52  75
ATOM     75  C   UNL A   1      37.233  32.912  29.839  1.00  0.00    -0.014 A 
ATOM     76  C   UNL A   1      36.237  32.901  30.832  1.00  0.00     0.010 A 
ATOM     77  C   UNL A   1      36.974  33.567  28.621  1.00  0.00     0.010 A 
ATOM     78  C   UNL A   1      35.002  33.517  30.604  1.00  0.00     0.020 A 
ATOM     79  C   UNL A   1      35.753  34.212  28.402  1.00  0.00     0.020 A 
ATOM     80  C   UNL A   1      34.769  34.171  29.391  1.00  0.00     0.054 A 
BRANCH  80  81
ATOM     81  S   UNL A   1      33.178  35.005  29.139  1.00  0.00     0.124 S 
ATOM     82  O   UNL A   1      33.597  36.332  28.699  1.00  0.00    -0.237 OA
ATOM     83  O   UNL A   1      32.544  34.171  28.122  1.00  0.00    -0.237 OA
ATOM     84  O   UNL A   1      32.551  34.951  30.459  1.00  0.00    -0.744 OA
ENDBRANCH  80  81
ENDBRANCH  52  75
BRANCH  64  85
ATOM     85  C   UNL A   1      43.103  34.878  33.066  1.00  0.00    -0.014 A 
ATOM     86  C   UNL A   1      42.939  35.059  34.450  1.00  0.00     0.010 A 
ATOM     87  C   UNL A   1      43.724  35.892  32.312  1.00  0.00     0.010 A 
ATOM     88  C   UNL A   1      43.362  36.242  35.063  1.00  0.00     0.020 A 
ATOM     89  C   UNL A   1      44.175  37.062  32.926  1.00  0.00     0.020 A 
ATOM     90  C   UNL A   1      43.980  37.236  34.296  1.00  0.00     0.054 A 
BRANCH  90  91
ATOM     91  S   UNL A   1      44.565  38.739  35.125  1.00  0.00     0.124 S 
ATOM     92  O   UNL A   1      44.194  38.485  36.515  1.00  0.00    -0.237 OA
ATOM     93  O   UNL A   1      45.998  38.722  34.844  1.00  0.00    -0.237 OA
ATOM     94  O   UNL A   1      43.821  39.810  34.469  1.00  0.00    -0.744 OA
ENDBRANCH  90  91
ENDBRANCH  64  85
ENDBRANCH  38  39
ENDBRANCH  30  33
ENDBRANCH  28  29
ENDBRANCH   1  28
TORSDOF 17
ENDMDL
MODEL 2
REMARK VINA RESULT:     -10.9      2.670      9.258
REMARK SMILES [NH3+][C@]1(C(=O)NCCCCNC(=O)c2ccc(-c3c4nc(c(-c5ccc(S(=O)(=O)[O-])cc5)c5ccc([nH]5)c(-c5ccc(S(=O)(=O)[O-])cc5)c5nc(c(-c6ccc(S(=O)(=O)[O-])cc6)c6ccc3[nH]6)C=C5)C=C4)cc2)CCC[C@@H](Oc2ccc3c(c2)CCC3)C1
REMARK SMILES IDX 8 1 7 2 6 3 5 4 3 5 4 6 2 8 73 9 87 10 74 11 76 12 75 13
REMARK SMILES IDX 1 14 77 18 78 19 79 20 83 21 80 22 82 23 81 24 84 25 86 26
REMARK SMILES IDX 85 27 9 28 10 29 11 30 12 32 13 33 14 34 72 35 15 36 71 37
REMARK SMILES IDX 16 38 17 39 18 40 65 41 19 42 70 43 64 44 66 45 20 46 69 47
REMARK SMILES IDX 63 48 62 49 21 51 51 52 32 53 50 54 33 55 36 56 49 57 67 58
REMARK SMILES IDX 34 59 35 60 48 62 68 63 37 64 22 65 23 66 31 67 24 68 30 69
REMARK SMILES IDX 25 70 26 71 27 72 28 73 29 74 52 75 53 76 61 77 54 78 60 79
REMARK SMILES IDX 55 80 56 81 57 82 58 83 59 84 38 85 39 86 47 87 40 88 46 89
REMARK SMILES IDX 41 90 42 91 43 92 44 93 45 94
REMARK H PARENT 5 7 1 15 1 16 1 17 10 31 66 50 36 61
REMARK Flexibility Score: inf
ROOT
ATOM      1  C   UNL A   1      33.911  28.038  24.960  1.00  0.00     0.023 C 
ENDROOT
BRANCH   1   2
ATOM      2  C   UNL A   1      32.637  28.621  24.338  1.00  0.00     0.023 C 
BRANCH   2   3
ATOM      3  C   UNL A   1      31.235  28.196  24.824  1.00  0.00     0.116 C 
BRANCH   3   4
ATOM      4  N   UNL A   1      31.123  27.076  25.751  1.00  0.00    -0.351 N 
ATOM      5  C   UNL A   1      31.001  25.711  25.617  1.00  0.00     0.281 C 
ATOM      6  O   UNL A   1      31.171  25.052  26.650  1.00  0.00    -0.268 OA
ATOM      7  H   UNL A   1      31.138  27.363  26.693  1.00  0.00     0.163 HD
BRANCH   5   8
ATOM      8  C   UNL A   1      30.789  25.003  24.235  1.00  0.00     0.177 C 
ATOM      9  C   UNL A   1      31.764  25.539  23.147  1.00  0.00     0.079 C 
ATOM     10  C   UNL A   1      30.853  23.463  24.275  1.00  0.00     0.124 C 
ATOM     11  C   UNL A   1      33.154  24.903  23.135  1.00  0.00     0.011 C 
ATOM     12  C   UNL A   1      32.248  22.794  24.207  1.00  0.00     0.180 C 
ATOM     13  C   UNL A   1      33.101  23.383  23.091  1.00  0.00     0.046 C 
BRANCH   8  14
ATOM     14  N   UNL A   1      29.445  25.469  23.770  1.00  0.00    -0.345 N 
ATOM     15  H   UNL A   1      29.430  26.488  23.740  1.00  0.00     0.345 HD
ATOM     16  H   UNL A   1      28.728  25.138  24.416  1.00  0.00     0.345 HD
ATOM     17  H   UNL A   1      29.260  25.098  22.838  1.00  0.00     0.345 HD
ENDBRANCH   8  14
BRANCH  12  18
ATOM     18  O   UNL A   1      32.913  22.497  25.453  1.00  0.00    -0.490 OA
BRANCH  18  19
ATOM     19  C   UNL A   1      34.235  22.172  25.453  1.00  0.00     0.120 A 
ATOM     20  C   UNL A   1      34.718  20.916  25.078  1.00  0.00     0.047 A 
ATOM     21  C   UNL A   1      35.116  23.100  25.975  1.00  0.00     0.050 A 
ATOM     22  C   UNL A   1      36.102  20.661  25.074  1.00  0.00     0.008 A 
ATOM     23  C   UNL A   1      36.479  22.876  25.934  1.00  0.00    -0.041 A 
ATOM     24  C   UNL A   1      36.974  21.665  25.472  1.00  0.00    -0.045 A 
ATOM     25  C   UNL A   1      37.573  23.857  26.211  1.00  0.00     0.036 C 
ATOM     26  C   UNL A   1      38.469  21.707  25.412  1.00  0.00     0.036 C 
ATOM     27  C   UNL A   1      38.792  22.936  26.281  1.00  0.00     0.010 C 
ENDBRANCH  18  19
ENDBRANCH  12  18
ENDBRANCH   5   8
ENDBRANCH   3   4
ENDBRANCH   2   3
ENDBRANCH   1   2
BRANCH   1  28
ATOM     28  C   UNL A   1      34.082  28.160  26.459  1.00  0.00     0.116 C 
BRANCH  28  29
ATOM     29  N   UNL A   1      33.779  29.495  26.938  1.00  0.00    -0.352 N 
ATOM     30  C   UNL A   1      34.505  30.336  27.747  1.00  0.00     0.251 C 
ATOM     31  H   UNL A   1      32.915  29.857  26.634  1.00  0.00     0.163 HD
ATOM     32  O   UNL A   1      33.967  31.352  28.175  1.00  0.00    -0.269 OA
BRANCH  30  33
ATOM     33  C   UNL A   1      35.905  30.023  28.130  1.00  0.00     0.039 A 
ATOM     34  C   UNL A   1      36.166  29.643  29.451  1.00  0.00     0.014 A 
ATOM     35  C   UNL A   1      36.966  30.138  27.227  1.00  0.00     0.014 A 
ATOM     36  C   UNL A   1      37.469  29.323  29.847  1.00  0.00     0.010 A 
ATOM     37  C   UNL A   1      38.251  29.742  27.601  1.00  0.00     0.010 A 
ATOM     38  C   UNL A   1      38.520  29.335  28.916  1.00  0.00    -0.014 A 
BRANCH  38  39
ATOM     39  C   UNL A   1      39.898  28.920  29.298  1.00  0.00     0.031 A 
ATOM     40  C   UNL A   1      40.818  29.883  30.002  1.00  0.00     0.074 A 
ATOM     41  C   UNL A   1      40.345  27.693  28.959  1.00  0.00     0.049 A 
ATOM     42  N   UNL A   1      42.067  29.720  30.358  1.00  0.00    -0.248 NA
ATOM     43  C   UNL A   1      40.269  31.208  30.334  1.00  0.00     0.031 C 
ATOM     44  C   UNL A   1      39.567  26.675  28.249  1.00  0.00     0.029 A 
ATOM     45  N   UNL A   1      41.565  27.096  29.160  1.00  0.00    -0.354 N 
ATOM     46  C   UNL A   1      42.459  30.923  30.936  1.00  0.00     0.074 A 
ATOM     47  C   UNL A   1      41.328  31.821  30.843  1.00  0.00     0.031 C 
ATOM     48  C   UNL A   1      40.320  25.573  28.097  1.00  0.00     0.029 A 
ATOM     49  C   UNL A   1      41.647  25.820  28.652  1.00  0.00     0.049 A 
ATOM     50  H   UNL A   1      42.312  27.539  29.624  1.00  0.00     0.167 HD
ATOM     51  C   UNL A   1      43.644  31.246  31.509  1.00  0.00     0.031 A 
ATOM     52  C   UNL A   1      42.675  24.948  28.623  1.00  0.00     0.031 A 
ATOM     53  C   UNL A   1      44.766  30.349  31.605  1.00  0.00     0.049 A 
ATOM     54  C   UNL A   1      43.990  25.340  29.239  1.00  0.00     0.074 A 
ATOM     55  C   UNL A   1      45.991  30.568  32.212  1.00  0.00     0.029 A 
ATOM     56  N   UNL A   1      44.808  29.068  31.076  1.00  0.00    -0.354 N 
ATOM     57  N   UNL A   1      44.318  26.460  29.837  1.00  0.00    -0.248 NA
ATOM     58  C   UNL A   1      45.072  24.346  29.184  1.00  0.00     0.031 C 
ATOM     59  C   UNL A   1      46.793  29.443  31.998  1.00  0.00     0.029 A 
ATOM     60  C   UNL A   1      46.045  28.496  31.318  1.00  0.00     0.049 A 
ATOM     61  H   UNL A   1      44.066  28.630  30.600  1.00  0.00     0.167 HD
ATOM     62  C   UNL A   1      45.634  26.295  30.256  1.00  0.00     0.074 A 
ATOM     63  C   UNL A   1      46.036  24.961  29.856  1.00  0.00     0.031 C 
ATOM     64  C   UNL A   1      46.436  27.167  30.915  1.00  0.00     0.031 A 
BRANCH  51  65
ATOM     65  C   UNL A   1      43.794  32.638  32.070  1.00  0.00    -0.014 A 
ATOM     66  C   UNL A   1      43.501  32.916  33.418  1.00  0.00     0.010 A 
ATOM     67  C   UNL A   1      44.278  33.673  31.250  1.00  0.00     0.010 A 
ATOM     68  C   UNL A   1      43.649  34.210  33.923  1.00  0.00     0.020 A 
ATOM     69  C   UNL A   1      44.458  34.963  31.759  1.00  0.00     0.020 A 
ATOM     70  C   UNL A   1      44.124  35.227  33.089  1.00  0.00     0.054 A 
BRANCH  70  71
ATOM     71  S   UNL A   1      44.325  36.893  33.779  1.00  0.00     0.124 S 
ATOM     72  O   UNL A   1      45.432  37.416  32.982  1.00  0.00    -0.237 OA
ATOM     73  O   UNL A   1      43.023  37.505  33.522  1.00  0.00    -0.237 OA
ATOM     74  O   UNL A   1      44.630  36.652  35.186  1.00  0.00    -0.744 OA
ENDBRANCH  70  71
ENDBRANCH  51  65
BRANCH  52  75
ATOM     75  C   UNL A   1      42.497  23.611  27.989  1.00  0.00    -0.014 A 
ATOM     76  C   UNL A   1      42.917  23.385  26.667  1.00  0.00     0.010 A 
ATOM     77  C   UNL A   1      41.912  22.553  28.710  1.00  0.00     0.010 A 
ATOM     78  C   UNL A   1      42.741  22.133  26.071  1.00  0.00     0.020 A 
ATOM     79  C   UNL A   1      41.763  21.290  28.128  1.00  0.00     0.020 A 
ATOM     80  C   UNL A   1      42.168  21.092  26.807  1.00  0.00     0.054 A 
BRANCH  80  81
ATOM     81  S   UNL A   1      41.995  19.463  26.028  1.00  0.00     0.124 S 
ATOM     82  O   UNL A   1      42.533  18.576  27.056  1.00  0.00    -0.237 OA
ATOM     83  O   UNL A   1      40.555  19.373  25.803  1.00  0.00    -0.237 OA
ATOM     84  O   UNL A   1      42.802  19.576  24.814  1.00  0.00    -0.744 OA
ENDBRANCH  80  81
ENDBRANCH  52  75
BRANCH  64  85
ATOM     85  C   UNL A   1      47.821  26.701  31.282  1.00  0.00    -0.014 A 
ATOM     86  C   UNL A   1      48.081  26.067  32.509  1.00  0.00     0.010 A 
ATOM     87  C   UNL A   1      48.868  26.847  30.352  1.00  0.00     0.010 A 
ATOM     88  C   UNL A   1      49.368  25.614  32.813  1.00  0.00     0.020 A 
ATOM     89  C   UNL A   1      50.149  26.368  30.639  1.00  0.00     0.020 A 
ATOM     90  C   UNL A   1      50.394  25.766  31.874  1.00  0.00     0.054 A 
BRANCH  90  91
ATOM     91  S   UNL A   1      52.042  25.123  32.272  1.00  0.00     0.124 S 
ATOM     92  O   UNL A   1      52.268  25.671  33.607  1.00  0.00    -0.237 OA
ATOM     93  O   UNL A   1      51.846  23.678  32.210  1.00  0.00    -0.237 OA
ATOM     94  O   UNL A   1      52.894  25.676  31.221  1.00  0.00    -0.744 OA
ENDBRANCH  90  91
ENDBRANCH  64  85
ENDBRANCH  38  39
ENDBRANCH  30  33
ENDBRANCH  28  29
ENDBRANCH   1  28
TORSDOF 17
ENDMDL
MODEL 3
REMARK VINA RESULT:     -10.8      2.912      9.684
REMARK SMILES [NH3+][C@]1(C(=O)NCCCCNC(=O)c2ccc(-c3c4nc(c(-c5ccc(S(=O)(=O)[O-])cc5)c5ccc([nH]5)c(-c5ccc(S(=O)(=O)[O-])cc5)c5nc(c(-c6ccc(S(=O)(=O)[O-])cc6)c6ccc3[nH]6)C=C5)C=C4)cc2)CCC[C@@H](Oc2ccc3c(c2)CCC3)C1
REMARK SMILES IDX 8 1 7 2 6 3 5 4 3 5 4 6 2 8 73 9 87 10 74 11 76 12 75 13
REMARK SMILES IDX 1 14 77 18 78 19 79 20 83 21 80 22 82 23 81 24 84 25 86 26
REMARK SMILES IDX 85 27 9 28 10 29 11 30 12 32 13 33 14 34 72 35 15 36 71 37
REMARK SMILES IDX 16 38 17 39 18 40 65 41 19 42 70 43 64 44 66 45 20 46 69 47
REMARK SMILES IDX 63 48 62 49 21 51 51 52 32 53 50 54 33 55 36 56 49 57 67 58
REMARK SMILES IDX 34 59 35 60 48 62 68 63 37 64 22 65 23 66 31 67 24 68 30 69
REMARK SMILES IDX 25 70 26 71 27 72 28 73 29 74 52 75 53 76 61 77 54 78 60 79
REMARK SMILES IDX 55 80 56 81 57 82 58 83 59 84 38 85 39 86 47 87 40 88 46 89
REMARK SMILES IDX 41 90 42 91 43 92 44 93 45 94
REMARK H PARENT 5 7 1 15 1 16 1 17 10 31 66 50 36 61
REMARK Flexibility Score: inf
ROOT
ATOM      1  C   UNL A   1      32.555  27.967  26.035  1.00  0.00     0.023 C 
ENDROOT
BRANCH   1   2
ATOM      2  C   UNL A   1      31.369  27.233  26.673  1.00  0.00     0.023 C 
BRANCH   2   3
ATOM      3  C   UNL A   1      30.463  26.295  25.848  1.00  0.00     0.116 C 
BRANCH   3   4
ATOM      4  N   UNL A   1      30.495  24.865  26.126  1.00  0.00    -0.351 N 
ATOM      5  C   UNL A   1      30.929  23.750  25.443  1.00  0.00     0.281 C 
ATOM      6  O   UNL A   1      31.008  22.709  26.107  1.00  0.00    -0.268 OA
ATOM      7  H   UNL A   1      30.118  24.643  27.008  1.00  0.00     0.163 HD
BRANCH   5   8
ATOM      8  C   UNL A   1      31.420  23.796  23.955  1.00  0.00     0.177 C 
ATOM      9  C   UNL A   1      32.334  25.025  23.678  1.00  0.00     0.079 C 
ATOM     10  C   UNL A   1      32.111  22.512  23.457  1.00  0.00     0.124 C 
ATOM     11  C   UNL A   1      33.808  24.846  24.043  1.00  0.00     0.011 C 
ATOM     12  C   UNL A   1      33.618  22.334  23.766  1.00  0.00     0.180 C 
ATOM     13  C   UNL A   1      34.413  23.590  23.432  1.00  0.00     0.046 C 
BRANCH   8  14
ATOM     14  N   UNL A   1      30.187  24.083  23.156  1.00  0.00    -0.345 N 
ATOM     15  H   UNL A   1      30.329  23.783  22.192  1.00  0.00     0.345 HD
ATOM     16  H   UNL A   1      29.994  25.084  23.176  1.00  0.00     0.345 HD
ATOM     17  H   UNL A   1      29.398  23.576  23.556  1.00  0.00     0.345 HD
ENDBRANCH   8  14
BRANCH  12  18
ATOM     18  O   UNL A   1      33.979  21.632  24.973  1.00  0.00    -0.490 OA
BRANCH  18  19
ATOM     19  C   UNL A   1      34.273  20.303  24.920  1.00  0.00     0.120 A 
ATOM     20  C   UNL A   1      35.564  19.808  24.723  1.00  0.00     0.047 A 
ATOM     21  C   UNL A   1      33.211  19.418  24.935  1.00  0.00     0.050 A 
ATOM     22  C   UNL A   1      35.797  18.420  24.709  1.00  0.00     0.008 A 
ATOM     23  C   UNL A   1      33.433  18.055  24.966  1.00  0.00    -0.041 A 
ATOM     24  C   UNL A   1      34.723  17.555  24.868  1.00  0.00    -0.045 A 
ATOM     25  C   UNL A   1      32.435  16.974  25.238  1.00  0.00     0.036 C 
ATOM     26  C   UNL A   1      34.717  16.068  25.045  1.00  0.00     0.036 C 
ATOM     27  C   UNL A   1      33.229  15.727  24.846  1.00  0.00     0.010 C 
ENDBRANCH  18  19
ENDBRANCH  12  18
ENDBRANCH   5   8
ENDBRANCH   3   4
ENDBRANCH   2   3
ENDBRANCH   1   2
BRANCH   1  28
ATOM     28  C   UNL A   1      33.701  28.370  26.938  1.00  0.00     0.116 C 
BRANCH  28  29
ATOM     29  N   UNL A   1      33.583  29.742  27.393  1.00  0.00    -0.352 N 
ATOM     30  C   UNL A   1      34.458  30.517  28.116  1.00  0.00     0.251 C 
ATOM     31  H   UNL A   1      32.742  30.189  27.145  1.00  0.00     0.163 HD
ATOM     32  O   UNL A   1      34.070  31.598  28.548  1.00  0.00    -0.269 OA
BRANCH  30  33
ATOM     33  C   UNL A   1      35.843  30.062  28.400  1.00  0.00     0.039 A 
ATOM     34  C   UNL A   1      36.785  30.108  27.366  1.00  0.00     0.014 A 
ATOM     35  C   UNL A   1      36.217  29.554  29.647  1.00  0.00     0.014 A 
ATOM     36  C   UNL A   1      38.105  29.705  27.598  1.00  0.00     0.010 A 
ATOM     37  C   UNL A   1      37.550  29.228  29.900  1.00  0.00     0.010 A 
ATOM     38  C   UNL A   1      38.510  29.294  28.879  1.00  0.00    -0.014 A 
BRANCH  38  39
ATOM     39  C   UNL A   1      39.926  28.938  29.165  1.00  0.00     0.031 A 
ATOM     40  C   UNL A   1      40.863  29.953  29.764  1.00  0.00     0.074 A 
ATOM     41  C   UNL A   1      40.388  27.715  28.832  1.00  0.00     0.049 A 
ATOM     42  N   UNL A   1      42.141  29.844  30.026  1.00  0.00    -0.248 NA
ATOM     43  C   UNL A   1      40.296  31.271  30.095  1.00  0.00     0.031 C 
ATOM     44  C   UNL A   1      39.594  26.648  28.219  1.00  0.00     0.029 A 
ATOM     45  N   UNL A   1      41.640  27.165  28.956  1.00  0.00    -0.354 N 
ATOM     46  C   UNL A   1      42.534  31.078  30.533  1.00  0.00     0.074 A 
ATOM     47  C   UNL A   1      41.369  31.935  30.500  1.00  0.00     0.031 C 
ATOM     48  C   UNL A   1      40.371  25.567  28.043  1.00  0.00     0.029 A 
ATOM     49  C   UNL A   1      41.727  25.875  28.485  1.00  0.00     0.049 A 
ATOM     50  H   UNL A   1      42.405  27.647  29.347  1.00  0.00     0.167 HD
ATOM     51  C   UNL A   1      43.748  31.459  31.001  1.00  0.00     0.031 A 
ATOM     52  C   UNL A   1      42.779  25.036  28.404  1.00  0.00     0.031 A 
ATOM     53  C   UNL A   1      44.905  30.602  31.039  1.00  0.00     0.049 A 
ATOM     54  C   UNL A   1      44.124  25.492  28.902  1.00  0.00     0.074 A 
ATOM     55  C   UNL A   1      46.164  30.882  31.541  1.00  0.00     0.029 A 
ATOM     56  N   UNL A   1      44.950  29.305  30.550  1.00  0.00    -0.354 N 
ATOM     57  N   UNL A   1      44.457  26.642  29.437  1.00  0.00    -0.248 NA
ATOM     58  C   UNL A   1      45.232  24.532  28.795  1.00  0.00     0.031 C 
ATOM     59  C   UNL A   1      46.986  29.776  31.302  1.00  0.00     0.029 A 
ATOM     60  C   UNL A   1      46.221  28.782  30.712  1.00  0.00     0.049 A 
ATOM     61  H   UNL A   1      44.189  28.827  30.147  1.00  0.00     0.167 HD
ATOM     62  C   UNL A   1      45.807  26.533  29.757  1.00  0.00     0.074 A 
ATOM     63  C   UNL A   1      46.223  25.200  29.370  1.00  0.00     0.031 C 
ATOM     64  C   UNL A   1      46.626  27.453  30.323  1.00  0.00     0.031 A 
BRANCH  51  65
ATOM     65  C   UNL A   1      43.892  32.873  31.504  1.00  0.00    -0.014 A 
ATOM     66  C   UNL A   1      43.527  33.220  32.818  1.00  0.00     0.010 A 
ATOM     67  C   UNL A   1      44.442  33.860  30.666  1.00  0.00     0.010 A 
ATOM     68  C   UNL A   1      43.671  34.535  33.270  1.00  0.00     0.020 A 
ATOM     69  C   UNL A   1      44.616  35.169  31.124  1.00  0.00     0.020 A 
ATOM     70  C   UNL A   1      44.212  35.503  32.418  1.00  0.00     0.054 A 
BRANCH  70  71
ATOM     71  S   UNL A   1      44.405  37.196  33.039  1.00  0.00     0.124 S 
ATOM     72  O   UNL A   1      45.834  37.244  33.341  1.00  0.00    -0.237 OA
ATOM     73  O   UNL A   1      43.978  38.006  31.900  1.00  0.00    -0.237 OA
ATOM     74  O   UNL A   1      43.522  37.243  34.200  1.00  0.00    -0.744 OA
ENDBRANCH  70  71
ENDBRANCH  51  65
BRANCH  52  75
ATOM     75  C   UNL A   1      42.600  23.673  27.829  1.00  0.00    -0.014 A 
ATOM     76  C   UNL A   1      42.799  23.444  26.457  1.00  0.00     0.010 A 
ATOM     77  C   UNL A   1      42.236  22.594  28.656  1.00  0.00     0.010 A 
ATOM     78  C   UNL A   1      42.621  22.166  25.918  1.00  0.00     0.020 A 
ATOM     79  C   UNL A   1      42.088  21.308  28.126  1.00  0.00     0.020 A 
ATOM     80  C   UNL A   1      42.270  21.105  26.757  1.00  0.00     0.054 A 
BRANCH  80  81
ATOM     81  S   UNL A   1      42.093  19.447  26.042  1.00  0.00     0.124 S 
ATOM     82  O   UNL A   1      42.609  18.599  27.113  1.00  0.00    -0.237 OA
ATOM     83  O   UNL A   1      40.655  19.360  25.801  1.00  0.00    -0.237 OA
ATOM     84  O   UNL A   1      42.917  19.504  24.837  1.00  0.00    -0.744 OA
ENDBRANCH  80  81
ENDBRANCH  52  75
BRANCH  64  85
ATOM     85  C   UNL A   1      48.051  27.045  30.595  1.00  0.00    -0.014 A 
ATOM     86  C   UNL A   1      49.086  27.354  29.696  1.00  0.00     0.010 A 
ATOM     87  C   UNL A   1      48.365  26.395  31.804  1.00  0.00     0.010 A 
ATOM     88  C   UNL A   1      50.406  26.993  29.986  1.00  0.00     0.020 A 
ATOM     89  C   UNL A   1      49.686  26.060  32.111  1.00  0.00     0.020 A 
ATOM     90  C   UNL A   1      50.697  26.351  31.194  1.00  0.00     0.054 A 
BRANCH  90  91
ATOM     91  S   UNL A   1      52.423  25.940  31.568  1.00  0.00     0.124 S 
ATOM     92  O   UNL A   1      53.050  26.030  30.252  1.00  0.00    -0.237 OA
ATOM     93  O   UNL A   1      52.802  26.984  32.518  1.00  0.00    -0.237 OA
ATOM     94  O   UNL A   1      52.347  24.594  32.130  1.00  0.00    -0.744 OA
ENDBRANCH  90  91
ENDBRANCH  64  85
ENDBRANCH  38  39
ENDBRANCH  30  33
ENDBRANCH  28  29
ENDBRANCH   1  28
TORSDOF 17
ENDMDL
