MODEL 1
REMARK VINA RESULT:     -12.2      0.000      0.000
REMARK SMILES CN1C(=O)C[C@@H](C(=O)NCCCCNC(=O)c2ccc(-c3c4nc(c(-c5ccc(S(=O)(=O)[O-])cc5)c5ccc([nH]5)c(-c5ccc(S(=O)(=O)[O-])cc5)c5nc(c(-c6ccc(S(=O)(=O)[O-])cc6)c6ccc3[nH]6)C=C5)C=C4)cc2)C12CCN(C(=O)c1cccc3ccccc13)CC2
REMARK SMILES IDX 12 1 11 2 10 3 9 4 7 5 8 6 6 8 1 9 2 10 3 11 77 12 4 13 5 14
REMARK SMILES IDX 78 15 94 16 79 17 93 18 80 19 81 20 82 21 83 22 84 23 92 24
REMARK SMILES IDX 85 25 87 26 91 27 86 28 88 29 90 30 89 31 13 32 14 33 15 34
REMARK SMILES IDX 16 36 17 37 18 38 76 39 19 40 75 41 20 42 21 43 22 44 69 45
REMARK SMILES IDX 23 46 74 47 68 48 70 49 24 50 73 51 67 52 66 53 25 55 55 56
REMARK SMILES IDX 36 57 54 58 37 59 40 60 53 61 71 62 38 63 39 64 52 66 72 67
REMARK SMILES IDX 41 68 26 69 27 70 35 71 28 72 34 73 29 74 30 75 31 76 32 77
REMARK SMILES IDX 33 78 56 79 57 80 65 81 58 82 64 83 59 84 60 85 61 86 62 87
REMARK SMILES IDX 63 88 42 89 43 90 51 91 44 92 50 93 45 94 46 95 47 96 48 97
REMARK SMILES IDX 49 98
REMARK H PARENT 9 7 14 35 70 54 40 65
REMARK Flexibility Score: inf
ROOT
ATOM      1  C   UNL A   1      33.136  29.079  24.801  1.00  0.00     0.023 C 
ENDROOT
BRANCH   1   2
ATOM      2  C   UNL A   1      33.799  28.197  23.754  1.00  0.00     0.023 C 
BRANCH   2   3
ATOM      3  C   UNL A   1      32.886  27.810  22.582  1.00  0.00     0.116 C 
BRANCH   3   4
ATOM      4  N   UNL A   1      33.291  26.618  21.851  1.00  0.00    -0.356 N 
ATOM      5  C   UNL A   1      32.876  25.324  21.875  1.00  0.00     0.226 C 
ATOM      6  O   UNL A   1      33.380  24.572  21.032  1.00  0.00    -0.275 OA
ATOM      7  H   UNL A   1      34.017  26.784  21.207  1.00  0.00     0.163 HD
BRANCH   5   8
ATOM      8  C   UNL A   1      31.876  24.728  22.875  1.00  0.00     0.113 C 
ATOM      9  C   UNL A   1      32.045  26.212  26.304  1.00  0.00     0.147 C 
ATOM     10  N   UNL A   1      31.693  25.684  25.000  1.00  0.00    -0.339 N 
ATOM     11  C   UNL A   1      30.636  26.221  24.269  1.00  0.00     0.223 C 
ATOM     12  C   UNL A   1      32.346  24.543  24.338  1.00  0.00     0.058 C 
ATOM     13  O   UNL A   1      29.900  27.125  24.615  1.00  0.00    -0.275 OA
ATOM     14  C   UNL A   1      30.578  25.530  22.937  1.00  0.00     0.116 C 
ATOM     15  C   UNL A   1      33.880  24.490  24.459  1.00  0.00     0.051 C 
ATOM     16  C   UNL A   1      31.788  23.246  24.996  1.00  0.00     0.051 C 
ATOM     17  C   UNL A   1      34.474  23.224  23.847  1.00  0.00     0.122 C 
ATOM     18  C   UNL A   1      32.522  21.964  24.584  1.00  0.00     0.122 C 
ATOM     19  N   UNL A   1      33.977  22.116  24.623  1.00  0.00    -0.338 N 
ATOM     20  C   UNL A   1      34.753  21.288  25.425  1.00  0.00     0.254 C 
ATOM     21  O   UNL A   1      34.244  20.502  26.225  1.00  0.00    -0.269 OA
BRANCH  20  22
ATOM     22  C   UNL A   1      36.234  21.184  25.256  1.00  0.00     0.047 A 
ATOM     23  C   UNL A   1      36.638  19.932  24.759  1.00  0.00     0.014 A 
ATOM     24  C   UNL A   1      37.202  22.107  25.757  1.00  0.00    -0.006 A 
ATOM     25  C   UNL A   1      37.968  19.537  24.829  1.00  0.00     0.001 A 
ATOM     26  C   UNL A   1      38.545  21.656  25.869  1.00  0.00    -0.018 A 
ATOM     27  C   UNL A   1      36.958  23.449  26.141  1.00  0.00     0.009 A 
ATOM     28  C   UNL A   1      38.902  20.375  25.426  1.00  0.00     0.009 A 
ATOM     29  C   UNL A   1      39.538  22.487  26.413  1.00  0.00     0.009 A 
ATOM     30  C   UNL A   1      37.983  24.306  26.560  1.00  0.00     0.001 A 
ATOM     31  C   UNL A   1      39.267  23.814  26.731  1.00  0.00     0.001 A 
ENDBRANCH  20  22
ENDBRANCH   5   8
ENDBRANCH   3   4
ENDBRANCH   2   3
ENDBRANCH   1   2
BRANCH   1  32
ATOM     32  C   UNL A   1      34.028  29.334  26.002  1.00  0.00     0.116 C 
BRANCH  32  33
ATOM     33  N   UNL A   1      33.742  30.619  26.635  1.00  0.00    -0.352 N 
ATOM     34  C   UNL A   1      34.364  31.193  27.715  1.00  0.00     0.251 C 
ATOM     35  H   UNL A   1      33.008  31.140  26.235  1.00  0.00     0.163 HD
ATOM     36  O   UNL A   1      33.886  32.173  28.272  1.00  0.00    -0.269 OA
BRANCH  34  37
ATOM     37  C   UNL A   1      35.611  30.575  28.190  1.00  0.00     0.039 A 
ATOM     38  C   UNL A   1      36.831  31.003  27.671  1.00  0.00     0.014 A 
ATOM     39  C   UNL A   1      35.553  29.655  29.242  1.00  0.00     0.014 A 
ATOM     40  C   UNL A   1      38.009  30.554  28.265  1.00  0.00     0.010 A 
ATOM     41  C   UNL A   1      36.718  29.306  29.898  1.00  0.00     0.010 A 
ATOM     42  C   UNL A   1      37.958  29.740  29.409  1.00  0.00    -0.014 A 
BRANCH  42  43
ATOM     43  C   UNL A   1      39.187  29.303  30.111  1.00  0.00     0.031 A 
ATOM     44  C   UNL A   1      39.620  30.029  31.355  1.00  0.00     0.074 A 
ATOM     45  C   UNL A   1      39.948  28.323  29.586  1.00  0.00     0.049 A 
ATOM     46  N   UNL A   1      40.709  29.873  32.060  1.00  0.00    -0.248 NA
ATOM     47  C   UNL A   1      38.729  31.092  31.852  1.00  0.00     0.031 C 
ATOM     48  C   UNL A   1      39.649  27.578  28.359  1.00  0.00     0.029 A 
ATOM     49  N   UNL A   1      41.136  27.790  30.014  1.00  0.00    -0.354 N 
ATOM     50  C   UNL A   1      40.644  30.832  33.065  1.00  0.00     0.074 A 
ATOM     51  C   UNL A   1      39.443  31.605  32.842  1.00  0.00     0.031 C 
ATOM     52  C   UNL A   1      40.612  26.664  28.154  1.00  0.00     0.029 A 
ATOM     53  C   UNL A   1      41.620  26.792  29.201  1.00  0.00     0.049 A 
ATOM     54  H   UNL A   1      41.600  28.092  30.829  1.00  0.00     0.167 HD
ATOM     55  C   UNL A   1      41.494  31.034  34.097  1.00  0.00     0.031 A 
ATOM     56  C   UNL A   1      42.754  26.070  29.284  1.00  0.00     0.031 A 
ATOM     57  C   UNL A   1      42.677  30.248  34.319  1.00  0.00     0.049 A 
ATOM     58  C   UNL A   1      43.696  26.325  30.430  1.00  0.00     0.074 A 
ATOM     59  C   UNL A   1      43.576  30.330  35.366  1.00  0.00     0.029 A 
ATOM     60  N   UNL A   1      43.125  29.240  33.479  1.00  0.00    -0.354 N 
ATOM     61  N   UNL A   1      43.582  27.189  31.411  1.00  0.00    -0.248 NA
ATOM     62  C   UNL A   1      44.913  25.504  30.486  1.00  0.00     0.031 C 
ATOM     63  C   UNL A   1      44.603  29.413  35.126  1.00  0.00     0.029 A 
ATOM     64  C   UNL A   1      44.305  28.710  33.969  1.00  0.00     0.049 A 
ATOM     65  H   UNL A   1      42.671  28.945  32.657  1.00  0.00     0.167 HD
ATOM     66  C   UNL A   1      44.696  26.992  32.219  1.00  0.00     0.074 A 
ATOM     67  C   UNL A   1      45.465  25.921  31.618  1.00  0.00     0.031 C 
ATOM     68  C   UNL A   1      45.050  27.638  33.359  1.00  0.00     0.031 A 
BRANCH  55  69
ATOM     69  C   UNL A   1      41.175  32.149  35.056  1.00  0.00    -0.014 A 
ATOM     70  C   UNL A   1      41.630  33.461  34.827  1.00  0.00     0.010 A 
ATOM     71  C   UNL A   1      40.376  31.890  36.184  1.00  0.00     0.010 A 
ATOM     72  C   UNL A   1      41.329  34.482  35.732  1.00  0.00     0.020 A 
ATOM     73  C   UNL A   1      40.044  32.916  37.074  1.00  0.00     0.020 A 
ATOM     74  C   UNL A   1      40.537  34.202  36.850  1.00  0.00     0.054 A 
BRANCH  74  75
ATOM     75  S   UNL A   1      40.138  35.556  37.988  1.00  0.00     0.124 S 
ATOM     76  O   UNL A   1      38.918  35.065  38.624  1.00  0.00    -0.237 OA
ATOM     77  O   UNL A   1      41.316  35.607  38.848  1.00  0.00    -0.237 OA
ATOM     78  O   UNL A   1      39.960  36.709  37.108  1.00  0.00    -0.744 OA
ENDBRANCH  74  75
ENDBRANCH  55  69
BRANCH  56  79
ATOM     79  C   UNL A   1      43.056  25.033  28.258  1.00  0.00    -0.014 A 
ATOM     80  C   UNL A   1      43.758  25.368  27.087  1.00  0.00     0.010 A 
ATOM     81  C   UNL A   1      42.652  23.699  28.452  1.00  0.00     0.010 A 
ATOM     82  C   UNL A   1      44.034  24.395  26.121  1.00  0.00     0.020 A 
ATOM     83  C   UNL A   1      42.952  22.716  27.505  1.00  0.00     0.020 A 
ATOM     84  C   UNL A   1      43.632  23.074  26.339  1.00  0.00     0.054 A 
BRANCH  84  85
ATOM     85  S   UNL A   1      44.044  21.819  25.094  1.00  0.00     0.124 S 
ATOM     86  O   UNL A   1      43.041  20.792  25.356  1.00  0.00    -0.237 OA
ATOM     87  O   UNL A   1      43.887  22.556  23.842  1.00  0.00    -0.237 OA
ATOM     88  O   UNL A   1      45.419  21.450  25.422  1.00  0.00    -0.744 OA
ENDBRANCH  84  85
ENDBRANCH  56  79
BRANCH  68  89
ATOM     89  C   UNL A   1      46.300  27.180  34.062  1.00  0.00    -0.014 A 
ATOM     90  C   UNL A   1      46.284  26.091  34.950  1.00  0.00     0.010 A 
ATOM     91  C   UNL A   1      47.527  27.798  33.754  1.00  0.00     0.010 A 
ATOM     92  C   UNL A   1      47.471  25.640  35.531  1.00  0.00     0.020 A 
ATOM     93  C   UNL A   1      48.719  27.330  34.308  1.00  0.00     0.020 A 
ATOM     94  C   UNL A   1      48.683  26.257  35.201  1.00  0.00     0.054 A 
BRANCH  94  95
ATOM     95  S   UNL A   1      50.217  25.602  35.912  1.00  0.00     0.124 S 
ATOM     96  O   UNL A   1      50.062  24.166  35.697  1.00  0.00    -0.237 OA
ATOM     97  O   UNL A   1      51.246  26.252  35.105  1.00  0.00    -0.237 OA
ATOM     98  O   UNL A   1      50.163  26.032  37.307  1.00  0.00    -0.744 OA
ENDBRANCH  94  95
ENDBRANCH  68  89
ENDBRANCH  42  43
ENDBRANCH  34  37
ENDBRANCH  32  33
ENDBRANCH   1  32
TORSDOF 15
ENDMDL
MODEL 2
REMARK VINA RESULT:     -12.1      5.283      8.646
REMARK SMILES CN1C(=O)C[C@@H](C(=O)NCCCCNC(=O)c2ccc(-c3c4nc(c(-c5ccc(S(=O)(=O)[O-])cc5)c5ccc([nH]5)c(-c5ccc(S(=O)(=O)[O-])cc5)c5nc(c(-c6ccc(S(=O)(=O)[O-])cc6)c6ccc3[nH]6)C=C5)C=C4)cc2)C12CCN(C(=O)c1cccc3ccccc13)CC2
REMARK SMILES IDX 12 1 11 2 10 3 9 4 7 5 8 6 6 8 1 9 2 10 3 11 77 12 4 13 5 14
REMARK SMILES IDX 78 15 94 16 79 17 93 18 80 19 81 20 82 21 83 22 84 23 92 24
REMARK SMILES IDX 85 25 87 26 91 27 86 28 88 29 90 30 89 31 13 32 14 33 15 34
REMARK SMILES IDX 16 36 17 37 18 38 76 39 19 40 75 41 20 42 21 43 22 44 69 45
REMARK SMILES IDX 23 46 74 47 68 48 70 49 24 50 73 51 67 52 66 53 25 55 55 56
REMARK SMILES IDX 36 57 54 58 37 59 40 60 53 61 71 62 38 63 39 64 52 66 72 67
REMARK SMILES IDX 41 68 26 69 27 70 35 71 28 72 34 73 29 74 30 75 31 76 32 77
REMARK SMILES IDX 33 78 56 79 57 80 65 81 58 82 64 83 59 84 60 85 61 86 62 87
REMARK SMILES IDX 63 88 42 89 43 90 51 91 44 92 50 93 45 94 46 95 47 96 48 97
REMARK SMILES IDX 49 98
REMARK H PARENT 9 7 14 35 70 54 40 65
REMARK Flexibility Score: inf
ROOT
ATOM      1  C   UNL A   1      39.198  21.810  26.028  1.00  0.00     0.023 C 
ENDROOT
BRANCH   1   2
ATOM      2  C   UNL A   1      39.051  23.294  26.329  1.00  0.00     0.023 C 
BRANCH   2   3
ATOM      3  C   UNL A   1      37.644  23.855  26.082  1.00  0.00     0.116 C 
BRANCH   3   4
ATOM      4  N   UNL A   1      37.064  23.521  24.789  1.00  0.00    -0.356 N 
ATOM      5  C   UNL A   1      35.998  22.766  24.413  1.00  0.00     0.226 C 
ATOM      6  O   UNL A   1      35.721  22.775  23.207  1.00  0.00    -0.275 OA
ATOM      7  H   UNL A   1      37.545  23.925  24.030  1.00  0.00     0.163 HD
BRANCH   5   8
ATOM      8  C   UNL A   1      35.153  21.890  25.347  1.00  0.00     0.113 C 
ATOM      9  C   UNL A   1      32.470  19.933  23.626  1.00  0.00     0.147 C 
ATOM     10  N   UNL A   1      33.577  20.436  24.417  1.00  0.00    -0.339 N 
ATOM     11  C   UNL A   1      34.689  19.642  24.685  1.00  0.00     0.223 C 
ATOM     12  C   UNL A   1      33.640  21.767  25.043  1.00  0.00     0.058 C 
ATOM     13  O   UNL A   1      34.858  18.489  24.337  1.00  0.00    -0.275 OA
ATOM     14  C   UNL A   1      35.692  20.465  25.441  1.00  0.00     0.116 C 
ATOM     15  C   UNL A   1      33.117  22.933  24.186  1.00  0.00     0.051 C 
ATOM     16  C   UNL A   1      32.765  21.714  26.331  1.00  0.00     0.051 C 
ATOM     17  C   UNL A   1      33.109  24.260  24.941  1.00  0.00     0.122 C 
ATOM     18  C   UNL A   1      32.534  23.077  26.993  1.00  0.00     0.122 C 
ATOM     19  N   UNL A   1      32.173  24.114  26.026  1.00  0.00    -0.338 N 
ATOM     20  C   UNL A   1      30.973  24.807  26.146  1.00  0.00     0.254 C 
ATOM     21  O   UNL A   1      30.122  24.483  26.976  1.00  0.00    -0.269 OA
BRANCH  20  22
ATOM     22  C   UNL A   1      30.711  26.072  25.397  1.00  0.00     0.047 A 
ATOM     23  C   UNL A   1      30.154  25.846  24.125  1.00  0.00     0.014 A 
ATOM     24  C   UNL A   1      31.180  27.373  25.757  1.00  0.00    -0.006 A 
ATOM     25  C   UNL A   1      30.132  26.855  23.170  1.00  0.00     0.001 A 
ATOM     26  C   UNL A   1      31.196  28.370  24.744  1.00  0.00    -0.018 A 
ATOM     27  C   UNL A   1      31.616  27.777  27.042  1.00  0.00     0.009 A 
ATOM     28  C   UNL A   1      30.696  28.091  23.466  1.00  0.00     0.009 A 
ATOM     29  C   UNL A   1      31.703  29.653  25.010  1.00  0.00     0.009 A 
ATOM     30  C   UNL A   1      31.997  29.095  27.323  1.00  0.00     0.001 A 
ATOM     31  C   UNL A   1      32.075  30.024  26.298  1.00  0.00     0.001 A 
ENDBRANCH  20  22
ENDBRANCH   5   8
ENDBRANCH   3   4
ENDBRANCH   2   3
ENDBRANCH   1   2
BRANCH   1  32
ATOM     32  C   UNL A   1      40.089  21.096  27.025  1.00  0.00     0.116 C 
BRANCH  32  33
ATOM     33  N   UNL A   1      40.872  20.032  26.398  1.00  0.00    -0.352 N 
ATOM     34  C   UNL A   1      42.120  20.114  25.834  1.00  0.00     0.251 C 
ATOM     35  H   UNL A   1      40.448  19.143  26.378  1.00  0.00     0.163 HD
ATOM     36  O   UNL A   1      42.568  19.197  25.157  1.00  0.00    -0.269 OA
BRANCH  34  37
ATOM     37  C   UNL A   1      42.888  21.348  26.054  1.00  0.00     0.039 A 
ATOM     38  C   UNL A   1      43.019  22.270  25.018  1.00  0.00     0.014 A 
ATOM     39  C   UNL A   1      43.368  21.627  27.337  1.00  0.00     0.014 A 
ATOM     40  C   UNL A   1      43.577  23.517  25.293  1.00  0.00     0.010 A 
ATOM     41  C   UNL A   1      43.812  22.904  27.630  1.00  0.00     0.010 A 
ATOM     42  C   UNL A   1      43.933  23.857  26.609  1.00  0.00    -0.014 A 
BRANCH  42  43
ATOM     43  C   UNL A   1      44.460  25.198  26.953  1.00  0.00     0.031 A 
ATOM     44  C   UNL A   1      43.521  26.239  27.497  1.00  0.00     0.074 A 
ATOM     45  C   UNL A   1      45.748  25.499  26.697  1.00  0.00     0.049 A 
ATOM     46  N   UNL A   1      43.754  27.496  27.766  1.00  0.00    -0.248 NA
ATOM     47  C   UNL A   1      42.128  25.821  27.737  1.00  0.00     0.031 C 
ATOM     48  C   UNL A   1      46.741  24.581  26.129  1.00  0.00     0.029 A 
ATOM     49  N   UNL A   1      46.443  26.668  26.874  1.00  0.00    -0.354 N 
ATOM     50  C   UNL A   1      42.536  28.021  28.182  1.00  0.00     0.074 A 
ATOM     51  C   UNL A   1      41.555  26.966  28.070  1.00  0.00     0.031 C 
ATOM     52  C   UNL A   1      47.921  25.214  26.036  1.00  0.00     0.029 A 
ATOM     53  C   UNL A   1      47.760  26.592  26.487  1.00  0.00     0.049 A 
ATOM     54  H   UNL A   1      46.036  27.485  27.246  1.00  0.00     0.167 HD
ATOM     55  C   UNL A   1      42.264  29.263  28.642  1.00  0.00     0.031 A 
ATOM     56  C   UNL A   1      48.725  27.533  26.484  1.00  0.00     0.031 A 
ATOM     57  C   UNL A   1      43.252  30.300  28.765  1.00  0.00     0.049 A 
ATOM     58  C   UNL A   1      48.395  28.914  26.981  1.00  0.00     0.074 A 
ATOM     59  C   UNL A   1      43.097  31.576  29.274  1.00  0.00     0.029 A 
ATOM     60  N   UNL A   1      44.577  30.180  28.373  1.00  0.00    -0.354 N 
ATOM     61  N   UNL A   1      47.254  29.373  27.438  1.00  0.00    -0.248 NA
ATOM     62  C   UNL A   1      49.483  29.901  26.972  1.00  0.00     0.031 C 
ATOM     63  C   UNL A   1      44.313  32.249  29.132  1.00  0.00     0.029 A 
ATOM     64  C   UNL A   1      45.245  31.369  28.602  1.00  0.00     0.049 A 
ATOM     65  H   UNL A   1      44.982  29.369  27.988  1.00  0.00     0.167 HD
ATOM     66  C   UNL A   1      47.495  30.693  27.802  1.00  0.00     0.074 A 
ATOM     67  C   UNL A   1      48.893  30.955  27.521  1.00  0.00     0.031 C 
ATOM     68  C   UNL A   1      46.638  31.606  28.324  1.00  0.00     0.031 A 
BRANCH  55  69
ATOM     69  C   UNL A   1      40.844  29.565  29.039  1.00  0.00    -0.014 A 
ATOM     70  C   UNL A   1      39.818  29.641  28.079  1.00  0.00     0.010 A 
ATOM     71  C   UNL A   1      40.523  29.739  30.397  1.00  0.00     0.010 A 
ATOM     72  C   UNL A   1      38.507  29.928  28.466  1.00  0.00     0.020 A 
ATOM     73  C   UNL A   1      39.206  29.993  30.792  1.00  0.00     0.020 A 
ATOM     74  C   UNL A   1      38.210  30.102  29.821  1.00  0.00     0.054 A 
BRANCH  74  75
ATOM     75  S   UNL A   1      36.493  30.443  30.293  1.00  0.00     0.124 S 
ATOM     76  O   UNL A   1      36.597  31.784  30.861  1.00  0.00    -0.237 OA
ATOM     77  O   UNL A   1      35.788  30.354  29.018  1.00  0.00    -0.237 OA
ATOM     78  O   UNL A   1      36.180  29.385  31.251  1.00  0.00    -0.744 OA
ENDBRANCH  74  75
ENDBRANCH  55  69
BRANCH  56  79
ATOM     79  C   UNL A   1      50.094  27.195  26.002  1.00  0.00    -0.014 A 
ATOM     80  C   UNL A   1      51.069  26.721  26.896  1.00  0.00     0.010 A 
ATOM     81  C   UNL A   1      50.426  27.335  24.642  1.00  0.00     0.010 A 
ATOM     82  C   UNL A   1      52.357  26.411  26.444  1.00  0.00     0.020 A 
ATOM     83  C   UNL A   1      51.701  26.998  24.179  1.00  0.00     0.020 A 
ATOM     84  C   UNL A   1      52.662  26.549  25.087  1.00  0.00     0.054 A 
BRANCH  84  85
ATOM     85  S   UNL A   1      54.324  26.095  24.515  1.00  0.00     0.124 S 
ATOM     86  O   UNL A   1      54.241  26.379  23.086  1.00  0.00    -0.237 OA
ATOM     87  O   UNL A   1      55.178  26.990  25.291  1.00  0.00    -0.237 OA
ATOM     88  O   UNL A   1      54.432  24.681  24.868  1.00  0.00    -0.744 OA
ENDBRANCH  84  85
ENDBRANCH  56  79
BRANCH  68  89
ATOM     89  C   UNL A   1      47.190  32.963  28.671  1.00  0.00    -0.014 A 
ATOM     90  C   UNL A   1      47.847  33.197  29.890  1.00  0.00     0.010 A 
ATOM     91  C   UNL A   1      47.125  33.996  27.716  1.00  0.00     0.010 A 
ATOM     92  C   UNL A   1      48.415  34.445  30.156  1.00  0.00     0.020 A 
ATOM     93  C   UNL A   1      47.720  35.234  27.964  1.00  0.00     0.020 A 
ATOM     94  C   UNL A   1      48.355  35.454  29.188  1.00  0.00     0.054 A 
BRANCH  94  95
ATOM     95  S   UNL A   1      49.166  37.039  29.530  1.00  0.00     0.124 S 
ATOM     96  O   UNL A   1      50.136  36.668  30.557  1.00  0.00    -0.237 OA
ATOM     97  O   UNL A   1      49.731  37.395  28.230  1.00  0.00    -0.237 OA
ATOM     98  O   UNL A   1      48.074  37.897  29.984  1.00  0.00    -0.744 OA
ENDBRANCH  94  95
ENDBRANCH  68  89
ENDBRANCH  42  43
ENDBRANCH  34  37
ENDBRANCH  32  33
ENDBRANCH   1  32
TORSDOF 15
ENDMDL
MODEL 3
REMARK VINA RESULT:     -12.1      5.126     10.395
REMARK SMILES CN1C(=O)C[C@@H](C(=O)NCCCCNC(=O)c2ccc(-c3c4nc(c(-c5ccc(S(=O)(=O)[O-])cc5)c5ccc([nH]5)c(-c5ccc(S(=O)(=O)[O-])cc5)c5nc(c(-c6ccc(S(=O)(=O)[O-])cc6)c6ccc3[nH]6)C=C5)C=C4)cc2)C12CCN(C(=O)c1cccc3ccccc13)CC2
REMARK SMILES IDX 12 1 11 2 10 3 9 4 7 5 8 6 6 8 1 9 2 10 3 11 77 12 4 13 5 14
REMARK SMILES IDX 78 15 94 16 79 17 93 18 80 19 81 20 82 21 83 22 84 23 92 24
REMARK SMILES IDX 85 25 87 26 91 27 86 28 88 29 90 30 89 31 13 32 14 33 15 34
REMARK SMILES IDX 16 36 17 37 18 38 76 39 19 40 75 41 20 42 21 43 22 44 69 45
REMARK SMILES IDX 23 46 74 47 68 48 70 49 24 50 73 51 67 52 66 53 25 55 55 56
REMARK SMILES IDX 36 57 54 58 37 59 40 60 53 61 71 62 38 63 39 64 52 66 72 67
REMARK SMILES IDX 41 68 26 69 27 70 35 71 28 72 34 73 29 74 30 75 31 76 32 77
REMARK SMILES IDX 33 78 56 79 57 80 65 81 58 82 64 83 59 84 60 85 61 86 62 87
REMARK SMILES IDX 63 88 42 89 43 90 51 91 44 92 50 93 45 94 46 95 47 96 48 97
REMARK SMILES IDX 49 98
REMARK H PARENT 9 7 14 35 70 54 40 65
REMARK Flexibility Score: inf
ROOT
ATOM      1  C   UNL A   1      39.264  21.811  25.985  1.00  0.00     0.023 C 
ENDROOT
BRANCH   1   2
ATOM      2  C   UNL A   1      39.095  23.277  26.351  1.00  0.00     0.023 C 
BRANCH   2   3
ATOM      3  C   UNL A   1      37.674  23.822  26.150  1.00  0.00     0.116 C 
BRANCH   3   4
ATOM      4  N   UNL A   1      37.080  23.532  24.853  1.00  0.00    -0.356 N 
ATOM      5  C   UNL A   1      35.998  22.807  24.464  1.00  0.00     0.226 C 
ATOM      6  O   UNL A   1      35.713  22.853  23.261  1.00  0.00    -0.275 OA
ATOM      7  H   UNL A   1      37.562  23.949  24.102  1.00  0.00     0.163 HD
BRANCH   5   8
ATOM      8  C   UNL A   1      35.144  21.921  25.381  1.00  0.00     0.113 C 
ATOM      9  C   UNL A   1      32.487  19.973  23.611  1.00  0.00     0.147 C 
ATOM     10  N   UNL A   1      33.582  20.472  24.420  1.00  0.00    -0.339 N 
ATOM     11  C   UNL A   1      34.693  19.677  24.693  1.00  0.00     0.223 C 
ATOM     12  C   UNL A   1      33.635  21.797  25.058  1.00  0.00     0.058 C 
ATOM     13  O   UNL A   1      34.869  18.528  24.337  1.00  0.00    -0.275 OA
ATOM     14  C   UNL A   1      35.685  20.497  25.469  1.00  0.00     0.116 C 
ATOM     15  C   UNL A   1      33.119  22.970  24.205  1.00  0.00     0.051 C 
ATOM     16  C   UNL A   1      32.745  21.731  26.335  1.00  0.00     0.051 C 
ATOM     17  C   UNL A   1      33.100  24.290  24.972  1.00  0.00     0.122 C 
ATOM     18  C   UNL A   1      32.503  23.088  27.006  1.00  0.00     0.122 C 
ATOM     19  N   UNL A   1      32.151  24.132  26.044  1.00  0.00    -0.338 N 
ATOM     20  C   UNL A   1      30.948  24.821  26.156  1.00  0.00     0.254 C 
ATOM     21  O   UNL A   1      30.088  24.488  26.973  1.00  0.00    -0.269 OA
BRANCH  20  22
ATOM     22  C   UNL A   1      30.692  26.092  25.415  1.00  0.00     0.047 A 
ATOM     23  C   UNL A   1      30.112  25.878  24.151  1.00  0.00     0.014 A 
ATOM     24  C   UNL A   1      31.184  27.385  25.772  1.00  0.00    -0.006 A 
ATOM     25  C   UNL A   1      30.089  26.891  23.200  1.00  0.00     0.001 A 
ATOM     26  C   UNL A   1      31.199  28.385  24.762  1.00  0.00    -0.018 A 
ATOM     27  C   UNL A   1      31.647  27.780  27.051  1.00  0.00     0.009 A 
ATOM     28  C   UNL A   1      30.674  28.118  23.490  1.00  0.00     0.009 A 
ATOM     29  C   UNL A   1      31.728  29.660  25.023  1.00  0.00     0.009 A 
ATOM     30  C   UNL A   1      32.051  29.091  27.329  1.00  0.00     0.001 A 
ATOM     31  C   UNL A   1      32.126  30.022  26.305  1.00  0.00     0.001 A 
ENDBRANCH  20  22
ENDBRANCH   5   8
ENDBRANCH   3   4
ENDBRANCH   2   3
ENDBRANCH   1   2
BRANCH   1  32
ATOM     32  C   UNL A   1      40.038  21.032  27.031  1.00  0.00     0.116 C 
BRANCH  32  33
ATOM     33  N   UNL A   1      40.891  20.007  26.432  1.00  0.00    -0.352 N 
ATOM     34  C   UNL A   1      42.134  20.157  25.869  1.00  0.00     0.251 C 
ATOM     35  H   UNL A   1      40.527  19.092  26.433  1.00  0.00     0.163 HD
ATOM     36  O   UNL A   1      42.643  19.255  25.216  1.00  0.00    -0.269 OA
BRANCH  34  37
ATOM     37  C   UNL A   1      42.817  21.445  26.061  1.00  0.00     0.039 A 
ATOM     38  C   UNL A   1      42.877  22.355  25.008  1.00  0.00     0.014 A 
ATOM     39  C   UNL A   1      43.288  21.778  27.334  1.00  0.00     0.014 A 
ATOM     40  C   UNL A   1      43.351  23.641  25.256  1.00  0.00     0.010 A 
ATOM     41  C   UNL A   1      43.647  23.086  27.601  1.00  0.00     0.010 A 
ATOM     42  C   UNL A   1      43.694  24.028  26.563  1.00  0.00    -0.014 A 
BRANCH  42  43
ATOM     43  C   UNL A   1      44.132  25.407  26.880  1.00  0.00     0.031 A 
ATOM     44  C   UNL A   1      45.565  25.796  26.643  1.00  0.00     0.074 A 
ATOM     45  C   UNL A   1      43.270  26.270  27.453  1.00  0.00     0.049 A 
ATOM     46  N   UNL A   1      46.174  26.912  26.943  1.00  0.00    -0.248 NA
ATOM     47  C   UNL A   1      46.436  24.785  26.019  1.00  0.00     0.031 C 
ATOM     48  C   UNL A   1      41.866  25.987  27.770  1.00  0.00     0.029 A 
ATOM     49  N   UNL A   1      43.451  27.560  27.880  1.00  0.00    -0.354 N 
ATOM     50  C   UNL A   1      47.499  26.727  26.567  1.00  0.00     0.074 A 
ATOM     51  C   UNL A   1      47.620  25.374  26.077  1.00  0.00     0.031 C 
ATOM     52  C   UNL A   1      41.309  27.083  28.310  1.00  0.00     0.029 A 
ATOM     53  C   UNL A   1      42.323  28.125  28.427  1.00  0.00     0.049 A 
ATOM     54  H   UNL A   1      44.309  28.038  27.801  1.00  0.00     0.167 HD
ATOM     55  C   UNL A   1      48.519  27.615  26.601  1.00  0.00     0.031 A 
ATOM     56  C   UNL A   1      42.132  29.343  28.972  1.00  0.00     0.031 A 
ATOM     57  C   UNL A   1      48.383  28.965  27.075  1.00  0.00     0.049 A 
ATOM     58  C   UNL A   1      43.286  30.307  29.018  1.00  0.00     0.074 A 
ATOM     59  C   UNL A   1      49.338  29.965  27.098  1.00  0.00     0.029 A 
ATOM     60  N   UNL A   1      47.222  29.503  27.609  1.00  0.00    -0.354 N 
ATOM     61  N   UNL A   1      44.516  30.140  28.592  1.00  0.00    -0.248 NA
ATOM     62  C   UNL A   1      43.027  31.627  29.608  1.00  0.00     0.031 C 
ATOM     63  C   UNL A   1      48.771  31.089  27.706  1.00  0.00     0.029 A 
ATOM     64  C   UNL A   1      47.443  30.813  27.993  1.00  0.00     0.049 A 
ATOM     65  H   UNL A   1      46.367  29.022  27.702  1.00  0.00     0.167 HD
ATOM     66  C   UNL A   1      45.168  31.344  28.833  1.00  0.00     0.074 A 
ATOM     67  C   UNL A   1      44.194  32.234  29.432  1.00  0.00     0.031 C 
ATOM     68  C   UNL A   1      46.456  31.684  28.579  1.00  0.00     0.031 A 
BRANCH  55  69
ATOM     69  C   UNL A   1      49.866  27.149  26.118  1.00  0.00    -0.014 A 
ATOM     70  C   UNL A   1      50.241  27.276  24.767  1.00  0.00     0.010 A 
ATOM     71  C   UNL A   1      50.787  26.610  27.034  1.00  0.00     0.010 A 
ATOM     72  C   UNL A   1      51.493  26.833  24.336  1.00  0.00     0.020 A 
ATOM     73  C   UNL A   1      52.054  26.196  26.613  1.00  0.00     0.020 A 
ATOM     74  C   UNL A   1      52.392  26.296  25.262  1.00  0.00     0.054 A 
BRANCH  74  75
ATOM     75  S   UNL A   1      54.021  25.758  24.676  1.00  0.00     0.124 S 
ATOM     76  O   UNL A   1      53.935  24.309  24.835  1.00  0.00    -0.237 OA
ATOM     77  O   UNL A   1      54.038  26.239  23.298  1.00  0.00    -0.237 OA
ATOM     78  O   UNL A   1      54.954  26.428  25.579  1.00  0.00    -0.744 OA
ENDBRANCH  74  75
ENDBRANCH  55  69
BRANCH  56  79
ATOM     79  C   UNL A   1      40.794  29.719  29.507  1.00  0.00    -0.014 A 
ATOM     80  C   UNL A   1      40.557  29.735  30.892  1.00  0.00     0.010 A 
ATOM     81  C   UNL A   1      39.750  30.075  28.633  1.00  0.00     0.010 A 
ATOM     82  C   UNL A   1      39.298  30.082  31.394  1.00  0.00     0.020 A 
ATOM     83  C   UNL A   1      38.500  30.453  29.129  1.00  0.00     0.020 A 
ATOM     84  C   UNL A   1      38.279  30.442  30.508  1.00  0.00     0.054 A 
BRANCH  84  85
ATOM     85  S   UNL A   1      36.668  30.935  31.183  1.00  0.00     0.124 S 
ATOM     86  O   UNL A   1      37.003  32.159  31.904  1.00  0.00    -0.237 OA
ATOM     87  O   UNL A   1      35.862  31.109  29.978  1.00  0.00    -0.237 OA
ATOM     88  O   UNL A   1      36.286  29.799  32.020  1.00  0.00    -0.744 OA
ENDBRANCH  84  85
ENDBRANCH  56  79
BRANCH  68  89
ATOM     89  C   UNL A   1      46.885  33.090  28.903  1.00  0.00    -0.014 A 
ATOM     90  C   UNL A   1      47.481  33.409  30.135  1.00  0.00     0.010 A 
ATOM     91  C   UNL A   1      46.770  34.089  27.917  1.00  0.00     0.010 A 
ATOM     92  C   UNL A   1      47.938  34.706  30.382  1.00  0.00     0.020 A 
ATOM     93  C   UNL A   1      47.254  35.377  28.147  1.00  0.00     0.020 A 
ATOM     94  C   UNL A   1      47.828  35.680  29.383  1.00  0.00     0.054 A 
BRANCH  94  95
ATOM     95  S   UNL A   1      48.498  37.334  29.703  1.00  0.00     0.124 S 
ATOM     96  O   UNL A   1      47.323  38.180  29.512  1.00  0.00    -0.237 OA
ATOM     97  O   UNL A   1      48.976  37.224  31.080  1.00  0.00    -0.237 OA
ATOM     98  O   UNL A   1      49.546  37.486  28.697  1.00  0.00    -0.744 OA
ENDBRANCH  94  95
ENDBRANCH  68  89
ENDBRANCH  42  43
ENDBRANCH  34  37
ENDBRANCH  32  33
ENDBRANCH   1  32
TORSDOF 15
ENDMDL
