MODEL 1
REMARK VINA RESULT:     -11.5      0.000      0.000
REMARK SMILES CSCC[C@H](C(=O)NCCCCNC(=O)c1ccc(-c2c3nc(c(-c4ccc(S(=O)(=O)[O-])cc4)c4ccc([nH]4)c(-c4ccc(S(=O)(=O)[O-])cc4)c4nc(c(-c5ccc(S(=O)(=O)[O-])cc5)c5ccc2[nH]5)C=C4)C=C3)cc1)N1C(=O)/C(=C/c2ccc3c(c2)OCO3)SC1=S
REMARK SMILES IDX 10 1 9 2 8 3 6 4 7 5 5 7 4 8 3 9 2 10 1 11 76 12 77 13 91 14
REMARK SMILES IDX 78 15 79 16 90 17 92 18 80 19 81 20 82 21 86 22 83 23 85 24
REMARK SMILES IDX 84 25 87 26 89 27 88 28 11 29 12 30 13 31 14 32 15 34 16 35
REMARK SMILES IDX 17 36 75 37 18 38 74 39 19 40 20 41 21 42 68 43 22 44 73 45
REMARK SMILES IDX 67 46 69 47 23 48 72 49 66 50 65 51 24 53 54 54 35 55 53 56
REMARK SMILES IDX 36 57 39 58 52 59 70 60 37 61 38 62 51 64 71 65 40 66 25 67
REMARK SMILES IDX 26 68 34 69 27 70 33 71 28 72 29 73 30 74 31 75 32 76 55 77
REMARK SMILES IDX 56 78 64 79 57 80 63 81 58 82 59 83 60 84 61 85 62 86 41 87
REMARK SMILES IDX 42 88 50 89 43 90 49 91 44 92 45 93 46 94 47 95 48 96
REMARK H PARENT 8 6 13 33 69 52 39 63
REMARK Flexibility Score: inf
ROOT
ATOM      1  C   UNL A   1      38.639  23.239  26.595  1.00  0.00     0.023 C 
ENDROOT
BRANCH   1   2
ATOM      2  C   UNL A   1      37.719  22.911  25.419  1.00  0.00     0.116 C 
BRANCH   2   3
ATOM      3  N   UNL A   1      36.580  22.124  25.867  1.00  0.00    -0.354 N 
ATOM      4  C   UNL A   1      36.133  21.058  25.113  1.00  0.00     0.243 C 
ATOM      5  O   UNL A   1      36.789  20.021  25.087  1.00  0.00    -0.273 OA
ATOM      6  H   UNL A   1      36.128  22.351  26.711  1.00  0.00     0.163 HD
BRANCH   4   7
ATOM      7  C   UNL A   1      34.663  21.150  24.640  1.00  0.00     0.182 C 
BRANCH   7   8
ATOM      8  C   UNL A   1      33.738  19.947  24.977  1.00  0.00     0.046 C 
BRANCH   8   9
ATOM      9  C   UNL A   1      32.703  19.427  23.979  1.00  0.00     0.072 C 
BRANCH   9  10
ATOM     10  S   UNL A   1      32.937  17.745  23.359  1.00  0.00    -0.165 SA
ATOM     11  C   UNL A   1      34.543  17.368  24.116  1.00  0.00     0.085 C 
ENDBRANCH   9  10
ENDBRANCH   8   9
ENDBRANCH   7   8
BRANCH   7  12
ATOM     12  N   UNL A   1      33.959  22.446  24.745  1.00  0.00    -0.280 N 
ATOM     13  C   UNL A   1      34.047  23.328  23.666  1.00  0.00     0.266 C 
ATOM     14  C   UNL A   1      33.022  22.802  25.690  1.00  0.00     0.149 C 
ATOM     15  O   UNL A   1      34.836  23.272  22.732  1.00  0.00    -0.268 OA
ATOM     16  C   UNL A   1      33.009  24.385  23.797  1.00  0.00     0.081 C 
ATOM     17  S   UNL A   1      31.833  23.834  24.934  1.00  0.00    -0.054 SA
ATOM     18  S   UNL A   1      32.988  22.553  27.335  1.00  0.00    -0.052 S 
ATOM     19  C   UNL A   1      33.039  25.608  23.241  1.00  0.00     0.029 C 
BRANCH  19  20
ATOM     20  C   UNL A   1      32.017  26.592  23.641  1.00  0.00    -0.020 A 
ATOM     21  C   UNL A   1      32.245  27.425  24.756  1.00  0.00     0.012 A 
ATOM     22  C   UNL A   1      31.013  26.914  22.708  1.00  0.00     0.058 A 
ATOM     23  C   UNL A   1      31.548  28.631  24.890  1.00  0.00     0.051 A 
ATOM     24  C   UNL A   1      30.397  28.137  22.835  1.00  0.00     0.166 A 
ATOM     25  C   UNL A   1      30.668  28.979  23.887  1.00  0.00     0.165 A 
ATOM     26  O   UNL A   1      29.571  28.702  21.914  1.00  0.00    -0.454 OA
ATOM     27  O   UNL A   1      30.033  30.176  23.759  1.00  0.00    -0.454 OA
ATOM     28  C   UNL A   1      29.495  30.048  22.423  1.00  0.00     0.468 C 
ENDBRANCH  19  20
ENDBRANCH   7  12
ENDBRANCH   4   7
ENDBRANCH   2   3
ENDBRANCH   1   2
BRANCH   1  29
ATOM     29  C   UNL A   1      39.910  22.396  26.655  1.00  0.00     0.023 C 
BRANCH  29  30
ATOM     30  C   UNL A   1      41.220  23.157  26.831  1.00  0.00     0.116 C 
BRANCH  30  31
ATOM     31  N   UNL A   1      41.458  24.175  25.819  1.00  0.00    -0.352 N 
ATOM     32  C   UNL A   1      41.579  25.539  26.006  1.00  0.00     0.251 C 
ATOM     33  H   UNL A   1      41.543  23.855  24.892  1.00  0.00     0.163 HD
ATOM     34  O   UNL A   1      41.698  26.293  25.047  1.00  0.00    -0.269 OA
BRANCH  32  35
ATOM     35  C   UNL A   1      41.505  26.084  27.383  1.00  0.00     0.039 A 
ATOM     36  C   UNL A   1      42.634  26.691  27.935  1.00  0.00     0.014 A 
ATOM     37  C   UNL A   1      40.292  26.088  28.078  1.00  0.00     0.014 A 
ATOM     38  C   UNL A   1      42.520  27.399  29.136  1.00  0.00     0.010 A 
ATOM     39  C   UNL A   1      40.165  26.853  29.236  1.00  0.00     0.010 A 
ATOM     40  C   UNL A   1      41.272  27.537  29.766  1.00  0.00    -0.014 A 
BRANCH  40  41
ATOM     41  C   UNL A   1      41.092  28.428  30.945  1.00  0.00     0.031 A 
ATOM     42  C   UNL A   1      40.012  29.477  30.950  1.00  0.00     0.074 A 
ATOM     43  C   UNL A   1      41.957  28.357  31.977  1.00  0.00     0.049 A 
ATOM     44  N   UNL A   1      39.756  30.392  31.851  1.00  0.00    -0.248 NA
ATOM     45  C   UNL A   1      39.121  29.520  29.779  1.00  0.00     0.031 C 
ATOM     46  C   UNL A   1      43.083  27.425  32.081  1.00  0.00     0.029 A 
ATOM     47  N   UNL A   1      42.030  29.089  33.138  1.00  0.00    -0.354 N 
ATOM     48  C   UNL A   1      38.696  31.135  31.345  1.00  0.00     0.074 A 
ATOM     49  C   UNL A   1      38.383  30.589  30.042  1.00  0.00     0.031 C 
ATOM     50  C   UNL A   1      43.715  27.624  33.250  1.00  0.00     0.029 A 
ATOM     51  C   UNL A   1      43.066  28.719  33.964  1.00  0.00     0.049 A 
ATOM     52  H   UNL A   1      41.400  29.813  33.357  1.00  0.00     0.167 HD
ATOM     53  C   UNL A   1      38.031  32.168  31.917  1.00  0.00     0.031 A 
ATOM     54  C   UNL A   1      43.456  29.202  35.159  1.00  0.00     0.031 A 
ATOM     55  C   UNL A   1      38.322  32.698  33.223  1.00  0.00     0.049 A 
ATOM     56  C   UNL A   1      42.689  30.336  35.784  1.00  0.00     0.074 A 
ATOM     57  C   UNL A   1      37.657  33.697  33.913  1.00  0.00     0.029 A 
ATOM     58  N   UNL A   1      39.361  32.275  34.037  1.00  0.00    -0.354 N 
ATOM     59  N   UNL A   1      41.646  30.980  35.317  1.00  0.00    -0.248 NA
ATOM     60  C   UNL A   1      43.147  30.801  37.102  1.00  0.00     0.031 C 
ATOM     61  C   UNL A   1      38.316  33.902  35.130  1.00  0.00     0.029 A 
ATOM     62  C   UNL A   1      39.366  33.001  35.215  1.00  0.00     0.049 A 
ATOM     63  H   UNL A   1      40.001  31.561  33.810  1.00  0.00     0.167 HD
ATOM     64  C   UNL A   1      41.308  31.908  36.296  1.00  0.00     0.074 A 
ATOM     65  C   UNL A   1      42.248  31.736  37.383  1.00  0.00     0.031 C 
ATOM     66  C   UNL A   1      40.305  32.819  36.292  1.00  0.00     0.031 A 
BRANCH  53  67
ATOM     67  C   UNL A   1      36.916  32.795  31.124  1.00  0.00    -0.014 A 
ATOM     68  C   UNL A   1      37.183  33.770  30.145  1.00  0.00     0.010 A 
ATOM     69  C   UNL A   1      35.588  32.386  31.340  1.00  0.00     0.010 A 
ATOM     70  C   UNL A   1      36.138  34.360  29.432  1.00  0.00     0.020 A 
ATOM     71  C   UNL A   1      34.542  32.955  30.609  1.00  0.00     0.020 A 
ATOM     72  C   UNL A   1      34.822  33.954  29.674  1.00  0.00     0.054 A 
BRANCH  72  73
ATOM     73  S   UNL A   1      33.483  34.730  28.727  1.00  0.00     0.124 S 
ATOM     74  O   UNL A   1      33.074  33.642  27.842  1.00  0.00    -0.237 OA
ATOM     75  O   UNL A   1      32.520  35.088  29.765  1.00  0.00    -0.237 OA
ATOM     76  O   UNL A   1      34.133  35.858  28.069  1.00  0.00    -0.744 OA
ENDBRANCH  72  73
ENDBRANCH  53  67
BRANCH  54  77
ATOM     77  C   UNL A   1      44.618  28.597  35.864  1.00  0.00    -0.014 A 
ATOM     78  C   UNL A   1      45.904  29.141  35.703  1.00  0.00     0.010 A 
ATOM     79  C   UNL A   1      44.445  27.482  36.704  1.00  0.00     0.010 A 
ATOM     80  C   UNL A   1      47.001  28.574  36.359  1.00  0.00     0.020 A 
ATOM     81  C   UNL A   1      45.536  26.926  37.379  1.00  0.00     0.020 A 
ATOM     82  C   UNL A   1      46.809  27.470  37.194  1.00  0.00     0.054 A 
BRANCH  82  83
ATOM     83  S   UNL A   1      48.236  26.783  38.081  1.00  0.00     0.124 S 
ATOM     84  O   UNL A   1      49.273  26.810  37.056  1.00  0.00    -0.237 OA
ATOM     85  O   UNL A   1      48.407  27.726  39.184  1.00  0.00    -0.237 OA
ATOM     86  O   UNL A   1      47.779  25.452  38.478  1.00  0.00    -0.744 OA
ENDBRANCH  82  83
ENDBRANCH  54  77
BRANCH  66  87
ATOM     87  C   UNL A   1      40.146  33.681  37.515  1.00  0.00    -0.014 A 
ATOM     88  C   UNL A   1      40.766  34.940  37.602  1.00  0.00     0.010 A 
ATOM     89  C   UNL A   1      39.321  33.247  38.568  1.00  0.00     0.010 A 
ATOM     90  C   UNL A   1      40.581  35.740  38.733  1.00  0.00     0.020 A 
ATOM     91  C   UNL A   1      39.117  34.053  39.690  1.00  0.00     0.020 A 
ATOM     92  C   UNL A   1      39.759  35.290  39.771  1.00  0.00     0.054 A 
BRANCH  92  93
ATOM     93  S   UNL A   1      39.495  36.365  41.209  1.00  0.00     0.124 S 
ATOM     94  O   UNL A   1      38.584  37.372  40.672  1.00  0.00    -0.237 OA
ATOM     95  O   UNL A   1      38.913  35.452  42.191  1.00  0.00    -0.237 OA
ATOM     96  O   UNL A   1      40.835  36.846  41.534  1.00  0.00    -0.744 OA
ENDBRANCH  92  93
ENDBRANCH  66  87
ENDBRANCH  40  41
ENDBRANCH  32  35
ENDBRANCH  30  31
ENDBRANCH  29  30
ENDBRANCH   1  29
TORSDOF 19
ENDMDL
MODEL 2
REMARK VINA RESULT:     -11.3      5.599      7.840
REMARK SMILES CSCC[C@H](C(=O)NCCCCNC(=O)c1ccc(-c2c3nc(c(-c4ccc(S(=O)(=O)[O-])cc4)c4ccc([nH]4)c(-c4ccc(S(=O)(=O)[O-])cc4)c4nc(c(-c5ccc(S(=O)(=O)[O-])cc5)c5ccc2[nH]5)C=C4)C=C3)cc1)N1C(=O)/C(=C/c2ccc3c(c2)OCO3)SC1=S
REMARK SMILES IDX 10 1 9 2 8 3 6 4 7 5 5 7 4 8 3 9 2 10 1 11 76 12 77 13 91 14
REMARK SMILES IDX 78 15 79 16 90 17 92 18 80 19 81 20 82 21 86 22 83 23 85 24
REMARK SMILES IDX 84 25 87 26 89 27 88 28 11 29 12 30 13 31 14 32 15 34 16 35
REMARK SMILES IDX 17 36 75 37 18 38 74 39 19 40 20 41 21 42 68 43 22 44 73 45
REMARK SMILES IDX 67 46 69 47 23 48 72 49 66 50 65 51 24 53 54 54 35 55 53 56
REMARK SMILES IDX 36 57 39 58 52 59 70 60 37 61 38 62 51 64 71 65 40 66 25 67
REMARK SMILES IDX 26 68 34 69 27 70 33 71 28 72 29 73 30 74 31 75 32 76 55 77
REMARK SMILES IDX 56 78 64 79 57 80 63 81 58 82 59 83 60 84 61 85 62 86 41 87
REMARK SMILES IDX 42 88 50 89 43 90 49 91 44 92 45 93 46 94 47 95 48 96
REMARK H PARENT 8 6 13 33 69 52 39 63
REMARK Flexibility Score: inf
ROOT
ATOM      1  C   UNL A   1      38.049  21.973  25.355  1.00  0.00     0.023 C 
ENDROOT
BRANCH   1   2
ATOM      2  C   UNL A   1      36.985  22.348  24.323  1.00  0.00     0.116 C 
BRANCH   2   3
ATOM      3  N   UNL A   1      35.673  22.420  24.949  1.00  0.00    -0.354 N 
ATOM      4  C   UNL A   1      34.818  21.339  24.896  1.00  0.00     0.243 C 
ATOM      5  O   UNL A   1      35.049  20.353  25.590  1.00  0.00    -0.273 OA
ATOM      6  H   UNL A   1      35.394  23.243  25.411  1.00  0.00     0.163 HD
BRANCH   4   7
ATOM      7  C   UNL A   1      33.452  21.604  24.220  1.00  0.00     0.182 C 
BRANCH   7   8
ATOM      8  C   UNL A   1      32.398  20.463  24.288  1.00  0.00     0.046 C 
BRANCH   8   9
ATOM      9  C   UNL A   1      32.572  19.163  23.502  1.00  0.00     0.072 C 
BRANCH   9  10
ATOM     10  S   UNL A   1      32.667  17.633  24.461  1.00  0.00    -0.165 SA
ATOM     11  C   UNL A   1      34.255  16.998  23.852  1.00  0.00     0.085 C 
ENDBRANCH   9  10
ENDBRANCH   8   9
ENDBRANCH   7   8
BRANCH   7  12
ATOM     12  N   UNL A   1      32.838  22.943  24.353  1.00  0.00    -0.280 N 
ATOM     13  C   UNL A   1      33.067  23.872  23.337  1.00  0.00     0.266 C 
ATOM     14  C   UNL A   1      31.863  23.319  25.251  1.00  0.00     0.149 C 
ATOM     15  O   UNL A   1      33.916  23.806  22.456  1.00  0.00    -0.268 OA
ATOM     16  C   UNL A   1      32.102  24.998  23.459  1.00  0.00     0.081 C 
ATOM     17  S   UNL A   1      30.810  24.479  24.478  1.00  0.00    -0.054 SA
ATOM     18  S   UNL A   1      31.693  22.986  26.873  1.00  0.00    -0.052 S 
ATOM     19  C   UNL A   1      32.261  26.243  22.978  1.00  0.00     0.029 C 
BRANCH  19  20
ATOM     20  C   UNL A   1      31.288  27.280  23.365  1.00  0.00    -0.020 A 
ATOM     21  C   UNL A   1      31.555  28.114  24.470  1.00  0.00     0.012 A 
ATOM     22  C   UNL A   1      30.301  27.638  22.427  1.00  0.00     0.058 A 
ATOM     23  C   UNL A   1      30.917  29.354  24.589  1.00  0.00     0.051 A 
ATOM     24  C   UNL A   1      29.744  28.890  22.538  1.00  0.00     0.166 A 
ATOM     25  C   UNL A   1      30.054  29.731  23.580  1.00  0.00     0.165 A 
ATOM     26  O   UNL A   1      28.946  29.482  21.609  1.00  0.00    -0.454 OA
ATOM     27  O   UNL A   1      29.478  30.956  23.437  1.00  0.00    -0.454 OA
ATOM     28  C   UNL A   1      28.935  30.837  22.102  1.00  0.00     0.468 C 
ENDBRANCH  19  20
ENDBRANCH   7  12
ENDBRANCH   4   7
ENDBRANCH   2   3
ENDBRANCH   1   2
BRANCH   1  29
ATOM     29  C   UNL A   1      38.591  20.553  25.215  1.00  0.00     0.023 C 
BRANCH  29  30
ATOM     30  C   UNL A   1      39.305  19.977  26.433  1.00  0.00     0.116 C 
BRANCH  30  31
ATOM     31  N   UNL A   1      40.524  19.246  26.119  1.00  0.00    -0.352 N 
ATOM     32  C   UNL A   1      41.819  19.728  26.116  1.00  0.00     0.251 C 
ATOM     33  H   UNL A   1      40.413  18.297  25.881  1.00  0.00     0.163 HD
ATOM     34  O   UNL A   1      42.749  19.017  25.750  1.00  0.00    -0.269 OA
BRANCH  32  35
ATOM     35  C   UNL A   1      42.062  21.137  26.506  1.00  0.00     0.039 A 
ATOM     36  C   UNL A   1      42.405  21.426  27.829  1.00  0.00     0.014 A 
ATOM     37  C   UNL A   1      42.056  22.150  25.543  1.00  0.00     0.014 A 
ATOM     38  C   UNL A   1      42.848  22.710  28.163  1.00  0.00     0.010 A 
ATOM     39  C   UNL A   1      42.565  23.407  25.863  1.00  0.00     0.010 A 
ATOM     40  C   UNL A   1      42.989  23.695  27.171  1.00  0.00    -0.014 A 
BRANCH  40  41
ATOM     41  C   UNL A   1      43.622  25.010  27.467  1.00  0.00     0.031 A 
ATOM     42  C   UNL A   1      42.796  26.154  27.991  1.00  0.00     0.074 A 
ATOM     43  C   UNL A   1      44.926  25.205  27.179  1.00  0.00     0.049 A 
ATOM     44  N   UNL A   1      43.158  27.389  28.231  1.00  0.00    -0.248 NA
ATOM     45  C   UNL A   1      41.374  25.882  28.254  1.00  0.00     0.031 C 
ATOM     46  C   UNL A   1      45.833  24.202  26.617  1.00  0.00     0.029 A 
ATOM     47  N   UNL A   1      45.716  26.322  27.314  1.00  0.00    -0.354 N 
ATOM     48  C   UNL A   1      42.006  28.047  28.646  1.00  0.00     0.074 A 
ATOM     49  C   UNL A   1      40.926  27.084  28.588  1.00  0.00     0.031 C 
ATOM     50  C   UNL A   1      47.057  24.739  26.482  1.00  0.00     0.029 A 
ATOM     51  C   UNL A   1      47.017  26.133  26.911  1.00  0.00     0.049 A 
ATOM     52  H   UNL A   1      45.381  27.178  27.665  1.00  0.00     0.167 HD
ATOM     53  C   UNL A   1      41.858  29.330  29.054  1.00  0.00     0.031 A 
ATOM     54  C   UNL A   1      48.063  26.981  26.885  1.00  0.00     0.031 A 
ATOM     55  C   UNL A   1      42.932  30.284  29.138  1.00  0.00     0.049 A 
ATOM     56  C   UNL A   1      47.880  28.396  27.362  1.00  0.00     0.074 A 
ATOM     57  C   UNL A   1      42.891  31.587  29.606  1.00  0.00     0.029 A 
ATOM     58  N   UNL A   1      44.239  30.043  28.747  1.00  0.00    -0.354 N 
ATOM     59  N   UNL A   1      46.796  28.977  27.815  1.00  0.00    -0.248 NA
ATOM     60  C   UNL A   1      49.066  29.265  27.334  1.00  0.00     0.031 C 
ATOM     61  C   UNL A   1      44.166  32.144  29.465  1.00  0.00     0.029 A 
ATOM     62  C   UNL A   1      45.011  31.175  28.948  1.00  0.00     0.049 A 
ATOM     63  H   UNL A   1      44.571  29.191  28.380  1.00  0.00     0.167 HD
ATOM     64  C   UNL A   1      47.176  30.272  28.150  1.00  0.00     0.074 A 
ATOM     65  C   UNL A   1      48.589  30.386  27.859  1.00  0.00     0.031 C 
ATOM     66  C   UNL A   1      46.418  31.276  28.657  1.00  0.00     0.031 A 
BRANCH  53  67
ATOM     67  C   UNL A   1      40.475  29.777  29.443  1.00  0.00    -0.014 A 
ATOM     68  C   UNL A   1      39.513  30.091  28.465  1.00  0.00     0.010 A 
ATOM     69  C   UNL A   1      40.121  29.857  30.802  1.00  0.00     0.010 A 
ATOM     70  C   UNL A   1      38.240  30.526  28.839  1.00  0.00     0.020 A 
ATOM     71  C   UNL A   1      38.839  30.266  31.180  1.00  0.00     0.020 A 
ATOM     72  C   UNL A   1      37.913  30.617  30.195  1.00  0.00     0.054 A 
BRANCH  72  73
ATOM     73  S   UNL A   1      36.249  31.175  30.655  1.00  0.00     0.124 S 
ATOM     74  O   UNL A   1      35.511  30.969  29.411  1.00  0.00    -0.237 OA
ATOM     75  O   UNL A   1      35.897  30.274  31.749  1.00  0.00    -0.237 OA
ATOM     76  O   UNL A   1      36.446  32.569  31.039  1.00  0.00    -0.744 OA
ENDBRANCH  72  73
ENDBRANCH  53  67
BRANCH  54  77
ATOM     77  C   UNL A   1      49.393  26.509  26.413  1.00  0.00    -0.014 A 
ATOM     78  C   UNL A   1      49.797  26.742  25.086  1.00  0.00     0.010 A 
ATOM     79  C   UNL A   1      50.264  25.833  27.286  1.00  0.00     0.010 A 
ATOM     80  C   UNL A   1      51.043  26.296  24.636  1.00  0.00     0.020 A 
ATOM     81  C   UNL A   1      51.521  25.406  26.845  1.00  0.00     0.020 A 
ATOM     82  C   UNL A   1      51.898  25.631  25.519  1.00  0.00     0.054 A 
BRANCH  82  83
ATOM     83  S   UNL A   1      53.534  25.111  24.932  1.00  0.00     0.124 S 
ATOM     84  O   UNL A   1      53.527  25.588  23.552  1.00  0.00    -0.237 OA
ATOM     85  O   UNL A   1      54.436  25.814  25.841  1.00  0.00    -0.237 OA
ATOM     86  O   UNL A   1      53.507  23.659  25.095  1.00  0.00    -0.744 OA
ENDBRANCH  82  83
ENDBRANCH  54  77
BRANCH  66  87
ATOM     87  C   UNL A   1      47.106  32.578  28.963  1.00  0.00    -0.014 A 
ATOM     88  C   UNL A   1      47.716  32.803  30.210  1.00  0.00     0.010 A 
ATOM     89  C   UNL A   1      47.191  33.569  27.968  1.00  0.00     0.010 A 
ATOM     90  C   UNL A   1      48.377  34.007  30.465  1.00  0.00     0.020 A 
ATOM     91  C   UNL A   1      47.869  34.765  28.212  1.00  0.00     0.020 A 
ATOM     92  C   UNL A   1      48.448  34.981  29.465  1.00  0.00     0.054 A 
BRANCH  92  93
ATOM     93  S   UNL A   1      49.353  36.518  29.800  1.00  0.00     0.124 S 
ATOM     94  O   UNL A   1      48.676  37.015  30.993  1.00  0.00    -0.237 OA
ATOM     95  O   UNL A   1      50.722  36.049  30.004  1.00  0.00    -0.237 OA
ATOM     96  O   UNL A   1      49.148  37.312  28.590  1.00  0.00    -0.744 OA
ENDBRANCH  92  93
ENDBRANCH  66  87
ENDBRANCH  40  41
ENDBRANCH  32  35
ENDBRANCH  30  31
ENDBRANCH  29  30
ENDBRANCH   1  29
TORSDOF 19
ENDMDL
MODEL 3
REMARK VINA RESULT:     -11.2      5.986     11.946
REMARK SMILES CSCC[C@H](C(=O)NCCCCNC(=O)c1ccc(-c2c3nc(c(-c4ccc(S(=O)(=O)[O-])cc4)c4ccc([nH]4)c(-c4ccc(S(=O)(=O)[O-])cc4)c4nc(c(-c5ccc(S(=O)(=O)[O-])cc5)c5ccc2[nH]5)C=C4)C=C3)cc1)N1C(=O)/C(=C/c2ccc3c(c2)OCO3)SC1=S
REMARK SMILES IDX 10 1 9 2 8 3 6 4 7 5 5 7 4 8 3 9 2 10 1 11 76 12 77 13 91 14
REMARK SMILES IDX 78 15 79 16 90 17 92 18 80 19 81 20 82 21 86 22 83 23 85 24
REMARK SMILES IDX 84 25 87 26 89 27 88 28 11 29 12 30 13 31 14 32 15 34 16 35
REMARK SMILES IDX 17 36 75 37 18 38 74 39 19 40 20 41 21 42 68 43 22 44 73 45
REMARK SMILES IDX 67 46 69 47 23 48 72 49 66 50 65 51 24 53 54 54 35 55 53 56
REMARK SMILES IDX 36 57 39 58 52 59 70 60 37 61 38 62 51 64 71 65 40 66 25 67
REMARK SMILES IDX 26 68 34 69 27 70 33 71 28 72 29 73 30 74 31 75 32 76 55 77
REMARK SMILES IDX 56 78 64 79 57 80 63 81 58 82 59 83 60 84 61 85 62 86 41 87
REMARK SMILES IDX 42 88 50 89 43 90 49 91 44 92 45 93 46 94 47 95 48 96
REMARK H PARENT 8 6 13 33 69 52 39 63
REMARK Flexibility Score: inf
ROOT
ATOM      1  C   UNL A   1      34.948  30.580  27.289  1.00  0.00     0.023 C 
ENDROOT
BRANCH   1   2
ATOM      2  C   UNL A   1      33.655  29.783  27.120  1.00  0.00     0.116 C 
BRANCH   2   3
ATOM      3  N   UNL A   1      33.183  29.865  25.747  1.00  0.00    -0.354 N 
ATOM      4  C   UNL A   1      31.830  29.928  25.480  1.00  0.00     0.243 C 
ATOM      5  O   UNL A   1      31.218  30.967  25.710  1.00  0.00    -0.273 OA
ATOM      6  H   UNL A   1      33.829  29.876  25.005  1.00  0.00     0.163 HD
BRANCH   4   7
ATOM      7  C   UNL A   1      31.274  28.789  24.593  1.00  0.00     0.182 C 
BRANCH   7   8
ATOM      8  C   UNL A   1      30.672  29.197  23.219  1.00  0.00     0.046 C 
BRANCH   8   9
ATOM      9  C   UNL A   1      29.164  29.354  23.019  1.00  0.00     0.072 C 
BRANCH   9  10
ATOM     10  S   UNL A   1      28.584  30.941  22.375  1.00  0.00    -0.165 SA
ATOM     11  C   UNL A   1      27.501  31.441  23.743  1.00  0.00     0.085 C 
ENDBRANCH   9  10
ENDBRANCH   8   9
ENDBRANCH   7   8
BRANCH   7  12
ATOM     12  N   UNL A   1      32.015  27.511  24.523  1.00  0.00    -0.280 N 
ATOM     13  C   UNL A   1      31.711  26.526  25.465  1.00  0.00     0.266 C 
ATOM     14  C   UNL A   1      32.814  27.076  23.489  1.00  0.00     0.149 C 
ATOM     15  O   UNL A   1      31.075  26.670  26.501  1.00  0.00    -0.268 OA
ATOM     16  C   UNL A   1      32.275  25.222  25.025  1.00  0.00     0.081 C 
ATOM     17  S   UNL A   1      32.643  25.344  23.344  1.00  0.00    -0.054 SA
ATOM     18  S   UNL A   1      33.950  27.882  22.579  1.00  0.00    -0.052 S 
ATOM     19  C   UNL A   1      32.575  24.174  25.813  1.00  0.00     0.029 C 
BRANCH  19  20
ATOM     20  C   UNL A   1      33.308  23.038  25.228  1.00  0.00    -0.020 A 
ATOM     21  C   UNL A   1      34.585  22.700  25.722  1.00  0.00     0.012 A 
ATOM     22  C   UNL A   1      32.582  22.118  24.448  1.00  0.00     0.058 A 
ATOM     23  C   UNL A   1      35.098  21.412  25.529  1.00  0.00     0.051 A 
ATOM     24  C   UNL A   1      33.086  20.843  24.337  1.00  0.00     0.166 A 
ATOM     25  C   UNL A   1      34.302  20.495  24.875  1.00  0.00     0.165 A 
ATOM     26  O   UNL A   1      32.423  19.778  23.812  1.00  0.00    -0.454 OA
ATOM     27  O   UNL A   1      34.556  19.164  24.745  1.00  0.00    -0.454 OA
ATOM     28  C   UNL A   1      33.283  18.702  24.237  1.00  0.00     0.468 C 
ENDBRANCH  19  20
ENDBRANCH   7  12
ENDBRANCH   4   7
ENDBRANCH   2   3
ENDBRANCH   1   2
BRANCH   1  29
ATOM     29  C   UNL A   1      34.803  31.848  28.127  1.00  0.00     0.023 C 
BRANCH  29  30
ATOM     30  C   UNL A   1      35.816  32.038  29.251  1.00  0.00     0.116 C 
BRANCH  30  31
ATOM     31  N   UNL A   1      35.644  31.122  30.369  1.00  0.00    -0.352 N 
ATOM     32  C   UNL A   1      36.588  30.276  30.920  1.00  0.00     0.251 C 
ATOM     33  H   UNL A   1      34.750  31.102  30.781  1.00  0.00     0.163 HD
ATOM     34  O   UNL A   1      36.280  29.495  31.813  1.00  0.00    -0.269 OA
BRANCH  32  35
ATOM     35  C   UNL A   1      37.967  30.287  30.375  1.00  0.00     0.039 A 
ATOM     36  C   UNL A   1      39.046  30.207  31.258  1.00  0.00     0.014 A 
ATOM     37  C   UNL A   1      38.183  30.266  28.994  1.00  0.00     0.014 A 
ATOM     38  C   UNL A   1      40.334  29.997  30.755  1.00  0.00     0.010 A 
ATOM     39  C   UNL A   1      39.455  29.986  28.501  1.00  0.00     0.010 A 
ATOM     40  C   UNL A   1      40.542  29.825  29.376  1.00  0.00    -0.014 A 
BRANCH  40  41
ATOM     41  C   UNL A   1      41.870  29.426  28.835  1.00  0.00     0.031 A 
ATOM     42  C   UNL A   1      42.112  28.015  28.368  1.00  0.00     0.074 A 
ATOM     43  C   UNL A   1      42.891  30.308  28.847  1.00  0.00     0.049 A 
ATOM     44  N   UNL A   1      43.222  27.467  27.942  1.00  0.00    -0.248 NA
ATOM     45  C   UNL A   1      40.964  27.095  28.410  1.00  0.00     0.031 C 
ATOM     46  C   UNL A   1      42.814  31.692  29.321  1.00  0.00     0.029 A 
ATOM     47  N   UNL A   1      44.200  30.170  28.453  1.00  0.00    -0.354 N 
ATOM     48  C   UNL A   1      42.914  26.135  27.692  1.00  0.00     0.074 A 
ATOM     49  C   UNL A   1      41.524  25.949  28.052  1.00  0.00     0.031 C 
ATOM     50  C   UNL A   1      44.012  32.280  29.166  1.00  0.00     0.029 A 
ATOM     51  C   UNL A   1      44.953  31.310  28.616  1.00  0.00     0.049 A 
ATOM     52  H   UNL A   1      44.566  29.332  28.089  1.00  0.00     0.167 HD
ATOM     53  C   UNL A   1      43.708  25.156  27.194  1.00  0.00     0.031 A 
ATOM     54  C   UNL A   1      46.252  31.552  28.357  1.00  0.00     0.031 A 
ATOM     55  C   UNL A   1      45.083  25.342  26.813  1.00  0.00     0.049 A 
ATOM     56  C   UNL A   1      47.109  30.456  27.786  1.00  0.00     0.074 A 
ATOM     57  C   UNL A   1      45.946  24.426  26.234  1.00  0.00     0.029 A 
ATOM     58  N   UNL A   1      45.797  26.519  26.968  1.00  0.00    -0.354 N 
ATOM     59  N   UNL A   1      46.779  29.221  27.494  1.00  0.00    -0.248 NA
ATOM     60  C   UNL A   1      48.513  30.790  27.499  1.00  0.00     0.031 C 
ATOM     61  C   UNL A   1      47.192  25.040  26.072  1.00  0.00     0.029 A 
ATOM     62  C   UNL A   1      47.093  26.351  26.511  1.00  0.00     0.049 A 
ATOM     63  H   UNL A   1      45.435  27.353  27.347  1.00  0.00     0.167 HD
ATOM     64  C   UNL A   1      47.926  28.640  26.965  1.00  0.00     0.074 A 
ATOM     65  C   UNL A   1      48.955  29.659  26.967  1.00  0.00     0.031 C 
ATOM     66  C   UNL A   1      48.108  27.374  26.516  1.00  0.00     0.031 A 
BRANCH  53  67
ATOM     67  C   UNL A   1      43.102  23.788  27.036  1.00  0.00    -0.014 A 
ATOM     68  C   UNL A   1      42.481  23.406  25.833  1.00  0.00     0.010 A 
ATOM     69  C   UNL A   1      43.178  22.862  28.092  1.00  0.00     0.010 A 
ATOM     70  C   UNL A   1      41.903  22.141  25.706  1.00  0.00     0.020 A 
ATOM     71  C   UNL A   1      42.624  21.586  27.959  1.00  0.00     0.020 A 
ATOM     72  C   UNL A   1      41.972  21.241  26.774  1.00  0.00     0.054 A 
BRANCH  72  73
ATOM     73  S   UNL A   1      41.221  19.601  26.581  1.00  0.00     0.124 S 
ATOM     74  O   UNL A   1      42.239  18.896  25.805  1.00  0.00    -0.237 OA
ATOM     75  O   UNL A   1      41.065  19.153  27.962  1.00  0.00    -0.237 OA
ATOM     76  O   UNL A   1      39.974  19.872  25.872  1.00  0.00    -0.744 OA
ENDBRANCH  72  73
ENDBRANCH  53  67
BRANCH  54  77
ATOM     77  C   UNL A   1      46.822  32.903  28.610  1.00  0.00    -0.014 A 
ATOM     78  C   UNL A   1      47.409  33.202  29.853  1.00  0.00     0.010 A 
ATOM     79  C   UNL A   1      46.790  33.893  27.611  1.00  0.00     0.010 A 
ATOM     80  C   UNL A   1      47.942  34.471  30.098  1.00  0.00     0.020 A 
ATOM     81  C   UNL A   1      47.342  35.156  27.845  1.00  0.00     0.020 A 
ATOM     82  C   UNL A   1      47.905  35.440  29.091  1.00  0.00     0.054 A 
BRANCH  82  83
ATOM     83  S   UNL A   1      48.654  37.063  29.409  1.00  0.00     0.124 S 
ATOM     84  O   UNL A   1      48.003  37.459  30.653  1.00  0.00    -0.237 OA
ATOM     85  O   UNL A   1      50.076  36.742  29.509  1.00  0.00    -0.237 OA
ATOM     86  O   UNL A   1      48.283  37.843  28.230  1.00  0.00    -0.744 OA
ENDBRANCH  82  83
ENDBRANCH  54  77
BRANCH  66  87
ATOM     87  C   UNL A   1      49.460  27.023  25.956  1.00  0.00    -0.014 A 
ATOM     88  C   UNL A   1      50.437  26.401  26.751  1.00  0.00     0.010 A 
ATOM     89  C   UNL A   1      49.734  27.272  24.599  1.00  0.00     0.010 A 
ATOM     90  C   UNL A   1      51.676  26.055  26.204  1.00  0.00     0.020 A 
ATOM     91  C   UNL A   1      50.963  26.909  24.043  1.00  0.00     0.020 A 
ATOM     92  C   UNL A   1      51.932  26.313  24.854  1.00  0.00     0.054 A 
BRANCH  92  93
ATOM     93  S   UNL A   1      53.528  25.812  24.152  1.00  0.00     0.124 S 
ATOM     94  O   UNL A   1      53.661  24.445  24.645  1.00  0.00    -0.237 OA
ATOM     95  O   UNL A   1      53.303  25.943  22.714  1.00  0.00    -0.237 OA
ATOM     96  O   UNL A   1      54.472  26.774  24.718  1.00  0.00    -0.744 OA
ENDBRANCH  92  93
ENDBRANCH  66  87
ENDBRANCH  40  41
ENDBRANCH  32  35
ENDBRANCH  30  31
ENDBRANCH  29  30
ENDBRANCH   1  29
TORSDOF 19
ENDMDL
