MODEL 1
REMARK VINA RESULT:     -10.7      0.000      0.000
REMARK SMILES O=C(NCCCCNC(=O)c1cccc(Nc2ccc([N+](=O)[O-])cc2)c1)c1ccc(-c2c3nc(c(-c4ccc(S(=O)(=O)[O-])cc4)c4ccc([nH]4)c(-c4ccc(S(=O)(=O)[O-])cc4)c4nc(c(-c5ccc(S(=O)(=O)[O-])cc5)c5ccc2[nH]5)C=C4)C=C3)cc1
REMARK SMILES IDX 5 1 4 2 3 3 1 4 2 5 27 7 28 8 86 9 29 10 85 11 30 12 31 13
REMARK SMILES IDX 32 14 79 15 33 16 84 17 78 18 80 19 34 20 83 21 77 22 76 23
REMARK SMILES IDX 35 25 65 26 46 27 64 28 47 29 50 30 63 31 81 32 48 33 49 34
REMARK SMILES IDX 62 36 82 37 51 38 36 39 37 40 45 41 38 42 44 43 39 44 40 45
REMARK SMILES IDX 41 46 42 47 43 48 66 49 67 50 75 51 68 52 74 53 69 54 70 55
REMARK SMILES IDX 71 56 72 57 73 58 52 59 53 60 61 61 54 62 60 63 55 64 56 65
REMARK SMILES IDX 57 66 58 67 59 68 6 69 7 70 8 71 9 72 10 74 11 75 12 76
REMARK SMILES IDX 26 77 13 78 15 79 14 80 16 81 17 83 18 84 25 85 19 86 24 87
REMARK SMILES IDX 20 88 21 89 22 90 23 91
REMARK H PARENT 3 6 80 24 50 35 8 73 16 82
REMARK Flexibility Score: inf
ROOT
ATOM      1  C   UNL A   1      36.724  34.104  32.405  1.00  0.00     0.023 C 
ENDROOT
BRANCH   1   2
ATOM      2  C   UNL A   1      37.459  32.807  32.716  1.00  0.00     0.116 C 
BRANCH   2   3
ATOM      3  N   UNL A   1      36.660  31.616  32.458  1.00  0.00    -0.352 N 
ATOM      4  O   UNL A   1      36.121  29.640  31.512  1.00  0.00    -0.269 OA
ATOM      5  C   UNL A   1      36.973  30.499  31.717  1.00  0.00     0.251 C 
ATOM      6  H   UNL A   1      35.768  31.610  32.874  1.00  0.00     0.163 HD
BRANCH   5   7
ATOM      7  C   UNL A   1      38.328  30.360  31.138  1.00  0.00     0.039 A 
ATOM      8  C   UNL A   1      38.568  30.696  29.806  1.00  0.00     0.014 A 
ATOM      9  C   UNL A   1      39.359  29.845  31.928  1.00  0.00     0.014 A 
ATOM     10  C   UNL A   1      39.773  30.335  29.214  1.00  0.00     0.010 A 
ATOM     11  C   UNL A   1      40.605  29.577  31.353  1.00  0.00     0.010 A 
ATOM     12  C   UNL A   1      40.806  29.767  29.977  1.00  0.00    -0.014 A 
BRANCH  12  13
ATOM     13  C   UNL A   1      42.083  29.397  29.310  1.00  0.00     0.031 A 
ATOM     14  C   UNL A   1      43.238  30.365  29.245  1.00  0.00     0.074 A 
ATOM     15  C   UNL A   1      42.219  28.155  28.804  1.00  0.00     0.049 A 
ATOM     16  N   UNL A   1      44.439  30.181  28.754  1.00  0.00    -0.248 NA
ATOM     17  C   UNL A   1      43.018  31.714  29.790  1.00  0.00     0.031 C 
ATOM     18  C   UNL A   1      41.175  27.126  28.805  1.00  0.00     0.029 A 
ATOM     19  N   UNL A   1      43.293  27.535  28.220  1.00  0.00    -0.354 N 
ATOM     20  C   UNL A   1      45.105  31.392  28.903  1.00  0.00     0.074 A 
ATOM     21  C   UNL A   1      44.168  32.313  29.510  1.00  0.00     0.031 C 
ATOM     22  C   UNL A   1      41.680  25.987  28.310  1.00  0.00     0.029 A 
ATOM     23  C   UNL A   1      43.059  26.220  27.896  1.00  0.00     0.049 A 
ATOM     24  H   UNL A   1      44.150  27.989  28.049  1.00  0.00     0.167 HD
ATOM     25  C   UNL A   1      46.380  31.710  28.567  1.00  0.00     0.031 A 
ATOM     26  C   UNL A   1      43.858  25.300  27.325  1.00  0.00     0.031 A 
ATOM     27  C   UNL A   1      47.314  30.788  27.973  1.00  0.00     0.049 A 
ATOM     28  C   UNL A   1      45.262  25.680  26.954  1.00  0.00     0.074 A 
ATOM     29  C   UNL A   1      48.638  31.004  27.634  1.00  0.00     0.029 A 
ATOM     30  N   UNL A   1      47.024  29.475  27.628  1.00  0.00    -0.354 N 
ATOM     31  N   UNL A   1      45.880  26.823  27.132  1.00  0.00    -0.248 NA
ATOM     32  C   UNL A   1      46.078  24.643  26.311  1.00  0.00     0.031 C 
ATOM     33  C   UNL A   1      49.134  29.839  27.035  1.00  0.00     0.029 A 
ATOM     34  C   UNL A   1      48.137  28.878  27.059  1.00  0.00     0.049 A 
ATOM     35  H   UNL A   1      46.155  29.034  27.767  1.00  0.00     0.167 HD
ATOM     36  C   UNL A   1      47.168  26.633  26.647  1.00  0.00     0.074 A 
ATOM     37  C   UNL A   1      47.242  25.263  26.181  1.00  0.00     0.031 C 
ATOM     38  C   UNL A   1      48.198  27.514  26.598  1.00  0.00     0.031 A 
BRANCH  25  39
ATOM     39  C   UNL A   1      46.833  33.129  28.800  1.00  0.00    -0.014 A 
ATOM     40  C   UNL A   1      47.501  33.504  29.980  1.00  0.00     0.010 A 
ATOM     41  C   UNL A   1      46.619  34.098  27.801  1.00  0.00     0.010 A 
ATOM     42  C   UNL A   1      47.904  34.829  30.175  1.00  0.00     0.020 A 
ATOM     43  C   UNL A   1      47.045  35.417  27.981  1.00  0.00     0.020 A 
ATOM     44  C   UNL A   1      47.667  35.779  29.177  1.00  0.00     0.054 A 
BRANCH  44  45
ATOM     45  S   UNL A   1      48.203  37.490  29.453  1.00  0.00     0.124 S 
ATOM     46  O   UNL A   1      49.348  37.306  30.342  1.00  0.00    -0.237 OA
ATOM     47  O   UNL A   1      48.525  37.948  28.104  1.00  0.00    -0.237 OA
ATOM     48  O   UNL A   1      47.038  38.125  30.062  1.00  0.00    -0.744 OA
ENDBRANCH  44  45
ENDBRANCH  25  39
BRANCH  26  49
ATOM     49  C   UNL A   1      43.343  23.926  27.081  1.00  0.00    -0.014 A 
ATOM     50  C   UNL A   1      42.918  23.539  25.798  1.00  0.00     0.010 A 
ATOM     51  C   UNL A   1      43.304  22.987  28.128  1.00  0.00     0.010 A 
ATOM     52  C   UNL A   1      42.451  22.242  25.570  1.00  0.00     0.020 A 
ATOM     53  C   UNL A   1      42.867  21.681  27.897  1.00  0.00     0.020 A 
ATOM     54  C   UNL A   1      42.432  21.321  26.620  1.00  0.00     0.054 A 
BRANCH  54  55
ATOM     55  S   UNL A   1      41.878  19.624  26.288  1.00  0.00     0.124 S 
ATOM     56  O   UNL A   1      40.439  19.803  26.129  1.00  0.00    -0.237 OA
ATOM     57  O   UNL A   1      42.613  19.286  25.072  1.00  0.00    -0.237 OA
ATOM     58  O   UNL A   1      42.292  18.891  27.481  1.00  0.00    -0.744 OA
ENDBRANCH  54  55
ENDBRANCH  26  49
BRANCH  38  59
ATOM     59  C   UNL A   1      49.510  27.006  26.062  1.00  0.00    -0.014 A 
ATOM     60  C   UNL A   1      49.866  27.173  24.712  1.00  0.00     0.010 A 
ATOM     61  C   UNL A   1      50.412  26.372  26.935  1.00  0.00     0.010 A 
ATOM     62  C   UNL A   1      51.083  26.676  24.236  1.00  0.00     0.020 A 
ATOM     63  C   UNL A   1      51.641  25.899  26.471  1.00  0.00     0.020 A 
ATOM     64  C   UNL A   1      51.961  26.038  25.119  1.00  0.00     0.054 A 
BRANCH  64  65
ATOM     65  S   UNL A   1      53.543  25.420  24.485  1.00  0.00     0.124 S 
ATOM     66  O   UNL A   1      54.506  26.188  25.269  1.00  0.00    -0.237 OA
ATOM     67  O   UNL A   1      53.478  23.992  24.792  1.00  0.00    -0.237 OA
ATOM     68  O   UNL A   1      53.497  25.746  23.061  1.00  0.00    -0.744 OA
ENDBRANCH  64  65
ENDBRANCH  38  59
ENDBRANCH  12  13
ENDBRANCH   5   7
ENDBRANCH   2   3
ENDBRANCH   1   2
BRANCH   1  69
ATOM     69  C   UNL A   1      35.831  34.631  33.522  1.00  0.00     0.023 C 
BRANCH  69  70
ATOM     70  C   UNL A   1      34.962  35.827  33.150  1.00  0.00     0.116 C 
BRANCH  70  71
ATOM     71  N   UNL A   1      33.540  35.521  33.165  1.00  0.00    -0.352 N 
ATOM     72  C   UNL A   1      32.674  35.402  32.107  1.00  0.00     0.251 C 
ATOM     73  H   UNL A   1      33.145  35.381  34.056  1.00  0.00     0.163 HD
ATOM     74  O   UNL A   1      31.470  35.257  32.289  1.00  0.00    -0.269 OA
BRANCH  72  75
ATOM     75  C   UNL A   1      33.202  35.476  30.733  1.00  0.00     0.041 A 
ATOM     76  C   UNL A   1      33.063  36.669  30.027  1.00  0.00     0.014 A 
ATOM     77  C   UNL A   1      33.849  34.372  30.162  1.00  0.00     0.039 A 
ATOM     78  C   UNL A   1      33.630  36.778  28.763  1.00  0.00     0.003 A 
ATOM     79  C   UNL A   1      34.437  34.475  28.900  1.00  0.00     0.039 A 
ATOM     80  C   UNL A   1      34.326  35.694  28.216  1.00  0.00     0.026 A 
BRANCH  79  81
ATOM     81  N   UNL A   1      35.163  33.380  28.396  1.00  0.00    -0.356 N 
ATOM     82  H   UNL A   1      36.140  33.500  28.365  1.00  0.00     0.167 HD
BRANCH  81  83
ATOM     83  C   UNL A   1      34.697  32.142  27.929  1.00  0.00     0.039 A 
ATOM     84  C   UNL A   1      35.484  31.001  28.126  1.00  0.00     0.033 A 
ATOM     85  C   UNL A   1      33.415  31.993  27.382  1.00  0.00     0.033 A 
ATOM     86  C   UNL A   1      34.989  29.729  27.829  1.00  0.00     0.088 A 
ATOM     87  C   UNL A   1      32.909  30.730  27.067  1.00  0.00     0.088 A 
ATOM     88  C   UNL A   1      33.694  29.598  27.314  1.00  0.00     0.269 A 
BRANCH  88  89
ATOM     89  N   UNL A   1      33.141  28.261  27.068  1.00  0.00     0.062 N 
ATOM     90  O   UNL A   1      32.191  27.891  27.772  1.00  0.00    -0.258 OA
ATOM     91  O   UNL A   1      33.647  27.584  26.162  1.00  0.00    -0.258 OA
ENDBRANCH  88  89
ENDBRANCH  81  83
ENDBRANCH  79  81
ENDBRANCH  72  75
ENDBRANCH  70  71
ENDBRANCH  69  70
ENDBRANCH   1  69
TORSDOF 17
ENDMDL
MODEL 2
REMARK VINA RESULT:     -10.4      6.168     13.303
REMARK SMILES O=C(NCCCCNC(=O)c1cccc(Nc2ccc([N+](=O)[O-])cc2)c1)c1ccc(-c2c3nc(c(-c4ccc(S(=O)(=O)[O-])cc4)c4ccc([nH]4)c(-c4ccc(S(=O)(=O)[O-])cc4)c4nc(c(-c5ccc(S(=O)(=O)[O-])cc5)c5ccc2[nH]5)C=C4)C=C3)cc1
REMARK SMILES IDX 5 1 4 2 3 3 1 4 2 5 27 7 28 8 86 9 29 10 85 11 30 12 31 13
REMARK SMILES IDX 32 14 79 15 33 16 84 17 78 18 80 19 34 20 83 21 77 22 76 23
REMARK SMILES IDX 35 25 65 26 46 27 64 28 47 29 50 30 63 31 81 32 48 33 49 34
REMARK SMILES IDX 62 36 82 37 51 38 36 39 37 40 45 41 38 42 44 43 39 44 40 45
REMARK SMILES IDX 41 46 42 47 43 48 66 49 67 50 75 51 68 52 74 53 69 54 70 55
REMARK SMILES IDX 71 56 72 57 73 58 52 59 53 60 61 61 54 62 60 63 55 64 56 65
REMARK SMILES IDX 57 66 58 67 59 68 6 69 7 70 8 71 9 72 10 74 11 75 12 76
REMARK SMILES IDX 26 77 13 78 15 79 14 80 16 81 17 83 18 84 25 85 19 86 24 87
REMARK SMILES IDX 20 88 21 89 22 90 23 91
REMARK H PARENT 3 6 80 24 50 35 8 73 16 82
REMARK Flexibility Score: inf
ROOT
ATOM      1  C   UNL A   1      44.557  23.277  27.025  1.00  0.00     0.023 C 
ENDROOT
BRANCH   1   2
ATOM      2  C   UNL A   1      44.888  24.641  26.433  1.00  0.00     0.116 C 
BRANCH   2   3
ATOM      3  N   UNL A   1      43.882  25.120  25.494  1.00  0.00    -0.352 N 
ATOM      4  O   UNL A   1      42.016  26.191  24.815  1.00  0.00    -0.269 OA
ATOM      5  C   UNL A   1      42.840  25.995  25.703  1.00  0.00     0.251 C 
ATOM      6  H   UNL A   1      43.958  24.767  24.579  1.00  0.00     0.163 HD
BRANCH   5   7
ATOM      7  C   UNL A   1      42.698  26.666  27.014  1.00  0.00     0.039 A 
ATOM      8  C   UNL A   1      41.997  26.053  28.052  1.00  0.00     0.014 A 
ATOM      9  C   UNL A   1      43.237  27.943  27.191  1.00  0.00     0.014 A 
ATOM     10  C   UNL A   1      41.666  26.788  29.185  1.00  0.00     0.010 A 
ATOM     11  C   UNL A   1      42.988  28.643  28.375  1.00  0.00     0.010 A 
ATOM     12  C   UNL A   1      42.153  28.094  29.361  1.00  0.00    -0.014 A 
BRANCH  12  13
ATOM     13  C   UNL A   1      41.782  28.849  30.587  1.00  0.00     0.031 A 
ATOM     14  C   UNL A   1      42.635  28.787  31.829  1.00  0.00     0.074 A 
ATOM     15  C   UNL A   1      40.690  29.639  30.561  1.00  0.00     0.049 A 
ATOM     16  N   UNL A   1      42.487  29.430  32.961  1.00  0.00    -0.248 NA
ATOM     17  C   UNL A   1      43.798  27.886  31.804  1.00  0.00     0.031 C 
ATOM     18  C   UNL A   1      39.782  29.784  29.420  1.00  0.00     0.029 A 
ATOM     19  N   UNL A   1      40.174  30.490  31.504  1.00  0.00    -0.354 N 
ATOM     20  C   UNL A   1      43.514  28.991  33.790  1.00  0.00     0.074 A 
ATOM     21  C   UNL A   1      44.267  28.010  33.039  1.00  0.00     0.031 C 
ATOM     22  C   UNL A   1      38.863  30.717  29.706  1.00  0.00     0.029 A 
ATOM     23  C   UNL A   1      39.072  31.188  31.070  1.00  0.00     0.049 A 
ATOM     24  H   UNL A   1      40.556  30.591  32.406  1.00  0.00     0.167 HD
ATOM     25  C   UNL A   1      43.804  29.370  35.060  1.00  0.00     0.031 A 
ATOM     26  C   UNL A   1      38.309  32.103  31.696  1.00  0.00     0.031 A 
ATOM     27  C   UNL A   1      43.060  30.356  35.800  1.00  0.00     0.049 A 
ATOM     28  C   UNL A   1      38.647  32.498  33.104  1.00  0.00     0.074 A 
ATOM     29  C   UNL A   1      43.301  30.836  37.077  1.00  0.00     0.029 A 
ATOM     30  N   UNL A   1      41.929  31.011  35.336  1.00  0.00    -0.354 N 
ATOM     31  N   UNL A   1      39.641  32.091  33.857  1.00  0.00    -0.248 NA
ATOM     32  C   UNL A   1      37.763  33.480  33.744  1.00  0.00     0.031 C 
ATOM     33  C   UNL A   1      42.286  31.742  37.404  1.00  0.00     0.029 A 
ATOM     34  C   UNL A   1      41.449  31.874  36.308  1.00  0.00     0.049 A 
ATOM     35  H   UNL A   1      41.528  30.883  34.446  1.00  0.00     0.167 HD
ATOM     36  C   UNL A   1      39.517  32.791  35.051  1.00  0.00     0.074 A 
ATOM     37  C   UNL A   1      38.361  33.653  34.914  1.00  0.00     0.031 C 
ATOM     38  C   UNL A   1      40.296  32.726  36.160  1.00  0.00     0.031 A 
BRANCH  25  39
ATOM     39  C   UNL A   1      44.962  28.688  35.746  1.00  0.00    -0.014 A 
ATOM     40  C   UNL A   1      46.270  29.199  35.666  1.00  0.00     0.010 A 
ATOM     41  C   UNL A   1      44.727  27.536  36.519  1.00  0.00     0.010 A 
ATOM     42  C   UNL A   1      47.327  28.543  36.305  1.00  0.00     0.020 A 
ATOM     43  C   UNL A   1      45.776  26.893  37.182  1.00  0.00     0.020 A 
ATOM     44  C   UNL A   1      47.074  27.390  37.054  1.00  0.00     0.054 A 
BRANCH  44  45
ATOM     45  S   UNL A   1      48.462  26.561  37.877  1.00  0.00     0.124 S 
ATOM     46  O   UNL A   1      48.145  26.774  39.287  1.00  0.00    -0.237 OA
ATOM     47  O   UNL A   1      48.337  25.183  37.409  1.00  0.00    -0.237 OA
ATOM     48  O   UNL A   1      49.635  27.278  37.388  1.00  0.00    -0.744 OA
ENDBRANCH  44  45
ENDBRANCH  25  39
BRANCH  26  49
ATOM     49  C   UNL A   1      37.155  32.712  30.982  1.00  0.00    -0.014 A 
ATOM     50  C   UNL A   1      35.864  32.172  31.119  1.00  0.00     0.010 A 
ATOM     51  C   UNL A   1      37.337  33.857  30.185  1.00  0.00     0.010 A 
ATOM     52  C   UNL A   1      34.780  32.757  30.460  1.00  0.00     0.020 A 
ATOM     53  C   UNL A   1      36.251  34.462  29.549  1.00  0.00     0.020 A 
ATOM     54  C   UNL A   1      34.980  33.901  29.683  1.00  0.00     0.054 A 
BRANCH  54  55
ATOM     55  S   UNL A   1      33.548  34.680  28.885  1.00  0.00     0.124 S 
ATOM     56  O   UNL A   1      34.148  35.863  28.276  1.00  0.00    -0.237 OA
ATOM     57  O   UNL A   1      33.103  33.645  27.956  1.00  0.00    -0.237 OA
ATOM     58  O   UNL A   1      32.638  34.940  29.997  1.00  0.00    -0.744 OA
ENDBRANCH  54  55
ENDBRANCH  26  49
BRANCH  38  59
ATOM     59  C   UNL A   1      39.949  33.651  37.296  1.00  0.00    -0.014 A 
ATOM     60  C   UNL A   1      38.968  33.312  38.246  1.00  0.00     0.010 A 
ATOM     61  C   UNL A   1      40.638  34.870  37.427  1.00  0.00     0.010 A 
ATOM     62  C   UNL A   1      38.653  34.197  39.281  1.00  0.00     0.020 A 
ATOM     63  C   UNL A   1      40.346  35.745  38.476  1.00  0.00     0.020 A 
ATOM     64  C   UNL A   1      39.341  35.410  39.386  1.00  0.00     0.054 A 
BRANCH  64  65
ATOM     65  S   UNL A   1      38.931  36.534  40.749  1.00  0.00     0.124 S 
ATOM     66  O   UNL A   1      40.253  36.923  41.231  1.00  0.00    -0.237 OA
ATOM     67  O   UNL A   1      38.169  37.587  40.081  1.00  0.00    -0.237 OA
ATOM     68  O   UNL A   1      38.155  35.699  41.664  1.00  0.00    -0.744 OA
ENDBRANCH  64  65
ENDBRANCH  38  59
ENDBRANCH  12  13
ENDBRANCH   5   7
ENDBRANCH   2   3
ENDBRANCH   1   2
BRANCH   1  69
ATOM     69  C   UNL A   1      44.751  22.094  26.082  1.00  0.00     0.023 C 
BRANCH  69  70
ATOM     70  C   UNL A   1      43.466  21.433  25.598  1.00  0.00     0.116 C 
BRANCH  70  71
ATOM     71  N   UNL A   1      43.025  20.349  26.462  1.00  0.00    -0.352 N 
ATOM     72  C   UNL A   1      41.857  20.237  27.174  1.00  0.00     0.251 C 
ATOM     73  H   UNL A   1      43.650  19.593  26.549  1.00  0.00     0.163 HD
ATOM     74  O   UNL A   1      41.680  19.310  27.957  1.00  0.00    -0.269 OA
BRANCH  72  75
ATOM     75  C   UNL A   1      40.812  21.264  27.009  1.00  0.00     0.041 A 
ATOM     76  C   UNL A   1      40.862  22.402  27.813  1.00  0.00     0.014 A 
ATOM     77  C   UNL A   1      39.805  21.104  26.049  1.00  0.00     0.039 A 
ATOM     78  C   UNL A   1      39.933  23.415  27.610  1.00  0.00     0.003 A 
ATOM     79  C   UNL A   1      38.877  22.122  25.825  1.00  0.00     0.039 A 
ATOM     80  C   UNL A   1      38.962  23.280  26.611  1.00  0.00     0.026 A 
BRANCH  79  81
ATOM     81  N   UNL A   1      37.939  21.971  24.787  1.00  0.00    -0.356 N 
ATOM     82  H   UNL A   1      38.311  21.999  23.875  1.00  0.00     0.167 HD
BRANCH  81  83
ATOM     83  C   UNL A   1      36.550  21.788  24.861  1.00  0.00     0.039 A 
ATOM     84  C   UNL A   1      35.708  22.890  24.662  1.00  0.00     0.033 A 
ATOM     85  C   UNL A   1      35.978  20.517  25.008  1.00  0.00     0.033 A 
ATOM     86  C   UNL A   1      34.325  22.724  24.562  1.00  0.00     0.088 A 
ATOM     87  C   UNL A   1      34.596  20.335  24.923  1.00  0.00     0.088 A 
ATOM     88  C   UNL A   1      33.774  21.442  24.678  1.00  0.00     0.269 A 
BRANCH  88  89
ATOM     89  N   UNL A   1      32.330  21.252  24.502  1.00  0.00     0.062 N 
ATOM     90  O   UNL A   1      31.736  20.550  25.332  1.00  0.00    -0.258 OA
ATOM     91  O   UNL A   1      31.785  21.814  23.541  1.00  0.00    -0.258 OA
ENDBRANCH  88  89
ENDBRANCH  81  83
ENDBRANCH  79  81
ENDBRANCH  72  75
ENDBRANCH  70  71
ENDBRANCH  69  70
ENDBRANCH   1  69
TORSDOF 17
ENDMDL
MODEL 3
REMARK VINA RESULT:     -10.3      0.587      8.234
REMARK SMILES O=C(NCCCCNC(=O)c1cccc(Nc2ccc([N+](=O)[O-])cc2)c1)c1ccc(-c2c3nc(c(-c4ccc(S(=O)(=O)[O-])cc4)c4ccc([nH]4)c(-c4ccc(S(=O)(=O)[O-])cc4)c4nc(c(-c5ccc(S(=O)(=O)[O-])cc5)c5ccc2[nH]5)C=C4)C=C3)cc1
REMARK SMILES IDX 5 1 4 2 3 3 1 4 2 5 27 7 28 8 86 9 29 10 85 11 30 12 31 13
REMARK SMILES IDX 32 14 79 15 33 16 84 17 78 18 80 19 34 20 83 21 77 22 76 23
REMARK SMILES IDX 35 25 65 26 46 27 64 28 47 29 50 30 63 31 81 32 48 33 49 34
REMARK SMILES IDX 62 36 82 37 51 38 36 39 37 40 45 41 38 42 44 43 39 44 40 45
REMARK SMILES IDX 41 46 42 47 43 48 66 49 67 50 75 51 68 52 74 53 69 54 70 55
REMARK SMILES IDX 71 56 72 57 73 58 52 59 53 60 61 61 54 62 60 63 55 64 56 65
REMARK SMILES IDX 57 66 58 67 59 68 6 69 7 70 8 71 9 72 10 74 11 75 12 76
REMARK SMILES IDX 26 77 13 78 15 79 14 80 16 81 17 83 18 84 25 85 19 86 24 87
REMARK SMILES IDX 20 88 21 89 22 90 23 91
REMARK H PARENT 3 6 80 24 50 35 8 73 16 82
REMARK Flexibility Score: inf
ROOT
ATOM      1  C   UNL A   1      37.011  34.076  32.536  1.00  0.00     0.023 C 
ENDROOT
BRANCH   1   2
ATOM      2  C   UNL A   1      37.686  32.733  32.780  1.00  0.00     0.116 C 
BRANCH   2   3
ATOM      3  N   UNL A   1      36.854  31.595  32.410  1.00  0.00    -0.352 N 
ATOM      4  O   UNL A   1      36.289  29.697  31.329  1.00  0.00    -0.269 OA
ATOM      5  C   UNL A   1      37.163  30.504  31.630  1.00  0.00     0.251 C 
ATOM      6  H   UNL A   1      35.939  31.609  32.771  1.00  0.00     0.163 HD
BRANCH   5   7
ATOM      7  C   UNL A   1      38.544  30.332  31.126  1.00  0.00     0.039 A 
ATOM      8  C   UNL A   1      38.862  30.650  29.806  1.00  0.00     0.014 A 
ATOM      9  C   UNL A   1      39.520  29.802  31.975  1.00  0.00     0.014 A 
ATOM     10  C   UNL A   1      40.089  30.260  29.283  1.00  0.00     0.010 A 
ATOM     11  C   UNL A   1      40.790  29.504  31.470  1.00  0.00     0.010 A 
ATOM     12  C   UNL A   1      41.068  29.677  30.106  1.00  0.00    -0.014 A 
BRANCH  12  13
ATOM     13  C   UNL A   1      42.371  29.276  29.512  1.00  0.00     0.031 A 
ATOM     14  C   UNL A   1      42.557  27.917  28.885  1.00  0.00     0.074 A 
ATOM     15  C   UNL A   1      43.383  30.168  29.494  1.00  0.00     0.049 A 
ATOM     16  N   UNL A   1      43.608  27.432  28.271  1.00  0.00    -0.248 NA
ATOM     17  C   UNL A   1      41.426  26.979  28.961  1.00  0.00     0.031 C 
ATOM     18  C   UNL A   1      43.328  31.515  30.069  1.00  0.00     0.029 A 
ATOM     19  N   UNL A   1      44.638  30.091  28.949  1.00  0.00    -0.354 N 
ATOM     20  C   UNL A   1      43.278  26.128  27.916  1.00  0.00     0.074 A 
ATOM     21  C   UNL A   1      41.937  25.890  28.402  1.00  0.00     0.031 C 
ATOM     22  C   UNL A   1      44.470  32.159  29.788  1.00  0.00     0.029 A 
ATOM     23  C   UNL A   1      45.362  31.253  29.075  1.00  0.00     0.049 A 
ATOM     24  H   UNL A   1      44.987  29.282  28.510  1.00  0.00     0.167 HD
ATOM     25  C   UNL A   1      44.023  25.214  27.246  1.00  0.00     0.031 A 
ATOM     26  C   UNL A   1      46.608  31.560  28.668  1.00  0.00     0.031 A 
ATOM     27  C   UNL A   1      45.353  25.458  26.752  1.00  0.00     0.049 A 
ATOM     28  C   UNL A   1      47.414  30.527  27.936  1.00  0.00     0.074 A 
ATOM     29  C   UNL A   1      46.172  24.609  26.028  1.00  0.00     0.029 A 
ATOM     30  N   UNL A   1      46.064  26.636  26.934  1.00  0.00    -0.354 N 
ATOM     31  N   UNL A   1      47.070  29.310  27.585  1.00  0.00    -0.248 NA
ATOM     32  C   UNL A   1      48.775  30.910  27.540  1.00  0.00     0.031 C 
ATOM     33  C   UNL A   1      47.396  25.253  25.816  1.00  0.00     0.029 A 
ATOM     34  C   UNL A   1      47.317  26.527  26.355  1.00  0.00     0.049 A 
ATOM     35  H   UNL A   1      45.726  27.432  27.404  1.00  0.00     0.167 HD
ATOM     36  C   UNL A   1      48.164  28.793  26.902  1.00  0.00     0.074 A 
ATOM     37  C   UNL A   1      49.173  29.833  26.878  1.00  0.00     0.031 C 
ATOM     38  C   UNL A   1      48.314  27.568  26.340  1.00  0.00     0.031 A 
BRANCH  25  39
ATOM     39  C   UNL A   1      43.426  23.844  27.036  1.00  0.00    -0.014 A 
ATOM     40  C   UNL A   1      43.237  22.951  28.106  1.00  0.00     0.010 A 
ATOM     41  C   UNL A   1      43.010  23.460  25.747  1.00  0.00     0.010 A 
ATOM     42  C   UNL A   1      42.689  21.684  27.883  1.00  0.00     0.020 A 
ATOM     43  C   UNL A   1      42.436  22.205  25.525  1.00  0.00     0.020 A 
ATOM     44  C   UNL A   1      42.298  21.317  26.592  1.00  0.00     0.054 A 
BRANCH  44  45
ATOM     45  S   UNL A   1      41.585  19.669  26.331  1.00  0.00     0.124 S 
ATOM     46  O   UNL A   1      41.914  18.997  27.585  1.00  0.00    -0.237 OA
ATOM     47  O   UNL A   1      40.168  19.960  26.129  1.00  0.00    -0.237 OA
ATOM     48  O   UNL A   1      42.289  19.168  25.154  1.00  0.00    -0.744 OA
ENDBRANCH  44  45
ENDBRANCH  25  39
BRANCH  26  49
ATOM     49  C   UNL A   1      47.159  32.915  28.939  1.00  0.00    -0.014 A 
ATOM     50  C   UNL A   1      47.986  33.140  30.053  1.00  0.00     0.010 A 
ATOM     51  C   UNL A   1      46.882  33.982  28.065  1.00  0.00     0.010 A 
ATOM     52  C   UNL A   1      48.516  34.410  30.295  1.00  0.00     0.020 A 
ATOM     53  C   UNL A   1      47.433  35.245  28.286  1.00  0.00     0.020 A 
ATOM     54  C   UNL A   1      48.239  35.454  29.407  1.00  0.00     0.054 A 
BRANCH  54  55
ATOM     55  S   UNL A   1      48.985  37.081  29.707  1.00  0.00     0.124 S 
ATOM     56  O   UNL A   1      47.895  37.983  29.352  1.00  0.00    -0.237 OA
ATOM     57  O   UNL A   1      49.319  37.017  31.128  1.00  0.00    -0.237 OA
ATOM     58  O   UNL A   1      50.135  37.099  28.806  1.00  0.00    -0.744 OA
ENDBRANCH  54  55
ENDBRANCH  26  49
BRANCH  38  59
ATOM     59  C   UNL A   1      49.604  27.303  25.610  1.00  0.00    -0.014 A 
ATOM     60  C   UNL A   1      50.721  26.756  26.266  1.00  0.00     0.010 A 
ATOM     61  C   UNL A   1      49.687  27.585  24.234  1.00  0.00     0.010 A 
ATOM     62  C   UNL A   1      51.912  26.536  25.568  1.00  0.00     0.020 A 
ATOM     63  C   UNL A   1      50.866  27.340  23.526  1.00  0.00     0.020 A 
ATOM     64  C   UNL A   1      51.977  26.834  24.203  1.00  0.00     0.054 A 
BRANCH  64  65
ATOM     65  S   UNL A   1      53.526  26.521  23.312  1.00  0.00     0.124 S 
ATOM     66  O   UNL A   1      54.206  25.587  24.204  1.00  0.00    -0.237 OA
ATOM     67  O   UNL A   1      53.061  25.957  22.046  1.00  0.00    -0.237 OA
ATOM     68  O   UNL A   1      54.139  27.844  23.209  1.00  0.00    -0.744 OA
ENDBRANCH  64  65
ENDBRANCH  38  59
ENDBRANCH  12  13
ENDBRANCH   5   7
ENDBRANCH   2   3
ENDBRANCH   1   2
BRANCH   1  69
ATOM     69  C   UNL A   1      35.949  34.466  33.557  1.00  0.00     0.023 C 
BRANCH  69  70
ATOM     70  C   UNL A   1      35.142  35.711  33.211  1.00  0.00     0.116 C 
BRANCH  70  71
ATOM     71  N   UNL A   1      33.705  35.491  33.273  1.00  0.00    -0.352 N 
ATOM     72  C   UNL A   1      32.803  35.401  32.242  1.00  0.00     0.251 C 
ATOM     73  H   UNL A   1      33.328  35.394  34.178  1.00  0.00     0.163 HD
ATOM     74  O   UNL A   1      31.598  35.332  32.461  1.00  0.00    -0.269 OA
BRANCH  72  75
ATOM     75  C   UNL A   1      33.294  35.414  30.853  1.00  0.00     0.041 A 
ATOM     76  C   UNL A   1      33.102  36.563  30.087  1.00  0.00     0.014 A 
ATOM     77  C   UNL A   1      33.958  34.300  30.325  1.00  0.00     0.039 A 
ATOM     78  C   UNL A   1      33.634  36.619  28.804  1.00  0.00     0.003 A 
ATOM     79  C   UNL A   1      34.512  34.350  29.044  1.00  0.00     0.039 A 
ATOM     80  C   UNL A   1      34.348  35.526  28.299  1.00  0.00     0.026 A 
BRANCH  79  81
ATOM     81  N   UNL A   1      35.257  33.250  28.581  1.00  0.00    -0.356 N 
ATOM     82  H   UNL A   1      36.231  33.389  28.537  1.00  0.00     0.167 HD
BRANCH  81  83
ATOM     83  C   UNL A   1      34.813  31.984  28.169  1.00  0.00     0.039 A 
ATOM     84  C   UNL A   1      33.536  31.861  27.607  1.00  0.00     0.033 A 
ATOM     85  C   UNL A   1      35.654  30.862  28.191  1.00  0.00     0.033 A 
ATOM     86  C   UNL A   1      33.120  30.657  27.034  1.00  0.00     0.088 A 
ATOM     87  C   UNL A   1      35.248  29.648  27.634  1.00  0.00     0.088 A 
ATOM     88  C   UNL A   1      33.986  29.557  27.035  1.00  0.00     0.269 A 
BRANCH  88  89
ATOM     89  N   UNL A   1      33.583  28.313  26.371  1.00  0.00     0.062 N 
ATOM     90  O   UNL A   1      34.028  28.095  25.235  1.00  0.00    -0.258 OA
ATOM     91  O   UNL A   1      32.831  27.545  26.989  1.00  0.00    -0.258 OA
ENDBRANCH  88  89
ENDBRANCH  81  83
ENDBRANCH  79  81
ENDBRANCH  72  75
ENDBRANCH  70  71
ENDBRANCH  69  70
ENDBRANCH   1  69
TORSDOF 17
ENDMDL
