MODEL 1
REMARK VINA RESULT:     -10.8      0.000      0.000
REMARK SMILES CC(C)c1cc(OCC(=O)NCCCCNC(=O)c2ccc(-c3c4nc(c(-c5ccc(S(=O)(=O)[O-])cc5)c5ccc([nH]5)c(-c5ccc(S(=O)(=O)[O-])cc5)c5nc(c(-c6ccc(S(=O)(=O)[O-])cc6)c6ccc3[nH]6)C=C5)C=C4)cc2)nc(Nc2ccc(F)cc2F)n1
REMARK SMILES IDX 13 1 12 2 11 3 9 4 10 5 8 7 7 8 6 9 4 10 5 11 90 12 80 13
REMARK SMILES IDX 79 14 2 15 1 16 3 17 81 18 82 20 83 21 88 22 84 23 87 24
REMARK SMILES IDX 89 25 85 26 86 27 14 28 15 29 16 30 17 31 18 33 19 34 20 35
REMARK SMILES IDX 78 36 21 37 77 38 22 39 23 40 24 41 71 42 25 43 76 44 70 45
REMARK SMILES IDX 72 46 26 47 75 48 69 49 68 50 27 52 57 53 38 54 56 55 39 56
REMARK SMILES IDX 42 57 55 58 73 59 40 60 41 61 54 63 74 64 43 65 28 66 29 67
REMARK SMILES IDX 37 68 30 69 36 70 31 71 32 72 33 73 34 74 35 75 58 76 59 77
REMARK SMILES IDX 67 78 60 79 66 80 61 81 62 82 63 83 64 84 65 85 44 86 45 87
REMARK SMILES IDX 53 88 46 89 52 90 47 91 48 92 49 93 50 94 51 95
REMARK H PARENT 11 6 81 19 16 32 72 51 42 62
REMARK Flexibility Score: inf
ROOT
ATOM      1  C   UNL A   1      34.593  22.338  25.186  1.00  0.00     0.023 C 
ENDROOT
BRANCH   1   2
ATOM      2  C   UNL A   1      33.323  22.988  24.641  1.00  0.00     0.116 C 
BRANCH   2   3
ATOM      3  N   UNL A   1      32.375  23.316  25.687  1.00  0.00    -0.353 N 
ATOM      4  C   UNL A   1      31.330  24.188  25.636  1.00  0.00     0.258 C 
ATOM      5  O   UNL A   1      30.602  24.311  26.624  1.00  0.00    -0.271 OA
ATOM      6  H   UNL A   1      32.503  22.849  26.544  1.00  0.00     0.163 HD
BRANCH   4   7
ATOM      7  C   UNL A   1      31.060  24.986  24.351  1.00  0.00     0.331 C 
BRANCH   7   8
ATOM      8  O   UNL A   1      29.806  25.635  24.231  1.00  0.00    -0.467 OA
BRANCH   8   9
ATOM      9  C   UNL A   1      29.796  26.961  23.897  1.00  0.00     0.218 A 
ATOM     10  C   UNL A   1      28.852  28.992  23.193  1.00  0.00     0.052 A 
ATOM     11  C   UNL A   1      28.719  27.632  23.364  1.00  0.00     0.092 A 
ATOM     12  N   UNL A   1      30.028  29.597  23.435  1.00  0.00    -0.217 NA
ATOM     13  C   UNL A   1      31.049  28.873  23.915  1.00  0.00     0.230 A 
ATOM     14  N   UNL A   1      30.972  27.559  24.152  1.00  0.00    -0.177 NA
BRANCH  10  15
ATOM     15  C   UNL A   1      27.721  29.864  22.668  1.00  0.00     0.032 C 
ATOM     16  C   UNL A   1      27.407  31.071  23.564  1.00  0.00     0.014 C 
ATOM     17  C   UNL A   1      28.012  30.379  21.249  1.00  0.00     0.014 C 
ENDBRANCH  10  15
BRANCH  13  18
ATOM     18  N   UNL A   1      32.296  29.470  24.075  1.00  0.00    -0.322 N 
ATOM     19  H   UNL A   1      32.685  29.880  23.268  1.00  0.00     0.170 HD
BRANCH  18  20
ATOM     20  C   UNL A   1      33.065  29.560  25.240  1.00  0.00     0.077 A 
ATOM     21  C   UNL A   1      32.835  30.618  26.132  1.00  0.00     0.032 A 
ATOM     22  C   UNL A   1      33.985  28.566  25.619  1.00  0.00     0.149 A 
ATOM     23  C   UNL A   1      33.492  30.663  27.365  1.00  0.00     0.041 A 
ATOM     24  C   UNL A   1      34.657  28.612  26.836  1.00  0.00     0.080 A 
ATOM     25  F   UNL A   1      34.279  27.561  24.778  1.00  0.00    -0.205 F 
ATOM     26  C   UNL A   1      34.393  29.660  27.705  1.00  0.00     0.126 A 
ATOM     27  F   UNL A   1      35.011  29.706  28.893  1.00  0.00    -0.207 F 
ENDBRANCH  18  20
ENDBRANCH  13  18
ENDBRANCH   8   9
ENDBRANCH   7   8
ENDBRANCH   4   7
ENDBRANCH   2   3
ENDBRANCH   1   2
BRANCH   1  28
ATOM     28  C   UNL A   1      35.532  23.279  25.946  1.00  0.00     0.023 C 
BRANCH  28  29
ATOM     29  C   UNL A   1      36.837  23.633  25.238  1.00  0.00     0.116 C 
BRANCH  29  30
ATOM     30  N   UNL A   1      37.900  22.670  25.479  1.00  0.00    -0.352 N 
ATOM     31  C   UNL A   1      39.107  22.846  26.113  1.00  0.00     0.251 C 
ATOM     32  H   UNL A   1      37.730  21.761  25.140  1.00  0.00     0.163 HD
ATOM     33  O   UNL A   1      39.932  21.935  26.117  1.00  0.00    -0.269 OA
BRANCH  31  34
ATOM     34  C   UNL A   1      39.428  24.138  26.759  1.00  0.00     0.039 A 
ATOM     35  C   UNL A   1      38.992  24.364  28.067  1.00  0.00     0.014 A 
ATOM     36  C   UNL A   1      40.161  25.122  26.088  1.00  0.00     0.014 A 
ATOM     37  C   UNL A   1      39.351  25.543  28.727  1.00  0.00     0.010 A 
ATOM     38  C   UNL A   1      40.578  26.263  26.771  1.00  0.00     0.010 A 
ATOM     39  C   UNL A   1      40.180  26.486  28.098  1.00  0.00    -0.014 A 
BRANCH  39  40
ATOM     40  C   UNL A   1      40.655  27.697  28.818  1.00  0.00     0.031 A 
ATOM     41  C   UNL A   1      42.019  27.719  29.457  1.00  0.00     0.074 A 
ATOM     42  C   UNL A   1      39.833  28.757  28.955  1.00  0.00     0.049 A 
ATOM     43  N   UNL A   1      42.578  28.660  30.174  1.00  0.00    -0.248 NA
ATOM     44  C   UNL A   1      42.852  26.516  29.290  1.00  0.00     0.031 C 
ATOM     45  C   UNL A   1      38.471  28.848  28.421  1.00  0.00     0.029 A 
ATOM     46  N   UNL A   1      40.016  29.958  29.595  1.00  0.00    -0.354 N 
ATOM     47  C   UNL A   1      43.817  28.159  30.559  1.00  0.00     0.074 A 
ATOM     48  C   UNL A   1      43.908  26.813  30.035  1.00  0.00     0.031 C 
ATOM     49  C   UNL A   1      37.954  30.047  28.734  1.00  0.00     0.029 A 
ATOM     50  C   UNL A   1      38.925  30.794  29.527  1.00  0.00     0.049 A 
ATOM     51  H   UNL A   1      40.850  30.199  30.058  1.00  0.00     0.167 HD
ATOM     52  C   UNL A   1      44.795  28.767  31.270  1.00  0.00     0.031 A 
ATOM     53  C   UNL A   1      38.721  32.018  30.052  1.00  0.00     0.031 A 
ATOM     54  C   UNL A   1      44.708  30.110  31.781  1.00  0.00     0.049 A 
ATOM     55  C   UNL A   1      39.821  32.670  30.846  1.00  0.00     0.074 A 
ATOM     56  C   UNL A   1      45.673  30.837  32.456  1.00  0.00     0.029 A 
ATOM     57  N   UNL A   1      43.591  30.926  31.679  1.00  0.00    -0.354 N 
ATOM     58  N   UNL A   1      41.014  32.207  31.133  1.00  0.00    -0.248 NA
ATOM     59  C   UNL A   1      39.551  34.013  31.377  1.00  0.00     0.031 C 
ATOM     60  C   UNL A   1      45.119  32.071  32.815  1.00  0.00     0.029 A 
ATOM     61  C   UNL A   1      43.832  32.138  32.305  1.00  0.00     0.049 A 
ATOM     62  H   UNL A   1      42.751  30.680  31.228  1.00  0.00     0.167 HD
ATOM     63  C   UNL A   1      41.648  33.215  31.853  1.00  0.00     0.074 A 
ATOM     64  C   UNL A   1      40.711  34.317  31.942  1.00  0.00     0.031 C 
ATOM     65  C   UNL A   1      42.893  33.228  32.388  1.00  0.00     0.031 A 
BRANCH  52  66
ATOM     66  C   UNL A   1      46.050  27.980  31.550  1.00  0.00    -0.014 A 
ATOM     67  C   UNL A   1      47.185  28.098  30.727  1.00  0.00     0.010 A 
ATOM     68  C   UNL A   1      46.113  27.148  32.683  1.00  0.00     0.010 A 
ATOM     69  C   UNL A   1      48.344  27.369  31.008  1.00  0.00     0.020 A 
ATOM     70  C   UNL A   1      47.281  26.441  32.985  1.00  0.00     0.020 A 
ATOM     71  C   UNL A   1      48.383  26.542  32.135  1.00  0.00     0.054 A 
BRANCH  71  72
ATOM     72  S   UNL A   1      49.910  25.630  32.489  1.00  0.00     0.124 S 
ATOM     73  O   UNL A   1      49.978  24.708  31.358  1.00  0.00    -0.237 OA
ATOM     74  O   UNL A   1      50.919  26.684  32.500  1.00  0.00    -0.237 OA
ATOM     75  O   UNL A   1      49.650  25.005  33.784  1.00  0.00    -0.744 OA
ENDBRANCH  71  72
ENDBRANCH  52  66
BRANCH  53  76
ATOM     76  C   UNL A   1      37.420  32.713  29.839  1.00  0.00    -0.014 A 
ATOM     77  C   UNL A   1      36.362  32.543  30.749  1.00  0.00     0.010 A 
ATOM     78  C   UNL A   1      37.235  33.552  28.726  1.00  0.00     0.010 A 
ATOM     79  C   UNL A   1      35.134  33.180  30.536  1.00  0.00     0.020 A 
ATOM     80  C   UNL A   1      36.020  34.214  28.526  1.00  0.00     0.020 A 
ATOM     81  C   UNL A   1      34.973  34.013  29.427  1.00  0.00     0.054 A 
BRANCH  81  82
ATOM     82  S   UNL A   1      33.386  34.862  29.194  1.00  0.00     0.124 S 
ATOM     83  O   UNL A   1      33.808  36.148  28.646  1.00  0.00    -0.237 OA
ATOM     84  O   UNL A   1      32.689  33.977  28.264  1.00  0.00    -0.237 OA
ATOM     85  O   UNL A   1      32.821  34.908  30.540  1.00  0.00    -0.744 OA
ENDBRANCH  81  82
ENDBRANCH  53  76
BRANCH  65  86
ATOM     86  C   UNL A   1      43.337  34.485  33.090  1.00  0.00    -0.014 A 
ATOM     87  C   UNL A   1      43.835  35.587  32.373  1.00  0.00     0.010 A 
ATOM     88  C   UNL A   1      43.199  34.582  34.487  1.00  0.00     0.010 A 
ATOM     89  C   UNL A   1      44.216  36.752  33.044  1.00  0.00     0.020 A 
ATOM     90  C   UNL A   1      43.551  35.755  35.158  1.00  0.00     0.020 A 
ATOM     91  C   UNL A   1      44.071  36.830  34.433  1.00  0.00     0.054 A 
BRANCH  91  92
ATOM     92  S   UNL A   1      44.530  38.369  35.275  1.00  0.00     0.124 S 
ATOM     93  O   UNL A   1      45.988  38.306  35.250  1.00  0.00    -0.237 OA
ATOM     94  O   UNL A   1      43.930  39.392  34.422  1.00  0.00    -0.237 OA
ATOM     95  O   UNL A   1      43.923  38.235  36.598  1.00  0.00    -0.744 OA
ENDBRANCH  91  92
ENDBRANCH  65  86
ENDBRANCH  39  40
ENDBRANCH  31  34
ENDBRANCH  29  30
ENDBRANCH  28  29
ENDBRANCH   1  28
TORSDOF 19
ENDMDL
MODEL 2
REMARK VINA RESULT:     -10.4      1.371      2.877
REMARK SMILES CC(C)c1cc(OCC(=O)NCCCCNC(=O)c2ccc(-c3c4nc(c(-c5ccc(S(=O)(=O)[O-])cc5)c5ccc([nH]5)c(-c5ccc(S(=O)(=O)[O-])cc5)c5nc(c(-c6ccc(S(=O)(=O)[O-])cc6)c6ccc3[nH]6)C=C5)C=C4)cc2)nc(Nc2ccc(F)cc2F)n1
REMARK SMILES IDX 13 1 12 2 11 3 9 4 10 5 8 7 7 8 6 9 4 10 5 11 90 12 80 13
REMARK SMILES IDX 79 14 2 15 1 16 3 17 81 18 82 20 83 21 88 22 84 23 87 24
REMARK SMILES IDX 89 25 85 26 86 27 14 28 15 29 16 30 17 31 18 33 19 34 20 35
REMARK SMILES IDX 78 36 21 37 77 38 22 39 23 40 24 41 71 42 25 43 76 44 70 45
REMARK SMILES IDX 72 46 26 47 75 48 69 49 68 50 27 52 57 53 38 54 56 55 39 56
REMARK SMILES IDX 42 57 55 58 73 59 40 60 41 61 54 63 74 64 43 65 28 66 29 67
REMARK SMILES IDX 37 68 30 69 36 70 31 71 32 72 33 73 34 74 35 75 58 76 59 77
REMARK SMILES IDX 67 78 60 79 66 80 61 81 62 82 63 83 64 84 65 85 44 86 45 87
REMARK SMILES IDX 53 88 46 89 52 90 47 91 48 92 49 93 50 94 51 95
REMARK H PARENT 11 6 81 19 16 32 72 51 42 62
REMARK Flexibility Score: inf
ROOT
ATOM      1  C   UNL A   1      34.873  22.474  24.605  1.00  0.00     0.023 C 
ENDROOT
BRANCH   1   2
ATOM      2  C   UNL A   1      33.370  22.457  24.871  1.00  0.00     0.116 C 
BRANCH   2   3
ATOM      3  N   UNL A   1      33.050  21.999  26.208  1.00  0.00    -0.353 N 
ATOM      4  C   UNL A   1      32.665  22.739  27.285  1.00  0.00     0.258 C 
ATOM      5  O   UNL A   1      32.397  22.165  28.343  1.00  0.00    -0.271 OA
ATOM      6  H   UNL A   1      33.120  21.028  26.358  1.00  0.00     0.163 HD
BRANCH   4   7
ATOM      7  C   UNL A   1      32.549  24.266  27.163  1.00  0.00     0.331 C 
BRANCH   7   8
ATOM      8  O   UNL A   1      31.327  24.797  26.682  1.00  0.00    -0.467 OA
BRANCH   8   9
ATOM      9  C   UNL A   1      31.313  26.094  26.249  1.00  0.00     0.218 A 
ATOM     10  C   UNL A   1      31.768  28.395  26.342  1.00  0.00     0.052 A 
ATOM     11  C   UNL A   1      31.753  27.175  26.979  1.00  0.00     0.092 A 
ATOM     12  N   UNL A   1      31.265  28.522  25.101  1.00  0.00    -0.217 NA
ATOM     13  C   UNL A   1      30.814  27.432  24.464  1.00  0.00     0.230 A 
ATOM     14  N   UNL A   1      30.819  26.210  25.005  1.00  0.00    -0.177 NA
BRANCH  10  15
ATOM     15  C   UNL A   1      32.283  29.661  27.011  1.00  0.00     0.032 C 
ATOM     16  C   UNL A   1      33.814  29.775  27.019  1.00  0.00     0.014 C 
ATOM     17  C   UNL A   1      31.708  30.926  26.355  1.00  0.00     0.014 C 
ENDBRANCH  10  15
BRANCH  13  18
ATOM     18  N   UNL A   1      30.203  27.570  23.221  1.00  0.00    -0.322 N 
ATOM     19  H   UNL A   1      30.288  26.802  22.611  1.00  0.00     0.170 HD
BRANCH  18  20
ATOM     20  C   UNL A   1      29.485  28.667  22.731  1.00  0.00     0.077 A 
ATOM     21  C   UNL A   1      28.116  28.771  23.019  1.00  0.00     0.032 A 
ATOM     22  C   UNL A   1      30.102  29.737  22.059  1.00  0.00     0.149 A 
ATOM     23  C   UNL A   1      27.400  29.916  22.658  1.00  0.00     0.041 A 
ATOM     24  C   UNL A   1      29.393  30.873  21.682  1.00  0.00     0.080 A 
ATOM     25  F   UNL A   1      31.397  29.663  21.716  1.00  0.00    -0.205 F 
ATOM     26  C   UNL A   1      28.046  30.955  21.997  1.00  0.00     0.126 A 
ATOM     27  F   UNL A   1      27.354  32.053  21.664  1.00  0.00    -0.207 F 
ENDBRANCH  18  20
ENDBRANCH  13  18
ENDBRANCH   8   9
ENDBRANCH   7   8
ENDBRANCH   4   7
ENDBRANCH   2   3
ENDBRANCH   1   2
BRANCH   1  28
ATOM     28  C   UNL A   1      35.694  23.359  25.548  1.00  0.00     0.023 C 
BRANCH  28  29
ATOM     29  C   UNL A   1      37.087  23.741  25.059  1.00  0.00     0.116 C 
BRANCH  29  30
ATOM     30  N   UNL A   1      38.109  22.773  25.424  1.00  0.00    -0.352 N 
ATOM     31  C   UNL A   1      39.256  22.951  26.159  1.00  0.00     0.251 C 
ATOM     32  H   UNL A   1      37.957  21.856  25.097  1.00  0.00     0.163 HD
ATOM     33  O   UNL A   1      40.063  22.030  26.264  1.00  0.00    -0.269 OA
BRANCH  31  34
ATOM     34  C   UNL A   1      39.538  24.258  26.795  1.00  0.00     0.039 A 
ATOM     35  C   UNL A   1      39.048  24.500  28.081  1.00  0.00     0.014 A 
ATOM     36  C   UNL A   1      40.285  25.238  26.136  1.00  0.00     0.014 A 
ATOM     37  C   UNL A   1      39.368  25.695  28.733  1.00  0.00     0.010 A 
ATOM     38  C   UNL A   1      40.663  26.396  26.815  1.00  0.00     0.010 A 
ATOM     39  C   UNL A   1      40.211  26.636  28.121  1.00  0.00    -0.014 A 
BRANCH  39  40
ATOM     40  C   UNL A   1      40.645  27.865  28.838  1.00  0.00     0.031 A 
ATOM     41  C   UNL A   1      41.992  27.922  29.507  1.00  0.00     0.074 A 
ATOM     42  C   UNL A   1      39.797  28.909  28.945  1.00  0.00     0.049 A 
ATOM     43  N   UNL A   1      42.516  28.883  30.226  1.00  0.00    -0.248 NA
ATOM     44  C   UNL A   1      42.854  26.736  29.373  1.00  0.00     0.031 C 
ATOM     45  C   UNL A   1      38.446  28.966  28.379  1.00  0.00     0.029 A 
ATOM     46  N   UNL A   1      39.941  30.120  29.574  1.00  0.00    -0.354 N 
ATOM     47  C   UNL A   1      43.755  28.412  30.644  1.00  0.00     0.074 A 
ATOM     48  C   UNL A   1      43.886  27.063  30.138  1.00  0.00     0.031 C 
ATOM     49  C   UNL A   1      37.897  30.156  28.666  1.00  0.00     0.029 A 
ATOM     50  C   UNL A   1      38.834  30.933  29.473  1.00  0.00     0.049 A 
ATOM     51  H   UNL A   1      40.759  30.384  30.054  1.00  0.00     0.167 HD
ATOM     52  C   UNL A   1      44.704  29.048  31.370  1.00  0.00     0.031 A 
ATOM     53  C   UNL A   1      38.593  32.158  29.979  1.00  0.00     0.031 A 
ATOM     54  C   UNL A   1      44.577  30.395  31.864  1.00  0.00     0.049 A 
ATOM     55  C   UNL A   1      39.660  32.841  30.790  1.00  0.00     0.074 A 
ATOM     56  C   UNL A   1      45.511  31.150  32.553  1.00  0.00     0.029 A 
ATOM     57  N   UNL A   1      43.447  31.186  31.728  1.00  0.00    -0.354 N 
ATOM     58  N   UNL A   1      40.856  32.407  31.109  1.00  0.00    -0.248 NA
ATOM     59  C   UNL A   1      39.351  34.184  31.300  1.00  0.00     0.031 C 
ATOM     60  C   UNL A   1      44.924  32.375  32.885  1.00  0.00     0.029 A 
ATOM     61  C   UNL A   1      43.648  32.410  32.345  1.00  0.00     0.049 A 
ATOM     62  H   UNL A   1      42.622  30.918  31.261  1.00  0.00     0.167 HD
ATOM     63  C   UNL A   1      41.452  33.436  31.832  1.00  0.00     0.074 A 
ATOM     64  C   UNL A   1      40.491  34.518  31.888  1.00  0.00     0.031 C 
ATOM     65  C   UNL A   1      42.685  33.480  32.395  1.00  0.00     0.031 A 
BRANCH  52  66
ATOM     66  C   UNL A   1      45.969  28.292  31.688  1.00  0.00    -0.014 A 
ATOM     67  C   UNL A   1      47.105  28.391  30.864  1.00  0.00     0.010 A 
ATOM     68  C   UNL A   1      46.038  27.508  32.854  1.00  0.00     0.010 A 
ATOM     69  C   UNL A   1      48.273  27.691  31.180  1.00  0.00     0.020 A 
ATOM     70  C   UNL A   1      47.214  26.830  33.189  1.00  0.00     0.020 A 
ATOM     71  C   UNL A   1      48.318  26.912  32.341  1.00  0.00     0.054 A 
BRANCH  71  72
ATOM     72  S   UNL A   1      49.856  26.035  32.738  1.00  0.00     0.124 S 
ATOM     73  O   UNL A   1      49.585  25.549  34.089  1.00  0.00    -0.237 OA
ATOM     74  O   UNL A   1      49.916  25.008  31.703  1.00  0.00    -0.237 OA
ATOM     75  O   UNL A   1      50.881  27.072  32.645  1.00  0.00    -0.744 OA
ENDBRANCH  71  72
ENDBRANCH  52  66
BRANCH  53  76
ATOM     76  C   UNL A   1      37.283  32.823  29.730  1.00  0.00    -0.014 A 
ATOM     77  C   UNL A   1      36.411  33.108  30.795  1.00  0.00     0.010 A 
ATOM     78  C   UNL A   1      36.903  33.178  28.423  1.00  0.00     0.010 A 
ATOM     79  C   UNL A   1      35.173  33.713  30.556  1.00  0.00     0.020 A 
ATOM     80  C   UNL A   1      35.679  33.811  28.183  1.00  0.00     0.020 A 
ATOM     81  C   UNL A   1      34.817  34.062  29.251  1.00  0.00     0.054 A 
BRANCH  81  82
ATOM     82  S   UNL A   1      33.224  34.885  28.969  1.00  0.00     0.124 S 
ATOM     83  O   UNL A   1      32.617  34.834  30.296  1.00  0.00    -0.237 OA
ATOM     84  O   UNL A   1      33.631  36.211  28.510  1.00  0.00    -0.237 OA
ATOM     85  O   UNL A   1      32.583  34.052  27.955  1.00  0.00    -0.744 OA
ENDBRANCH  81  82
ENDBRANCH  53  76
BRANCH  65  86
ATOM     86  C   UNL A   1      43.086  34.754  33.092  1.00  0.00    -0.014 A 
ATOM     87  C   UNL A   1      42.823  34.954  34.459  1.00  0.00     0.010 A 
ATOM     88  C   UNL A   1      43.789  35.741  32.378  1.00  0.00     0.010 A 
ATOM     89  C   UNL A   1      43.228  36.134  35.090  1.00  0.00     0.020 A 
ATOM     90  C   UNL A   1      44.222  36.908  33.012  1.00  0.00     0.020 A 
ATOM     91  C   UNL A   1      43.926  37.103  34.363  1.00  0.00     0.054 A 
BRANCH  91  92
ATOM     92  S   UNL A   1      44.481  38.605  35.217  1.00  0.00     0.124 S 
ATOM     93  O   UNL A   1      44.106  38.323  36.600  1.00  0.00    -0.237 OA
ATOM     94  O   UNL A   1      45.916  38.615  34.944  1.00  0.00    -0.237 OA
ATOM     95  O   UNL A   1      43.722  39.672  34.569  1.00  0.00    -0.744 OA
ENDBRANCH  91  92
ENDBRANCH  65  86
ENDBRANCH  39  40
ENDBRANCH  31  34
ENDBRANCH  29  30
ENDBRANCH  28  29
ENDBRANCH   1  28
TORSDOF 19
ENDMDL
MODEL 3
REMARK VINA RESULT:     -10.1      2.619      3.989
REMARK SMILES CC(C)c1cc(OCC(=O)NCCCCNC(=O)c2ccc(-c3c4nc(c(-c5ccc(S(=O)(=O)[O-])cc5)c5ccc([nH]5)c(-c5ccc(S(=O)(=O)[O-])cc5)c5nc(c(-c6ccc(S(=O)(=O)[O-])cc6)c6ccc3[nH]6)C=C5)C=C4)cc2)nc(Nc2ccc(F)cc2F)n1
REMARK SMILES IDX 13 1 12 2 11 3 9 4 10 5 8 7 7 8 6 9 4 10 5 11 90 12 80 13
REMARK SMILES IDX 79 14 2 15 1 16 3 17 81 18 82 20 83 21 88 22 84 23 87 24
REMARK SMILES IDX 89 25 85 26 86 27 14 28 15 29 16 30 17 31 18 33 19 34 20 35
REMARK SMILES IDX 78 36 21 37 77 38 22 39 23 40 24 41 71 42 25 43 76 44 70 45
REMARK SMILES IDX 72 46 26 47 75 48 69 49 68 50 27 52 57 53 38 54 56 55 39 56
REMARK SMILES IDX 42 57 55 58 73 59 40 60 41 61 54 63 74 64 43 65 28 66 29 67
REMARK SMILES IDX 37 68 30 69 36 70 31 71 32 72 33 73 34 74 35 75 58 76 59 77
REMARK SMILES IDX 67 78 60 79 66 80 61 81 62 82 63 83 64 84 65 85 44 86 45 87
REMARK SMILES IDX 53 88 46 89 52 90 47 91 48 92 49 93 50 94 51 95
REMARK H PARENT 11 6 81 19 16 32 72 51 42 62
REMARK Flexibility Score: inf
ROOT
ATOM      1  C   UNL A   1      34.684  22.178  24.895  1.00  0.00     0.023 C 
ENDROOT
BRANCH   1   2
ATOM      2  C   UNL A   1      33.385  22.931  24.621  1.00  0.00     0.116 C 
BRANCH   2   3
ATOM      3  N   UNL A   1      32.477  22.897  25.750  1.00  0.00    -0.353 N 
ATOM      4  C   UNL A   1      31.774  23.927  26.300  1.00  0.00     0.258 C 
ATOM      5  O   UNL A   1      31.016  23.699  27.245  1.00  0.00    -0.271 OA
ATOM      6  H   UNL A   1      32.352  22.018  26.175  1.00  0.00     0.163 HD
BRANCH   4   7
ATOM      7  C   UNL A   1      31.919  25.345  25.727  1.00  0.00     0.331 C 
BRANCH   7   8
ATOM      8  O   UNL A   1      33.082  26.078  26.070  1.00  0.00    -0.467 OA
BRANCH   8   9
ATOM      9  C   UNL A   1      33.010  27.443  26.060  1.00  0.00     0.218 A 
ATOM     10  C   UNL A   1      33.472  29.624  26.796  1.00  0.00     0.052 A 
ATOM     11  C   UNL A   1      33.542  28.268  27.025  1.00  0.00     0.092 A 
ATOM     12  N   UNL A   1      32.810  30.101  25.727  1.00  0.00    -0.217 NA
ATOM     13  C   UNL A   1      32.280  29.238  24.848  1.00  0.00     0.230 A 
ATOM     14  N   UNL A   1      32.356  27.911  24.984  1.00  0.00    -0.177 NA
BRANCH  10  15
ATOM     15  C   UNL A   1      34.070  30.647  27.751  1.00  0.00     0.032 C 
ATOM     16  C   UNL A   1      35.595  30.774  27.642  1.00  0.00     0.014 C 
ATOM     17  C   UNL A   1      33.453  32.041  27.551  1.00  0.00     0.014 C 
ENDBRANCH  10  15
BRANCH  13  18
ATOM     18  N   UNL A   1      31.510  29.722  23.794  1.00  0.00    -0.322 N 
ATOM     19  H   UNL A   1      31.968  30.330  23.169  1.00  0.00     0.170 HD
BRANCH  18  20
ATOM     20  C   UNL A   1      30.166  29.453  23.514  1.00  0.00     0.077 A 
ATOM     21  C   UNL A   1      29.754  28.121  23.356  1.00  0.00     0.032 A 
ATOM     22  C   UNL A   1      29.179  30.455  23.500  1.00  0.00     0.149 A 
ATOM     23  C   UNL A   1      28.400  27.809  23.206  1.00  0.00     0.041 A 
ATOM     24  C   UNL A   1      27.831  30.155  23.335  1.00  0.00     0.080 A 
ATOM     25  F   UNL A   1      29.528  31.747  23.596  1.00  0.00    -0.205 F 
ATOM     26  C   UNL A   1      27.453  28.828  23.201  1.00  0.00     0.126 A 
ATOM     27  F   UNL A   1      26.156  28.520  23.068  1.00  0.00    -0.207 F 
ENDBRANCH  18  20
ENDBRANCH  13  18
ENDBRANCH   8   9
ENDBRANCH   7   8
ENDBRANCH   4   7
ENDBRANCH   2   3
ENDBRANCH   1   2
BRANCH   1  28
ATOM     28  C   UNL A   1      35.441  22.617  26.151  1.00  0.00     0.023 C 
BRANCH  28  29
ATOM     29  C   UNL A   1      36.819  23.229  25.919  1.00  0.00     0.116 C 
BRANCH  29  30
ATOM     30  N   UNL A   1      37.906  22.281  26.102  1.00  0.00    -0.352 N 
ATOM     31  C   UNL A   1      39.209  22.511  26.475  1.00  0.00     0.251 C 
ATOM     32  H   UNL A   1      37.676  21.338  25.936  1.00  0.00     0.163 HD
ATOM     33  O   UNL A   1      40.019  21.586  26.463  1.00  0.00    -0.269 OA
BRANCH  31  34
ATOM     34  C   UNL A   1      39.646  23.872  26.857  1.00  0.00     0.039 A 
ATOM     35  C   UNL A   1      39.689  24.210  28.212  1.00  0.00     0.014 A 
ATOM     36  C   UNL A   1      40.019  24.811  25.892  1.00  0.00     0.014 A 
ATOM     37  C   UNL A   1      40.174  25.463  28.602  1.00  0.00     0.010 A 
ATOM     38  C   UNL A   1      40.569  26.030  26.285  1.00  0.00     0.010 A 
ATOM     39  C   UNL A   1      40.655  26.369  27.644  1.00  0.00    -0.014 A 
BRANCH  39  40
ATOM     40  C   UNL A   1      41.267  27.663  28.045  1.00  0.00     0.031 A 
ATOM     41  C   UNL A   1      42.756  27.866  27.946  1.00  0.00     0.074 A 
ATOM     42  C   UNL A   1      40.490  28.637  28.562  1.00  0.00     0.049 A 
ATOM     43  N   UNL A   1      43.473  28.901  28.304  1.00  0.00    -0.248 NA
ATOM     44  C   UNL A   1      43.546  26.750  27.398  1.00  0.00     0.031 C 
ATOM     45  C   UNL A   1      39.039  28.553  28.751  1.00  0.00     0.029 A 
ATOM     46  N   UNL A   1      40.811  29.885  29.034  1.00  0.00    -0.354 N 
ATOM     47  C   UNL A   1      44.794  28.556  28.044  1.00  0.00     0.074 A 
ATOM     48  C   UNL A   1      44.785  27.199  27.541  1.00  0.00     0.031 C 
ATOM     49  C   UNL A   1      38.595  29.706  29.275  1.00  0.00     0.029 A 
ATOM     50  C   UNL A   1      39.729  30.596  29.501  1.00  0.00     0.049 A 
ATOM     51  H   UNL A   1      41.729  30.240  29.037  1.00  0.00     0.167 HD
ATOM     52  C   UNL A   1      45.913  29.304  28.194  1.00  0.00     0.031 A 
ATOM     53  C   UNL A   1      39.656  31.821  30.060  1.00  0.00     0.031 A 
ATOM     54  C   UNL A   1      45.919  30.659  28.685  1.00  0.00     0.049 A 
ATOM     55  C   UNL A   1      40.914  32.630  30.224  1.00  0.00     0.074 A 
ATOM     56  C   UNL A   1      46.994  31.521  28.811  1.00  0.00     0.029 A 
ATOM     57  N   UNL A   1      44.802  31.345  29.134  1.00  0.00    -0.354 N 
ATOM     58  N   UNL A   1      42.145  32.313  29.899  1.00  0.00    -0.248 NA
ATOM     59  C   UNL A   1      40.772  33.966  30.819  1.00  0.00     0.031 C 
ATOM     60  C   UNL A   1      46.537  32.708  29.392  1.00  0.00     0.029 A 
ATOM     61  C   UNL A   1      45.165  32.610  29.566  1.00  0.00     0.049 A 
ATOM     62  H   UNL A   1      43.884  30.986  29.145  1.00  0.00     0.167 HD
ATOM     63  C   UNL A   1      42.919  33.422  30.224  1.00  0.00     0.074 A 
ATOM     64  C   UNL A   1      42.015  34.423  30.755  1.00  0.00     0.031 C 
ATOM     65  C   UNL A   1      44.257  33.597  30.092  1.00  0.00     0.031 A 
BRANCH  52  66
ATOM     66  C   UNL A   1      47.233  28.672  27.834  1.00  0.00    -0.014 A 
ATOM     67  C   UNL A   1      47.736  28.730  26.521  1.00  0.00     0.010 A 
ATOM     68  C   UNL A   1      48.006  28.054  28.834  1.00  0.00     0.010 A 
ATOM     69  C   UNL A   1      48.967  28.148  26.208  1.00  0.00     0.020 A 
ATOM     70  C   UNL A   1      49.252  27.497  28.531  1.00  0.00     0.020 A 
ATOM     71  C   UNL A   1      49.717  27.532  27.216  1.00  0.00     0.054 A 
BRANCH  71  72
ATOM     72  S   UNL A   1      51.322  26.808  26.784  1.00  0.00     0.124 S 
ATOM     73  O   UNL A   1      51.980  27.921  26.102  1.00  0.00    -0.237 OA
ATOM     74  O   UNL A   1      51.877  26.457  28.088  1.00  0.00    -0.237 OA
ATOM     75  O   UNL A   1      50.975  25.675  25.930  1.00  0.00    -0.744 OA
ENDBRANCH  71  72
ENDBRANCH  52  66
BRANCH  53  76
ATOM     76  C   UNL A   1      38.340  32.361  30.501  1.00  0.00    -0.014 A 
ATOM     77  C   UNL A   1      37.860  32.105  31.798  1.00  0.00     0.010 A 
ATOM     78  C   UNL A   1      37.560  33.139  29.627  1.00  0.00     0.010 A 
ATOM     79  C   UNL A   1      36.614  32.595  32.203  1.00  0.00     0.020 A 
ATOM     80  C   UNL A   1      36.328  33.656  30.039  1.00  0.00     0.020 A 
ATOM     81  C   UNL A   1      35.858  33.369  31.321  1.00  0.00     0.054 A 
BRANCH  81  82
ATOM     82  S   UNL A   1      34.264  34.030  31.883  1.00  0.00     0.124 S 
ATOM     83  O   UNL A   1      33.667  32.870  32.537  1.00  0.00    -0.237 OA
ATOM     84  O   UNL A   1      34.669  35.118  32.770  1.00  0.00    -0.237 OA
ATOM     85  O   UNL A   1      33.614  34.455  30.645  1.00  0.00    -0.744 OA
ENDBRANCH  81  82
ENDBRANCH  53  76
BRANCH  65  86
ATOM     86  C   UNL A   1      44.828  34.932  30.493  1.00  0.00    -0.014 A 
ATOM     87  C   UNL A   1      45.323  35.158  31.790  1.00  0.00     0.010 A 
ATOM     88  C   UNL A   1      44.921  35.960  29.536  1.00  0.00     0.010 A 
ATOM     89  C   UNL A   1      45.871  36.397  32.130  1.00  0.00     0.020 A 
ATOM     90  C   UNL A   1      45.496  37.190  29.864  1.00  0.00     0.020 A 
ATOM     91  C   UNL A   1      45.956  37.406  31.165  1.00  0.00     0.054 A 
BRANCH  91  92
ATOM     92  S   UNL A   1      46.714  38.990  31.619  1.00  0.00     0.124 S 
ATOM     93  O   UNL A   1      46.548  39.768  30.394  1.00  0.00    -0.237 OA
ATOM     94  O   UNL A   1      45.899  39.421  32.752  1.00  0.00    -0.237 OA
ATOM     95  O   UNL A   1      48.092  38.633  31.950  1.00  0.00    -0.744 OA
ENDBRANCH  91  92
ENDBRANCH  65  86
ENDBRANCH  39  40
ENDBRANCH  31  34
ENDBRANCH  29  30
ENDBRANCH  28  29
ENDBRANCH   1  28
TORSDOF 19
ENDMDL
