MODEL 1
REMARK VINA RESULT:     -12.0      0.000      0.000
REMARK SMILES O=C(NCCCCNC(=O)c1ccc(Br)c(NC(=S)NC(=O)c2ccc(F)cc2)c1)c1ccc(-c2c3nc(c(-c4ccc(S(=O)(=O)[O-])cc4)c4ccc([nH]4)c(-c4ccc(S(=O)(=O)[O-])cc4)c4nc(c(-c5ccc(S(=O)(=O)[O-])cc5)c5ccc2[nH]5)C=C4)C=C3)cc1
REMARK SMILES IDX 6 1 5 2 4 3 3 4 1 5 2 6 31 8 32 9 90 10 33 11 89 12 34 13
REMARK SMILES IDX 35 14 36 15 83 16 37 17 88 18 82 19 84 20 38 21 87 22 81 23
REMARK SMILES IDX 80 24 39 26 69 27 50 28 68 29 51 30 54 31 67 32 85 33 52 34
REMARK SMILES IDX 53 35 66 37 86 38 55 39 40 40 41 41 49 42 42 43 48 44 43 45
REMARK SMILES IDX 44 46 45 47 46 48 47 49 70 50 71 51 79 52 72 53 78 54 73 55
REMARK SMILES IDX 74 56 75 57 76 58 77 59 56 60 57 61 65 62 58 63 64 64 59 65
REMARK SMILES IDX 60 66 61 67 62 68 63 69 7 70 8 71 9 72 10 74 11 75 12 76
REMARK SMILES IDX 30 77 13 78 16 79 14 80 15 81 17 82 18 84 19 85 20 86 21 87
REMARK SMILES IDX 22 89 23 90 24 91 29 92 25 93 28 94 26 95 27 96
REMARK H PARENT 3 7 84 25 54 36 8 73 17 83 20 88
REMARK Flexibility Score: inf
ROOT
ATOM      1  C   UNL A   1      35.434  31.364  27.631  1.00  0.00     0.023 C 
ENDROOT
BRANCH   1   2
ATOM      2  C   UNL A   1      36.000  32.694  28.115  1.00  0.00     0.023 C 
BRANCH   2   3
ATOM      3  C   UNL A   1      36.847  32.581  29.373  1.00  0.00     0.116 C 
BRANCH   3   4
ATOM      4  N   UNL A   1      36.311  31.620  30.332  1.00  0.00    -0.352 N 
ATOM      5  O   UNL A   1      36.220  29.659  31.451  1.00  0.00    -0.269 OA
ATOM      6  C   UNL A   1      36.846  30.423  30.727  1.00  0.00     0.251 C 
ATOM      7  H   UNL A   1      35.454  31.865  30.750  1.00  0.00     0.163 HD
BRANCH   6   8
ATOM      8  C   UNL A   1      38.186  30.078  30.229  1.00  0.00     0.039 A 
ATOM      9  C   UNL A   1      38.367  29.859  28.861  1.00  0.00     0.014 A 
ATOM     10  C   UNL A   1      39.227  29.892  31.137  1.00  0.00     0.014 A 
ATOM     11  C   UNL A   1      39.562  29.322  28.415  1.00  0.00     0.010 A 
ATOM     12  C   UNL A   1      40.463  29.452  30.669  1.00  0.00     0.010 A 
ATOM     13  C   UNL A   1      40.632  29.152  29.308  1.00  0.00    -0.014 A 
BRANCH  13  14
ATOM     14  C   UNL A   1      41.957  28.788  28.761  1.00  0.00     0.031 A 
ATOM     15  C   UNL A   1      42.237  27.413  28.232  1.00  0.00     0.074 A 
ATOM     16  C   UNL A   1      42.903  29.747  28.749  1.00  0.00     0.049 A 
ATOM     17  N   UNL A   1      43.352  26.947  27.734  1.00  0.00    -0.248 NA
ATOM     18  C   UNL A   1      41.138  26.433  28.270  1.00  0.00     0.031 C 
ATOM     19  C   UNL A   1      42.724  31.115  29.253  1.00  0.00     0.029 A 
ATOM     20  N   UNL A   1      44.190  29.735  28.286  1.00  0.00    -0.354 N 
ATOM     21  C   UNL A   1      43.103  25.616  27.423  1.00  0.00     0.074 A 
ATOM     22  C   UNL A   1      41.732  25.344  27.798  1.00  0.00     0.031 C 
ATOM     23  C   UNL A   1      43.840  31.819  29.027  1.00  0.00     0.029 A 
ATOM     24  C   UNL A   1      44.840  30.936  28.444  1.00  0.00     0.049 A 
ATOM     25  H   UNL A   1      44.611  28.943  27.879  1.00  0.00     0.167 HD
ATOM     26  C   UNL A   1      43.950  24.712  26.877  1.00  0.00     0.031 A 
ATOM     27  C   UNL A   1      46.112  31.282  28.185  1.00  0.00     0.031 A 
ATOM     28  C   UNL A   1      45.311  25.009  26.506  1.00  0.00     0.049 A 
ATOM     29  C   UNL A   1      47.030  30.244  27.613  1.00  0.00     0.074 A 
ATOM     30  C   UNL A   1      46.237  24.176  25.902  1.00  0.00     0.029 A 
ATOM     31  N   UNL A   1      45.944  26.227  26.709  1.00  0.00    -0.354 N 
ATOM     32  N   UNL A   1      46.762  29.004  27.280  1.00  0.00    -0.248 NA
ATOM     33  C   UNL A   1      48.422  30.649  27.385  1.00  0.00     0.031 C 
ATOM     34  C   UNL A   1      47.447  24.867  25.801  1.00  0.00     0.029 A 
ATOM     35  C   UNL A   1      47.258  26.155  26.278  1.00  0.00     0.049 A 
ATOM     36  H   UNL A   1      45.520  27.025  27.101  1.00  0.00     0.167 HD
ATOM     37  C   UNL A   1      47.951  28.484  26.788  1.00  0.00     0.074 A 
ATOM     38  C   UNL A   1      48.928  29.553  26.839  1.00  0.00     0.031 C 
ATOM     39  C   UNL A   1      48.214  27.232  26.342  1.00  0.00     0.031 A 
BRANCH  26  40
ATOM     40  C   UNL A   1      43.459  23.304  26.667  1.00  0.00    -0.014 A 
ATOM     41  C   UNL A   1      43.592  22.658  25.425  1.00  0.00     0.010 A 
ATOM     42  C   UNL A   1      42.955  22.578  27.764  1.00  0.00     0.010 A 
ATOM     43  C   UNL A   1      43.225  21.316  25.283  1.00  0.00     0.020 A 
ATOM     44  C   UNL A   1      42.608  21.230  27.631  1.00  0.00     0.020 A 
ATOM     45  C   UNL A   1      42.741  20.609  26.389  1.00  0.00     0.054 A 
BRANCH  45  46
ATOM     46  S   UNL A   1      42.341  18.849  26.191  1.00  0.00     0.124 S 
ATOM     47  O   UNL A   1      42.567  18.335  27.539  1.00  0.00    -0.237 OA
ATOM     48  O   UNL A   1      40.947  18.886  25.759  1.00  0.00    -0.237 OA
ATOM     49  O   UNL A   1      43.291  18.387  25.182  1.00  0.00    -0.744 OA
ENDBRANCH  45  46
ENDBRANCH  26  40
BRANCH  27  50
ATOM     50  C   UNL A   1      46.594  32.649  28.517  1.00  0.00    -0.014 A 
ATOM     51  C   UNL A   1      47.152  32.931  29.775  1.00  0.00     0.010 A 
ATOM     52  C   UNL A   1      46.492  33.683  27.567  1.00  0.00     0.010 A 
ATOM     53  C   UNL A   1      47.564  34.229  30.090  1.00  0.00     0.020 A 
ATOM     54  C   UNL A   1      46.936  34.971  27.863  1.00  0.00     0.020 A 
ATOM     55  C   UNL A   1      47.448  35.241  29.132  1.00  0.00     0.054 A 
BRANCH  55  56
ATOM     56  S   UNL A   1      47.995  36.917  29.558  1.00  0.00     0.124 S 
ATOM     57  O   UNL A   1      46.917  37.734  29.007  1.00  0.00    -0.237 OA
ATOM     58  O   UNL A   1      48.070  36.864  31.015  1.00  0.00    -0.237 OA
ATOM     59  O   UNL A   1      49.283  37.038  28.879  1.00  0.00    -0.744 OA
ENDBRANCH  55  56
ENDBRANCH  27  50
BRANCH  39  60
ATOM     60  C   UNL A   1      49.609  26.964  25.850  1.00  0.00    -0.014 A 
ATOM     61  C   UNL A   1      49.951  27.145  24.498  1.00  0.00     0.010 A 
ATOM     62  C   UNL A   1      50.600  26.554  26.761  1.00  0.00     0.010 A 
ATOM     63  C   UNL A   1      51.251  26.885  24.059  1.00  0.00     0.020 A 
ATOM     64  C   UNL A   1      51.908  26.325  26.332  1.00  0.00     0.020 A 
ATOM     65  C   UNL A   1      52.221  26.477  24.980  1.00  0.00     0.054 A 
BRANCH  65  66
ATOM     66  S   UNL A   1      53.911  26.184  24.391  1.00  0.00     0.124 S 
ATOM     67  O   UNL A   1      53.761  26.347  22.947  1.00  0.00    -0.237 OA
ATOM     68  O   UNL A   1      54.672  27.232  25.066  1.00  0.00    -0.237 OA
ATOM     69  O   UNL A   1      54.202  24.824  24.838  1.00  0.00    -0.744 OA
ENDBRANCH  65  66
ENDBRANCH  39  60
ENDBRANCH  13  14
ENDBRANCH   6   8
ENDBRANCH   3   4
ENDBRANCH   2   3
ENDBRANCH   1   2
BRANCH   1  70
ATOM     70  C   UNL A   1      33.904  31.318  27.623  1.00  0.00     0.116 C 
BRANCH  70  71
ATOM     71  N   UNL A   1      33.442  29.926  27.808  1.00  0.00    -0.352 N 
ATOM     72  C   UNL A   1      32.996  28.703  27.058  1.00  0.00     0.251 C 
ATOM     73  H   UNL A   1      33.414  29.730  28.773  1.00  0.00     0.163 HD
ATOM     74  O   UNL A   1      32.441  28.254  28.124  1.00  0.00    -0.269 OA
BRANCH  72  75
ATOM     75  C   UNL A   1      33.204  27.944  25.066  1.00  0.00     0.041 A 
ATOM     76  C   UNL A   1      33.812  26.660  24.506  1.00  0.00     0.015 A 
ATOM     77  C   UNL A   1      32.689  28.521  23.802  1.00  0.00     0.041 A 
ATOM     78  C   UNL A   1      33.705  26.117  23.194  1.00  0.00     0.018 A 
ATOM     79  C   UNL A   1      32.248  27.874  22.661  1.00  0.00     0.055 A 
ATOM     80  C   UNL A   1      32.859  26.705  22.282  1.00  0.00     0.041 A 
ATOM     81  Br  UNL A   1      32.570  25.907  20.601  1.00  0.00    -0.049 Br
BRANCH  79  82
ATOM     82  N   UNL A   1      31.186  28.470  21.976  1.00  0.00    -0.331 N 
ATOM     83  H   UNL A   1      31.390  28.724  21.048  1.00  0.00     0.169 HD
BRANCH  82  84
ATOM     84  C   UNL A   1      29.920  28.756  22.372  1.00  0.00     0.177 C 
ATOM     85  S   UNL A   1      29.264  30.194  21.798  1.00  0.00    -0.040 S 
BRANCH  84  86
ATOM     86  N   UNL A   1      29.069  27.945  23.127  1.00  0.00    -0.299 N 
ATOM     87  C   UNL A   1      28.802  26.739  23.855  1.00  0.00     0.257 C 
ATOM     88  H   UNL A   1      28.232  28.460  23.191  1.00  0.00     0.172 HD
ATOM     89  O   UNL A   1      27.630  26.455  24.098  1.00  0.00    -0.269 OA
BRANCH  87  90
ATOM     90  C   UNL A   1      29.856  25.827  24.329  1.00  0.00     0.040 A 
ATOM     91  C   UNL A   1      30.399  24.420  23.285  1.00  0.00     0.017 A 
ATOM     92  C   UNL A   1      30.452  25.961  26.042  1.00  0.00     0.017 A 
ATOM     93  C   UNL A   1      31.355  23.066  24.026  1.00  0.00     0.040 A 
ATOM     94  C   UNL A   1      31.622  24.743  26.704  1.00  0.00     0.040 A 
ATOM     95  C   UNL A   1      32.031  23.255  25.721  1.00  0.00     0.123 A 
ATOM     96  F   UNL A   1      32.786  22.288  26.261  1.00  0.00    -0.207 F 
ENDBRANCH  87  90
ENDBRANCH  84  86
ENDBRANCH  82  84
ENDBRANCH  79  82
ENDBRANCH  72  75
ENDBRANCH  70  71
ENDBRANCH   1  70
TORSDOF 18
ENDMDL
MODEL 2
REMARK VINA RESULT:     -11.8      6.038     11.839
REMARK SMILES O=C(NCCCCNC(=O)c1ccc(Br)c(NC(=S)NC(=O)c2ccc(F)cc2)c1)c1ccc(-c2c3nc(c(-c4ccc(S(=O)(=O)[O-])cc4)c4ccc([nH]4)c(-c4ccc(S(=O)(=O)[O-])cc4)c4nc(c(-c5ccc(S(=O)(=O)[O-])cc5)c5ccc2[nH]5)C=C4)C=C3)cc1
REMARK SMILES IDX 6 1 5 2 4 3 3 4 1 5 2 6 31 8 32 9 90 10 33 11 89 12 34 13
REMARK SMILES IDX 35 14 36 15 83 16 37 17 88 18 82 19 84 20 38 21 87 22 81 23
REMARK SMILES IDX 80 24 39 26 69 27 50 28 68 29 51 30 54 31 67 32 85 33 52 34
REMARK SMILES IDX 53 35 66 37 86 38 55 39 40 40 41 41 49 42 42 43 48 44 43 45
REMARK SMILES IDX 44 46 45 47 46 48 47 49 70 50 71 51 79 52 72 53 78 54 73 55
REMARK SMILES IDX 74 56 75 57 76 58 77 59 56 60 57 61 65 62 58 63 64 64 59 65
REMARK SMILES IDX 60 66 61 67 62 68 63 69 7 70 8 71 9 72 10 74 11 75 12 76
REMARK SMILES IDX 30 77 13 78 16 79 14 80 15 81 17 82 18 84 19 85 20 86 21 87
REMARK SMILES IDX 22 89 23 90 24 91 29 92 25 93 28 94 26 95 27 96
REMARK H PARENT 3 7 84 25 54 36 8 73 17 83 20 88
REMARK Flexibility Score: inf
ROOT
ATOM      1  C   UNL A   1      40.894  22.329  26.659  1.00  0.00     0.023 C 
ENDROOT
BRANCH   1   2
ATOM      2  C   UNL A   1      41.713  22.676  27.898  1.00  0.00     0.023 C 
BRANCH   2   3
ATOM      3  C   UNL A   1      42.817  23.689  27.641  1.00  0.00     0.116 C 
BRANCH   3   4
ATOM      4  N   UNL A   1      42.679  24.363  26.354  1.00  0.00    -0.352 N 
ATOM      5  O   UNL A   1      42.008  25.999  24.947  1.00  0.00    -0.269 OA
ATOM      6  C   UNL A   1      42.177  25.611  26.096  1.00  0.00     0.251 C 
ATOM      7  H   UNL A   1      42.988  23.855  25.569  1.00  0.00     0.163 HD
BRANCH   6   8
ATOM      8  C   UNL A   1      41.826  26.455  27.248  1.00  0.00     0.039 A 
ATOM      9  C   UNL A   1      42.660  27.524  27.587  1.00  0.00     0.014 A 
ATOM     10  C   UNL A   1      40.719  26.124  28.027  1.00  0.00     0.014 A 
ATOM     11  C   UNL A   1      42.461  28.181  28.788  1.00  0.00     0.010 A 
ATOM     12  C   UNL A   1      40.461  26.858  29.182  1.00  0.00     0.010 A 
ATOM     13  C   UNL A   1      41.338  27.881  29.575  1.00  0.00    -0.014 A 
BRANCH  13  14
ATOM     14  C   UNL A   1      41.035  28.748  30.734  1.00  0.00     0.031 A 
ATOM     15  C   UNL A   1      39.895  29.721  30.710  1.00  0.00     0.074 A 
ATOM     16  C   UNL A   1      41.822  28.621  31.821  1.00  0.00     0.049 A 
ATOM     17  N   UNL A   1      39.517  30.552  31.646  1.00  0.00    -0.248 NA
ATOM     18  C   UNL A   1      39.077  29.780  29.487  1.00  0.00     0.031 C 
ATOM     19  C   UNL A   1      42.965  27.705  31.932  1.00  0.00     0.029 A 
ATOM     20  N   UNL A   1      41.780  29.241  33.039  1.00  0.00    -0.354 N 
ATOM     21  C   UNL A   1      38.438  31.252  31.121  1.00  0.00     0.074 A 
ATOM     22  C   UNL A   1      38.225  30.756  29.779  1.00  0.00     0.031 C 
ATOM     23  C   UNL A   1      43.481  27.789  33.165  1.00  0.00     0.029 A 
ATOM     24  C   UNL A   1      42.765  28.822  33.900  1.00  0.00     0.049 A 
ATOM     25  H   UNL A   1      41.109  29.921  33.276  1.00  0.00     0.167 HD
ATOM     26  C   UNL A   1      37.701  32.221  31.714  1.00  0.00     0.031 A 
ATOM     27  C   UNL A   1      43.085  29.245  35.135  1.00  0.00     0.031 A 
ATOM     28  C   UNL A   1      37.928  32.694  33.057  1.00  0.00     0.049 A 
ATOM     29  C   UNL A   1      42.268  30.344  35.745  1.00  0.00     0.074 A 
ATOM     30  C   UNL A   1      37.208  33.639  33.766  1.00  0.00     0.029 A 
ATOM     31  N   UNL A   1      38.954  32.268  33.888  1.00  0.00    -0.354 N 
ATOM     32  N   UNL A   1      41.220  30.959  35.251  1.00  0.00    -0.248 NA
ATOM     33  C   UNL A   1      42.677  30.808  37.076  1.00  0.00     0.031 C 
ATOM     34  C   UNL A   1      37.836  33.832  34.999  1.00  0.00     0.029 A 
ATOM     35  C   UNL A   1      38.908  32.958  35.088  1.00  0.00     0.049 A 
ATOM     36  H   UNL A   1      39.616  31.577  33.658  1.00  0.00     0.167 HD
ATOM     37  C   UNL A   1      40.834  31.876  36.219  1.00  0.00     0.074 A 
ATOM     38  C   UNL A   1      41.742  31.710  37.338  1.00  0.00     0.031 C 
ATOM     39  C   UNL A   1      39.825  32.780  36.185  1.00  0.00     0.031 A 
BRANCH  26  40
ATOM     40  C   UNL A   1      36.594  32.866  30.922  1.00  0.00    -0.014 A 
ATOM     41  C   UNL A   1      35.242  32.590  31.192  1.00  0.00     0.010 A 
ATOM     42  C   UNL A   1      36.913  33.849  29.965  1.00  0.00     0.010 A 
ATOM     43  C   UNL A   1      34.231  33.280  30.515  1.00  0.00     0.020 A 
ATOM     44  C   UNL A   1      35.905  34.556  29.303  1.00  0.00     0.020 A 
ATOM     45  C   UNL A   1      34.569  34.263  29.579  1.00  0.00     0.054 A 
BRANCH  45  46
ATOM     46  S   UNL A   1      33.235  35.192  28.771  1.00  0.00     0.124 S 
ATOM     47  O   UNL A   1      32.484  35.700  29.916  1.00  0.00    -0.237 OA
ATOM     48  O   UNL A   1      33.966  36.196  28.004  1.00  0.00    -0.237 OA
ATOM     49  O   UNL A   1      32.543  34.184  27.972  1.00  0.00    -0.744 OA
ENDBRANCH  45  46
ENDBRANCH  26  40
BRANCH  27  50
ATOM     50  C   UNL A   1      44.260  28.667  35.839  1.00  0.00    -0.014 A 
ATOM     51  C   UNL A   1      45.541  29.221  35.681  1.00  0.00     0.010 A 
ATOM     52  C   UNL A   1      44.099  27.546  36.676  1.00  0.00     0.010 A 
ATOM     53  C   UNL A   1      46.644  28.644  36.316  1.00  0.00     0.020 A 
ATOM     54  C   UNL A   1      45.190  26.989  37.342  1.00  0.00     0.020 A 
ATOM     55  C   UNL A   1      46.461  27.528  37.138  1.00  0.00     0.054 A 
BRANCH  55  56
ATOM     56  S   UNL A   1      47.904  26.798  37.958  1.00  0.00     0.124 S 
ATOM     57  O   UNL A   1      47.363  25.534  38.450  1.00  0.00    -0.237 OA
ATOM     58  O   UNL A   1      48.869  26.693  36.867  1.00  0.00    -0.237 OA
ATOM     59  O   UNL A   1      48.243  27.777  38.988  1.00  0.00    -0.744 OA
ENDBRANCH  55  56
ENDBRANCH  27  50
BRANCH  39  60
ATOM     60  C   UNL A   1      39.639  33.638  37.405  1.00  0.00    -0.014 A 
ATOM     61  C   UNL A   1      38.933  33.166  38.526  1.00  0.00     0.010 A 
ATOM     62  C   UNL A   1      40.204  34.926  37.440  1.00  0.00     0.010 A 
ATOM     63  C   UNL A   1      38.765  33.980  39.647  1.00  0.00     0.020 A 
ATOM     64  C   UNL A   1      40.066  35.730  38.573  1.00  0.00     0.020 A 
ATOM     65  C   UNL A   1      39.334  35.257  39.663  1.00  0.00     0.054 A 
BRANCH  65  66
ATOM     66  S   UNL A   1      39.133  36.281  41.147  1.00  0.00     0.124 S 
ATOM     67  O   UNL A   1      37.912  35.732  41.731  1.00  0.00    -0.237 OA
ATOM     68  O   UNL A   1      40.362  36.011  41.890  1.00  0.00    -0.237 OA
ATOM     69  O   UNL A   1      39.017  37.638  40.619  1.00  0.00    -0.744 OA
ENDBRANCH  65  66
ENDBRANCH  39  60
ENDBRANCH  13  14
ENDBRANCH   6   8
ENDBRANCH   3   4
ENDBRANCH   2   3
ENDBRANCH   1   2
BRANCH   1  70
ATOM     70  C   UNL A   1      39.437  22.791  26.741  1.00  0.00     0.116 C 
BRANCH  70  71
ATOM     71  N   UNL A   1      38.578  21.891  25.944  1.00  0.00    -0.352 N 
ATOM     72  C   UNL A   1      37.267  21.825  25.213  1.00  0.00     0.251 C 
ATOM     73  H   UNL A   1      39.027  21.019  25.862  1.00  0.00     0.163 HD
ATOM     74  O   UNL A   1      37.306  20.543  25.265  1.00  0.00    -0.269 OA
BRANCH  72  75
ATOM     75  C   UNL A   1      35.886  23.230  24.372  1.00  0.00     0.041 A 
ATOM     76  C   UNL A   1      34.953  23.168  23.165  1.00  0.00     0.015 A 
ATOM     77  C   UNL A   1      35.501  24.564  24.889  1.00  0.00     0.041 A 
ATOM     78  C   UNL A   1      33.896  24.052  22.805  1.00  0.00     0.018 A 
ATOM     79  C   UNL A   1      34.285  25.219  24.800  1.00  0.00     0.055 A 
ATOM     80  C   UNL A   1      33.522  25.053  23.672  1.00  0.00     0.041 A 
ATOM     81  Br  UNL A   1      32.018  26.123  23.297  1.00  0.00    -0.049 Br
BRANCH  79  82
ATOM     82  N   UNL A   1      33.918  26.005  25.896  1.00  0.00    -0.331 N 
ATOM     83  H   UNL A   1      34.674  26.347  26.425  1.00  0.00     0.169 HD
BRANCH  82  84
ATOM     84  C   UNL A   1      32.696  26.377  26.355  1.00  0.00     0.177 C 
ATOM     85  S   UNL A   1      32.403  28.030  26.444  1.00  0.00    -0.040 S 
BRANCH  84  86
ATOM     86  N   UNL A   1      31.624  25.539  26.673  1.00  0.00    -0.299 N 
ATOM     87  C   UNL A   1      30.975  24.261  26.639  1.00  0.00     0.257 C 
ATOM     88  H   UNL A   1      31.001  26.118  27.171  1.00  0.00     0.172 HD
ATOM     89  O   UNL A   1      29.775  24.212  26.899  1.00  0.00    -0.269 OA
BRANCH  87  90
ATOM     90  C   UNL A   1      31.673  23.006  26.312  1.00  0.00     0.040 A 
ATOM     91  C   UNL A   1      32.986  22.363  27.418  1.00  0.00     0.017 A 
ATOM     92  C   UNL A   1      31.391  22.222  24.695  1.00  0.00     0.017 A 
ATOM     93  C   UNL A   1      34.129  21.089  26.812  1.00  0.00     0.040 A 
ATOM     94  C   UNL A   1      32.363  20.774  24.197  1.00  0.00     0.040 A 
ATOM     95  C   UNL A   1      33.779  20.238  25.224  1.00  0.00     0.123 A 
ATOM     96  F   UNL A   1      34.582  19.257  24.790  1.00  0.00    -0.207 F 
ENDBRANCH  87  90
ENDBRANCH  84  86
ENDBRANCH  82  84
ENDBRANCH  79  82
ENDBRANCH  72  75
ENDBRANCH  70  71
ENDBRANCH   1  70
TORSDOF 18
ENDMDL
MODEL 3
REMARK VINA RESULT:     -11.6      6.240      8.732
REMARK SMILES O=C(NCCCCNC(=O)c1ccc(Br)c(NC(=S)NC(=O)c2ccc(F)cc2)c1)c1ccc(-c2c3nc(c(-c4ccc(S(=O)(=O)[O-])cc4)c4ccc([nH]4)c(-c4ccc(S(=O)(=O)[O-])cc4)c4nc(c(-c5ccc(S(=O)(=O)[O-])cc5)c5ccc2[nH]5)C=C4)C=C3)cc1
REMARK SMILES IDX 6 1 5 2 4 3 3 4 1 5 2 6 31 8 32 9 90 10 33 11 89 12 34 13
REMARK SMILES IDX 35 14 36 15 83 16 37 17 88 18 82 19 84 20 38 21 87 22 81 23
REMARK SMILES IDX 80 24 39 26 69 27 50 28 68 29 51 30 54 31 67 32 85 33 52 34
REMARK SMILES IDX 53 35 66 37 86 38 55 39 40 40 41 41 49 42 42 43 48 44 43 45
REMARK SMILES IDX 44 46 45 47 46 48 47 49 70 50 71 51 79 52 72 53 78 54 73 55
REMARK SMILES IDX 74 56 75 57 76 58 77 59 56 60 57 61 65 62 58 63 64 64 59 65
REMARK SMILES IDX 60 66 61 67 62 68 63 69 7 70 8 71 9 72 10 74 11 75 12 76
REMARK SMILES IDX 30 77 13 78 16 79 14 80 15 81 17 82 18 84 19 85 20 86 21 87
REMARK SMILES IDX 22 89 23 90 24 91 29 92 25 93 28 94 26 95 27 96
REMARK H PARENT 3 7 84 25 54 36 8 73 17 83 20 88
REMARK Flexibility Score: inf
ROOT
ATOM      1  C   UNL A   1      35.056  32.525  28.428  1.00  0.00     0.023 C 
ENDROOT
BRANCH   1   2
ATOM      2  C   UNL A   1      33.854  33.436  28.205  1.00  0.00     0.023 C 
BRANCH   2   3
ATOM      3  C   UNL A   1      34.091  34.879  28.622  1.00  0.00     0.116 C 
BRANCH   3   4
ATOM      4  N   UNL A   1      33.131  35.345  29.619  1.00  0.00    -0.352 N 
ATOM      5  O   UNL A   1      32.203  35.490  31.674  1.00  0.00    -0.269 OA
ATOM      6  C   UNL A   1      33.146  35.143  30.974  1.00  0.00     0.251 C 
ATOM      7  H   UNL A   1      32.376  35.873  29.273  1.00  0.00     0.163 HD
BRANCH   6   8
ATOM      8  C   UNL A   1      34.320  34.472  31.550  1.00  0.00     0.039 A 
ATOM      9  C   UNL A   1      35.559  35.117  31.510  1.00  0.00     0.014 A 
ATOM     10  C   UNL A   1      34.193  33.176  32.046  1.00  0.00     0.014 A 
ATOM     11  C   UNL A   1      36.700  34.410  31.845  1.00  0.00     0.010 A 
ATOM     12  C   UNL A   1      35.333  32.504  32.483  1.00  0.00     0.010 A 
ATOM     13  C   UNL A   1      36.593  33.113  32.372  1.00  0.00    -0.014 A 
BRANCH  13  14
ATOM     14  C   UNL A   1      37.806  32.472  32.924  1.00  0.00     0.031 A 
ATOM     15  C   UNL A   1      38.528  31.387  32.183  1.00  0.00     0.074 A 
ATOM     16  C   UNL A   1      38.244  32.911  34.121  1.00  0.00     0.049 A 
ATOM     17  N   UNL A   1      39.596  30.727  32.547  1.00  0.00    -0.248 NA
ATOM     18  C   UNL A   1      37.988  30.983  30.874  1.00  0.00     0.031 C 
ATOM     19  C   UNL A   1      37.598  33.958  34.924  1.00  0.00     0.029 A 
ATOM     20  N   UNL A   1      39.333  32.553  34.867  1.00  0.00    -0.354 N 
ATOM     21  C   UNL A   1      39.843  29.813  31.531  1.00  0.00     0.074 A 
ATOM     22  C   UNL A   1      38.808  29.994  30.538  1.00  0.00     0.031 C 
ATOM     23  C   UNL A   1      38.330  34.189  36.020  1.00  0.00     0.029 A 
ATOM     24  C   UNL A   1      39.444  33.253  36.044  1.00  0.00     0.049 A 
ATOM     25  H   UNL A   1      39.976  31.861  34.587  1.00  0.00     0.167 HD
ATOM     26  C   UNL A   1      40.845  28.906  31.448  1.00  0.00     0.031 A 
ATOM     27  C   UNL A   1      40.323  33.132  37.053  1.00  0.00     0.031 A 
ATOM     28  C   UNL A   1      41.870  28.748  32.450  1.00  0.00     0.049 A 
ATOM     29  C   UNL A   1      41.398  32.093  36.941  1.00  0.00     0.074 A 
ATOM     30  C   UNL A   1      42.956  27.890  32.436  1.00  0.00     0.029 A 
ATOM     31  N   UNL A   1      41.933  29.453  33.643  1.00  0.00    -0.354 N 
ATOM     32  N   UNL A   1      41.645  31.270  35.949  1.00  0.00    -0.248 NA
ATOM     33  C   UNL A   1      42.310  31.962  38.083  1.00  0.00     0.031 C 
ATOM     34  C   UNL A   1      43.637  28.028  33.649  1.00  0.00     0.029 A 
ATOM     35  C   UNL A   1      43.017  29.022  34.390  1.00  0.00     0.049 A 
ATOM     36  H   UNL A   1      41.300  30.155  33.917  1.00  0.00     0.167 HD
ATOM     37  C   UNL A   1      42.752  30.532  36.342  1.00  0.00     0.074 A 
ATOM     38  C   UNL A   1      43.144  31.029  37.647  1.00  0.00     0.031 C 
ATOM     39  C   UNL A   1      43.385  29.529  35.688  1.00  0.00     0.031 A 
BRANCH  26  40
ATOM     40  C   UNL A   1      40.883  27.986  30.256  1.00  0.00    -0.014 A 
ATOM     41  C   UNL A   1      39.828  27.098  29.981  1.00  0.00     0.010 A 
ATOM     42  C   UNL A   1      41.944  28.091  29.336  1.00  0.00     0.010 A 
ATOM     43  C   UNL A   1      39.836  26.330  28.812  1.00  0.00     0.020 A 
ATOM     44  C   UNL A   1      41.945  27.342  28.156  1.00  0.00     0.020 A 
ATOM     45  C   UNL A   1      40.893  26.462  27.904  1.00  0.00     0.054 A 
BRANCH  45  46
ATOM     46  S   UNL A   1      40.840  25.505  26.362  1.00  0.00     0.124 S 
ATOM     47  O   UNL A   1      41.843  24.474  26.612  1.00  0.00    -0.237 OA
ATOM     48  O   UNL A   1      39.456  25.039  26.324  1.00  0.00    -0.237 OA
ATOM     49  O   UNL A   1      41.194  26.481  25.334  1.00  0.00    -0.744 OA
ENDBRANCH  45  46
ENDBRANCH  26  40
BRANCH  27  50
ATOM     50  C   UNL A   1      40.182  33.976  38.269  1.00  0.00    -0.014 A 
ATOM     51  C   UNL A   1      40.828  35.220  38.362  1.00  0.00     0.010 A 
ATOM     52  C   UNL A   1      39.394  33.532  39.348  1.00  0.00     0.010 A 
ATOM     53  C   UNL A   1      40.720  35.986  39.525  1.00  0.00     0.020 A 
ATOM     54  C   UNL A   1      39.254  34.310  40.497  1.00  0.00     0.020 A 
ATOM     55  C   UNL A   1      39.937  35.523  40.588  1.00  0.00     0.054 A 
BRANCH  55  56
ATOM     56  S   UNL A   1      39.805  36.535  42.086  1.00  0.00     0.124 S 
ATOM     57  O   UNL A   1      38.701  35.890  42.789  1.00  0.00    -0.237 OA
ATOM     58  O   UNL A   1      41.124  36.376  42.693  1.00  0.00    -0.237 OA
ATOM     59  O   UNL A   1      39.522  37.873  41.570  1.00  0.00    -0.744 OA
ENDBRANCH  55  56
ENDBRANCH  27  50
BRANCH  39  60
ATOM     60  C   UNL A   1      44.582  28.922  36.366  1.00  0.00    -0.014 A 
ATOM     61  C   UNL A   1      44.445  27.836  37.248  1.00  0.00     0.010 A 
ATOM     62  C   UNL A   1      45.866  29.429  36.093  1.00  0.00     0.010 A 
ATOM     63  C   UNL A   1      45.567  27.289  37.873  1.00  0.00     0.020 A 
ATOM     64  C   UNL A   1      46.993  28.863  36.691  1.00  0.00     0.020 A 
ATOM     65  C   UNL A   1      46.835  27.807  37.589  1.00  0.00     0.054 A 
BRANCH  65  66
ATOM     66  S   UNL A   1      48.280  27.055  38.385  1.00  0.00     0.124 S 
ATOM     67  O   UNL A   1      49.361  27.932  37.942  1.00  0.00    -0.237 OA
ATOM     68  O   UNL A   1      47.945  27.140  39.804  1.00  0.00    -0.237 OA
ATOM     69  O   UNL A   1      48.312  25.701  37.838  1.00  0.00    -0.744 OA
ENDBRANCH  65  66
ENDBRANCH  39  60
ENDBRANCH  13  14
ENDBRANCH   6   8
ENDBRANCH   3   4
ENDBRANCH   2   3
ENDBRANCH   1   2
BRANCH   1  70
ATOM     70  C   UNL A   1      34.935  31.171  27.724  1.00  0.00     0.116 C 
BRANCH  70  71
ATOM     71  N   UNL A   1      33.510  30.844  27.504  1.00  0.00    -0.352 N 
ATOM     72  C   UNL A   1      32.549  30.308  26.481  1.00  0.00     0.251 C 
ATOM     73  H   UNL A   1      33.009  31.054  28.325  1.00  0.00     0.163 HD
ATOM     74  O   UNL A   1      31.572  30.829  27.129  1.00  0.00    -0.269 OA
BRANCH  72  75
ATOM     75  C   UNL A   1      32.680  29.128  24.697  1.00  0.00     0.041 A 
ATOM     76  C   UNL A   1      33.863  28.558  23.919  1.00  0.00     0.015 A 
ATOM     77  C   UNL A   1      31.579  28.545  23.897  1.00  0.00     0.041 A 
ATOM     78  C   UNL A   1      33.864  27.589  22.875  1.00  0.00     0.018 A 
ATOM     79  C   UNL A   1      31.551  27.363  23.178  1.00  0.00     0.055 A 
ATOM     80  C   UNL A   1      32.695  26.942  22.548  1.00  0.00     0.041 A 
ATOM     81  Br  UNL A   1      32.705  25.536  21.294  1.00  0.00    -0.049 Br
BRANCH  79  82
ATOM     82  N   UNL A   1      30.337  26.672  23.158  1.00  0.00    -0.331 N 
ATOM     83  H   UNL A   1      30.037  26.398  22.261  1.00  0.00     0.169 HD
BRANCH  82  84
ATOM     84  C   UNL A   1      29.500  26.313  24.164  1.00  0.00     0.177 C 
ATOM     85  S   UNL A   1      27.877  26.697  23.960  1.00  0.00    -0.040 S 
BRANCH  84  86
ATOM     86  N   UNL A   1      29.824  25.576  25.307  1.00  0.00    -0.299 N 
ATOM     87  C   UNL A   1      30.604  24.580  25.980  1.00  0.00     0.257 C 
ATOM     88  H   UNL A   1      29.205  25.911  25.997  1.00  0.00     0.172 HD
ATOM     89  O   UNL A   1      30.187  24.140  27.050  1.00  0.00    -0.269 OA
BRANCH  87  90
ATOM     90  C   UNL A   1      31.878  24.058  25.458  1.00  0.00     0.040 A 
ATOM     91  C   UNL A   1      33.450  24.934  25.810  1.00  0.00     0.017 A 
ATOM     92  C   UNL A   1      31.861  22.677  24.274  1.00  0.00     0.017 A 
ATOM     93  C   UNL A   1      34.929  24.560  24.827  1.00  0.00     0.040 A 
ATOM     94  C   UNL A   1      33.399  22.129  23.483  1.00  0.00     0.040 A 
ATOM     95  C   UNL A   1      34.929  23.106  23.707  1.00  0.00     0.123 A 
ATOM     96  F   UNL A   1      36.031  22.782  23.016  1.00  0.00    -0.207 F 
ENDBRANCH  87  90
ENDBRANCH  84  86
ENDBRANCH  82  84
ENDBRANCH  79  82
ENDBRANCH  72  75
ENDBRANCH  70  71
ENDBRANCH   1  70
TORSDOF 18
ENDMDL
