MODEL 1
REMARK VINA RESULT:     -10.8      0.000      0.000
REMARK SMILES Cc1[nH]ncc1S(=O)(=O)NC[C@@H]1CC[C@@H](C(=O)NCCCCNC(=O)c2ccc(-c3c4nc(c(-c5ccc(S(=O)(=O)[O-])cc5)c5ccc([nH]5)c(-c5ccc(S(=O)(=O)[O-])cc5)c5nc(c(-c6ccc(S(=O)(=O)[O-])cc6)c6ccc3[nH]6)C=C5)C=C4)cc2)O1
REMARK SMILES IDX 20 1 19 2 18 3 16 4 17 5 15 7 12 8 13 9 86 10 14 11 11 12
REMARK SMILES IDX 10 13 7 15 8 16 9 17 6 18 1 19 2 20 3 21 4 22 5 24 21 25
REMARK SMILES IDX 22 26 23 27 24 28 25 30 26 31 27 32 85 33 28 34 84 35 29 36
REMARK SMILES IDX 30 37 31 38 78 39 32 40 83 41 77 42 79 43 33 44 82 45 76 46
REMARK SMILES IDX 75 47 34 49 64 50 45 51 63 52 46 53 49 54 62 55 80 56 47 57
REMARK SMILES IDX 48 58 61 60 81 61 50 62 35 63 36 64 44 65 37 66 43 67 38 68
REMARK SMILES IDX 39 69 40 70 41 71 42 72 65 73 66 74 74 75 67 76 73 77 68 78
REMARK SMILES IDX 69 79 70 80 71 81 72 82 51 83 52 84 60 85 53 86 59 87 54 88
REMARK SMILES IDX 55 89 56 90 57 91 58 92
REMARK H PARENT 18 6 10 14 3 23 23 29 79 48 49 59
REMARK Flexibility Score: inf
ROOT
ATOM      1  C   UNL A   1      31.472  28.605  25.861  1.00  0.00     0.023 C 
ENDROOT
BRANCH   1   2
ATOM      2  C   UNL A   1      31.068  27.502  24.882  1.00  0.00     0.116 C 
BRANCH   2   3
ATOM      3  N   UNL A   1      31.943  27.484  23.725  1.00  0.00    -0.354 N 
ATOM      4  C   UNL A   1      32.961  26.615  23.439  1.00  0.00     0.249 C 
ATOM      5  O   UNL A   1      33.660  26.829  22.446  1.00  0.00    -0.272 OA
ATOM      6  H   UNL A   1      31.783  28.191  23.056  1.00  0.00     0.163 HD
BRANCH   4   7
ATOM      7  C   UNL A   1      33.159  25.387  24.329  1.00  0.00     0.207 C 
ATOM      8  C   UNL A   1      34.790  23.732  24.205  1.00  0.00     0.134 C 
ATOM      9  C   UNL A   1      34.686  24.186  25.648  1.00  0.00     0.037 C 
ATOM     10  O   UNL A   1      33.671  24.305  23.522  1.00  0.00    -0.364 OA
ATOM     11  C   UNL A   1      34.162  25.591  25.456  1.00  0.00     0.045 C 
BRANCH   8  12
ATOM     12  C   UNL A   1      34.879  22.229  23.963  1.00  0.00     0.131 C 
BRANCH  12  13
ATOM     13  N   UNL A   1      34.081  21.370  24.859  1.00  0.00    -0.208 NA
ATOM     14  H   UNL A   1      34.672  20.573  25.097  1.00  0.00     0.141 HD
BRANCH  13  15
ATOM     15  S   UNL A   1      32.596  20.733  24.377  1.00  0.00     0.244 S 
ATOM     16  O   UNL A   1      32.371  21.074  22.992  1.00  0.00    -0.207 OA
ATOM     17  O   UNL A   1      31.647  21.145  25.389  1.00  0.00    -0.207 OA
BRANCH  15  18
ATOM     18  C   UNL A   1      32.572  19.024  24.459  1.00  0.00     0.122 A 
ATOM     19  C   UNL A   1      32.306  18.208  21.976  1.00  0.00     0.067 C 
ATOM     20  C   UNL A   1      32.467  18.093  23.441  1.00  0.00     0.052 A 
ATOM     21  N   UNL A   1      32.548  16.877  24.067  1.00  0.00    -0.281 N 
ATOM     22  N   UNL A   1      32.711  16.960  25.397  1.00  0.00    -0.183 NA
ATOM     23  H   UNL A   1      32.492  16.020  23.585  1.00  0.00     0.190 HD
ATOM     24  C   UNL A   1      32.728  18.275  25.635  1.00  0.00     0.157 A 
ENDBRANCH  15  18
ENDBRANCH  13  15
ENDBRANCH  12  13
ENDBRANCH   8  12
ENDBRANCH   4   7
ENDBRANCH   2   3
ENDBRANCH   1   2
BRANCH   1  25
ATOM     25  C   UNL A   1      32.108  28.092  27.159  1.00  0.00     0.023 C 
BRANCH  25  26
ATOM     26  C   UNL A   1      33.522  28.596  27.434  1.00  0.00     0.116 C 
BRANCH  26  27
ATOM     27  N   UNL A   1      33.610  30.048  27.476  1.00  0.00    -0.352 N 
ATOM     28  C   UNL A   1      34.667  30.828  27.884  1.00  0.00     0.251 C 
ATOM     29  H   UNL A   1      32.809  30.534  27.175  1.00  0.00     0.163 HD
ATOM     30  O   UNL A   1      34.537  32.044  27.981  1.00  0.00    -0.269 OA
BRANCH  28  31
ATOM     31  C   UNL A   1      35.950  30.184  28.240  1.00  0.00     0.039 A 
ATOM     32  C   UNL A   1      36.973  30.144  27.290  1.00  0.00     0.014 A 
ATOM     33  C   UNL A   1      36.151  29.652  29.516  1.00  0.00     0.014 A 
ATOM     34  C   UNL A   1      38.226  29.637  27.643  1.00  0.00     0.010 A 
ATOM     35  C   UNL A   1      37.416  29.200  29.884  1.00  0.00     0.010 A 
ATOM     36  C   UNL A   1      38.467  29.195  28.954  1.00  0.00    -0.014 A 
BRANCH  36  37
ATOM     37  C   UNL A   1      39.813  28.740  29.384  1.00  0.00     0.031 A 
ATOM     38  C   UNL A   1      40.725  29.678  30.125  1.00  0.00     0.074 A 
ATOM     39  C   UNL A   1      40.248  27.514  29.030  1.00  0.00     0.049 A 
ATOM     40  N   UNL A   1      41.972  29.507  30.481  1.00  0.00    -0.248 NA
ATOM     41  C   UNL A   1      40.169  30.991  30.492  1.00  0.00     0.031 C 
ATOM     42  C   UNL A   1      39.474  26.521  28.281  1.00  0.00     0.029 A 
ATOM     43  N   UNL A   1      41.457  26.900  29.241  1.00  0.00    -0.354 N 
ATOM     44  C   UNL A   1      42.358  30.695  31.089  1.00  0.00     0.074 A 
ATOM     45  C   UNL A   1      41.223  31.591  31.024  1.00  0.00     0.031 C 
ATOM     46  C   UNL A   1      40.223  25.421  28.106  1.00  0.00     0.029 A 
ATOM     47  C   UNL A   1      41.540  25.641  28.694  1.00  0.00     0.049 A 
ATOM     48  H   UNL A   1      42.196  27.322  29.737  1.00  0.00     0.167 HD
ATOM     49  C   UNL A   1      43.546  31.009  31.658  1.00  0.00     0.031 A 
ATOM     50  C   UNL A   1      42.564  24.767  28.657  1.00  0.00     0.031 A 
ATOM     51  C   UNL A   1      44.666  30.112  31.740  1.00  0.00     0.049 A 
ATOM     52  C   UNL A   1      43.872  25.135  29.302  1.00  0.00     0.074 A 
ATOM     53  C   UNL A   1      45.894  30.319  32.346  1.00  0.00     0.029 A 
ATOM     54  N   UNL A   1      44.698  28.836  31.199  1.00  0.00    -0.354 N 
ATOM     55  N   UNL A   1      44.201  26.246  29.916  1.00  0.00    -0.248 NA
ATOM     56  C   UNL A   1      44.944  24.130  29.254  1.00  0.00     0.031 C 
ATOM     57  C   UNL A   1      46.680  29.180  32.141  1.00  0.00     0.029 A 
ATOM     58  C   UNL A   1      45.928  28.249  31.444  1.00  0.00     0.049 A 
ATOM     59  H   UNL A   1      43.957  28.410  30.711  1.00  0.00     0.167 HD
ATOM     60  C   UNL A   1      45.510  26.065  30.349  1.00  0.00     0.074 A 
ATOM     61  C   UNL A   1      45.909  24.734  29.935  1.00  0.00     0.031 C 
ATOM     62  C   UNL A   1      46.307  26.922  31.031  1.00  0.00     0.031 A 
BRANCH  49  63
ATOM     63  C   UNL A   1      43.691  32.390  32.237  1.00  0.00    -0.014 A 
ATOM     64  C   UNL A   1      43.346  32.655  33.574  1.00  0.00     0.010 A 
ATOM     65  C   UNL A   1      44.205  33.430  31.442  1.00  0.00     0.010 A 
ATOM     66  C   UNL A   1      43.471  33.947  34.094  1.00  0.00     0.020 A 
ATOM     67  C   UNL A   1      44.354  34.718  31.964  1.00  0.00     0.020 A 
ATOM     68  C   UNL A   1      43.967  34.972  33.282  1.00  0.00     0.054 A 
BRANCH  68  69
ATOM     69  S   UNL A   1      44.131  36.636  33.983  1.00  0.00     0.124 S 
ATOM     70  O   UNL A   1      42.950  37.306  33.443  1.00  0.00    -0.237 OA
ATOM     71  O   UNL A   1      44.106  36.386  35.421  1.00  0.00    -0.237 OA
ATOM     72  O   UNL A   1      45.410  37.108  33.458  1.00  0.00    -0.744 OA
ENDBRANCH  68  69
ENDBRANCH  49  63
BRANCH  50  73
ATOM     73  C   UNL A   1      42.388  23.448  27.993  1.00  0.00    -0.014 A 
ATOM     74  C   UNL A   1      42.751  23.279  26.645  1.00  0.00     0.010 A 
ATOM     75  C   UNL A   1      41.877  22.350  28.708  1.00  0.00     0.010 A 
ATOM     76  C   UNL A   1      42.593  22.038  26.020  1.00  0.00     0.020 A 
ATOM     77  C   UNL A   1      41.739  21.103  28.093  1.00  0.00     0.020 A 
ATOM     78  C   UNL A   1      42.088  20.958  26.749  1.00  0.00     0.054 A 
BRANCH  78  79
ATOM     79  S   UNL A   1      41.946  19.341  25.936  1.00  0.00     0.124 S 
ATOM     80  O   UNL A   1      42.438  18.437  26.971  1.00  0.00    -0.237 OA
ATOM     81  O   UNL A   1      40.517  19.255  25.647  1.00  0.00    -0.237 OA
ATOM     82  O   UNL A   1      42.803  19.475  24.760  1.00  0.00    -0.744 OA
ENDBRANCH  78  79
ENDBRANCH  50  73
BRANCH  62  83
ATOM     83  C   UNL A   1      47.682  26.441  31.407  1.00  0.00    -0.014 A 
ATOM     84  C   UNL A   1      47.920  25.817  32.643  1.00  0.00     0.010 A 
ATOM     85  C   UNL A   1      48.733  26.556  30.480  1.00  0.00     0.010 A 
ATOM     86  C   UNL A   1      49.192  25.329  32.953  1.00  0.00     0.020 A 
ATOM     87  C   UNL A   1      50.001  26.052  30.777  1.00  0.00     0.020 A 
ATOM     88  C   UNL A   1      50.226  25.450  32.017  1.00  0.00     0.054 A 
BRANCH  88  89
ATOM     89  S   UNL A   1      51.853  24.754  32.415  1.00  0.00     0.124 S 
ATOM     90  O   UNL A   1      52.715  25.426  31.447  1.00  0.00    -0.237 OA
ATOM     91  O   UNL A   1      52.043  25.152  33.807  1.00  0.00    -0.237 OA
ATOM     92  O   UNL A   1      51.677  23.320  32.201  1.00  0.00    -0.744 OA
ENDBRANCH  88  89
ENDBRANCH  62  83
ENDBRANCH  36  37
ENDBRANCH  28  31
ENDBRANCH  26  27
ENDBRANCH  25  26
ENDBRANCH   1  25
TORSDOF 18
ENDMDL
MODEL 2
REMARK VINA RESULT:     -10.5      3.550      9.752
REMARK SMILES Cc1[nH]ncc1S(=O)(=O)NC[C@@H]1CC[C@@H](C(=O)NCCCCNC(=O)c2ccc(-c3c4nc(c(-c5ccc(S(=O)(=O)[O-])cc5)c5ccc([nH]5)c(-c5ccc(S(=O)(=O)[O-])cc5)c5nc(c(-c6ccc(S(=O)(=O)[O-])cc6)c6ccc3[nH]6)C=C5)C=C4)cc2)O1
REMARK SMILES IDX 20 1 19 2 18 3 16 4 17 5 15 7 12 8 13 9 86 10 14 11 11 12
REMARK SMILES IDX 10 13 7 15 8 16 9 17 6 18 1 19 2 20 3 21 4 22 5 24 21 25
REMARK SMILES IDX 22 26 23 27 24 28 25 30 26 31 27 32 85 33 28 34 84 35 29 36
REMARK SMILES IDX 30 37 31 38 78 39 32 40 83 41 77 42 79 43 33 44 82 45 76 46
REMARK SMILES IDX 75 47 34 49 64 50 45 51 63 52 46 53 49 54 62 55 80 56 47 57
REMARK SMILES IDX 48 58 61 60 81 61 50 62 35 63 36 64 44 65 37 66 43 67 38 68
REMARK SMILES IDX 39 69 40 70 41 71 42 72 65 73 66 74 74 75 67 76 73 77 68 78
REMARK SMILES IDX 69 79 70 80 71 81 72 82 51 83 52 84 60 85 53 86 59 87 54 88
REMARK SMILES IDX 55 89 56 90 57 91 58 92
REMARK H PARENT 18 6 10 14 3 23 23 29 79 48 49 59
REMARK Flexibility Score: inf
ROOT
ATOM      1  C   UNL A   1      37.473  20.868  24.605  1.00  0.00     0.023 C 
ENDROOT
BRANCH   1   2
ATOM      2  C   UNL A   1      36.266  21.072  25.522  1.00  0.00     0.116 C 
BRANCH   2   3
ATOM      3  N   UNL A   1      35.148  20.244  25.106  1.00  0.00    -0.354 N 
ATOM      4  C   UNL A   1      33.834  20.597  24.962  1.00  0.00     0.249 C 
ATOM      5  O   UNL A   1      33.012  19.718  24.694  1.00  0.00    -0.272 OA
ATOM      6  H   UNL A   1      35.365  19.305  24.900  1.00  0.00     0.163 HD
BRANCH   4   7
ATOM      7  C   UNL A   1      33.444  22.071  25.085  1.00  0.00     0.207 C 
ATOM      8  C   UNL A   1      31.416  23.099  24.587  1.00  0.00     0.134 C 
ATOM      9  C   UNL A   1      31.871  23.585  25.950  1.00  0.00     0.037 C 
ATOM     10  O   UNL A   1      32.528  22.401  24.018  1.00  0.00    -0.364 OA
ATOM     11  C   UNL A   1      32.730  22.418  26.384  1.00  0.00     0.045 C 
BRANCH   8  12
ATOM     12  C   UNL A   1      30.873  24.153  23.629  1.00  0.00     0.131 C 
BRANCH  12  13
ATOM     13  N   UNL A   1      31.636  24.365  22.382  1.00  0.00    -0.208 NA
ATOM     14  H   UNL A   1      32.149  23.501  22.208  1.00  0.00     0.141 HD
BRANCH  13  15
ATOM     15  S   UNL A   1      32.754  25.619  22.237  1.00  0.00     0.244 S 
ATOM     16  O   UNL A   1      33.278  25.623  20.891  1.00  0.00    -0.207 OA
ATOM     17  O   UNL A   1      33.651  25.476  23.365  1.00  0.00    -0.207 OA
BRANCH  15  18
ATOM     18  C   UNL A   1      32.034  27.153  22.475  1.00  0.00     0.122 A 
ATOM     19  C   UNL A   1      34.032  28.808  22.891  1.00  0.00     0.067 C 
ATOM     20  C   UNL A   1      32.628  28.380  22.716  1.00  0.00     0.052 A 
ATOM     21  N   UNL A   1      31.587  29.269  22.777  1.00  0.00    -0.281 N 
ATOM     22  N   UNL A   1      30.382  28.710  22.578  1.00  0.00    -0.183 NA
ATOM     23  H   UNL A   1      31.711  30.230  22.950  1.00  0.00     0.190 HD
ATOM     24  C   UNL A   1      30.658  27.415  22.391  1.00  0.00     0.157 A 
ENDBRANCH  15  18
ENDBRANCH  13  15
ENDBRANCH  12  13
ENDBRANCH   8  12
ENDBRANCH   4   7
ENDBRANCH   2   3
ENDBRANCH   1   2
BRANCH   1  25
ATOM     25  C   UNL A   1      38.417  19.744  25.049  1.00  0.00     0.023 C 
BRANCH  25  26
ATOM     26  C   UNL A   1      39.432  20.133  26.120  1.00  0.00     0.116 C 
BRANCH  26  27
ATOM     27  N   UNL A   1      40.631  19.308  26.093  1.00  0.00    -0.352 N 
ATOM     28  C   UNL A   1      41.944  19.706  26.184  1.00  0.00     0.251 C 
ATOM     29  H   UNL A   1      40.482  18.340  25.995  1.00  0.00     0.163 HD
ATOM     30  O   UNL A   1      42.850  18.896  26.015  1.00  0.00    -0.269 OA
BRANCH  28  31
ATOM     31  C   UNL A   1      42.255  21.127  26.451  1.00  0.00     0.039 A 
ATOM     32  C   UNL A   1      42.540  21.522  27.760  1.00  0.00     0.014 A 
ATOM     33  C   UNL A   1      42.295  22.056  25.408  1.00  0.00     0.014 A 
ATOM     34  C   UNL A   1      42.940  22.837  28.015  1.00  0.00     0.010 A 
ATOM     35  C   UNL A   1      42.749  23.350  25.654  1.00  0.00     0.010 A 
ATOM     36  C   UNL A   1      43.084  23.750  26.958  1.00  0.00    -0.014 A 
BRANCH  36  37
ATOM     37  C   UNL A   1      43.597  25.124  27.184  1.00  0.00     0.031 A 
ATOM     38  C   UNL A   1      45.057  25.426  26.984  1.00  0.00     0.074 A 
ATOM     39  C   UNL A   1      42.768  26.079  27.654  1.00  0.00     0.049 A 
ATOM     40  N   UNL A   1      45.714  26.527  27.241  1.00  0.00    -0.248 NA
ATOM     41  C   UNL A   1      45.891  24.338  26.449  1.00  0.00     0.031 C 
ATOM     42  C   UNL A   1      41.339  25.905  27.923  1.00  0.00     0.029 A 
ATOM     43  N   UNL A   1      43.015  27.382  28.006  1.00  0.00    -0.354 N 
ATOM     44  C   UNL A   1      47.039  26.258  26.925  1.00  0.00     0.074 A 
ATOM     45  C   UNL A   1      47.099  24.880  26.489  1.00  0.00     0.031 C 
ATOM     46  C   UNL A   1      40.835  27.060  28.385  1.00  0.00     0.029 A 
ATOM     47  C   UNL A   1      41.908  28.044  28.483  1.00  0.00     0.049 A 
ATOM     48  H   UNL A   1      43.901  27.803  27.924  1.00  0.00     0.167 HD
ATOM     49  C   UNL A   1      48.110  27.087  26.983  1.00  0.00     0.031 A 
ATOM     50  C   UNL A   1      41.774  29.297  28.958  1.00  0.00     0.031 A 
ATOM     51  C   UNL A   1      48.047  28.462  27.398  1.00  0.00     0.049 A 
ATOM     52  C   UNL A   1      42.975  30.200  29.007  1.00  0.00     0.074 A 
ATOM     53  C   UNL A   1      49.067  29.397  27.437  1.00  0.00     0.029 A 
ATOM     54  N   UNL A   1      46.901  29.101  27.845  1.00  0.00    -0.354 N 
ATOM     55  N   UNL A   1      44.212  29.943  28.656  1.00  0.00    -0.248 NA
ATOM     56  C   UNL A   1      42.761  31.565  29.510  1.00  0.00     0.031 C 
ATOM     57  C   UNL A   1      48.544  30.593  27.942  1.00  0.00     0.029 A 
ATOM     58  C   UNL A   1      47.191  30.414  28.176  1.00  0.00     0.049 A 
ATOM     59  H   UNL A   1      46.012  28.684  27.918  1.00  0.00     0.167 HD
ATOM     60  C   UNL A   1      44.919  31.120  28.872  1.00  0.00     0.074 A 
ATOM     61  C   UNL A   1      43.971  32.093  29.376  1.00  0.00     0.031 C 
ATOM     62  C   UNL A   1      46.234  31.372  28.669  1.00  0.00     0.031 A 
BRANCH  49  63
ATOM     63  C   UNL A   1      49.446  26.518  26.588  1.00  0.00    -0.014 A 
ATOM     64  C   UNL A   1      49.914  26.619  25.266  1.00  0.00     0.010 A 
ATOM     65  C   UNL A   1      50.256  25.900  27.557  1.00  0.00     0.010 A 
ATOM     66  C   UNL A   1      51.149  26.072  24.909  1.00  0.00     0.020 A 
ATOM     67  C   UNL A   1      51.502  25.372  27.211  1.00  0.00     0.020 A 
ATOM     68  C   UNL A   1      51.932  25.445  25.884  1.00  0.00     0.054 A 
BRANCH  68  69
ATOM     69  S   UNL A   1      53.538  24.753  25.399  1.00  0.00     0.124 S 
ATOM     70  O   UNL A   1      53.170  23.398  24.995  1.00  0.00    -0.237 OA
ATOM     71  O   UNL A   1      53.958  25.639  24.316  1.00  0.00    -0.237 OA
ATOM     72  O   UNL A   1      54.336  24.845  26.619  1.00  0.00    -0.744 OA
ENDBRANCH  68  69
ENDBRANCH  49  63
BRANCH  50  73
ATOM     73  C   UNL A   1      40.443  29.775  29.417  1.00  0.00    -0.014 A 
ATOM     74  C   UNL A   1      40.170  29.906  30.790  1.00  0.00     0.010 A 
ATOM     75  C   UNL A   1      39.448  30.122  28.486  1.00  0.00     0.010 A 
ATOM     76  C   UNL A   1      38.922  30.362  31.225  1.00  0.00     0.020 A 
ATOM     77  C   UNL A   1      38.207  30.600  28.915  1.00  0.00     0.020 A 
ATOM     78  C   UNL A   1      37.948  30.707  30.283  1.00  0.00     0.054 A 
BRANCH  78  79
ATOM     79  S   UNL A   1      36.355  31.353  30.865  1.00  0.00     0.124 S 
ATOM     80  O   UNL A   1      35.900  30.286  31.750  1.00  0.00    -0.237 OA
ATOM     81  O   UNL A   1      36.739  32.599  31.523  1.00  0.00    -0.237 OA
ATOM     82  O   UNL A   1      35.586  31.520  29.634  1.00  0.00    -0.744 OA
ENDBRANCH  78  79
ENDBRANCH  50  73
BRANCH  62  83
ATOM     83  C   UNL A   1      46.727  32.764  28.956  1.00  0.00    -0.014 A 
ATOM     84  C   UNL A   1      46.543  33.804  28.031  1.00  0.00     0.010 A 
ATOM     85  C   UNL A   1      47.321  33.045  30.200  1.00  0.00     0.010 A 
ATOM     86  C   UNL A   1      46.960  35.103  28.337  1.00  0.00     0.020 A 
ATOM     87  C   UNL A   1      47.721  34.345  30.518  1.00  0.00     0.020 A 
ATOM     88  C   UNL A   1      47.546  35.365  29.580  1.00  0.00     0.054 A 
BRANCH  88  89
ATOM     89  S   UNL A   1      48.023  37.068  29.981  1.00  0.00     0.124 S 
ATOM     90  O   UNL A   1      49.400  37.119  29.499  1.00  0.00    -0.237 OA
ATOM     91  O   UNL A   1      47.061  37.861  29.221  1.00  0.00    -0.237 OA
ATOM     92  O   UNL A   1      47.869  37.137  31.433  1.00  0.00    -0.744 OA
ENDBRANCH  88  89
ENDBRANCH  62  83
ENDBRANCH  36  37
ENDBRANCH  28  31
ENDBRANCH  26  27
ENDBRANCH  25  26
ENDBRANCH   1  25
TORSDOF 18
ENDMDL
MODEL 3
REMARK VINA RESULT:     -10.4      2.465      3.146
REMARK SMILES Cc1[nH]ncc1S(=O)(=O)NC[C@@H]1CC[C@@H](C(=O)NCCCCNC(=O)c2ccc(-c3c4nc(c(-c5ccc(S(=O)(=O)[O-])cc5)c5ccc([nH]5)c(-c5ccc(S(=O)(=O)[O-])cc5)c5nc(c(-c6ccc(S(=O)(=O)[O-])cc6)c6ccc3[nH]6)C=C5)C=C4)cc2)O1
REMARK SMILES IDX 20 1 19 2 18 3 16 4 17 5 15 7 12 8 13 9 86 10 14 11 11 12
REMARK SMILES IDX 10 13 7 15 8 16 9 17 6 18 1 19 2 20 3 21 4 22 5 24 21 25
REMARK SMILES IDX 22 26 23 27 24 28 25 30 26 31 27 32 85 33 28 34 84 35 29 36
REMARK SMILES IDX 30 37 31 38 78 39 32 40 83 41 77 42 79 43 33 44 82 45 76 46
REMARK SMILES IDX 75 47 34 49 64 50 45 51 63 52 46 53 49 54 62 55 80 56 47 57
REMARK SMILES IDX 48 58 61 60 81 61 50 62 35 63 36 64 44 65 37 66 43 67 38 68
REMARK SMILES IDX 39 69 40 70 41 71 42 72 65 73 66 74 74 75 67 76 73 77 68 78
REMARK SMILES IDX 69 79 70 80 71 81 72 82 51 83 52 84 60 85 53 86 59 87 54 88
REMARK SMILES IDX 55 89 56 90 57 91 58 92
REMARK H PARENT 18 6 10 14 3 23 23 29 79 48 49 59
REMARK Flexibility Score: inf
ROOT
ATOM      1  C   UNL A   1      31.833  27.983  26.971  1.00  0.00     0.023 C 
ENDROOT
BRANCH   1   2
ATOM      2  C   UNL A   1      31.010  27.021  26.113  1.00  0.00     0.116 C 
BRANCH   2   3
ATOM      3  N   UNL A   1      31.087  27.377  24.708  1.00  0.00    -0.354 N 
ATOM      4  C   UNL A   1      31.798  26.765  23.712  1.00  0.00     0.249 C 
ATOM      5  O   UNL A   1      31.814  27.283  22.593  1.00  0.00    -0.272 OA
ATOM      6  H   UNL A   1      30.557  28.162  24.436  1.00  0.00     0.163 HD
BRANCH   4   7
ATOM      7  C   UNL A   1      32.500  25.439  24.009  1.00  0.00     0.207 C 
ATOM      8  C   UNL A   1      32.453  23.450  22.801  1.00  0.00     0.134 C 
ATOM      9  C   UNL A   1      33.897  23.760  23.147  1.00  0.00     0.037 C 
ATOM     10  O   UNL A   1      31.654  24.355  23.569  1.00  0.00    -0.364 OA
ATOM     11  C   UNL A   1      33.829  25.264  23.287  1.00  0.00     0.045 C 
BRANCH   8  12
ATOM     12  C   UNL A   1      31.996  22.008  22.989  1.00  0.00     0.131 C 
BRANCH  12  13
ATOM     13  N   UNL A   1      33.056  21.008  23.230  1.00  0.00    -0.208 NA
ATOM     14  H   UNL A   1      32.932  20.282  22.524  1.00  0.00     0.141 HD
BRANCH  13  15
ATOM     15  S   UNL A   1      33.197  20.215  24.711  1.00  0.00     0.244 S 
ATOM     16  O   UNL A   1      34.020  19.041  24.534  1.00  0.00    -0.207 OA
ATOM     17  O   UNL A   1      31.847  20.085  25.215  1.00  0.00    -0.207 OA
BRANCH  15  18
ATOM     18  C   UNL A   1      33.986  21.179  25.884  1.00  0.00     0.122 A 
ATOM     19  C   UNL A   1      36.450  21.462  25.017  1.00  0.00     0.067 C 
ATOM     20  C   UNL A   1      35.290  21.642  25.915  1.00  0.00     0.052 A 
ATOM     21  N   UNL A   1      35.366  22.402  27.053  1.00  0.00    -0.281 N 
ATOM     22  N   UNL A   1      34.213  22.472  27.738  1.00  0.00    -0.183 NA
ATOM     23  H   UNL A   1      36.191  22.857  27.341  1.00  0.00     0.190 HD
ATOM     24  C   UNL A   1      33.369  21.725  27.020  1.00  0.00     0.157 A 
ENDBRANCH  15  18
ENDBRANCH  13  15
ENDBRANCH  12  13
ENDBRANCH   8  12
ENDBRANCH   4   7
ENDBRANCH   2   3
ENDBRANCH   1   2
BRANCH   1  25
ATOM     25  C   UNL A   1      33.350  27.808  26.831  1.00  0.00     0.023 C 
BRANCH  25  26
ATOM     26  C   UNL A   1      34.053  28.873  25.994  1.00  0.00     0.116 C 
BRANCH  26  27
ATOM     27  N   UNL A   1      33.804  30.225  26.469  1.00  0.00    -0.352 N 
ATOM     28  C   UNL A   1      34.480  30.929  27.437  1.00  0.00     0.251 C 
ATOM     29  H   UNL A   1      33.052  30.697  26.042  1.00  0.00     0.163 HD
ATOM     30  O   UNL A   1      34.064  32.020  27.815  1.00  0.00    -0.269 OA
BRANCH  28  31
ATOM     31  C   UNL A   1      35.694  30.343  28.046  1.00  0.00     0.039 A 
ATOM     32  C   UNL A   1      36.921  30.505  27.398  1.00  0.00     0.014 A 
ATOM     33  C   UNL A   1      35.624  29.667  29.266  1.00  0.00     0.014 A 
ATOM     34  C   UNL A   1      38.092  30.051  28.010  1.00  0.00     0.010 A 
ATOM     35  C   UNL A   1      36.797  29.267  29.902  1.00  0.00     0.010 A 
ATOM     36  C   UNL A   1      38.043  29.463  29.284  1.00  0.00    -0.014 A 
BRANCH  36  37
ATOM     37  C   UNL A   1      39.278  29.058  30.001  1.00  0.00     0.031 A 
ATOM     38  C   UNL A   1      39.721  29.812  31.223  1.00  0.00     0.074 A 
ATOM     39  C   UNL A   1      40.048  28.070  29.500  1.00  0.00     0.049 A 
ATOM     40  N   UNL A   1      40.825  29.687  31.915  1.00  0.00    -0.248 NA
ATOM     41  C   UNL A   1      38.816  30.862  31.719  1.00  0.00     0.031 C 
ATOM     42  C   UNL A   1      39.748  27.284  28.301  1.00  0.00     0.029 A 
ATOM     43  N   UNL A   1      41.251  27.571  29.930  1.00  0.00    -0.354 N 
ATOM     44  C   UNL A   1      40.760  30.656  32.908  1.00  0.00     0.074 A 
ATOM     45  C   UNL A   1      39.525  31.383  32.710  1.00  0.00     0.031 C 
ATOM     46  C   UNL A   1      40.733  26.395  28.100  1.00  0.00     0.029 A 
ATOM     47  C   UNL A   1      41.752  26.572  29.130  1.00  0.00     0.049 A 
ATOM     48  H   UNL A   1      41.712  27.897  30.737  1.00  0.00     0.167 HD
ATOM     49  C   UNL A   1      41.644  30.911  33.902  1.00  0.00     0.031 A 
ATOM     50  C   UNL A   1      42.908  25.884  29.205  1.00  0.00     0.031 A 
ATOM     51  C   UNL A   1      42.862  30.176  34.111  1.00  0.00     0.049 A 
ATOM     52  C   UNL A   1      43.871  26.181  30.321  1.00  0.00     0.074 A 
ATOM     53  C   UNL A   1      43.794  30.324  35.123  1.00  0.00     0.029 A 
ATOM     54  N   UNL A   1      43.317  29.153  33.294  1.00  0.00    -0.354 N 
ATOM     55  N   UNL A   1      43.768  27.068  31.281  1.00  0.00    -0.248 NA
ATOM     56  C   UNL A   1      45.103  25.380  30.368  1.00  0.00     0.031 C 
ATOM     57  C   UNL A   1      44.832  29.413  34.897  1.00  0.00     0.029 A 
ATOM     58  C   UNL A   1      44.524  28.669  33.770  1.00  0.00     0.049 A 
ATOM     59  H   UNL A   1      42.852  28.819  32.492  1.00  0.00     0.167 HD
ATOM     60  C   UNL A   1      44.909  26.916  32.060  1.00  0.00     0.074 A 
ATOM     61  C   UNL A   1      45.684  25.845  31.466  1.00  0.00     0.031 C 
ATOM     62  C   UNL A   1      45.279  27.599  33.170  1.00  0.00     0.031 A 
BRANCH  49  63
ATOM     63  C   UNL A   1      41.321  32.042  34.841  1.00  0.00    -0.014 A 
ATOM     64  C   UNL A   1      40.583  31.819  36.017  1.00  0.00     0.010 A 
ATOM     65  C   UNL A   1      41.784  33.339  34.557  1.00  0.00     0.010 A 
ATOM     66  C   UNL A   1      40.276  32.882  36.871  1.00  0.00     0.020 A 
ATOM     67  C   UNL A   1      41.500  34.401  35.420  1.00  0.00     0.020 A 
ATOM     68  C   UNL A   1      40.731  34.168  36.562  1.00  0.00     0.054 A 
BRANCH  68  69
ATOM     69  S   UNL A   1      40.330  35.529  37.693  1.00  0.00     0.124 S 
ATOM     70  O   UNL A   1      41.571  35.663  38.452  1.00  0.00    -0.237 OA
ATOM     71  O   UNL A   1      40.031  36.630  36.781  1.00  0.00    -0.237 OA
ATOM     72  O   UNL A   1      39.188  35.023  38.450  1.00  0.00    -0.744 OA
ENDBRANCH  68  69
ENDBRANCH  49  63
BRANCH  50  73
ATOM     73  C   UNL A   1      43.213  24.836  28.195  1.00  0.00    -0.014 A 
ATOM     74  C   UNL A   1      43.931  25.160  27.031  1.00  0.00     0.010 A 
ATOM     75  C   UNL A   1      42.806  23.506  28.402  1.00  0.00     0.010 A 
ATOM     76  C   UNL A   1      44.225  24.175  26.083  1.00  0.00     0.020 A 
ATOM     77  C   UNL A   1      43.118  22.513  27.468  1.00  0.00     0.020 A 
ATOM     78  C   UNL A   1      43.817  22.857  26.309  1.00  0.00     0.054 A 
BRANCH  78  79
ATOM     79  S   UNL A   1      44.260  21.582  25.096  1.00  0.00     0.124 S 
ATOM     80  O   UNL A   1      43.248  20.560  25.347  1.00  0.00    -0.237 OA
ATOM     81  O   UNL A   1      44.137  22.294  23.827  1.00  0.00    -0.237 OA
ATOM     82  O   UNL A   1      45.625  21.219  25.467  1.00  0.00    -0.744 OA
ENDBRANCH  78  79
ENDBRANCH  50  73
BRANCH  62  83
ATOM     83  C   UNL A   1      46.563  27.192  33.841  1.00  0.00    -0.014 A 
ATOM     84  C   UNL A   1      47.781  27.807  33.511  1.00  0.00     0.010 A 
ATOM     85  C   UNL A   1      46.533  26.228  34.865  1.00  0.00     0.010 A 
ATOM     86  C   UNL A   1      48.955  27.453  34.182  1.00  0.00     0.020 A 
ATOM     87  C   UNL A   1      47.700  25.886  35.552  1.00  0.00     0.020 A 
ATOM     88  C   UNL A   1      48.906  26.494  35.200  1.00  0.00     0.054 A 
BRANCH  88  89
ATOM     89  S   UNL A   1      50.429  26.095  36.100  1.00  0.00     0.124 S 
ATOM     90  O   UNL A   1      50.096  26.510  37.460  1.00  0.00    -0.237 OA
ATOM     91  O   UNL A   1      50.558  24.654  35.897  1.00  0.00    -0.237 OA
ATOM     92  O   UNL A   1      51.447  26.905  35.434  1.00  0.00    -0.744 OA
ENDBRANCH  88  89
ENDBRANCH  62  83
ENDBRANCH  36  37
ENDBRANCH  28  31
ENDBRANCH  26  27
ENDBRANCH  25  26
ENDBRANCH   1  25
TORSDOF 18
ENDMDL
