MODEL 1
REMARK VINA RESULT:     -10.1      0.000      0.000
REMARK SMILES Nc1nc(N)nc(N/C=C/C(=O)NCCCCNC(=O)c2ccc(-c3c4nc(c(-c5ccc(S(=O)(=O)[O-])cc5)c5ccc([nH]5)c(-c5ccc(S(=O)(=O)[O-])cc5)c5nc(c(-c6ccc(S(=O)(=O)[O-])cc6)c6ccc3[nH]6)C=C5)C=C4)cc2)n1
REMARK SMILES IDX 15 1 14 2 13 3 11 4 12 5 10 7 9 8 8 9 7 11 2 12 3 13 81 14
REMARK SMILES IDX 4 15 6 16 1 17 5 20 16 23 17 24 18 25 19 26 20 28 21 29
REMARK SMILES IDX 22 30 80 31 23 32 79 33 24 34 25 35 26 36 73 37 27 38 78 39
REMARK SMILES IDX 72 40 74 41 28 42 77 43 71 44 70 45 29 47 59 48 40 49 58 50
REMARK SMILES IDX 41 51 44 52 57 53 75 54 42 55 43 56 56 58 76 59 45 60 30 61
REMARK SMILES IDX 31 62 39 63 32 64 38 65 33 66 34 67 35 68 36 69 37 70 60 71
REMARK SMILES IDX 61 72 69 73 62 74 68 75 63 76 64 77 65 78 66 79 67 80 46 81
REMARK SMILES IDX 47 82 55 83 48 84 54 85 49 86 50 87 51 88 52 89 53 90
REMARK H PARENT 13 6 8 10 1 18 1 19 5 21 5 22 18 27 74 46 44 57
REMARK Flexibility Score: inf
ROOT
ATOM      1  C   UNL A   1      42.987  23.799  26.488  1.00  0.00     0.023 C 
ENDROOT
BRANCH   1   2
ATOM      2  C   UNL A   1      43.439  24.800  25.423  1.00  0.00     0.116 C 
BRANCH   2   3
ATOM      3  N   UNL A   1      44.665  25.472  25.821  1.00  0.00    -0.353 N 
ATOM      4  C   UNL A   1      45.943  25.021  25.933  1.00  0.00     0.245 C 
ATOM      5  O   UNL A   1      46.842  25.816  26.205  1.00  0.00    -0.270 OA
ATOM      6  H   UNL A   1      44.550  26.423  26.052  1.00  0.00     0.163 HD
BRANCH   4   7
ATOM      7  C   UNL A   1      46.309  23.612  25.647  1.00  0.00     0.089 C 
ATOM      8  C   UNL A   1      46.165  22.995  24.471  1.00  0.00     0.091 C 
BRANCH   8   9
ATOM      9  N   UNL A   1      46.512  21.714  24.138  1.00  0.00    -0.330 N 
ATOM     10  H   UNL A   1      47.234  21.599  23.480  1.00  0.00     0.169 HD
BRANCH   9  11
ATOM     11  C   UNL A   1      45.926  20.556  24.654  1.00  0.00     0.233 A 
ATOM     12  C   UNL A   1      46.164  18.462  25.403  1.00  0.00     0.226 A 
ATOM     13  N   UNL A   1      44.859  18.277  25.500  1.00  0.00    -0.177 NA
ATOM     14  N   UNL A   1      46.752  19.566  24.971  1.00  0.00    -0.177 NA
ATOM     15  C   UNL A   1      44.122  19.315  25.148  1.00  0.00     0.226 A 
ATOM     16  N   UNL A   1      44.601  20.475  24.739  1.00  0.00    -0.177 NA
BRANCH  12  17
ATOM     17  N   UNL A   1      46.972  17.428  25.783  1.00  0.00    -0.368 N 
ATOM     18  H   UNL A   1      47.036  16.622  25.221  1.00  0.00     0.159 HD
ATOM     19  H   UNL A   1      47.489  17.488  26.619  1.00  0.00     0.159 HD
ENDBRANCH  12  17
BRANCH  15  20
ATOM     20  N   UNL A   1      42.765  19.171  25.186  1.00  0.00    -0.368 N 
ATOM     21  H   UNL A   1      42.184  19.966  25.169  1.00  0.00     0.159 HD
ATOM     22  H   UNL A   1      42.366  18.271  25.232  1.00  0.00     0.159 HD
ENDBRANCH  15  20
ENDBRANCH   9  11
ENDBRANCH   8   9
ENDBRANCH   4   7
ENDBRANCH   2   3
ENDBRANCH   1   2
BRANCH   1  23
ATOM     23  C   UNL A   1      42.280  22.559  25.929  1.00  0.00     0.023 C 
BRANCH  23  24
ATOM     24  C   UNL A   1      41.174  21.991  26.814  1.00  0.00     0.116 C 
BRANCH  24  25
ATOM     25  N   UNL A   1      39.868  21.988  26.172  1.00  0.00    -0.352 N 
ATOM     26  C   UNL A   1      38.921  22.986  26.148  1.00  0.00     0.251 C 
ATOM     27  H   UNL A   1      39.631  21.162  25.691  1.00  0.00     0.163 HD
ATOM     28  O   UNL A   1      37.825  22.780  25.644  1.00  0.00    -0.269 OA
BRANCH  26  29
ATOM     29  C   UNL A   1      39.228  24.291  26.772  1.00  0.00     0.039 A 
ATOM     30  C   UNL A   1      38.889  24.492  28.112  1.00  0.00     0.014 A 
ATOM     31  C   UNL A   1      39.876  25.297  26.049  1.00  0.00     0.014 A 
ATOM     32  C   UNL A   1      39.263  25.678  28.749  1.00  0.00     0.010 A 
ATOM     33  C   UNL A   1      40.304  26.449  26.701  1.00  0.00     0.010 A 
ATOM     34  C   UNL A   1      40.006  26.650  28.058  1.00  0.00    -0.014 A 
BRANCH  34  35
ATOM     35  C   UNL A   1      40.496  27.874  28.740  1.00  0.00     0.031 A 
ATOM     36  C   UNL A   1      41.890  27.924  29.300  1.00  0.00     0.074 A 
ATOM     37  C   UNL A   1      39.658  28.915  28.919  1.00  0.00     0.049 A 
ATOM     38  N   UNL A   1      42.473  28.880  29.976  1.00  0.00    -0.248 NA
ATOM     39  C   UNL A   1      42.730  26.733  29.096  1.00  0.00     0.031 C 
ATOM     40  C   UNL A   1      38.268  28.972  28.462  1.00  0.00     0.029 A 
ATOM     41  N   UNL A   1      39.853  30.122  29.541  1.00  0.00    -0.354 N 
ATOM     42  C   UNL A   1      43.737  28.401  30.296  1.00  0.00     0.074 A 
ATOM     43  C   UNL A   1      43.820  27.052  29.779  1.00  0.00     0.031 C 
ATOM     44  C   UNL A   1      37.744  30.164  28.797  1.00  0.00     0.029 A 
ATOM     45  C   UNL A   1      38.746  30.938  29.521  1.00  0.00     0.049 A 
ATOM     46  H   UNL A   1      40.704  30.380  29.962  1.00  0.00     0.167 HD
ATOM     47  C   UNL A   1      44.745  29.031  30.946  1.00  0.00     0.031 A 
ATOM     48  C   UNL A   1      38.556  32.171  30.031  1.00  0.00     0.031 A 
ATOM     49  C   UNL A   1      44.664  30.376  31.451  1.00  0.00     0.049 A 
ATOM     50  C   UNL A   1      39.689  32.852  30.746  1.00  0.00     0.074 A 
ATOM     51  C   UNL A   1      45.650  31.124  32.069  1.00  0.00     0.029 A 
ATOM     52  N   UNL A   1      43.530  31.173  31.398  1.00  0.00    -0.354 N 
ATOM     53  N   UNL A   1      40.900  32.407  30.980  1.00  0.00    -0.248 NA
ATOM     54  C   UNL A   1      39.431  34.205  31.258  1.00  0.00     0.031 C 
ATOM     55  C   UNL A   1      45.099  32.358  32.431  1.00  0.00     0.029 A 
ATOM     56  C   UNL A   1      43.784  32.398  31.993  1.00  0.00     0.049 A 
ATOM     57  H   UNL A   1      42.671  30.908  30.998  1.00  0.00     0.167 HD
ATOM     58  C   UNL A   1      41.558  33.436  31.645  1.00  0.00     0.074 A 
ATOM     59  C   UNL A   1      40.614  34.528  31.765  1.00  0.00     0.031 C 
ATOM     60  C   UNL A   1      42.832  33.473  32.110  1.00  0.00     0.031 A 
BRANCH  47  61
ATOM     61  C   UNL A   1      46.019  28.257  31.155  1.00  0.00    -0.014 A 
ATOM     62  C   UNL A   1      47.087  28.355  30.242  1.00  0.00     0.010 A 
ATOM     63  C   UNL A   1      46.157  27.426  32.281  1.00  0.00     0.010 A 
ATOM     64  C   UNL A   1      48.244  27.592  30.421  1.00  0.00     0.020 A 
ATOM     65  C   UNL A   1      47.325  26.683  32.479  1.00  0.00     0.020 A 
ATOM     66  C   UNL A   1      48.351  26.754  31.534  1.00  0.00     0.054 A 
BRANCH  66  67
ATOM     67  S   UNL A   1      49.860  25.768  31.739  1.00  0.00     0.124 S 
ATOM     68  O   UNL A   1      49.978  25.126  30.433  1.00  0.00    -0.237 OA
ATOM     69  O   UNL A   1      50.871  26.781  32.034  1.00  0.00    -0.237 OA
ATOM     70  O   UNL A   1      49.540  24.872  32.848  1.00  0.00    -0.744 OA
ENDBRANCH  66  67
ENDBRANCH  47  61
BRANCH  48  71
ATOM     71  C   UNL A   1      37.245  32.849  29.851  1.00  0.00    -0.014 A 
ATOM     72  C   UNL A   1      36.317  32.888  30.906  1.00  0.00     0.010 A 
ATOM     73  C   UNL A   1      36.932  33.491  28.638  1.00  0.00     0.010 A 
ATOM     74  C   UNL A   1      35.096  33.549  30.751  1.00  0.00     0.020 A 
ATOM     75  C   UNL A   1      35.721  34.173  28.488  1.00  0.00     0.020 A 
ATOM     76  C   UNL A   1      34.808  34.191  29.543  1.00  0.00     0.054 A 
BRANCH  76  77
ATOM     77  S   UNL A   1      33.247  35.106  29.390  1.00  0.00     0.124 S 
ATOM     78  O   UNL A   1      33.711  36.437  29.011  1.00  0.00    -0.237 OA
ATOM     79  O   UNL A   1      32.544  34.359  28.349  1.00  0.00    -0.237 OA
ATOM     80  O   UNL A   1      32.659  35.002  30.724  1.00  0.00    -0.744 OA
ENDBRANCH  76  77
ENDBRANCH  48  71
BRANCH  60  81
ATOM     81  C   UNL A   1      43.290  34.746  32.770  1.00  0.00    -0.014 A 
ATOM     82  C   UNL A   1      43.220  34.907  34.165  1.00  0.00     0.010 A 
ATOM     83  C   UNL A   1      43.847  35.772  31.986  1.00  0.00     0.010 A 
ATOM     84  C   UNL A   1      43.676  36.086  34.761  1.00  0.00     0.020 A 
ATOM     85  C   UNL A   1      44.326  36.941  32.582  1.00  0.00     0.020 A 
ATOM     86  C   UNL A   1      44.225  37.097  33.966  1.00  0.00     0.054 A 
BRANCH  86  87
ATOM     87  S   UNL A   1      44.852  38.598  34.767  1.00  0.00     0.124 S 
ATOM     88  O   UNL A   1      46.255  38.263  34.985  1.00  0.00    -0.237 OA
ATOM     89  O   UNL A   1      44.600  39.628  33.763  1.00  0.00    -0.237 OA
ATOM     90  O   UNL A   1      44.041  38.708  35.978  1.00  0.00    -0.744 OA
ENDBRANCH  86  87
ENDBRANCH  60  81
ENDBRANCH  34  35
ENDBRANCH  26  29
ENDBRANCH  24  25
ENDBRANCH  23  24
ENDBRANCH   1  23
TORSDOF 18
ENDMDL
MODEL 2
REMARK VINA RESULT:      -9.9      3.492      4.311
REMARK SMILES Nc1nc(N)nc(N/C=C/C(=O)NCCCCNC(=O)c2ccc(-c3c4nc(c(-c5ccc(S(=O)(=O)[O-])cc5)c5ccc([nH]5)c(-c5ccc(S(=O)(=O)[O-])cc5)c5nc(c(-c6ccc(S(=O)(=O)[O-])cc6)c6ccc3[nH]6)C=C5)C=C4)cc2)n1
REMARK SMILES IDX 15 1 14 2 13 3 11 4 12 5 10 7 9 8 8 9 7 11 2 12 3 13 81 14
REMARK SMILES IDX 4 15 6 16 1 17 5 20 16 23 17 24 18 25 19 26 20 28 21 29
REMARK SMILES IDX 22 30 80 31 23 32 79 33 24 34 25 35 26 36 73 37 27 38 78 39
REMARK SMILES IDX 72 40 74 41 28 42 77 43 71 44 70 45 29 47 59 48 40 49 58 50
REMARK SMILES IDX 41 51 44 52 57 53 75 54 42 55 43 56 56 58 76 59 45 60 30 61
REMARK SMILES IDX 31 62 39 63 32 64 38 65 33 66 34 67 35 68 36 69 37 70 60 71
REMARK SMILES IDX 61 72 69 73 62 74 68 75 63 76 64 77 65 78 66 79 67 80 46 81
REMARK SMILES IDX 47 82 55 83 48 84 54 85 49 86 50 87 51 88 52 89 53 90
REMARK H PARENT 13 6 8 10 1 18 1 19 5 21 5 22 18 27 74 46 44 57
REMARK Flexibility Score: inf
ROOT
ATOM      1  C   UNL A   1      44.351  24.244  28.726  1.00  0.00     0.023 C 
ENDROOT
BRANCH   1   2
ATOM      2  C   UNL A   1      45.648  24.012  27.947  1.00  0.00     0.116 C 
BRANCH   2   3
ATOM      3  N   UNL A   1      45.782  24.962  26.854  1.00  0.00    -0.353 N 
ATOM      4  C   UNL A   1      45.402  24.892  25.551  1.00  0.00     0.245 C 
ATOM      5  O   UNL A   1      45.544  25.878  24.828  1.00  0.00    -0.270 OA
ATOM      6  H   UNL A   1      46.227  25.804  27.102  1.00  0.00     0.163 HD
BRANCH   4   7
ATOM      7  C   UNL A   1      44.734  23.694  24.987  1.00  0.00     0.089 C 
ATOM      8  C   UNL A   1      45.343  22.699  24.336  1.00  0.00     0.091 C 
BRANCH   8   9
ATOM      9  N   UNL A   1      44.789  21.558  23.823  1.00  0.00    -0.330 N 
ATOM     10  H   UNL A   1      44.468  21.591  22.893  1.00  0.00     0.169 HD
BRANCH   9  11
ATOM     11  C   UNL A   1      44.639  20.350  24.509  1.00  0.00     0.233 A 
ATOM     12  C   UNL A   1      43.331  18.960  25.672  1.00  0.00     0.226 A 
ATOM     13  N   UNL A   1      44.330  18.141  25.947  1.00  0.00    -0.177 NA
ATOM     14  N   UNL A   1      43.427  20.083  24.979  1.00  0.00    -0.177 NA
ATOM     15  C   UNL A   1      45.499  18.502  25.448  1.00  0.00     0.226 A 
ATOM     16  N   UNL A   1      45.704  19.578  24.712  1.00  0.00    -0.177 NA
BRANCH  12  17
ATOM     17  N   UNL A   1      42.093  18.617  26.142  1.00  0.00    -0.368 N 
ATOM     18  H   UNL A   1      41.836  18.850  27.063  1.00  0.00     0.159 HD
ATOM     19  H   UNL A   1      41.462  18.136  25.561  1.00  0.00     0.159 HD
ENDBRANCH  12  17
BRANCH  15  20
ATOM     20  N   UNL A   1      46.579  17.717  25.732  1.00  0.00    -0.368 N 
ATOM     21  H   UNL A   1      46.449  16.807  26.086  1.00  0.00     0.159 HD
ATOM     22  H   UNL A   1      47.491  18.061  25.583  1.00  0.00     0.159 HD
ENDBRANCH  15  20
ENDBRANCH   9  11
ENDBRANCH   8   9
ENDBRANCH   4   7
ENDBRANCH   2   3
ENDBRANCH   1   2
BRANCH   1  23
ATOM     23  C   UNL A   1      43.441  23.015  28.815  1.00  0.00     0.023 C 
BRANCH  23  24
ATOM     24  C   UNL A   1      41.988  23.255  28.417  1.00  0.00     0.116 C 
BRANCH  24  25
ATOM     25  N   UNL A   1      41.836  23.725  27.048  1.00  0.00    -0.352 N 
ATOM     26  C   UNL A   1      41.448  24.969  26.606  1.00  0.00     0.251 C 
ATOM     27  H   UNL A   1      42.039  23.066  26.346  1.00  0.00     0.163 HD
ATOM     28  O   UNL A   1      41.271  25.168  25.411  1.00  0.00    -0.269 OA
BRANCH  26  29
ATOM     29  C   UNL A   1      41.206  26.045  27.591  1.00  0.00     0.039 A 
ATOM     30  C   UNL A   1      40.105  25.941  28.445  1.00  0.00     0.014 A 
ATOM     31  C   UNL A   1      42.078  27.133  27.693  1.00  0.00     0.014 A 
ATOM     32  C   UNL A   1      39.919  26.893  29.450  1.00  0.00     0.010 A 
ATOM     33  C   UNL A   1      41.927  28.044  28.734  1.00  0.00     0.010 A 
ATOM     34  C   UNL A   1      40.849  27.931  29.626  1.00  0.00    -0.014 A 
BRANCH  34  35
ATOM     35  C   UNL A   1      40.722  28.898  30.744  1.00  0.00     0.031 A 
ATOM     36  C   UNL A   1      41.602  28.773  31.958  1.00  0.00     0.074 A 
ATOM     37  C   UNL A   1      39.764  29.845  30.699  1.00  0.00     0.049 A 
ATOM     38  N   UNL A   1      41.598  29.485  33.055  1.00  0.00    -0.248 NA
ATOM     39  C   UNL A   1      42.598  27.690  31.946  1.00  0.00     0.031 C 
ATOM     40  C   UNL A   1      38.818  30.042  29.599  1.00  0.00     0.029 A 
ATOM     41  N   UNL A   1      39.422  30.814  31.608  1.00  0.00    -0.354 N 
ATOM     42  C   UNL A   1      42.573  28.926  33.872  1.00  0.00     0.074 A 
ATOM     43  C   UNL A   1      43.116  27.788  33.162  1.00  0.00     0.031 C 
ATOM     44  C   UNL A   1      38.021  31.085  29.885  1.00  0.00     0.029 A 
ATOM     45  C   UNL A   1      38.374  31.606  31.201  1.00  0.00     0.049 A 
ATOM     46  H   UNL A   1      39.884  30.932  32.469  1.00  0.00     0.167 HD
ATOM     47  C   UNL A   1      42.991  29.332  35.096  1.00  0.00     0.031 A 
ATOM     48  C   UNL A   1      37.762  32.636  31.819  1.00  0.00     0.031 A 
ATOM     49  C   UNL A   1      42.456  30.469  35.795  1.00  0.00     0.049 A 
ATOM     50  C   UNL A   1      38.244  33.070  33.174  1.00  0.00     0.074 A 
ATOM     51  C   UNL A   1      42.854  30.997  37.010  1.00  0.00     0.029 A 
ATOM     52  N   UNL A   1      41.405  31.253  35.343  1.00  0.00    -0.354 N 
ATOM     53  N   UNL A   1      39.214  32.570  33.902  1.00  0.00    -0.248 NA
ATOM     54  C   UNL A   1      37.556  34.214  33.787  1.00  0.00     0.031 C 
ATOM     55  C   UNL A   1      42.013  32.073  37.315  1.00  0.00     0.029 A 
ATOM     56  C   UNL A   1      41.125  32.247  36.265  1.00  0.00     0.049 A 
ATOM     57  H   UNL A   1      40.927  31.122  34.493  1.00  0.00     0.167 HD
ATOM     58  C   UNL A   1      39.268  33.354  35.049  1.00  0.00     0.074 A 
ATOM     59  C   UNL A   1      38.242  34.368  34.912  1.00  0.00     0.031 C 
ATOM     60  C   UNL A   1      40.097  33.246  36.117  1.00  0.00     0.031 A 
BRANCH  47  61
ATOM     61  C   UNL A   1      44.077  28.523  35.754  1.00  0.00    -0.014 A 
ATOM     62  C   UNL A   1      43.770  27.388  36.528  1.00  0.00     0.010 A 
ATOM     63  C   UNL A   1      45.424  28.895  35.591  1.00  0.00     0.010 A 
ATOM     64  C   UNL A   1      44.784  26.676  37.174  1.00  0.00     0.020 A 
ATOM     65  C   UNL A   1      46.444  28.168  36.213  1.00  0.00     0.020 A 
ATOM     66  C   UNL A   1      46.113  27.077  37.020  1.00  0.00     0.054 A 
BRANCH  66  67
ATOM     67  S   UNL A   1      47.410  26.141  37.876  1.00  0.00     0.124 S 
ATOM     68  O   UNL A   1      48.137  27.201  38.569  1.00  0.00    -0.237 OA
ATOM     69  O   UNL A   1      46.645  25.239  38.734  1.00  0.00    -0.237 OA
ATOM     70  O   UNL A   1      48.141  25.490  36.791  1.00  0.00    -0.744 OA
ENDBRANCH  66  67
ENDBRANCH  47  61
BRANCH  48  71
ATOM     71  C   UNL A   1      36.645  33.344  31.139  1.00  0.00    -0.014 A 
ATOM     72  C   UNL A   1      36.912  34.252  30.099  1.00  0.00     0.010 A 
ATOM     73  C   UNL A   1      35.310  33.088  31.500  1.00  0.00     0.010 A 
ATOM     74  C   UNL A   1      35.865  34.898  29.437  1.00  0.00     0.020 A 
ATOM     75  C   UNL A   1      34.259  33.715  30.824  1.00  0.00     0.020 A 
ATOM     76  C   UNL A   1      34.544  34.622  29.802  1.00  0.00     0.054 A 
BRANCH  76  77
ATOM     77  S   UNL A   1      33.197  35.417  28.879  1.00  0.00     0.124 S 
ATOM     78  O   UNL A   1      32.581  34.281  28.202  1.00  0.00    -0.237 OA
ATOM     79  O   UNL A   1      32.403  36.029  29.943  1.00  0.00    -0.237 OA
ATOM     80  O   UNL A   1      33.893  36.364  28.010  1.00  0.00    -0.744 OA
ENDBRANCH  76  77
ENDBRANCH  48  71
BRANCH  60  81
ATOM     81  C   UNL A   1      39.947  34.266  37.214  1.00  0.00    -0.014 A 
ATOM     82  C   UNL A   1      40.717  35.443  37.222  1.00  0.00     0.010 A 
ATOM     83  C   UNL A   1      38.983  34.067  38.219  1.00  0.00     0.010 A 
ATOM     84  C   UNL A   1      40.544  36.390  38.234  1.00  0.00     0.020 A 
ATOM     85  C   UNL A   1      38.791  35.025  39.218  1.00  0.00     0.020 A 
ATOM     86  C   UNL A   1      39.582  36.175  39.227  1.00  0.00     0.054 A 
BRANCH  86  87
ATOM     87  S   UNL A   1      39.343  37.441  40.504  1.00  0.00     0.124 S 
ATOM     88  O   UNL A   1      39.103  36.631  41.694  1.00  0.00    -0.237 OA
ATOM     89  O   UNL A   1      40.612  38.165  40.481  1.00  0.00    -0.237 OA
ATOM     90  O   UNL A   1      38.191  38.202  40.025  1.00  0.00    -0.744 OA
ENDBRANCH  86  87
ENDBRANCH  60  81
ENDBRANCH  34  35
ENDBRANCH  26  29
ENDBRANCH  24  25
ENDBRANCH  23  24
ENDBRANCH   1  23
TORSDOF 18
ENDMDL
MODEL 3
REMARK VINA RESULT:      -9.8      3.691      9.209
REMARK SMILES Nc1nc(N)nc(N/C=C/C(=O)NCCCCNC(=O)c2ccc(-c3c4nc(c(-c5ccc(S(=O)(=O)[O-])cc5)c5ccc([nH]5)c(-c5ccc(S(=O)(=O)[O-])cc5)c5nc(c(-c6ccc(S(=O)(=O)[O-])cc6)c6ccc3[nH]6)C=C5)C=C4)cc2)n1
REMARK SMILES IDX 15 1 14 2 13 3 11 4 12 5 10 7 9 8 8 9 7 11 2 12 3 13 81 14
REMARK SMILES IDX 4 15 6 16 1 17 5 20 16 23 17 24 18 25 19 26 20 28 21 29
REMARK SMILES IDX 22 30 80 31 23 32 79 33 24 34 25 35 26 36 73 37 27 38 78 39
REMARK SMILES IDX 72 40 74 41 28 42 77 43 71 44 70 45 29 47 59 48 40 49 58 50
REMARK SMILES IDX 41 51 44 52 57 53 75 54 42 55 43 56 56 58 76 59 45 60 30 61
REMARK SMILES IDX 31 62 39 63 32 64 38 65 33 66 34 67 35 68 36 69 37 70 60 71
REMARK SMILES IDX 61 72 69 73 62 74 68 75 63 76 64 77 65 78 66 79 67 80 46 81
REMARK SMILES IDX 47 82 55 83 48 84 54 85 49 86 50 87 51 88 52 89 53 90
REMARK H PARENT 13 6 8 10 1 18 1 19 5 21 5 22 18 27 74 46 44 57
REMARK Flexibility Score: inf
ROOT
ATOM      1  C   UNL A   1      44.299  24.122  28.759  1.00  0.00     0.023 C 
ENDROOT
BRANCH   1   2
ATOM      2  C   UNL A   1      45.482  23.918  27.811  1.00  0.00     0.116 C 
BRANCH   2   3
ATOM      3  N   UNL A   1      45.506  24.937  26.774  1.00  0.00    -0.353 N 
ATOM      4  C   UNL A   1      45.232  24.874  25.444  1.00  0.00     0.245 C 
ATOM      5  O   UNL A   1      45.234  25.909  24.778  1.00  0.00    -0.270 OA
ATOM      6  H   UNL A   1      45.770  25.832  27.091  1.00  0.00     0.163 HD
BRANCH   4   7
ATOM      7  C   UNL A   1      44.837  23.608  24.779  1.00  0.00     0.089 C 
ATOM      8  C   UNL A   1      45.678  22.696  24.285  1.00  0.00     0.091 C 
BRANCH   8   9
ATOM      9  N   UNL A   1      45.377  21.500  23.692  1.00  0.00    -0.330 N 
ATOM     10  H   UNL A   1      45.317  21.486  22.710  1.00  0.00     0.169 HD
BRANCH   9  11
ATOM     11  C   UNL A   1      45.148  20.297  24.364  1.00  0.00     0.233 A 
ATOM     12  C   UNL A   1      43.720  18.932  25.410  1.00  0.00     0.226 A 
ATOM     13  N   UNL A   1      44.678  18.097  25.773  1.00  0.00    -0.177 NA
ATOM     14  N   UNL A   1      43.896  20.051  24.726  1.00  0.00    -0.177 NA
ATOM     15  C   UNL A   1      45.892  18.437  25.378  1.00  0.00     0.226 A 
ATOM     16  N   UNL A   1      46.178  19.508  24.661  1.00  0.00    -0.177 NA
BRANCH  12  17
ATOM     17  N   UNL A   1      42.441  18.610  25.770  1.00  0.00    -0.368 N 
ATOM     18  H   UNL A   1      42.107  18.850  26.665  1.00  0.00     0.159 HD
ATOM     19  H   UNL A   1      41.855  18.137  25.136  1.00  0.00     0.159 HD
ENDBRANCH  12  17
BRANCH  15  20
ATOM     20  N   UNL A   1      46.930  17.636  25.758  1.00  0.00    -0.368 N 
ATOM     21  H   UNL A   1      46.992  16.715  25.417  1.00  0.00     0.159 HD
ATOM     22  H   UNL A   1      47.618  17.981  26.374  1.00  0.00     0.159 HD
ENDBRANCH  15  20
ENDBRANCH   9  11
ENDBRANCH   8   9
ENDBRANCH   4   7
ENDBRANCH   2   3
ENDBRANCH   1   2
BRANCH   1  23
ATOM     23  C   UNL A   1      43.297  22.963  28.777  1.00  0.00     0.023 C 
BRANCH  23  24
ATOM     24  C   UNL A   1      41.915  23.293  28.221  1.00  0.00     0.116 C 
BRANCH  24  25
ATOM     25  N   UNL A   1      41.955  23.892  26.896  1.00  0.00    -0.352 N 
ATOM     26  C   UNL A   1      41.697  25.194  26.535  1.00  0.00     0.251 C 
ATOM     27  H   UNL A   1      42.200  23.285  26.161  1.00  0.00     0.163 HD
ATOM     28  O   UNL A   1      41.676  25.511  25.353  1.00  0.00    -0.269 OA
BRANCH  26  29
ATOM     29  C   UNL A   1      41.405  26.193  27.586  1.00  0.00     0.039 A 
ATOM     30  C   UNL A   1      40.248  26.042  28.354  1.00  0.00     0.014 A 
ATOM     31  C   UNL A   1      42.283  27.253  27.833  1.00  0.00     0.014 A 
ATOM     32  C   UNL A   1      40.007  26.914  29.419  1.00  0.00     0.010 A 
ATOM     33  C   UNL A   1      42.074  28.080  28.932  1.00  0.00     0.010 A 
ATOM     34  C   UNL A   1      40.937  27.917  29.739  1.00  0.00    -0.014 A 
BRANCH  34  35
ATOM     35  C   UNL A   1      40.749  28.794  30.921  1.00  0.00     0.031 A 
ATOM     36  C   UNL A   1      39.685  29.856  30.917  1.00  0.00     0.074 A 
ATOM     37  C   UNL A   1      41.587  28.682  31.971  1.00  0.00     0.049 A 
ATOM     38  N   UNL A   1      39.410  30.751  31.829  1.00  0.00    -0.248 NA
ATOM     39  C   UNL A   1      38.835  29.938  29.717  1.00  0.00     0.031 C 
ATOM     40  C   UNL A   1      42.688  27.723  32.079  1.00  0.00     0.029 A 
ATOM     41  N   UNL A   1      41.648  29.389  33.145  1.00  0.00    -0.354 N 
ATOM     42  C   UNL A   1      38.372  31.515  31.309  1.00  0.00     0.074 A 
ATOM     43  C   UNL A   1      38.098  31.007  29.982  1.00  0.00     0.031 C 
ATOM     44  C   UNL A   1      43.298  27.884  33.265  1.00  0.00     0.029 A 
ATOM     45  C   UNL A   1      42.657  28.979  33.985  1.00  0.00     0.049 A 
ATOM     46  H   UNL A   1      41.028  30.121  33.366  1.00  0.00     0.167 HD
ATOM     47  C   UNL A   1      37.697  32.538  31.888  1.00  0.00     0.031 A 
ATOM     48  C   UNL A   1      43.027  29.434  35.198  1.00  0.00     0.031 A 
ATOM     49  C   UNL A   1      37.965  33.035  33.211  1.00  0.00     0.049 A 
ATOM     50  C   UNL A   1      42.262  30.566  35.823  1.00  0.00     0.074 A 
ATOM     51  C   UNL A   1      37.297  34.025  33.910  1.00  0.00     0.029 A 
ATOM     52  N   UNL A   1      38.986  32.583  34.034  1.00  0.00    -0.354 N 
ATOM     53  N   UNL A   1      41.239  31.232  35.342  1.00  0.00    -0.248 NA
ATOM     54  C   UNL A   1      42.695  31.002  37.157  1.00  0.00     0.031 C 
ATOM     55  C   UNL A   1      37.943  34.203  35.139  1.00  0.00     0.029 A 
ATOM     56  C   UNL A   1      38.981  33.288  35.226  1.00  0.00     0.049 A 
ATOM     57  H   UNL A   1      39.622  31.867  33.805  1.00  0.00     0.167 HD
ATOM     58  C   UNL A   1      40.890  32.150  36.326  1.00  0.00     0.074 A 
ATOM     59  C   UNL A   1      41.804  31.945  37.433  1.00  0.00     0.031 C 
ATOM     60  C   UNL A   1      39.900  33.077  36.315  1.00  0.00     0.031 A 
BRANCH  47  61
ATOM     61  C   UNL A   1      36.608  33.189  31.078  1.00  0.00    -0.014 A 
ATOM     62  C   UNL A   1      36.914  33.987  29.959  1.00  0.00     0.010 A 
ATOM     63  C   UNL A   1      35.261  32.995  31.432  1.00  0.00     0.010 A 
ATOM     64  C   UNL A   1      35.896  34.625  29.246  1.00  0.00     0.020 A 
ATOM     65  C   UNL A   1      34.238  33.609  30.703  1.00  0.00     0.020 A 
ATOM     66  C   UNL A   1      34.565  34.440  29.629  1.00  0.00     0.054 A 
BRANCH  66  67
ATOM     67  S   UNL A   1      33.263  35.287  28.692  1.00  0.00     0.124 S 
ATOM     68  O   UNL A   1      32.526  35.968  29.752  1.00  0.00    -0.237 OA
ATOM     69  O   UNL A   1      34.022  36.156  27.796  1.00  0.00    -0.237 OA
ATOM     70  O   UNL A   1      32.545  34.197  28.035  1.00  0.00    -0.744 OA
ENDBRANCH  66  67
ENDBRANCH  47  61
BRANCH  48  71
ATOM     71  C   UNL A   1      44.161  28.789  35.912  1.00  0.00    -0.014 A 
ATOM     72  C   UNL A   1      43.933  27.685  36.753  1.00  0.00     0.010 A 
ATOM     73  C   UNL A   1      45.478  29.249  35.727  1.00  0.00     0.010 A 
ATOM     74  C   UNL A   1      44.999  27.058  37.402  1.00  0.00     0.020 A 
ATOM     75  C   UNL A   1      46.549  28.609  36.357  1.00  0.00     0.020 A 
ATOM     76  C   UNL A   1      46.302  27.522  37.197  1.00  0.00     0.054 A 
BRANCH  76  77
ATOM     77  S   UNL A   1      47.678  26.645  37.993  1.00  0.00     0.124 S 
ATOM     78  O   UNL A   1      48.551  26.359  36.859  1.00  0.00    -0.237 OA
ATOM     79  O   UNL A   1      48.177  27.638  38.943  1.00  0.00    -0.237 OA
ATOM     80  O   UNL A   1      47.035  25.482  38.600  1.00  0.00    -0.744 OA
ENDBRANCH  76  77
ENDBRANCH  48  71
BRANCH  60  81
ATOM     81  C   UNL A   1      39.733  33.924  37.548  1.00  0.00    -0.014 A 
ATOM     82  C   UNL A   1      38.977  33.472  38.644  1.00  0.00     0.010 A 
ATOM     83  C   UNL A   1      40.388  35.167  37.629  1.00  0.00     0.010 A 
ATOM     84  C   UNL A   1      38.857  34.262  39.790  1.00  0.00     0.020 A 
ATOM     85  C   UNL A   1      40.289  35.947  38.783  1.00  0.00     0.020 A 
ATOM     86  C   UNL A   1      39.513  35.496  39.853  1.00  0.00     0.054 A 
BRANCH  86  87
ATOM     87  S   UNL A   1      39.380  36.483  41.369  1.00  0.00     0.124 S 
ATOM     88  O   UNL A   1      38.957  37.780  40.851  1.00  0.00    -0.237 OA
ATOM     89  O   UNL A   1      38.375  35.755  42.140  1.00  0.00    -0.237 OA
ATOM     90  O   UNL A   1      40.730  36.444  41.927  1.00  0.00    -0.744 OA
ENDBRANCH  86  87
ENDBRANCH  60  81
ENDBRANCH  34  35
ENDBRANCH  26  29
ENDBRANCH  24  25
ENDBRANCH  23  24
ENDBRANCH   1  23
TORSDOF 18
ENDMDL
