MODEL 1
REMARK VINA RESULT:     -13.1      0.000      0.000
REMARK SMILES Cc1ccc([N+](=O)[O-])c(N[C@H]2[C@@H]3CC[C@@H](C3)[C@@H]2C(=O)NCCCCNC(=O)c2ccc(-c3c4nc(c(-c5ccc(S(=O)(=O)[O-])cc5)c5ccc([nH]5)c(-c5ccc(S(=O)(=O)[O-])cc5)c5nc(c(-c6ccc(S(=O)(=O)[O-])cc6)c6ccc3[nH]6)C=C5)C=C4)cc2)c1
REMARK SMILES IDX 22 1 21 2 20 3 18 4 19 5 17 7 11 8 12 9 13 10 16 11 15 12
REMARK SMILES IDX 14 13 10 14 9 16 1 17 2 18 3 19 88 20 4 21 5 22 6 23 7 24
REMARK SMILES IDX 8 25 23 26 24 27 25 28 26 29 27 31 28 32 29 33 87 34 30 35
REMARK SMILES IDX 86 36 31 37 32 38 33 39 80 40 34 41 85 42 79 43 81 44 35 45
REMARK SMILES IDX 84 46 78 47 77 48 36 50 66 51 47 52 65 53 48 54 51 55 64 56
REMARK SMILES IDX 82 57 49 58 50 59 63 61 83 62 52 63 37 64 38 65 46 66 39 67
REMARK SMILES IDX 45 68 40 69 41 70 42 71 43 72 44 73 67 74 68 75 76 76 69 77
REMARK SMILES IDX 75 78 70 79 71 80 72 81 73 82 74 83 53 84 54 85 62 86 55 87
REMARK SMILES IDX 61 88 56 89 57 90 58 91 59 92 60 93
REMARK H PARENT 20 6 10 15 25 30 81 49 51 60
REMARK Flexibility Score: inf
ROOT
ATOM      1  C   UNL A   1      32.248  29.918  25.663  1.00  0.00     0.023 C 
ENDROOT
BRANCH   1   2
ATOM      2  C   UNL A   1      33.171  29.370  24.558  1.00  0.00     0.116 C 
BRANCH   2   3
ATOM      3  N   UNL A   1      32.510  28.450  23.630  1.00  0.00    -0.356 N 
ATOM      4  C   UNL A   1      32.193  27.136  23.563  1.00  0.00     0.225 C 
ATOM      5  O   UNL A   1      31.572  26.823  22.533  1.00  0.00    -0.275 OA
ATOM      6  H   UNL A   1      32.209  28.924  22.822  1.00  0.00     0.163 HD
BRANCH   4   7
ATOM      7  C   UNL A   1      32.578  26.004  24.525  1.00  0.00     0.104 C 
ATOM      8  C   UNL A   1      32.163  24.564  24.249  1.00  0.00     0.095 C 
ATOM      9  C   UNL A   1      31.424  24.149  25.548  1.00  0.00     0.012 C 
ATOM     10  C   UNL A   1      30.114  24.968  25.706  1.00  0.00     0.006 C 
ATOM     11  C   UNL A   1      32.245  24.828  26.631  1.00  0.00     0.010 C 
ATOM     12  C   UNL A   1      32.128  26.219  25.997  1.00  0.00     0.004 C 
ATOM     13  C   UNL A   1      30.613  26.383  26.071  1.00  0.00     0.005 C 
BRANCH   8  14
ATOM     14  N   UNL A   1      33.261  23.675  23.803  1.00  0.00    -0.376 N 
ATOM     15  H   UNL A   1      33.336  23.686  22.821  1.00  0.00     0.161 HD
BRANCH  14  16
ATOM     16  C   UNL A   1      34.209  22.835  24.350  1.00  0.00     0.114 A 
ATOM     17  C   UNL A   1      37.646  23.571  25.955  1.00  0.00     0.044 C 
ATOM     18  C   UNL A   1      36.500  22.814  25.347  1.00  0.00    -0.049 A 
ATOM     19  C   UNL A   1      36.519  21.425  25.346  1.00  0.00     0.010 A 
ATOM     20  C   UNL A   1      35.383  23.488  24.810  1.00  0.00     0.036 A 
ATOM     21  C   UNL A   1      35.386  20.736  24.937  1.00  0.00     0.088 A 
ATOM     22  C   UNL A   1      34.235  21.439  24.509  1.00  0.00     0.292 A 
BRANCH  22  23
ATOM     23  N   UNL A   1      33.028  20.630  24.593  1.00  0.00     0.064 N 
ATOM     24  O   UNL A   1      32.184  20.772  23.693  1.00  0.00    -0.258 OA
ATOM     25  O   UNL A   1      32.997  19.743  25.456  1.00  0.00    -0.258 OA
ENDBRANCH  22  23
ENDBRANCH  14  16
ENDBRANCH   8  14
ENDBRANCH   4   7
ENDBRANCH   2   3
ENDBRANCH   1   2
BRANCH   1  26
ATOM     26  C   UNL A   1      32.853  29.944  27.066  1.00  0.00     0.023 C 
BRANCH  26  27
ATOM     27  C   UNL A   1      34.370  29.894  27.041  1.00  0.00     0.116 C 
BRANCH  27  28
ATOM     28  N   UNL A   1      35.032  31.084  27.559  1.00  0.00    -0.352 N 
ATOM     29  C   UNL A   1      36.251  31.149  28.216  1.00  0.00     0.251 C 
ATOM     30  H   UNL A   1      34.560  31.937  27.429  1.00  0.00     0.163 HD
ATOM     31  O   UNL A   1      36.623  32.159  28.792  1.00  0.00    -0.269 OA
BRANCH  29  32
ATOM     32  C   UNL A   1      37.124  29.956  28.138  1.00  0.00     0.039 A 
ATOM     33  C   UNL A   1      37.271  29.173  29.287  1.00  0.00     0.014 A 
ATOM     34  C   UNL A   1      37.989  29.809  27.056  1.00  0.00     0.014 A 
ATOM     35  C   UNL A   1      38.404  28.373  29.426  1.00  0.00     0.010 A 
ATOM     36  C   UNL A   1      39.169  29.114  27.250  1.00  0.00     0.010 A 
ATOM     37  C   UNL A   1      39.403  28.427  28.451  1.00  0.00    -0.014 A 
BRANCH  37  38
ATOM     38  C   UNL A   1      40.748  27.882  28.636  1.00  0.00     0.031 A 
ATOM     39  C   UNL A   1      41.039  26.467  28.283  1.00  0.00     0.074 A 
ATOM     40  C   UNL A   1      41.767  28.657  29.073  1.00  0.00     0.049 A 
ATOM     41  N   UNL A   1      41.998  25.767  28.796  1.00  0.00    -0.248 NA
ATOM     42  C   UNL A   1      40.217  25.705  27.349  1.00  0.00     0.031 C 
ATOM     43  C   UNL A   1      43.192  28.330  29.005  1.00  0.00     0.029 A 
ATOM     44  N   UNL A   1      41.731  29.806  29.868  1.00  0.00    -0.354 N 
ATOM     45  C   UNL A   1      42.116  24.614  28.049  1.00  0.00     0.074 A 
ATOM     46  C   UNL A   1      40.929  24.582  27.225  1.00  0.00     0.031 C 
ATOM     47  C   UNL A   1      43.838  29.022  29.953  1.00  0.00     0.029 A 
ATOM     48  C   UNL A   1      42.836  29.728  30.733  1.00  0.00     0.049 A 
ATOM     49  H   UNL A   1      41.061  30.528  29.830  1.00  0.00     0.167 HD
ATOM     50  C   UNL A   1      43.267  23.882  28.090  1.00  0.00     0.031 A 
ATOM     51  C   UNL A   1      42.769  29.757  32.095  1.00  0.00     0.031 A 
ATOM     52  C   UNL A   1      44.214  24.396  29.077  1.00  0.00     0.049 A 
ATOM     53  C   UNL A   1      43.412  28.560  32.757  1.00  0.00     0.074 A 
ATOM     54  C   UNL A   1      45.382  25.136  28.976  1.00  0.00     0.029 A 
ATOM     55  N   UNL A   1      43.878  24.378  30.426  1.00  0.00    -0.354 N 
ATOM     56  N   UNL A   1      43.807  27.498  32.115  1.00  0.00    -0.248 NA
ATOM     57  C   UNL A   1      43.596  28.433  34.202  1.00  0.00     0.031 C 
ATOM     58  C   UNL A   1      45.720  25.607  30.270  1.00  0.00     0.029 A 
ATOM     59  C   UNL A   1      44.767  25.142  31.159  1.00  0.00     0.049 A 
ATOM     60  H   UNL A   1      43.114  23.888  30.807  1.00  0.00     0.167 HD
ATOM     61  C   UNL A   1      44.225  26.545  33.008  1.00  0.00     0.074 A 
ATOM     62  C   UNL A   1      44.109  27.194  34.301  1.00  0.00     0.031 C 
ATOM     63  C   UNL A   1      44.596  25.296  32.599  1.00  0.00     0.031 A 
BRANCH  50  64
ATOM     64  C   UNL A   1      43.647  22.879  27.015  1.00  0.00    -0.014 A 
ATOM     65  C   UNL A   1      42.839  21.742  26.801  1.00  0.00     0.010 A 
ATOM     66  C   UNL A   1      44.815  22.954  26.234  1.00  0.00     0.010 A 
ATOM     67  C   UNL A   1      43.234  20.690  25.958  1.00  0.00     0.020 A 
ATOM     68  C   UNL A   1      45.246  21.894  25.420  1.00  0.00     0.020 A 
ATOM     69  C   UNL A   1      44.457  20.757  25.298  1.00  0.00     0.054 A 
BRANCH  69  70
ATOM     70  S   UNL A   1      45.008  19.350  24.300  1.00  0.00     0.124 S 
ATOM     71  O   UNL A   1      44.523  19.699  22.967  1.00  0.00    -0.237 OA
ATOM     72  O   UNL A   1      46.456  19.390  24.476  1.00  0.00    -0.237 OA
ATOM     73  O   UNL A   1      44.339  18.205  24.917  1.00  0.00    -0.744 OA
ENDBRANCH  69  70
ENDBRANCH  50  64
BRANCH  51  74
ATOM     74  C   UNL A   1      41.615  30.512  32.643  1.00  0.00    -0.014 A 
ATOM     75  C   UNL A   1      40.427  29.787  32.872  1.00  0.00     0.010 A 
ATOM     76  C   UNL A   1      41.822  31.727  33.319  1.00  0.00     0.010 A 
ATOM     77  C   UNL A   1      39.561  30.164  33.898  1.00  0.00     0.020 A 
ATOM     78  C   UNL A   1      40.952  32.106  34.349  1.00  0.00     0.020 A 
ATOM     79  C   UNL A   1      39.873  31.278  34.676  1.00  0.00     0.054 A 
BRANCH  79  80
ATOM     80  S   UNL A   1      38.990  31.481  36.251  1.00  0.00     0.124 S 
ATOM     81  O   UNL A   1      40.047  31.941  37.146  1.00  0.00    -0.237 OA
ATOM     82  O   UNL A   1      37.986  32.482  35.891  1.00  0.00    -0.237 OA
ATOM     83  O   UNL A   1      38.473  30.143  36.517  1.00  0.00    -0.744 OA
ENDBRANCH  79  80
ENDBRANCH  51  74
BRANCH  63  84
ATOM     84  C   UNL A   1      44.902  24.114  33.492  1.00  0.00    -0.014 A 
ATOM     85  C   UNL A   1      43.966  23.142  33.875  1.00  0.00     0.010 A 
ATOM     86  C   UNL A   1      46.243  23.898  33.897  1.00  0.00     0.010 A 
ATOM     87  C   UNL A   1      44.331  22.048  34.676  1.00  0.00     0.020 A 
ATOM     88  C   UNL A   1      46.627  22.790  34.659  1.00  0.00     0.020 A 
ATOM     89  C   UNL A   1      45.658  21.882  35.069  1.00  0.00     0.054 A 
BRANCH  89  90
ATOM     90  S   UNL A   1      46.135  20.441  36.056  1.00  0.00     0.124 S 
ATOM     91  O   UNL A   1      47.592  20.476  35.955  1.00  0.00    -0.237 OA
ATOM     92  O   UNL A   1      45.593  20.751  37.378  1.00  0.00    -0.237 OA
ATOM     93  O   UNL A   1      45.483  19.329  35.371  1.00  0.00    -0.744 OA
ENDBRANCH  89  90
ENDBRANCH  63  84
ENDBRANCH  37  38
ENDBRANCH  29  32
ENDBRANCH  27  28
ENDBRANCH  26  27
ENDBRANCH   1  26
TORSDOF 17
ENDMDL
MODEL 2
REMARK VINA RESULT:     -12.9      1.561      2.056
REMARK SMILES Cc1ccc([N+](=O)[O-])c(N[C@H]2[C@@H]3CC[C@@H](C3)[C@@H]2C(=O)NCCCCNC(=O)c2ccc(-c3c4nc(c(-c5ccc(S(=O)(=O)[O-])cc5)c5ccc([nH]5)c(-c5ccc(S(=O)(=O)[O-])cc5)c5nc(c(-c6ccc(S(=O)(=O)[O-])cc6)c6ccc3[nH]6)C=C5)C=C4)cc2)c1
REMARK SMILES IDX 22 1 21 2 20 3 18 4 19 5 17 7 11 8 12 9 13 10 16 11 15 12
REMARK SMILES IDX 14 13 10 14 9 16 1 17 2 18 3 19 88 20 4 21 5 22 6 23 7 24
REMARK SMILES IDX 8 25 23 26 24 27 25 28 26 29 27 31 28 32 29 33 87 34 30 35
REMARK SMILES IDX 86 36 31 37 32 38 33 39 80 40 34 41 85 42 79 43 81 44 35 45
REMARK SMILES IDX 84 46 78 47 77 48 36 50 66 51 47 52 65 53 48 54 51 55 64 56
REMARK SMILES IDX 82 57 49 58 50 59 63 61 83 62 52 63 37 64 38 65 46 66 39 67
REMARK SMILES IDX 45 68 40 69 41 70 42 71 43 72 44 73 67 74 68 75 76 76 69 77
REMARK SMILES IDX 75 78 70 79 71 80 72 81 73 82 74 83 53 84 54 85 62 86 55 87
REMARK SMILES IDX 61 88 56 89 57 90 58 91 59 92 60 93
REMARK H PARENT 20 6 10 15 25 30 81 49 51 60
REMARK Flexibility Score: inf
ROOT
ATOM      1  C   UNL A   1      32.137  30.591  26.538  1.00  0.00     0.023 C 
ENDROOT
BRANCH   1   2
ATOM      2  C   UNL A   1      31.559  29.979  25.248  1.00  0.00     0.116 C 
BRANCH   2   3
ATOM      3  N   UNL A   1      32.569  29.637  24.244  1.00  0.00    -0.356 N 
ATOM      4  C   UNL A   1      33.058  28.531  23.639  1.00  0.00     0.225 C 
ATOM      5  O   UNL A   1      33.932  28.770  22.789  1.00  0.00    -0.275 OA
ATOM      6  H   UNL A   1      33.023  30.447  23.915  1.00  0.00     0.163 HD
BRANCH   4   7
ATOM      7  C   UNL A   1      32.745  27.057  23.931  1.00  0.00     0.104 C 
ATOM      8  C   UNL A   1      33.760  25.963  23.621  1.00  0.00     0.095 C 
ATOM      9  C   UNL A   1      32.962  24.981  22.723  1.00  0.00     0.012 C 
ATOM     10  C   UNL A   1      32.606  25.655  21.371  1.00  0.00     0.006 C 
ATOM     11  C   UNL A   1      31.580  24.999  23.354  1.00  0.00     0.010 C 
ATOM     12  C   UNL A   1      31.445  26.524  23.269  1.00  0.00     0.004 C 
ATOM     13  C   UNL A   1      31.517  26.680  21.752  1.00  0.00     0.005 C 
BRANCH   8  14
ATOM     14  N   UNL A   1      34.426  25.378  24.808  1.00  0.00    -0.376 N 
ATOM     15  H   UNL A   1      34.835  26.086  25.356  1.00  0.00     0.161 HD
BRANCH  14  16
ATOM     16  C   UNL A   1      34.647  24.140  25.374  1.00  0.00     0.114 A 
ATOM     17  C   UNL A   1      37.840  21.976  25.609  1.00  0.00     0.044 C 
ATOM     18  C   UNL A   1      36.394  22.378  25.666  1.00  0.00    -0.049 A 
ATOM     19  C   UNL A   1      35.460  21.501  26.205  1.00  0.00     0.010 A 
ATOM     20  C   UNL A   1      35.969  23.645  25.218  1.00  0.00     0.036 A 
ATOM     21  C   UNL A   1      34.161  21.943  26.409  1.00  0.00     0.088 A 
ATOM     22  C   UNL A   1      33.788  23.261  26.055  1.00  0.00     0.292 A 
BRANCH  22  23
ATOM     23  N   UNL A   1      32.596  23.709  26.760  1.00  0.00     0.064 N 
ATOM     24  O   UNL A   1      32.085  22.919  27.572  1.00  0.00    -0.258 OA
ATOM     25  O   UNL A   1      32.270  24.896  26.630  1.00  0.00    -0.258 OA
ENDBRANCH  22  23
ENDBRANCH  14  16
ENDBRANCH   8  14
ENDBRANCH   4   7
ENDBRANCH   2   3
ENDBRANCH   1   2
BRANCH   1  26
ATOM     26  C   UNL A   1      33.019  29.656  27.366  1.00  0.00     0.023 C 
BRANCH  26  27
ATOM     27  C   UNL A   1      34.494  29.816  27.040  1.00  0.00     0.116 C 
BRANCH  27  28
ATOM     28  N   UNL A   1      35.125  30.996  27.614  1.00  0.00    -0.352 N 
ATOM     29  C   UNL A   1      36.316  31.052  28.322  1.00  0.00     0.251 C 
ATOM     30  H   UNL A   1      34.653  31.849  27.486  1.00  0.00     0.163 HD
ATOM     31  O   UNL A   1      36.657  32.049  28.939  1.00  0.00    -0.269 OA
BRANCH  29  32
ATOM     32  C   UNL A   1      37.200  29.866  28.252  1.00  0.00     0.039 A 
ATOM     33  C   UNL A   1      37.353  29.091  29.405  1.00  0.00     0.014 A 
ATOM     34  C   UNL A   1      38.066  29.720  27.170  1.00  0.00     0.014 A 
ATOM     35  C   UNL A   1      38.493  28.302  29.549  1.00  0.00     0.010 A 
ATOM     36  C   UNL A   1      39.251  29.037  27.368  1.00  0.00     0.010 A 
ATOM     37  C   UNL A   1      39.491  28.359  28.573  1.00  0.00    -0.014 A 
BRANCH  37  38
ATOM     38  C   UNL A   1      40.841  27.826  28.762  1.00  0.00     0.031 A 
ATOM     39  C   UNL A   1      41.153  26.422  28.386  1.00  0.00     0.074 A 
ATOM     40  C   UNL A   1      41.846  28.606  29.223  1.00  0.00     0.049 A 
ATOM     41  N   UNL A   1      42.116  25.724  28.895  1.00  0.00    -0.248 NA
ATOM     42  C   UNL A   1      40.349  25.668  27.430  1.00  0.00     0.031 C 
ATOM     43  C   UNL A   1      43.275  28.297  29.163  1.00  0.00     0.029 A 
ATOM     44  N   UNL A   1      41.788  29.739  30.039  1.00  0.00    -0.354 N 
ATOM     45  C   UNL A   1      42.255  24.587  28.128  1.00  0.00     0.074 A 
ATOM     46  C   UNL A   1      41.077  24.556  27.292  1.00  0.00     0.031 C 
ATOM     47  C   UNL A   1      43.904  28.980  30.130  1.00  0.00     0.029 A 
ATOM     48  C   UNL A   1      42.886  29.659  30.913  1.00  0.00     0.049 A 
ATOM     49  H   UNL A   1      41.111  30.453  30.007  1.00  0.00     0.167 HD
ATOM     50  C   UNL A   1      43.414  23.869  28.167  1.00  0.00     0.031 A 
ATOM     51  C   UNL A   1      42.806  29.661  32.274  1.00  0.00     0.031 A 
ATOM     52  C   UNL A   1      44.346  24.375  29.173  1.00  0.00     0.049 A 
ATOM     53  C   UNL A   1      43.457  28.460  32.921  1.00  0.00     0.074 A 
ATOM     54  C   UNL A   1      45.505  25.131  29.097  1.00  0.00     0.029 A 
ATOM     55  N   UNL A   1      43.997  24.328  30.518  1.00  0.00    -0.354 N 
ATOM     56  N   UNL A   1      43.871  27.415  32.263  1.00  0.00    -0.248 NA
ATOM     57  C   UNL A   1      43.629  28.309  34.364  1.00  0.00     0.031 C 
ATOM     58  C   UNL A   1      45.825  25.582  30.403  1.00  0.00     0.029 A 
ATOM     59  C   UNL A   1      44.869  25.090  31.273  1.00  0.00     0.049 A 
ATOM     60  H   UNL A   1      43.235  23.823  30.882  1.00  0.00     0.167 HD
ATOM     61  C   UNL A   1      44.292  26.451  33.143  1.00  0.00     0.074 A 
ATOM     62  C   UNL A   1      44.156  27.074  34.445  1.00  0.00     0.031 C 
ATOM     63  C   UNL A   1      44.683  25.215  32.714  1.00  0.00     0.031 A 
BRANCH  50  64
ATOM     64  C   UNL A   1      43.817  22.890  27.077  1.00  0.00    -0.014 A 
ATOM     65  C   UNL A   1      42.933  21.855  26.704  1.00  0.00     0.010 A 
ATOM     66  C   UNL A   1      45.069  22.886  26.435  1.00  0.00     0.010 A 
ATOM     67  C   UNL A   1      43.319  20.815  25.843  1.00  0.00     0.020 A 
ATOM     68  C   UNL A   1      45.486  21.833  25.606  1.00  0.00     0.020 A 
ATOM     69  C   UNL A   1      44.610  20.791  25.326  1.00  0.00     0.054 A 
BRANCH  69  70
ATOM     70  S   UNL A   1      45.135  19.389  24.305  1.00  0.00     0.124 S 
ATOM     71  O   UNL A   1      44.703  18.241  25.099  1.00  0.00    -0.237 OA
ATOM     72  O   UNL A   1      44.398  19.614  23.065  1.00  0.00    -0.237 OA
ATOM     73  O   UNL A   1      46.584  19.557  24.206  1.00  0.00    -0.744 OA
ENDBRANCH  69  70
ENDBRANCH  50  64
BRANCH  51  74
ATOM     74  C   UNL A   1      41.638  30.392  32.825  1.00  0.00    -0.014 A 
ATOM     75  C   UNL A   1      41.839  31.740  33.188  1.00  0.00     0.010 A 
ATOM     76  C   UNL A   1      40.333  29.935  32.570  1.00  0.00     0.010 A 
ATOM     77  C   UNL A   1      40.790  32.655  33.102  1.00  0.00     0.020 A 
ATOM     78  C   UNL A   1      39.279  30.853  32.485  1.00  0.00     0.020 A 
ATOM     79  C   UNL A   1      39.537  32.214  32.677  1.00  0.00     0.054 A 
BRANCH  79  80
ATOM     80  S   UNL A   1      38.334  33.471  32.154  1.00  0.00     0.124 S 
ATOM     81  O   UNL A   1      38.759  33.763  30.789  1.00  0.00    -0.237 OA
ATOM     82  O   UNL A   1      37.076  32.737  32.281  1.00  0.00    -0.237 OA
ATOM     83  O   UNL A   1      38.533  34.545  33.122  1.00  0.00    -0.744 OA
ENDBRANCH  79  80
ENDBRANCH  51  74
BRANCH  63  84
ATOM     84  C   UNL A   1      44.995  24.020  33.588  1.00  0.00    -0.014 A 
ATOM     85  C   UNL A   1      44.030  23.158  34.132  1.00  0.00     0.010 A 
ATOM     86  C   UNL A   1      46.351  23.669  33.801  1.00  0.00     0.010 A 
ATOM     87  C   UNL A   1      44.396  22.043  34.903  1.00  0.00     0.020 A 
ATOM     88  C   UNL A   1      46.728  22.538  34.531  1.00  0.00     0.020 A 
ATOM     89  C   UNL A   1      45.743  21.744  35.105  1.00  0.00     0.054 A 
BRANCH  89  90
ATOM     90  S   UNL A   1      46.210  20.275  36.054  1.00  0.00     0.124 S 
ATOM     91  O   UNL A   1      45.610  19.202  35.265  1.00  0.00    -0.237 OA
ATOM     92  O   UNL A   1      47.671  20.321  36.036  1.00  0.00    -0.237 OA
ATOM     93  O   UNL A   1      45.605  20.508  37.362  1.00  0.00    -0.744 OA
ENDBRANCH  89  90
ENDBRANCH  63  84
ENDBRANCH  37  38
ENDBRANCH  29  32
ENDBRANCH  27  28
ENDBRANCH  26  27
ENDBRANCH   1  26
TORSDOF 17
ENDMDL
MODEL 3
REMARK VINA RESULT:     -12.6      1.299      1.837
REMARK SMILES Cc1ccc([N+](=O)[O-])c(N[C@H]2[C@@H]3CC[C@@H](C3)[C@@H]2C(=O)NCCCCNC(=O)c2ccc(-c3c4nc(c(-c5ccc(S(=O)(=O)[O-])cc5)c5ccc([nH]5)c(-c5ccc(S(=O)(=O)[O-])cc5)c5nc(c(-c6ccc(S(=O)(=O)[O-])cc6)c6ccc3[nH]6)C=C5)C=C4)cc2)c1
REMARK SMILES IDX 22 1 21 2 20 3 18 4 19 5 17 7 11 8 12 9 13 10 16 11 15 12
REMARK SMILES IDX 14 13 10 14 9 16 1 17 2 18 3 19 88 20 4 21 5 22 6 23 7 24
REMARK SMILES IDX 8 25 23 26 24 27 25 28 26 29 27 31 28 32 29 33 87 34 30 35
REMARK SMILES IDX 86 36 31 37 32 38 33 39 80 40 34 41 85 42 79 43 81 44 35 45
REMARK SMILES IDX 84 46 78 47 77 48 36 50 66 51 47 52 65 53 48 54 51 55 64 56
REMARK SMILES IDX 82 57 49 58 50 59 63 61 83 62 52 63 37 64 38 65 46 66 39 67
REMARK SMILES IDX 45 68 40 69 41 70 42 71 43 72 44 73 67 74 68 75 76 76 69 77
REMARK SMILES IDX 75 78 70 79 71 80 72 81 73 82 74 83 53 84 54 85 62 86 55 87
REMARK SMILES IDX 61 88 56 89 57 90 58 91 59 92 60 93
REMARK H PARENT 20 6 10 15 25 30 81 49 51 60
REMARK Flexibility Score: inf
ROOT
ATOM      1  C   UNL A   1      31.810  29.448  26.369  1.00  0.00     0.023 C 
ENDROOT
BRANCH   1   2
ATOM      2  C   UNL A   1      32.129  28.126  27.091  1.00  0.00     0.116 C 
BRANCH   2   3
ATOM      3  N   UNL A   1      31.109  27.090  26.919  1.00  0.00    -0.356 N 
ATOM      4  C   UNL A   1      30.849  26.056  26.086  1.00  0.00     0.225 C 
ATOM      5  O   UNL A   1      29.824  25.418  26.384  1.00  0.00    -0.275 OA
ATOM      6  H   UNL A   1      30.411  27.167  27.609  1.00  0.00     0.163 HD
BRANCH   4   7
ATOM      7  C   UNL A   1      31.584  25.647  24.802  1.00  0.00     0.104 C 
ATOM      8  C   UNL A   1      32.898  26.308  24.406  1.00  0.00     0.095 C 
ATOM      9  C   UNL A   1      32.622  26.819  22.968  1.00  0.00     0.012 C 
ATOM     10  C   UNL A   1      31.549  27.941  22.992  1.00  0.00     0.006 C 
ATOM     11  C   UNL A   1      31.772  25.707  22.376  1.00  0.00     0.010 C 
ATOM     12  C   UNL A   1      30.735  25.754  23.505  1.00  0.00     0.004 C 
ATOM     13  C   UNL A   1      30.241  27.185  23.309  1.00  0.00     0.005 C 
BRANCH   8  14
ATOM     14  N   UNL A   1      34.100  25.459  24.584  1.00  0.00    -0.376 N 
ATOM     15  H   UNL A   1      34.910  25.950  24.316  1.00  0.00     0.161 HD
BRANCH  14  16
ATOM     16  C   UNL A   1      34.423  24.189  25.011  1.00  0.00     0.114 A 
ATOM     17  C   UNL A   1      33.406  22.227  28.181  1.00  0.00     0.044 C 
ATOM     18  C   UNL A   1      34.133  22.606  26.923  1.00  0.00    -0.049 A 
ATOM     19  C   UNL A   1      35.045  21.719  26.365  1.00  0.00     0.010 A 
ATOM     20  C   UNL A   1      33.878  23.832  26.273  1.00  0.00     0.036 A 
ATOM     21  C   UNL A   1      35.584  22.003  25.118  1.00  0.00     0.088 A 
ATOM     22  C   UNL A   1      35.224  23.188  24.434  1.00  0.00     0.292 A 
BRANCH  22  23
ATOM     23  N   UNL A   1      35.466  23.098  23.002  1.00  0.00     0.064 N 
ATOM     24  O   UNL A   1      34.507  23.330  22.247  1.00  0.00    -0.258 OA
ATOM     25  O   UNL A   1      36.639  22.960  22.631  1.00  0.00    -0.258 OA
ENDBRANCH  22  23
ENDBRANCH  14  16
ENDBRANCH   8  14
ENDBRANCH   4   7
ENDBRANCH   2   3
ENDBRANCH   1   2
BRANCH   1  26
ATOM     26  C   UNL A   1      32.957  30.458  26.318  1.00  0.00     0.023 C 
BRANCH  26  27
ATOM     27  C   UNL A   1      34.060  30.127  27.307  1.00  0.00     0.116 C 
BRANCH  27  28
ATOM     28  N   UNL A   1      34.714  31.283  27.905  1.00  0.00    -0.352 N 
ATOM     29  C   UNL A   1      35.930  31.310  28.571  1.00  0.00     0.251 C 
ATOM     30  H   UNL A   1      34.240  32.141  27.828  1.00  0.00     0.163 HD
ATOM     31  O   UNL A   1      36.295  32.281  29.214  1.00  0.00    -0.269 OA
BRANCH  29  32
ATOM     32  C   UNL A   1      36.809  30.127  28.420  1.00  0.00     0.039 A 
ATOM     33  C   UNL A   1      36.965  29.281  29.522  1.00  0.00     0.014 A 
ATOM     34  C   UNL A   1      37.667  30.046  27.327  1.00  0.00     0.014 A 
ATOM     35  C   UNL A   1      38.104  28.480  29.608  1.00  0.00     0.010 A 
ATOM     36  C   UNL A   1      38.851  29.347  27.473  1.00  0.00     0.010 A 
ATOM     37  C   UNL A   1      39.096  28.595  28.632  1.00  0.00    -0.014 A 
BRANCH  37  38
ATOM     38  C   UNL A   1      40.445  28.046  28.778  1.00  0.00     0.031 A 
ATOM     39  C   UNL A   1      40.708  26.613  28.482  1.00  0.00     0.074 A 
ATOM     40  C   UNL A   1      41.490  28.833  29.126  1.00  0.00     0.049 A 
ATOM     41  N   UNL A   1      41.687  25.930  28.981  1.00  0.00    -0.248 NA
ATOM     42  C   UNL A   1      39.836  25.814  27.628  1.00  0.00     0.031 C 
ATOM     43  C   UNL A   1      42.907  28.489  29.005  1.00  0.00     0.029 A 
ATOM     44  N   UNL A   1      41.500  30.019  29.864  1.00  0.00    -0.354 N 
ATOM     45  C   UNL A   1      41.759  24.741  28.287  1.00  0.00     0.074 A 
ATOM     46  C   UNL A   1      40.533  24.680  27.525  1.00  0.00     0.031 C 
ATOM     47  C   UNL A   1      43.603  29.221  29.884  1.00  0.00     0.029 A 
ATOM     48  C   UNL A   1      42.646  29.973  30.676  1.00  0.00     0.049 A 
ATOM     49  H   UNL A   1      40.835  30.744  29.823  1.00  0.00     0.167 HD
ATOM     50  C   UNL A   1      42.905  24.001  28.308  1.00  0.00     0.031 A 
ATOM     51  C   UNL A   1      42.648  30.069  32.037  1.00  0.00     0.031 A 
ATOM     52  C   UNL A   1      43.904  24.554  29.221  1.00  0.00     0.049 A 
ATOM     53  C   UNL A   1      43.314  28.900  32.725  1.00  0.00     0.074 A 
ATOM     54  C   UNL A   1      45.071  25.277  29.026  1.00  0.00     0.029 A 
ATOM     55  N   UNL A   1      43.635  24.605  30.584  1.00  0.00    -0.354 N 
ATOM     56  N   UNL A   1      43.669  27.804  32.118  1.00  0.00    -0.248 NA
ATOM     57  C   UNL A   1      43.568  28.843  34.163  1.00  0.00     0.031 C 
ATOM     58  C   UNL A   1      45.475  25.807  30.277  1.00  0.00     0.029 A 
ATOM     59  C   UNL A   1      44.564  25.396  31.233  1.00  0.00     0.049 A 
ATOM     60  H   UNL A   1      42.887  24.142  31.025  1.00  0.00     0.167 HD
ATOM     61  C   UNL A   1      44.124  26.893  33.035  1.00  0.00     0.074 A 
ATOM     62  C   UNL A   1      44.076  27.605  34.298  1.00  0.00     0.031 C 
ATOM     63  C   UNL A   1      44.466  25.622  32.671  1.00  0.00     0.031 A 
BRANCH  50  64
ATOM     64  C   UNL A   1      43.225  22.943  27.267  1.00  0.00    -0.014 A 
ATOM     65  C   UNL A   1      42.376  21.825  27.120  1.00  0.00     0.010 A 
ATOM     66  C   UNL A   1      44.374  22.947  26.454  1.00  0.00     0.010 A 
ATOM     67  C   UNL A   1      42.715  20.728  26.312  1.00  0.00     0.020 A 
ATOM     68  C   UNL A   1      44.749  21.842  25.674  1.00  0.00     0.020 A 
ATOM     69  C   UNL A   1      43.921  20.727  25.620  1.00  0.00     0.054 A 
BRANCH  69  70
ATOM     70  S   UNL A   1      44.401  19.262  24.668  1.00  0.00     0.124 S 
ATOM     71  O   UNL A   1      45.704  18.928  25.237  1.00  0.00    -0.237 OA
ATOM     72  O   UNL A   1      43.322  18.328  24.968  1.00  0.00    -0.237 OA
ATOM     73  O   UNL A   1      44.439  19.745  23.288  1.00  0.00    -0.744 OA
ENDBRANCH  69  70
ENDBRANCH  50  64
BRANCH  51  74
ATOM     74  C   UNL A   1      41.527  30.861  32.603  1.00  0.00    -0.014 A 
ATOM     75  C   UNL A   1      40.321  30.175  32.854  1.00  0.00     0.010 A 
ATOM     76  C   UNL A   1      41.784  32.070  33.273  1.00  0.00     0.010 A 
ATOM     77  C   UNL A   1      39.485  30.580  33.893  1.00  0.00     0.020 A 
ATOM     78  C   UNL A   1      40.943  32.479  34.316  1.00  0.00     0.020 A 
ATOM     79  C   UNL A   1      39.845  31.686  34.663  1.00  0.00     0.054 A 
BRANCH  79  80
ATOM     80  S   UNL A   1      38.995  31.919  36.252  1.00  0.00     0.124 S 
ATOM     81  O   UNL A   1      40.060  31.662  37.218  1.00  0.00    -0.237 OA
ATOM     82  O   UNL A   1      38.562  33.311  36.146  1.00  0.00    -0.237 OA
ATOM     83  O   UNL A   1      37.928  30.925  36.208  1.00  0.00    -0.744 OA
ENDBRANCH  79  80
ENDBRANCH  51  74
BRANCH  63  84
ATOM     84  C   UNL A   1      44.807  24.483  33.605  1.00  0.00    -0.014 A 
ATOM     85  C   UNL A   1      43.862  23.696  34.280  1.00  0.00     0.010 A 
ATOM     86  C   UNL A   1      46.165  24.100  33.742  1.00  0.00     0.010 A 
ATOM     87  C   UNL A   1      44.251  22.627  35.103  1.00  0.00     0.020 A 
ATOM     88  C   UNL A   1      46.562  23.011  34.525  1.00  0.00     0.020 A 
ATOM     89  C   UNL A   1      45.600  22.295  35.226  1.00  0.00     0.054 A 
BRANCH  89  90
ATOM     90  S   UNL A   1      46.094  20.882  36.244  1.00  0.00     0.124 S 
ATOM     91  O   UNL A   1      45.584  21.264  37.558  1.00  0.00    -0.237 OA
ATOM     92  O   UNL A   1      45.404  19.760  35.610  1.00  0.00    -0.237 OA
ATOM     93  O   UNL A   1      47.548  20.861  36.114  1.00  0.00    -0.744 OA
ENDBRANCH  89  90
ENDBRANCH  63  84
ENDBRANCH  37  38
ENDBRANCH  29  32
ENDBRANCH  27  28
ENDBRANCH  26  27
ENDBRANCH   1  26
TORSDOF 17
ENDMDL
