MODEL 1
REMARK VINA RESULT:     -11.6      0.000      0.000
REMARK SMILES O=C(CC1CC[NH+](C[C@H]2Cc3ccccc3O2)CC1)NCCCCNC(=O)c1ccc(-c2c3nc(c(-c4ccc(S(=O)(=O)[O-])cc4)c4ccc([nH]4)c(-c4ccc(S(=O)(=O)[O-])cc4)c4nc(c(-c5ccc(S(=O)(=O)[O-])cc5)c5ccc2[nH]5)C=C4)C=C3)cc1
REMARK SMILES IDX 22 1 21 2 20 3 1 4 2 5 3 7 4 8 5 9 19 10 6 11 18 12 7 13
REMARK SMILES IDX 8 15 9 16 10 17 17 18 11 19 16 20 12 21 15 22 13 23 14 24
REMARK SMILES IDX 23 25 24 26 25 27 26 28 27 30 28 31 29 32 87 33 30 34 86 35
REMARK SMILES IDX 31 36 32 37 33 38 80 39 34 40 85 41 79 42 81 43 35 44 84 45
REMARK SMILES IDX 78 46 77 47 36 49 66 50 47 51 65 52 48 53 51 54 64 55 82 56
REMARK SMILES IDX 49 57 50 58 63 60 83 61 52 62 37 63 38 64 46 65 39 66 45 67
REMARK SMILES IDX 40 68 41 69 42 70 43 71 44 72 67 73 68 74 76 75 69 76 75 77
REMARK SMILES IDX 70 78 71 79 72 80 73 81 74 82 53 83 54 84 62 85 55 86 61 87
REMARK SMILES IDX 56 88 57 89 58 90 59 91 60 92
REMARK H PARENT 20 6 7 14 25 29 81 48 51 59
REMARK Flexibility Score: inf
ROOT
ATOM      1  C   UNL A   1      39.654  21.558  26.439  1.00  0.00     0.023 C 
ENDROOT
BRANCH   1   2
ATOM      2  C   UNL A   1      38.420  21.782  25.557  1.00  0.00     0.116 C 
BRANCH   2   3
ATOM      3  N   UNL A   1      37.243  22.289  26.227  1.00  0.00    -0.356 N 
ATOM      4  O   UNL A   1      36.340  23.256  24.340  1.00  0.00    -0.275 OA
ATOM      5  C   UNL A   1      36.262  22.978  25.534  1.00  0.00     0.220 C 
ATOM      6  H   UNL A   1      37.136  22.143  27.195  1.00  0.00     0.163 HD
BRANCH   5   7
ATOM      7  C   UNL A   1      35.050  23.350  26.365  1.00  0.00     0.104 C 
BRANCH   7   8
ATOM      8  C   UNL A   1      34.326  22.166  27.045  1.00  0.00     0.009 C 
ATOM      9  C   UNL A   1      33.920  21.121  25.995  1.00  0.00     0.066 C 
ATOM     10  C   UNL A   1      33.065  22.510  27.857  1.00  0.00     0.066 C 
ATOM     11  C   UNL A   1      32.722  21.573  25.140  1.00  0.00     0.262 C 
ATOM     12  C   UNL A   1      31.824  22.805  26.995  1.00  0.00     0.262 C 
ATOM     13  N   UNL A   1      32.154  22.872  25.567  1.00  0.00    -0.332 N 
ATOM     14  H   UNL A   1      32.840  23.615  25.436  1.00  0.00     0.348 HD
BRANCH  13  15
ATOM     15  C   UNL A   1      30.983  23.228  24.727  1.00  0.00     0.308 C 
BRANCH  15  16
ATOM     16  C   UNL A   1      30.950  24.698  24.196  1.00  0.00     0.232 C 
ATOM     17  C   UNL A   1      30.284  25.668  25.178  1.00  0.00     0.090 C 
ATOM     18  O   UNL A   1      32.269  25.204  23.865  1.00  0.00    -0.484 OA
ATOM     19  C   UNL A   1      31.457  26.424  25.653  1.00  0.00    -0.002 A 
ATOM     20  C   UNL A   1      32.536  26.134  24.840  1.00  0.00     0.123 A 
ATOM     21  C   UNL A   1      31.577  27.283  26.732  1.00  0.00     0.007 A 
ATOM     22  C   UNL A   1      33.775  26.698  25.058  1.00  0.00     0.047 A 
ATOM     23  C   UNL A   1      32.831  27.841  26.989  1.00  0.00     0.001 A 
ATOM     24  C   UNL A   1      33.923  27.555  26.153  1.00  0.00     0.004 A 
ENDBRANCH  15  16
ENDBRANCH  13  15
ENDBRANCH   7   8
ENDBRANCH   5   7
ENDBRANCH   2   3
ENDBRANCH   1   2
BRANCH   1  25
ATOM     25  C   UNL A   1      40.198  22.688  27.326  1.00  0.00     0.023 C 
BRANCH  25  26
ATOM     26  C   UNL A   1      41.664  23.089  27.186  1.00  0.00     0.116 C 
BRANCH  26  27
ATOM     27  N   UNL A   1      41.834  24.042  26.105  1.00  0.00    -0.352 N 
ATOM     28  C   UNL A   1      41.574  25.392  26.083  1.00  0.00     0.251 C 
ATOM     29  H   UNL A   1      42.185  23.668  25.265  1.00  0.00     0.163 HD
ATOM     30  O   UNL A   1      41.431  25.949  24.997  1.00  0.00    -0.269 OA
BRANCH  28  31
ATOM     31  C   UNL A   1      41.482  26.192  27.334  1.00  0.00     0.039 A 
ATOM     32  C   UNL A   1      40.321  26.087  28.112  1.00  0.00     0.014 A 
ATOM     33  C   UNL A   1      42.453  27.136  27.682  1.00  0.00     0.014 A 
ATOM     34  C   UNL A   1      40.134  26.920  29.222  1.00  0.00     0.010 A 
ATOM     35  C   UNL A   1      42.287  27.935  28.820  1.00  0.00     0.010 A 
ATOM     36  C   UNL A   1      41.113  27.857  29.586  1.00  0.00    -0.014 A 
BRANCH  36  37
ATOM     37  C   UNL A   1      40.891  28.796  30.722  1.00  0.00     0.031 A 
ATOM     38  C   UNL A   1      41.743  28.702  31.965  1.00  0.00     0.074 A 
ATOM     39  C   UNL A   1      39.913  29.721  30.657  1.00  0.00     0.049 A 
ATOM     40  N   UNL A   1      41.680  29.409  33.065  1.00  0.00    -0.248 NA
ATOM     41  C   UNL A   1      42.791  27.669  31.976  1.00  0.00     0.031 C 
ATOM     42  C   UNL A   1      39.008  29.918  29.524  1.00  0.00     0.029 A 
ATOM     43  N   UNL A   1      39.518  30.670  31.568  1.00  0.00    -0.354 N 
ATOM     44  C   UNL A   1      42.662  28.894  33.905  1.00  0.00     0.074 A 
ATOM     45  C   UNL A   1      43.282  27.793  33.201  1.00  0.00     0.031 C 
ATOM     46  C   UNL A   1      38.176  30.936  29.800  1.00  0.00     0.029 A 
ATOM     47  C   UNL A   1      38.466  31.444  31.139  1.00  0.00     0.049 A 
ATOM     48  H   UNL A   1      39.948  30.786  32.446  1.00  0.00     0.167 HD
ATOM     49  C   UNL A   1      43.029  29.308  35.144  1.00  0.00     0.031 A 
ATOM     50  C   UNL A   1      37.806  32.448  31.750  1.00  0.00     0.031 A 
ATOM     51  C   UNL A   1      42.431  30.416  35.842  1.00  0.00     0.049 A 
ATOM     52  C   UNL A   1      38.222  32.883  33.128  1.00  0.00     0.074 A 
ATOM     53  C   UNL A   1      42.776  30.942  37.076  1.00  0.00     0.029 A 
ATOM     54  N   UNL A   1      41.369  31.169  35.370  1.00  0.00    -0.354 N 
ATOM     55  N   UNL A   1      39.187  32.415  33.883  1.00  0.00    -0.248 NA
ATOM     56  C   UNL A   1      37.465  33.989  33.733  1.00  0.00     0.031 C 
ATOM     57  C   UNL A   1      41.891  31.985  37.370  1.00  0.00     0.029 A 
ATOM     58  C   UNL A   1      41.028  32.140  36.298  1.00  0.00     0.049 A 
ATOM     59  H   UNL A   1      40.921  31.035  34.504  1.00  0.00     0.167 HD
ATOM     60  C   UNL A   1      39.171  33.187  35.039  1.00  0.00     0.074 A 
ATOM     61  C   UNL A   1      38.107  34.159  34.881  1.00  0.00     0.031 C 
ATOM     62  C   UNL A   1      39.968  33.101  36.133  1.00  0.00     0.031 A 
BRANCH  49  63
ATOM     63  C   UNL A   1      44.128  28.544  35.835  1.00  0.00    -0.014 A 
ATOM     64  C   UNL A   1      45.476  28.918  35.692  1.00  0.00     0.010 A 
ATOM     65  C   UNL A   1      43.804  27.462  36.675  1.00  0.00     0.010 A 
ATOM     66  C   UNL A   1      46.484  28.197  36.339  1.00  0.00     0.020 A 
ATOM     67  C   UNL A   1      44.806  26.753  37.343  1.00  0.00     0.020 A 
ATOM     68  C   UNL A   1      46.143  27.114  37.155  1.00  0.00     0.054 A 
BRANCH  68  69
ATOM     69  S   UNL A   1      47.468  26.199  37.992  1.00  0.00     0.124 S 
ATOM     70  O   UNL A   1      47.108  26.370  39.396  1.00  0.00    -0.237 OA
ATOM     71  O   UNL A   1      47.310  24.847  37.462  1.00  0.00    -0.237 OA
ATOM     72  O   UNL A   1      48.684  26.891  37.572  1.00  0.00    -0.744 OA
ENDBRANCH  68  69
ENDBRANCH  49  63
BRANCH  50  73
ATOM     73  C   UNL A   1      36.681  33.127  31.050  1.00  0.00    -0.014 A 
ATOM     74  C   UNL A   1      35.358  32.955  31.495  1.00  0.00     0.010 A 
ATOM     75  C   UNL A   1      36.929  33.957  29.942  1.00  0.00     0.010 A 
ATOM     76  C   UNL A   1      34.302  33.591  30.836  1.00  0.00     0.020 A 
ATOM     77  C   UNL A   1      35.878  34.615  29.297  1.00  0.00     0.020 A 
ATOM     78  C   UNL A   1      34.570  34.419  29.743  1.00  0.00     0.054 A 
BRANCH  78  79
ATOM     79  S   UNL A   1      33.190  35.284  28.941  1.00  0.00     0.124 S 
ATOM     80  O   UNL A   1      33.877  36.361  28.235  1.00  0.00    -0.237 OA
ATOM     81  O   UNL A   1      32.611  34.242  28.097  1.00  0.00    -0.237 OA
ATOM     82  O   UNL A   1      32.353  35.702  30.063  1.00  0.00    -0.744 OA
ENDBRANCH  78  79
ENDBRANCH  50  73
BRANCH  62  83
ATOM     83  C   UNL A   1      39.744  34.100  37.237  1.00  0.00    -0.014 A 
ATOM     84  C   UNL A   1      39.018  33.760  38.391  1.00  0.00     0.010 A 
ATOM     85  C   UNL A   1      40.316  35.382  37.139  1.00  0.00     0.010 A 
ATOM     86  C   UNL A   1      38.844  34.693  39.416  1.00  0.00     0.020 A 
ATOM     87  C   UNL A   1      40.164  36.310  38.172  1.00  0.00     0.020 A 
ATOM     88  C   UNL A   1      39.416  35.964  39.299  1.00  0.00     0.054 A 
BRANCH  88  89
ATOM     89  S   UNL A   1      39.214  37.144  40.663  1.00  0.00     0.124 S 
ATOM     90  O   UNL A   1      38.392  38.182  40.046  1.00  0.00    -0.237 OA
ATOM     91  O   UNL A   1      38.550  36.344  41.688  1.00  0.00    -0.237 OA
ATOM     92  O   UNL A   1      40.583  37.542  40.982  1.00  0.00    -0.744 OA
ENDBRANCH  88  89
ENDBRANCH  62  83
ENDBRANCH  36  37
ENDBRANCH  28  31
ENDBRANCH  26  27
ENDBRANCH  25  26
ENDBRANCH   1  25
TORSDOF 17
ENDMDL
MODEL 2
REMARK VINA RESULT:     -11.2      6.355     11.070
REMARK SMILES O=C(CC1CC[NH+](C[C@H]2Cc3ccccc3O2)CC1)NCCCCNC(=O)c1ccc(-c2c3nc(c(-c4ccc(S(=O)(=O)[O-])cc4)c4ccc([nH]4)c(-c4ccc(S(=O)(=O)[O-])cc4)c4nc(c(-c5ccc(S(=O)(=O)[O-])cc5)c5ccc2[nH]5)C=C4)C=C3)cc1
REMARK SMILES IDX 22 1 21 2 20 3 1 4 2 5 3 7 4 8 5 9 19 10 6 11 18 12 7 13
REMARK SMILES IDX 8 15 9 16 10 17 17 18 11 19 16 20 12 21 15 22 13 23 14 24
REMARK SMILES IDX 23 25 24 26 25 27 26 28 27 30 28 31 29 32 87 33 30 34 86 35
REMARK SMILES IDX 31 36 32 37 33 38 80 39 34 40 85 41 79 42 81 43 35 44 84 45
REMARK SMILES IDX 78 46 77 47 36 49 66 50 47 51 65 52 48 53 51 54 64 55 82 56
REMARK SMILES IDX 49 57 50 58 63 60 83 61 52 62 37 63 38 64 46 65 39 66 45 67
REMARK SMILES IDX 40 68 41 69 42 70 43 71 44 72 67 73 68 74 76 75 69 76 75 77
REMARK SMILES IDX 70 78 71 79 72 80 73 81 74 82 53 83 54 84 62 85 55 86 61 87
REMARK SMILES IDX 56 88 57 89 58 90 59 91 60 92
REMARK H PARENT 20 6 7 14 25 29 81 48 51 59
REMARK Flexibility Score: inf
ROOT
ATOM      1  C   UNL A   1      36.988  20.674  24.942  1.00  0.00     0.023 C 
ENDROOT
BRANCH   1   2
ATOM      2  C   UNL A   1      37.062  22.204  24.882  1.00  0.00     0.116 C 
BRANCH   2   3
ATOM      3  N   UNL A   1      35.807  22.894  24.670  1.00  0.00    -0.356 N 
ATOM      4  O   UNL A   1      35.996  22.953  22.374  1.00  0.00    -0.275 OA
ATOM      5  C   UNL A   1      35.357  23.192  23.395  1.00  0.00     0.220 C 
ATOM      6  H   UNL A   1      35.263  23.157  25.448  1.00  0.00     0.163 HD
BRANCH   5   7
ATOM      7  C   UNL A   1      33.979  23.823  23.348  1.00  0.00     0.104 C 
BRANCH   7   8
ATOM      8  C   UNL A   1      33.961  25.353  23.129  1.00  0.00     0.009 C 
ATOM      9  C   UNL A   1      34.207  26.081  24.459  1.00  0.00     0.066 C 
ATOM     10  C   UNL A   1      32.677  25.942  22.517  1.00  0.00     0.066 C 
ATOM     11  C   UNL A   1      32.984  26.038  25.394  1.00  0.00     0.262 C 
ATOM     12  C   UNL A   1      31.501  26.045  23.506  1.00  0.00     0.262 C 
ATOM     13  N   UNL A   1      31.802  25.389  24.783  1.00  0.00    -0.332 N 
ATOM     14  H   UNL A   1      31.998  24.406  24.595  1.00  0.00     0.348 HD
BRANCH  13  15
ATOM     15  C   UNL A   1      30.652  25.415  25.721  1.00  0.00     0.308 C 
BRANCH  15  16
ATOM     16  C   UNL A   1      30.383  24.087  26.502  1.00  0.00     0.232 C 
ATOM     17  C   UNL A   1      30.405  22.852  25.596  1.00  0.00     0.090 C 
ATOM     18  O   UNL A   1      31.316  23.880  27.594  1.00  0.00    -0.484 OA
ATOM     19  C   UNL A   1      31.671  22.225  26.019  1.00  0.00    -0.002 A 
ATOM     20  C   UNL A   1      32.110  22.839  27.176  1.00  0.00     0.123 A 
ATOM     21  C   UNL A   1      32.397  21.209  25.421  1.00  0.00     0.007 A 
ATOM     22  C   UNL A   1      33.282  22.459  27.795  1.00  0.00     0.047 A 
ATOM     23  C   UNL A   1      33.603  20.830  26.014  1.00  0.00     0.001 A 
ATOM     24  C   UNL A   1      34.040  21.447  27.198  1.00  0.00     0.004 A 
ENDBRANCH  15  16
ENDBRANCH  13  15
ENDBRANCH   7   8
ENDBRANCH   5   7
ENDBRANCH   2   3
ENDBRANCH   1   2
BRANCH   1  25
ATOM     25  C   UNL A   1      38.269  19.832  25.036  1.00  0.00     0.023 C 
BRANCH  25  26
ATOM     26  C   UNL A   1      39.411  20.330  25.917  1.00  0.00     0.116 C 
BRANCH  26  27
ATOM     27  N   UNL A   1      40.391  19.281  26.128  1.00  0.00    -0.352 N 
ATOM     28  C   UNL A   1      41.764  19.356  26.127  1.00  0.00     0.251 C 
ATOM     29  H   UNL A   1      40.019  18.385  26.296  1.00  0.00     0.163 HD
ATOM     30  O   UNL A   1      42.411  18.325  25.958  1.00  0.00    -0.269 OA
BRANCH  28  31
ATOM     31  C   UNL A   1      42.479  20.643  26.342  1.00  0.00     0.039 A 
ATOM     32  C   UNL A   1      42.530  21.171  27.639  1.00  0.00     0.014 A 
ATOM     33  C   UNL A   1      42.980  21.398  25.277  1.00  0.00     0.014 A 
ATOM     34  C   UNL A   1      43.073  22.441  27.866  1.00  0.00     0.010 A 
ATOM     35  C   UNL A   1      43.567  22.648  25.511  1.00  0.00     0.010 A 
ATOM     36  C   UNL A   1      43.594  23.196  26.803  1.00  0.00    -0.014 A 
BRANCH  36  37
ATOM     37  C   UNL A   1      44.107  24.578  27.024  1.00  0.00     0.031 A 
ATOM     38  C   UNL A   1      43.166  25.681  27.441  1.00  0.00     0.074 A 
ATOM     39  C   UNL A   1      45.412  24.857  26.830  1.00  0.00     0.049 A 
ATOM     40  N   UNL A   1      43.419  26.949  27.651  1.00  0.00    -0.248 NA
ATOM     41  C   UNL A   1      41.754  25.314  27.633  1.00  0.00     0.031 C 
ATOM     42  C   UNL A   1      46.431  23.893  26.415  1.00  0.00     0.029 A 
ATOM     43  N   UNL A   1      46.102  26.038  26.955  1.00  0.00    -0.354 N 
ATOM     44  C   UNL A   1      42.200  27.533  27.978  1.00  0.00     0.074 A 
ATOM     45  C   UNL A   1      41.201  26.489  27.903  1.00  0.00     0.031 C 
ATOM     46  C   UNL A   1      47.619  24.517  26.340  1.00  0.00     0.029 A 
ATOM     47  C   UNL A   1      47.442  25.929  26.668  1.00  0.00     0.049 A 
ATOM     48  H   UNL A   1      45.677  26.884  27.227  1.00  0.00     0.167 HD
ATOM     49  C   UNL A   1      41.933  28.816  28.324  1.00  0.00     0.031 A 
ATOM     50  C   UNL A   1      48.420  26.857  26.667  1.00  0.00     0.031 A 
ATOM     51  C   UNL A   1      42.925  29.856  28.422  1.00  0.00     0.049 A 
ATOM     52  C   UNL A   1      48.099  28.277  27.044  1.00  0.00     0.074 A 
ATOM     53  C   UNL A   1      42.756  31.172  28.820  1.00  0.00     0.029 A 
ATOM     54  N   UNL A   1      44.268  29.700  28.120  1.00  0.00    -0.354 N 
ATOM     55  N   UNL A   1      46.948  28.795  27.398  1.00  0.00    -0.248 NA
ATOM     56  C   UNL A   1      49.214  29.236  27.029  1.00  0.00     0.031 C 
ATOM     57  C   UNL A   1      43.989  31.824  28.714  1.00  0.00     0.029 A 
ATOM     58  C   UNL A   1      44.935  30.901  28.299  1.00  0.00     0.049 A 
ATOM     59  H   UNL A   1      44.687  28.861  27.821  1.00  0.00     0.167 HD
ATOM     60  C   UNL A   1      47.205  30.134  27.675  1.00  0.00     0.074 A 
ATOM     61  C   UNL A   1      48.622  30.343  27.457  1.00  0.00     0.031 C 
ATOM     62  C   UNL A   1      46.345  31.101  28.078  1.00  0.00     0.031 A 
BRANCH  49  63
ATOM     63  C   UNL A   1      40.500  29.176  28.615  1.00  0.00    -0.014 A 
ATOM     64  C   UNL A   1      40.056  29.398  29.931  1.00  0.00     0.010 A 
ATOM     65  C   UNL A   1      39.591  29.334  27.551  1.00  0.00     0.010 A 
ATOM     66  C   UNL A   1      38.721  29.728  30.182  1.00  0.00     0.020 A 
ATOM     67  C   UNL A   1      38.261  29.687  27.796  1.00  0.00     0.020 A 
ATOM     68  C   UNL A   1      37.830  29.863  29.113  1.00  0.00     0.054 A 
BRANCH  68  69
ATOM     69  S   UNL A   1      36.105  30.302  29.465  1.00  0.00     0.124 S 
ATOM     70  O   UNL A   1      35.907  29.703  30.782  1.00  0.00    -0.237 OA
ATOM     71  O   UNL A   1      36.132  31.762  29.436  1.00  0.00    -0.237 OA
ATOM     72  O   UNL A   1      35.359  29.674  28.377  1.00  0.00    -0.744 OA
ENDBRANCH  68  69
ENDBRANCH  49  63
BRANCH  50  73
ATOM     73  C   UNL A   1      49.810  26.465  26.307  1.00  0.00    -0.014 A 
ATOM     74  C   UNL A   1      50.691  25.983  27.292  1.00  0.00     0.010 A 
ATOM     75  C   UNL A   1      50.255  26.560  24.976  1.00  0.00     0.010 A 
ATOM     76  C   UNL A   1      51.997  25.616  26.954  1.00  0.00     0.020 A 
ATOM     77  C   UNL A   1      51.552  26.170  24.631  1.00  0.00     0.020 A 
ATOM     78  C   UNL A   1      52.418  25.710  25.625  1.00  0.00     0.054 A 
BRANCH  78  79
ATOM     79  S   UNL A   1      54.098  25.171  25.198  1.00  0.00     0.124 S 
ATOM     80  O   UNL A   1      54.371  25.953  23.996  1.00  0.00    -0.237 OA
ATOM     81  O   UNL A   1      54.862  25.545  26.385  1.00  0.00    -0.237 OA
ATOM     82  O   UNL A   1      53.949  23.732  24.991  1.00  0.00    -0.744 OA
ENDBRANCH  78  79
ENDBRANCH  50  73
BRANCH  62  83
ATOM     83  C   UNL A   1      46.911  32.471  28.338  1.00  0.00    -0.014 A 
ATOM     84  C   UNL A   1      47.434  32.816  29.597  1.00  0.00     0.010 A 
ATOM     85  C   UNL A   1      46.970  33.409  27.291  1.00  0.00     0.010 A 
ATOM     86  C   UNL A   1      47.979  34.084  29.812  1.00  0.00     0.020 A 
ATOM     87  C   UNL A   1      47.536  34.670  27.495  1.00  0.00     0.020 A 
ATOM     88  C   UNL A   1      48.024  35.005  28.760  1.00  0.00     0.054 A 
BRANCH  88  89
ATOM     89  S   UNL A   1      48.777  36.630  29.051  1.00  0.00     0.124 S 
ATOM     90  O   UNL A   1      47.607  37.465  29.305  1.00  0.00    -0.237 OA
ATOM     91  O   UNL A   1      49.638  36.386  30.205  1.00  0.00    -0.237 OA
ATOM     92  O   UNL A   1      49.485  36.912  27.804  1.00  0.00    -0.744 OA
ENDBRANCH  88  89
ENDBRANCH  62  83
ENDBRANCH  36  37
ENDBRANCH  28  31
ENDBRANCH  26  27
ENDBRANCH  25  26
ENDBRANCH   1  25
TORSDOF 17
ENDMDL
MODEL 3
REMARK VINA RESULT:     -11.0      6.269      8.427
REMARK SMILES O=C(CC1CC[NH+](C[C@H]2Cc3ccccc3O2)CC1)NCCCCNC(=O)c1ccc(-c2c3nc(c(-c4ccc(S(=O)(=O)[O-])cc4)c4ccc([nH]4)c(-c4ccc(S(=O)(=O)[O-])cc4)c4nc(c(-c5ccc(S(=O)(=O)[O-])cc5)c5ccc2[nH]5)C=C4)C=C3)cc1
REMARK SMILES IDX 22 1 21 2 20 3 1 4 2 5 3 7 4 8 5 9 19 10 6 11 18 12 7 13
REMARK SMILES IDX 8 15 9 16 10 17 17 18 11 19 16 20 12 21 15 22 13 23 14 24
REMARK SMILES IDX 23 25 24 26 25 27 26 28 27 30 28 31 29 32 87 33 30 34 86 35
REMARK SMILES IDX 31 36 32 37 33 38 80 39 34 40 85 41 79 42 81 43 35 44 84 45
REMARK SMILES IDX 78 46 77 47 36 49 66 50 47 51 65 52 48 53 51 54 64 55 82 56
REMARK SMILES IDX 49 57 50 58 63 60 83 61 52 62 37 63 38 64 46 65 39 66 45 67
REMARK SMILES IDX 40 68 41 69 42 70 43 71 44 72 67 73 68 74 76 75 69 76 75 77
REMARK SMILES IDX 70 78 71 79 72 80 73 81 74 82 53 83 54 84 62 85 55 86 61 87
REMARK SMILES IDX 56 88 57 89 58 90 59 91 60 92
REMARK H PARENT 20 6 7 14 25 29 81 48 51 59
REMARK Flexibility Score: inf
ROOT
ATOM      1  C   UNL A   1      37.862  20.631  24.953  1.00  0.00     0.023 C 
ENDROOT
BRANCH   1   2
ATOM      2  C   UNL A   1      37.923  22.033  25.569  1.00  0.00     0.116 C 
BRANCH   2   3
ATOM      3  N   UNL A   1      36.686  22.539  26.125  1.00  0.00    -0.356 N 
ATOM      4  O   UNL A   1      36.088  23.721  24.240  1.00  0.00    -0.275 OA
ATOM      5  C   UNL A   1      35.837  23.339  25.380  1.00  0.00     0.220 C 
ATOM      6  H   UNL A   1      36.443  22.309  27.051  1.00  0.00     0.163 HD
BRANCH   5   7
ATOM      7  C   UNL A   1      34.538  23.696  26.077  1.00  0.00     0.104 C 
BRANCH   7   8
ATOM      8  C   UNL A   1      33.676  22.495  26.523  1.00  0.00     0.009 C 
ATOM      9  C   UNL A   1      33.319  21.621  25.311  1.00  0.00     0.066 C 
ATOM     10  C   UNL A   1      32.360  22.828  27.248  1.00  0.00     0.066 C 
ATOM     11  C   UNL A   1      32.247  22.263  24.412  1.00  0.00     0.262 C 
ATOM     12  C   UNL A   1      31.237  23.319  26.317  1.00  0.00     0.262 C 
ATOM     13  N   UNL A   1      31.718  23.538  24.948  1.00  0.00    -0.332 N 
ATOM     14  H   UNL A   1      32.459  24.238  24.982  1.00  0.00     0.348 HD
BRANCH  13  15
ATOM     15  C   UNL A   1      30.667  24.081  24.054  1.00  0.00     0.308 C 
BRANCH  15  16
ATOM     16  C   UNL A   1      30.716  25.624  23.806  1.00  0.00     0.232 C 
ATOM     17  C   UNL A   1      30.109  26.429  24.961  1.00  0.00     0.090 C 
ATOM     18  O   UNL A   1      32.061  26.109  23.557  1.00  0.00    -0.484 OA
ATOM     19  C   UNL A   1      31.325  27.017  25.552  1.00  0.00    -0.002 A 
ATOM     20  C   UNL A   1      32.383  26.825  24.684  1.00  0.00     0.123 A 
ATOM     21  C   UNL A   1      31.497  27.652  26.771  1.00  0.00     0.007 A 
ATOM     22  C   UNL A   1      33.653  27.268  24.987  1.00  0.00     0.047 A 
ATOM     23  C   UNL A   1      32.781  28.081  27.110  1.00  0.00     0.001 A 
ATOM     24  C   UNL A   1      33.853  27.895  26.221  1.00  0.00     0.004 A 
ENDBRANCH  15  16
ENDBRANCH  13  15
ENDBRANCH   7   8
ENDBRANCH   5   7
ENDBRANCH   2   3
ENDBRANCH   1   2
BRANCH   1  25
ATOM     25  C   UNL A   1      38.859  19.544  25.381  1.00  0.00     0.023 C 
BRANCH  25  26
ATOM     26  C   UNL A   1      40.031  19.935  26.276  1.00  0.00     0.116 C 
BRANCH  26  27
ATOM     27  N   UNL A   1      41.146  19.026  26.088  1.00  0.00    -0.352 N 
ATOM     28  C   UNL A   1      42.458  19.305  25.785  1.00  0.00     0.251 C 
ATOM     29  H   UNL A   1      40.932  18.071  26.192  1.00  0.00     0.163 HD
ATOM     30  O   UNL A   1      43.157  18.412  25.312  1.00  0.00    -0.269 OA
BRANCH  28  31
ATOM     31  C   UNL A   1      43.052  20.646  26.034  1.00  0.00     0.039 A 
ATOM     32  C   UNL A   1      43.058  21.143  27.345  1.00  0.00     0.014 A 
ATOM     33  C   UNL A   1      43.478  21.472  24.990  1.00  0.00     0.014 A 
ATOM     34  C   UNL A   1      43.482  22.452  27.605  1.00  0.00     0.010 A 
ATOM     35  C   UNL A   1      43.948  22.764  25.256  1.00  0.00     0.010 A 
ATOM     36  C   UNL A   1      43.928  23.279  26.562  1.00  0.00    -0.014 A 
BRANCH  36  37
ATOM     37  C   UNL A   1      44.312  24.696  26.819  1.00  0.00     0.031 A 
ATOM     38  C   UNL A   1      45.745  25.139  26.644  1.00  0.00     0.074 A 
ATOM     39  C   UNL A   1      43.389  25.586  27.232  1.00  0.00     0.049 A 
ATOM     40  N   UNL A   1      46.276  26.318  26.848  1.00  0.00    -0.248 NA
ATOM     41  C   UNL A   1      46.706  24.120  26.195  1.00  0.00     0.031 C 
ATOM     42  C   UNL A   1      41.972  25.294  27.455  1.00  0.00     0.029 A 
ATOM     43  N   UNL A   1      43.507  26.919  27.540  1.00  0.00    -0.354 N 
ATOM     44  C   UNL A   1      47.632  26.179  26.574  1.00  0.00     0.074 A 
ATOM     45  C   UNL A   1      47.849  24.791  26.224  1.00  0.00     0.031 C 
ATOM     46  C   UNL A   1      41.349  26.420  27.845  1.00  0.00     0.029 A 
ATOM     47  C   UNL A   1      42.324  27.504  27.931  1.00  0.00     0.049 A 
ATOM     48  H   UNL A   1      44.358  27.412  27.485  1.00  0.00     0.167 HD
ATOM     49  C   UNL A   1      48.609  27.119  26.596  1.00  0.00     0.031 A 
ATOM     50  C   UNL A   1      42.053  28.766  28.317  1.00  0.00     0.031 A 
ATOM     51  C   UNL A   1      48.397  28.505  26.922  1.00  0.00     0.049 A 
ATOM     52  C   UNL A   1      43.154  29.790  28.343  1.00  0.00     0.074 A 
ATOM     53  C   UNL A   1      49.317  29.541  26.914  1.00  0.00     0.029 A 
ATOM     54  N   UNL A   1      47.186  29.050  27.313  1.00  0.00    -0.354 N 
ATOM     55  N   UNL A   1      44.420  29.647  28.031  1.00  0.00    -0.248 NA
ATOM     56  C   UNL A   1      42.787  31.150  28.766  1.00  0.00     0.031 C 
ATOM     57  C   UNL A   1      48.670  30.704  27.346  1.00  0.00     0.029 A 
ATOM     58  C   UNL A   1      47.338  30.402  27.573  1.00  0.00     0.049 A 
ATOM     59  H   UNL A   1      46.341  28.552  27.395  1.00  0.00     0.167 HD
ATOM     60  C   UNL A   1      44.993  30.903  28.193  1.00  0.00     0.074 A 
ATOM     61  C   UNL A   1      43.936  31.797  28.621  1.00  0.00     0.031 C 
ATOM     62  C   UNL A   1      46.281  31.283  28.001  1.00  0.00     0.031 A 
BRANCH  49  63
ATOM     63  C   UNL A   1      50.010  26.674  26.265  1.00  0.00    -0.014 A 
ATOM     64  C   UNL A   1      50.518  26.775  24.958  1.00  0.00     0.010 A 
ATOM     65  C   UNL A   1      50.847  26.186  27.287  1.00  0.00     0.010 A 
ATOM     66  C   UNL A   1      51.819  26.356  24.669  1.00  0.00     0.020 A 
ATOM     67  C   UNL A   1      52.156  25.789  27.008  1.00  0.00     0.020 A 
ATOM     68  C   UNL A   1      52.628  25.858  25.694  1.00  0.00     0.054 A 
BRANCH  68  69
ATOM     69  S   UNL A   1      54.317  25.329  25.295  1.00  0.00     0.124 S 
ATOM     70  O   UNL A   1      55.060  25.794  26.464  1.00  0.00    -0.237 OA
ATOM     71  O   UNL A   1      54.181  23.880  25.174  1.00  0.00    -0.237 OA
ATOM     72  O   UNL A   1      54.615  26.030  24.049  1.00  0.00    -0.744 OA
ENDBRANCH  68  69
ENDBRANCH  49  63
BRANCH  50  73
ATOM     73  C   UNL A   1      40.663  29.139  28.698  1.00  0.00    -0.014 A 
ATOM     74  C   UNL A   1      39.693  29.377  27.708  1.00  0.00     0.010 A 
ATOM     75  C   UNL A   1      40.301  29.247  30.053  1.00  0.00     0.010 A 
ATOM     76  C   UNL A   1      38.388  29.729  28.066  1.00  0.00     0.020 A 
ATOM     77  C   UNL A   1      38.991  29.574  30.414  1.00  0.00     0.020 A 
ATOM     78  C   UNL A   1      38.046  29.823  29.418  1.00  0.00     0.054 A 
BRANCH  78  79
ATOM     79  S   UNL A   1      36.331  30.221  29.861  1.00  0.00     0.124 S 
ATOM     80  O   UNL A   1      36.383  31.672  29.999  1.00  0.00    -0.237 OA
ATOM     81  O   UNL A   1      35.582  29.719  28.712  1.00  0.00    -0.237 OA
ATOM     82  O   UNL A   1      36.121  29.478  31.102  1.00  0.00    -0.744 OA
ENDBRANCH  78  79
ENDBRANCH  50  73
BRANCH  62  83
ATOM     83  C   UNL A   1      46.618  32.733  28.222  1.00  0.00    -0.014 A 
ATOM     84  C   UNL A   1      46.496  33.676  27.187  1.00  0.00     0.010 A 
ATOM     85  C   UNL A   1      47.012  33.167  29.502  1.00  0.00     0.010 A 
ATOM     86  C   UNL A   1      46.789  35.022  27.419  1.00  0.00     0.020 A 
ATOM     87  C   UNL A   1      47.284  34.516  29.744  1.00  0.00     0.020 A 
ATOM     88  C   UNL A   1      47.184  35.434  28.696  1.00  0.00     0.054 A 
BRANCH  88  89
ATOM     89  S   UNL A   1      47.516  37.194  28.985  1.00  0.00     0.124 S 
ATOM     90  O   UNL A   1      48.061  37.180  30.340  1.00  0.00    -0.237 OA
ATOM     91  O   UNL A   1      48.469  37.521  27.928  1.00  0.00    -0.237 OA
ATOM     92  O   UNL A   1      46.204  37.821  28.848  1.00  0.00    -0.744 OA
ENDBRANCH  88  89
ENDBRANCH  62  83
ENDBRANCH  36  37
ENDBRANCH  28  31
ENDBRANCH  26  27
ENDBRANCH  25  26
ENDBRANCH   1  25
TORSDOF 17
ENDMDL
