MODEL 1
REMARK VINA RESULT:     -12.4      0.000      0.000
REMARK SMILES CC(C)CCn1nc(C(=O)NCCCCNC(=O)c2ccc(-c3c4nc(c(-c5ccc(S(=O)(=O)[O-])cc5)c5ccc([nH]5)c(-c5ccc(S(=O)(=O)[O-])cc5)c5nc(c(-c6ccc(S(=O)(=O)[O-])cc6)c6ccc3[nH]6)C=C5)C=C4)cc2)c2c1CCN(C(=O)[C@@H]1CCc3nn(C)c(=O)n3C1)C2
REMARK SMILES IDX 13 1 12 2 11 3 9 4 10 5 8 7 6 8 7 9 80 10 79 11 81 12 97 13
REMARK SMILES IDX 82 14 83 15 5 16 4 17 2 18 1 19 3 20 84 21 85 22 86 23 87 24
REMARK SMILES IDX 96 25 88 26 95 27 89 28 93 29 90 30 91 31 94 32 92 33 14 34
REMARK SMILES IDX 15 35 16 36 17 37 18 39 19 40 20 41 78 42 21 43 77 44 22 45
REMARK SMILES IDX 23 46 24 47 71 48 25 49 76 50 70 51 72 52 26 53 75 54 69 55
REMARK SMILES IDX 68 56 27 58 57 59 38 60 56 61 39 62 42 63 55 64 73 65 40 66
REMARK SMILES IDX 41 67 54 69 74 70 43 71 28 72 29 73 37 74 30 75 36 76 31 77
REMARK SMILES IDX 32 78 33 79 34 80 35 81 58 82 59 83 67 84 60 85 66 86 61 87
REMARK SMILES IDX 62 88 63 89 64 90 65 91 44 92 45 93 53 94 46 95 52 96 47 97
REMARK SMILES IDX 48 98 49 99 50 100 51 101
REMARK H PARENT 11 6 16 38 72 57 42 68
REMARK Flexibility Score: inf
ROOT
ATOM      1  C   UNL A   1      34.287  29.948  27.132  1.00  0.00     0.023 C 
ENDROOT
BRANCH   1   2
ATOM      2  C   UNL A   1      34.056  28.626  26.369  1.00  0.00     0.116 C 
BRANCH   2   3
ATOM      3  N   UNL A   1      34.268  28.767  24.932  1.00  0.00    -0.351 N 
ATOM      4  C   UNL A   1      33.487  28.739  23.790  1.00  0.00     0.272 C 
ATOM      5  O   UNL A   1      34.096  29.061  22.763  1.00  0.00    -0.267 OA
ATOM      6  H   UNL A   1      35.217  28.926  24.718  1.00  0.00     0.163 HD
BRANCH   4   7
ATOM      7  C   UNL A   1      32.047  28.357  23.732  1.00  0.00     0.155 A 
ATOM      8  N   UNL A   1      29.951  28.642  23.267  1.00  0.00    -0.268 N 
ATOM      9  N   UNL A   1      31.140  29.266  23.286  1.00  0.00    -0.167 NA
ATOM     10  C   UNL A   1      30.030  27.407  23.819  1.00  0.00     0.046 A 
ATOM     11  C   UNL A   1      31.369  27.132  23.974  1.00  0.00     0.026 A 
ATOM     12  C   UNL A   1      28.944  26.455  24.141  1.00  0.00     0.078 C 
ATOM     13  C   UNL A   1      31.859  25.787  24.326  1.00  0.00     0.159 C 
ATOM     14  C   UNL A   1      29.567  25.390  25.070  1.00  0.00     0.126 C 
ATOM     15  N   UNL A   1      30.790  24.801  24.504  1.00  0.00    -0.338 N 
BRANCH   8  16
ATOM     16  C   UNL A   1      28.795  29.180  22.569  1.00  0.00     0.145 C 
BRANCH  16  17
ATOM     17  C   UNL A   1      28.994  30.380  21.636  1.00  0.00     0.027 C 
BRANCH  17  18
ATOM     18  C   UNL A   1      28.612  31.762  22.203  1.00  0.00    -0.016 C 
ATOM     19  C   UNL A   1      27.978  32.684  21.160  1.00  0.00     0.007 C 
ATOM     20  C   UNL A   1      27.655  31.581  23.383  1.00  0.00     0.007 C 
ENDBRANCH  17  18
ENDBRANCH  16  17
ENDBRANCH   8  16
BRANCH  15  21
ATOM     21  C   UNL A   1      31.206  23.484  24.421  1.00  0.00     0.227 C 
ATOM     22  O   UNL A   1      31.501  23.012  23.309  1.00  0.00    -0.274 OA
BRANCH  21  23
ATOM     23  C   UNL A   1      31.287  22.494  25.591  1.00  0.00     0.099 C 
ATOM     24  C   UNL A   1      31.694  23.116  26.926  1.00  0.00     0.023 C 
ATOM     25  C   UNL A   1      31.964  21.160  25.329  1.00  0.00     0.142 C 
ATOM     26  C   UNL A   1      33.195  23.214  27.131  1.00  0.00     0.078 C 
ATOM     27  N   UNL A   1      33.335  21.136  25.782  1.00  0.00    -0.278 N 
ATOM     28  C   UNL A   1      33.958  22.068  26.532  1.00  0.00     0.133 A 
ATOM     29  C   UNL A   1      34.325  20.402  25.174  1.00  0.00     0.345 A 
ATOM     30  N   UNL A   1      35.258  22.014  26.500  1.00  0.00    -0.155 NA
ATOM     31  N   UNL A   1      35.520  20.970  25.633  1.00  0.00    -0.216 N 
ATOM     32  O   UNL A   1      34.186  19.565  24.300  1.00  0.00    -0.246 OA
ATOM     33  C   UNL A   1      36.773  20.848  24.936  1.00  0.00     0.179 C 
ENDBRANCH  21  23
ENDBRANCH  15  21
ENDBRANCH   4   7
ENDBRANCH   2   3
ENDBRANCH   1   2
BRANCH   1  34
ATOM     34  C   UNL A   1      33.514  31.186  26.673  1.00  0.00     0.023 C 
BRANCH  34  35
ATOM     35  C   UNL A   1      32.556  31.742  27.721  1.00  0.00     0.116 C 
BRANCH  35  36
ATOM     36  N   UNL A   1      32.322  33.189  27.608  1.00  0.00    -0.352 N 
ATOM     37  C   UNL A   1      32.959  34.201  28.319  1.00  0.00     0.251 C 
ATOM     38  H   UNL A   1      31.640  33.472  26.957  1.00  0.00     0.163 HD
ATOM     39  O   UNL A   1      32.463  35.299  28.463  1.00  0.00    -0.269 OA
BRANCH  37  40
ATOM     40  C   UNL A   1      34.290  33.887  28.872  1.00  0.00     0.039 A 
ATOM     41  C   UNL A   1      34.451  33.228  30.093  1.00  0.00     0.014 A 
ATOM     42  C   UNL A   1      35.376  34.163  28.048  1.00  0.00     0.014 A 
ATOM     43  C   UNL A   1      35.713  32.736  30.425  1.00  0.00     0.010 A 
ATOM     44  C   UNL A   1      36.577  33.557  28.309  1.00  0.00     0.010 A 
ATOM     45  C   UNL A   1      36.769  32.873  29.510  1.00  0.00    -0.014 A 
BRANCH  45  46
ATOM     46  C   UNL A   1      38.046  32.184  29.711  1.00  0.00     0.031 A 
ATOM     47  C   UNL A   1      38.084  30.757  29.275  1.00  0.00     0.074 A 
ATOM     48  C   UNL A   1      39.187  32.855  29.990  1.00  0.00     0.049 A 
ATOM     49  N   UNL A   1      38.261  29.704  30.005  1.00  0.00    -0.248 NA
ATOM     50  C   UNL A   1      37.778  30.451  27.866  1.00  0.00     0.031 C 
ATOM     51  C   UNL A   1      39.367  34.309  30.118  1.00  0.00     0.029 A 
ATOM     52  N   UNL A   1      40.464  32.394  30.067  1.00  0.00    -0.354 N 
ATOM     53  C   UNL A   1      38.314  28.625  29.123  1.00  0.00     0.074 A 
ATOM     54  C   UNL A   1      37.822  29.118  27.862  1.00  0.00     0.031 C 
ATOM     55  C   UNL A   1      40.674  34.618  29.988  1.00  0.00     0.029 A 
ATOM     56  C   UNL A   1      41.437  33.386  29.970  1.00  0.00     0.049 A 
ATOM     57  H   UNL A   1      40.682  31.440  30.182  1.00  0.00     0.167 HD
ATOM     58  C   UNL A   1      38.995  27.482  29.425  1.00  0.00     0.031 A 
ATOM     59  C   UNL A   1      42.777  33.214  29.864  1.00  0.00     0.031 A 
ATOM     60  C   UNL A   1      39.357  27.435  30.819  1.00  0.00     0.049 A 
ATOM     61  C   UNL A   1      43.074  31.848  30.351  1.00  0.00     0.074 A 
ATOM     62  C   UNL A   1      38.667  27.438  32.014  1.00  0.00     0.029 A 
ATOM     63  N   UNL A   1      40.654  27.773  31.125  1.00  0.00    -0.354 N 
ATOM     64  N   UNL A   1      42.896  31.474  31.586  1.00  0.00    -0.248 NA
ATOM     65  C   UNL A   1      43.170  30.770  29.381  1.00  0.00     0.031 C 
ATOM     66  C   UNL A   1      39.465  28.224  32.896  1.00  0.00     0.029 A 
ATOM     67  C   UNL A   1      40.629  28.596  32.219  1.00  0.00     0.049 A 
ATOM     68  H   UNL A   1      41.460  27.474  30.642  1.00  0.00     0.167 HD
ATOM     69  C   UNL A   1      42.418  30.176  31.496  1.00  0.00     0.074 A 
ATOM     70  C   UNL A   1      42.729  29.756  30.131  1.00  0.00     0.031 C 
ATOM     71  C   UNL A   1      41.570  29.675  32.443  1.00  0.00     0.031 A 
BRANCH  58  72
ATOM     72  C   UNL A   1      39.707  26.616  28.404  1.00  0.00    -0.014 A 
ATOM     73  C   UNL A   1      39.388  25.241  28.337  1.00  0.00     0.010 A 
ATOM     74  C   UNL A   1      40.869  27.029  27.720  1.00  0.00     0.010 A 
ATOM     75  C   UNL A   1      40.234  24.322  27.699  1.00  0.00     0.020 A 
ATOM     76  C   UNL A   1      41.695  26.128  27.042  1.00  0.00     0.020 A 
ATOM     77  C   UNL A   1      41.394  24.774  27.071  1.00  0.00     0.054 A 
BRANCH  77  78
ATOM     78  S   UNL A   1      42.545  23.573  26.356  1.00  0.00     0.124 S 
ATOM     79  O   UNL A   1      41.649  22.477  26.002  1.00  0.00    -0.237 OA
ATOM     80  O   UNL A   1      43.113  24.318  25.236  1.00  0.00    -0.237 OA
ATOM     81  O   UNL A   1      43.473  23.298  27.451  1.00  0.00    -0.744 OA
ENDBRANCH  77  78
ENDBRANCH  58  72
BRANCH  59  82
ATOM     82  C   UNL A   1      43.773  34.047  29.149  1.00  0.00    -0.014 A 
ATOM     83  C   UNL A   1      45.102  34.131  29.606  1.00  0.00     0.010 A 
ATOM     84  C   UNL A   1      43.491  34.527  27.854  1.00  0.00     0.010 A 
ATOM     85  C   UNL A   1      46.124  34.608  28.769  1.00  0.00     0.020 A 
ATOM     86  C   UNL A   1      44.505  35.009  27.016  1.00  0.00     0.020 A 
ATOM     87  C   UNL A   1      45.823  35.021  27.469  1.00  0.00     0.054 A 
BRANCH  87  88
ATOM     88  S   UNL A   1      47.178  35.442  26.332  1.00  0.00     0.124 S 
ATOM     89  O   UNL A   1      48.360  35.088  27.113  1.00  0.00    -0.237 OA
ATOM     90  O   UNL A   1      46.904  34.587  25.180  1.00  0.00    -0.237 OA
ATOM     91  O   UNL A   1      46.996  36.873  26.095  1.00  0.00    -0.744 OA
ENDBRANCH  87  88
ENDBRANCH  59  82
BRANCH  71  92
ATOM     92  C   UNL A   1      41.429  30.427  33.747  1.00  0.00    -0.014 A 
ATOM     93  C   UNL A   1      42.197  30.162  34.898  1.00  0.00     0.010 A 
ATOM     94  C   UNL A   1      40.576  31.545  33.753  1.00  0.00     0.010 A 
ATOM     95  C   UNL A   1      42.091  30.980  36.035  1.00  0.00     0.020 A 
ATOM     96  C   UNL A   1      40.481  32.374  34.873  1.00  0.00     0.020 A 
ATOM     97  C   UNL A   1      41.230  32.082  36.013  1.00  0.00     0.054 A 
BRANCH  97  98
ATOM     98  S   UNL A   1      41.125  33.164  37.467  1.00  0.00     0.124 S 
ATOM     99  O   UNL A   1      42.276  34.045  37.291  1.00  0.00    -0.237 OA
ATOM    100  O   UNL A   1      39.818  33.797  37.310  1.00  0.00    -0.237 OA
ATOM    101  O   UNL A   1      41.222  32.239  38.597  1.00  0.00    -0.744 OA
ENDBRANCH  97  98
ENDBRANCH  71  92
ENDBRANCH  45  46
ENDBRANCH  37  40
ENDBRANCH  35  36
ENDBRANCH  34  35
ENDBRANCH   1  34
TORSDOF 19
ENDMDL
MODEL 2
REMARK VINA RESULT:     -11.7      2.898      7.160
REMARK SMILES CC(C)CCn1nc(C(=O)NCCCCNC(=O)c2ccc(-c3c4nc(c(-c5ccc(S(=O)(=O)[O-])cc5)c5ccc([nH]5)c(-c5ccc(S(=O)(=O)[O-])cc5)c5nc(c(-c6ccc(S(=O)(=O)[O-])cc6)c6ccc3[nH]6)C=C5)C=C4)cc2)c2c1CCN(C(=O)[C@@H]1CCc3nn(C)c(=O)n3C1)C2
REMARK SMILES IDX 13 1 12 2 11 3 9 4 10 5 8 7 6 8 7 9 80 10 79 11 81 12 97 13
REMARK SMILES IDX 82 14 83 15 5 16 4 17 2 18 1 19 3 20 84 21 85 22 86 23 87 24
REMARK SMILES IDX 96 25 88 26 95 27 89 28 93 29 90 30 91 31 94 32 92 33 14 34
REMARK SMILES IDX 15 35 16 36 17 37 18 39 19 40 20 41 78 42 21 43 77 44 22 45
REMARK SMILES IDX 23 46 24 47 71 48 25 49 76 50 70 51 72 52 26 53 75 54 69 55
REMARK SMILES IDX 68 56 27 58 57 59 38 60 56 61 39 62 42 63 55 64 73 65 40 66
REMARK SMILES IDX 41 67 54 69 74 70 43 71 28 72 29 73 37 74 30 75 36 76 31 77
REMARK SMILES IDX 32 78 33 79 34 80 35 81 58 82 59 83 67 84 60 85 66 86 61 87
REMARK SMILES IDX 62 88 63 89 64 90 65 91 44 92 45 93 53 94 46 95 52 96 47 97
REMARK SMILES IDX 48 98 49 99 50 100 51 101
REMARK H PARENT 11 6 16 38 72 57 42 68
REMARK Flexibility Score: inf
ROOT
ATOM      1  C   UNL A   1      33.984  31.616  27.957  1.00  0.00     0.023 C 
ENDROOT
BRANCH   1   2
ATOM      2  C   UNL A   1      33.411  30.649  26.898  1.00  0.00     0.116 C 
BRANCH   2   3
ATOM      3  N   UNL A   1      32.667  29.545  27.496  1.00  0.00    -0.351 N 
ATOM      4  C   UNL A   1      31.925  28.468  27.044  1.00  0.00     0.272 C 
ATOM      5  O   UNL A   1      31.588  27.685  27.940  1.00  0.00    -0.267 OA
ATOM      6  H   UNL A   1      32.702  29.574  28.480  1.00  0.00     0.163 HD
BRANCH   4   7
ATOM      7  C   UNL A   1      31.530  28.218  25.629  1.00  0.00     0.155 A 
ATOM      8  N   UNL A   1      30.610  28.696  23.727  1.00  0.00    -0.268 N 
ATOM      9  N   UNL A   1      30.746  29.127  24.992  1.00  0.00    -0.167 NA
ATOM     10  C   UNL A   1      31.159  27.469  23.559  1.00  0.00     0.046 A 
ATOM     11  C   UNL A   1      31.891  27.209  24.696  1.00  0.00     0.026 A 
ATOM     12  C   UNL A   1      31.097  26.568  22.387  1.00  0.00     0.078 C 
ATOM     13  C   UNL A   1      32.823  26.071  24.786  1.00  0.00     0.159 C 
ATOM     14  C   UNL A   1      31.577  25.185  22.882  1.00  0.00     0.126 C 
ATOM     15  N   UNL A   1      32.874  25.257  23.569  1.00  0.00    -0.338 N 
BRANCH   8  16
ATOM     16  C   UNL A   1      30.099  29.543  22.662  1.00  0.00     0.145 C 
BRANCH  16  17
ATOM     17  C   UNL A   1      28.624  29.417  22.267  1.00  0.00     0.027 C 
BRANCH  17  18
ATOM     18  C   UNL A   1      27.806  30.723  22.231  1.00  0.00    -0.016 C 
ATOM     19  C   UNL A   1      27.711  31.410  23.594  1.00  0.00     0.007 C 
ATOM     20  C   UNL A   1      28.427  31.682  21.212  1.00  0.00     0.007 C 
ENDBRANCH  17  18
ENDBRANCH  16  17
ENDBRANCH   8  16
BRANCH  15  21
ATOM     21  C   UNL A   1      34.002  24.461  23.459  1.00  0.00     0.227 C 
ATOM     22  O   UNL A   1      34.889  24.781  22.649  1.00  0.00    -0.274 OA
BRANCH  21  23
ATOM     23  C   UNL A   1      34.251  23.149  24.215  1.00  0.00     0.099 C 
ATOM     24  C   UNL A   1      33.779  21.892  23.485  1.00  0.00     0.023 C 
ATOM     25  C   UNL A   1      33.926  23.128  25.699  1.00  0.00     0.142 C 
ATOM     26  C   UNL A   1      32.319  21.549  23.722  1.00  0.00     0.078 C 
ATOM     27  N   UNL A   1      32.639  22.536  25.976  1.00  0.00    -0.278 N 
ATOM     28  C   UNL A   1      31.844  21.880  25.107  1.00  0.00     0.133 A 
ATOM     29  C   UNL A   1      31.836  22.916  27.024  1.00  0.00     0.345 A 
ATOM     30  N   UNL A   1      30.602  21.767  25.481  1.00  0.00    -0.155 NA
ATOM     31  N   UNL A   1      30.565  22.429  26.694  1.00  0.00    -0.216 N 
ATOM     32  O   UNL A   1      32.132  23.659  27.944  1.00  0.00    -0.246 OA
ATOM     33  C   UNL A   1      29.346  22.964  27.239  1.00  0.00     0.179 C 
ENDBRANCH  21  23
ENDBRANCH  15  21
ENDBRANCH   4   7
ENDBRANCH   2   3
ENDBRANCH   1   2
BRANCH   1  34
ATOM     34  C   UNL A   1      35.443  32.054  27.814  1.00  0.00     0.023 C 
BRANCH  34  35
ATOM     35  C   UNL A   1      35.690  33.514  28.180  1.00  0.00     0.116 C 
BRANCH  35  36
ATOM     36  N   UNL A   1      34.904  33.981  29.330  1.00  0.00    -0.352 N 
ATOM     37  C   UNL A   1      34.896  33.446  30.615  1.00  0.00     0.251 C 
ATOM     38  H   UNL A   1      34.320  34.758  29.175  1.00  0.00     0.163 HD
ATOM     39  O   UNL A   1      33.969  33.618  31.380  1.00  0.00    -0.269 OA
BRANCH  37  40
ATOM     40  C   UNL A   1      36.087  32.678  31.022  1.00  0.00     0.039 A 
ATOM     41  C   UNL A   1      36.038  31.304  31.268  1.00  0.00     0.014 A 
ATOM     42  C   UNL A   1      37.293  33.372  31.017  1.00  0.00     0.014 A 
ATOM     43  C   UNL A   1      37.238  30.604  31.392  1.00  0.00     0.010 A 
ATOM     44  C   UNL A   1      38.465  32.662  30.995  1.00  0.00     0.010 A 
ATOM     45  C   UNL A   1      38.454  31.284  31.218  1.00  0.00    -0.014 A 
BRANCH  45  46
ATOM     46  C   UNL A   1      39.723  30.562  31.117  1.00  0.00     0.031 A 
ATOM     47  C   UNL A   1      40.420  30.297  32.411  1.00  0.00     0.074 A 
ATOM     48  C   UNL A   1      40.097  29.922  29.984  1.00  0.00     0.049 A 
ATOM     49  N   UNL A   1      41.569  30.741  32.805  1.00  0.00    -0.248 NA
ATOM     50  C   UNL A   1      39.701  29.529  33.443  1.00  0.00     0.031 C 
ATOM     51  C   UNL A   1      39.347  29.815  28.724  1.00  0.00     0.029 A 
ATOM     52  N   UNL A   1      41.158  29.101  29.766  1.00  0.00    -0.354 N 
ATOM     53  C   UNL A   1      41.820  30.133  34.034  1.00  0.00     0.074 A 
ATOM     54  C   UNL A   1      40.567  29.561  34.457  1.00  0.00     0.031 C 
ATOM     55  C   UNL A   1      39.830  28.786  27.995  1.00  0.00     0.029 A 
ATOM     56  C   UNL A   1      41.035  28.297  28.635  1.00  0.00     0.049 A 
ATOM     57  H   UNL A   1      41.945  29.075  30.357  1.00  0.00     0.167 HD
ATOM     58  C   UNL A   1      43.090  29.923  34.487  1.00  0.00     0.031 A 
ATOM     59  C   UNL A   1      41.853  27.287  28.252  1.00  0.00     0.031 A 
ATOM     60  C   UNL A   1      44.055  30.658  33.710  1.00  0.00     0.049 A 
ATOM     61  C   UNL A   1      43.142  27.490  28.951  1.00  0.00     0.074 A 
ATOM     62  C   UNL A   1      44.285  31.990  33.433  1.00  0.00     0.029 A 
ATOM     63  N   UNL A   1      44.743  29.945  32.757  1.00  0.00    -0.354 N 
ATOM     64  N   UNL A   1      43.923  28.509  28.731  1.00  0.00    -0.248 NA
ATOM     65  C   UNL A   1      43.371  26.789  30.204  1.00  0.00     0.031 C 
ATOM     66  C   UNL A   1      44.706  32.014  32.070  1.00  0.00     0.029 A 
ATOM     67  C   UNL A   1      44.781  30.696  31.612  1.00  0.00     0.049 A 
ATOM     68  H   UNL A   1      45.138  29.050  32.876  1.00  0.00     0.167 HD
ATOM     69  C   UNL A   1      44.424  28.846  29.978  1.00  0.00     0.074 A 
ATOM     70  C   UNL A   1      44.153  27.682  30.819  1.00  0.00     0.031 C 
ATOM     71  C   UNL A   1      44.753  30.139  30.276  1.00  0.00     0.031 A 
BRANCH  58  72
ATOM     72  C   UNL A   1      43.510  28.742  35.339  1.00  0.00    -0.014 A 
ATOM     73  C   UNL A   1      44.267  28.981  36.508  1.00  0.00     0.010 A 
ATOM     74  C   UNL A   1      43.443  27.407  34.891  1.00  0.00     0.010 A 
ATOM     75  C   UNL A   1      44.990  27.956  37.135  1.00  0.00     0.020 A 
ATOM     76  C   UNL A   1      44.123  26.369  35.536  1.00  0.00     0.020 A 
ATOM     77  C   UNL A   1      44.926  26.658  36.630  1.00  0.00     0.054 A 
BRANCH  77  78
ATOM     78  S   UNL A   1      45.956  25.364  37.366  1.00  0.00     0.124 S 
ATOM     79  O   UNL A   1      45.008  24.261  37.484  1.00  0.00    -0.237 OA
ATOM     80  O   UNL A   1      47.005  25.196  36.364  1.00  0.00    -0.237 OA
ATOM     81  O   UNL A   1      46.393  25.954  38.629  1.00  0.00    -0.744 OA
ENDBRANCH  77  78
ENDBRANCH  58  72
BRANCH  59  82
ATOM     82  C   UNL A   1      41.522  26.038  27.526  1.00  0.00    -0.014 A 
ATOM     83  C   UNL A   1      42.537  25.167  27.089  1.00  0.00     0.010 A 
ATOM     84  C   UNL A   1      40.196  25.558  27.518  1.00  0.00     0.010 A 
ATOM     85  C   UNL A   1      42.246  23.840  26.731  1.00  0.00     0.020 A 
ATOM     86  C   UNL A   1      39.897  24.238  27.156  1.00  0.00     0.020 A 
ATOM     87  C   UNL A   1      40.930  23.377  26.791  1.00  0.00     0.054 A 
BRANCH  87  88
ATOM     88  S   UNL A   1      40.595  21.610  26.522  1.00  0.00     0.124 S 
ATOM     89  O   UNL A   1      40.638  21.075  27.880  1.00  0.00    -0.237 OA
ATOM     90  O   UNL A   1      39.277  21.627  25.893  1.00  0.00    -0.237 OA
ATOM     91  O   UNL A   1      41.688  21.182  25.651  1.00  0.00    -0.744 OA
ENDBRANCH  87  88
ENDBRANCH  59  82
BRANCH  71  92
ATOM     92  C   UNL A   1      44.879  31.124  29.136  1.00  0.00    -0.014 A 
ATOM     93  C   UNL A   1      46.036  31.273  28.346  1.00  0.00     0.010 A 
ATOM     94  C   UNL A   1      43.720  31.828  28.765  1.00  0.00     0.010 A 
ATOM     95  C   UNL A   1      46.038  32.127  27.230  1.00  0.00     0.020 A 
ATOM     96  C   UNL A   1      43.709  32.663  27.646  1.00  0.00     0.020 A 
ATOM     97  C   UNL A   1      44.871  32.818  26.889  1.00  0.00     0.054 A 
BRANCH  97  98
ATOM     98  S   UNL A   1      44.861  33.888  25.423  1.00  0.00     0.124 S 
ATOM     99  O   UNL A   1      44.004  34.993  25.842  1.00  0.00    -0.237 OA
ATOM    100  O   UNL A   1      46.273  34.217  25.249  1.00  0.00    -0.237 OA
ATOM    101  O   UNL A   1      44.300  33.035  24.374  1.00  0.00    -0.744 OA
ENDBRANCH  97  98
ENDBRANCH  71  92
ENDBRANCH  45  46
ENDBRANCH  37  40
ENDBRANCH  35  36
ENDBRANCH  34  35
ENDBRANCH   1  34
TORSDOF 19
ENDMDL
MODEL 3
REMARK VINA RESULT:     -10.9      4.840     10.890
REMARK SMILES CC(C)CCn1nc(C(=O)NCCCCNC(=O)c2ccc(-c3c4nc(c(-c5ccc(S(=O)(=O)[O-])cc5)c5ccc([nH]5)c(-c5ccc(S(=O)(=O)[O-])cc5)c5nc(c(-c6ccc(S(=O)(=O)[O-])cc6)c6ccc3[nH]6)C=C5)C=C4)cc2)c2c1CCN(C(=O)[C@@H]1CCc3nn(C)c(=O)n3C1)C2
REMARK SMILES IDX 13 1 12 2 11 3 9 4 10 5 8 7 6 8 7 9 80 10 79 11 81 12 97 13
REMARK SMILES IDX 82 14 83 15 5 16 4 17 2 18 1 19 3 20 84 21 85 22 86 23 87 24
REMARK SMILES IDX 96 25 88 26 95 27 89 28 93 29 90 30 91 31 94 32 92 33 14 34
REMARK SMILES IDX 15 35 16 36 17 37 18 39 19 40 20 41 78 42 21 43 77 44 22 45
REMARK SMILES IDX 23 46 24 47 71 48 25 49 76 50 70 51 72 52 26 53 75 54 69 55
REMARK SMILES IDX 68 56 27 58 57 59 38 60 56 61 39 62 42 63 55 64 73 65 40 66
REMARK SMILES IDX 41 67 54 69 74 70 43 71 28 72 29 73 37 74 30 75 36 76 31 77
REMARK SMILES IDX 32 78 33 79 34 80 35 81 58 82 59 83 67 84 60 85 66 86 61 87
REMARK SMILES IDX 62 88 63 89 64 90 65 91 44 92 45 93 53 94 46 95 52 96 47 97
REMARK SMILES IDX 48 98 49 99 50 100 51 101
REMARK H PARENT 11 6 16 38 72 57 42 68
REMARK Flexibility Score: inf
ROOT
ATOM      1  C   UNL A   1      45.232  32.216  27.093  1.00  0.00     0.023 C 
ENDROOT
BRANCH   1   2
ATOM      2  C   UNL A   1      45.450  30.688  27.133  1.00  0.00     0.116 C 
BRANCH   2   3
ATOM      3  N   UNL A   1      46.003  30.171  25.885  1.00  0.00    -0.351 N 
ATOM      4  C   UNL A   1      46.550  28.979  25.443  1.00  0.00     0.272 C 
ATOM      5  O   UNL A   1      46.759  28.950  24.225  1.00  0.00    -0.267 OA
ATOM      6  H   UNL A   1      45.981  30.847  25.170  1.00  0.00     0.163 HD
BRANCH   4   7
ATOM      7  C   UNL A   1      46.887  27.807  26.301  1.00  0.00     0.155 A 
ATOM      8  N   UNL A   1      48.018  26.719  27.794  1.00  0.00    -0.268 N 
ATOM      9  N   UNL A   1      47.998  27.858  27.081  1.00  0.00    -0.167 NA
ATOM     10  C   UNL A   1      47.037  25.870  27.399  1.00  0.00     0.046 A 
ATOM     11  C   UNL A   1      46.205  26.591  26.573  1.00  0.00     0.026 A 
ATOM     12  C   UNL A   1      46.798  24.466  27.800  1.00  0.00     0.078 C 
ATOM     13  C   UNL A   1      44.895  26.075  26.135  1.00  0.00     0.159 C 
ATOM     14  C   UNL A   1      45.787  23.895  26.782  1.00  0.00     0.126 C 
ATOM     15  N   UNL A   1      44.589  24.738  26.650  1.00  0.00    -0.338 N 
BRANCH   8  16
ATOM     16  C   UNL A   1      48.875  26.534  28.952  1.00  0.00     0.145 C 
BRANCH  16  17
ATOM     17  C   UNL A   1      48.300  26.819  30.344  1.00  0.00     0.027 C 
BRANCH  17  18
ATOM     18  C   UNL A   1      47.591  28.175  30.532  1.00  0.00    -0.016 C 
ATOM     19  C   UNL A   1      46.983  28.346  31.925  1.00  0.00     0.007 C 
ATOM     20  C   UNL A   1      48.583  29.308  30.258  1.00  0.00     0.007 C 
ENDBRANCH  17  18
ENDBRANCH  16  17
ENDBRANCH   8  16
BRANCH  15  21
ATOM     21  C   UNL A   1      43.247  24.403  26.615  1.00  0.00     0.227 C 
ATOM     22  O   UNL A   1      42.659  24.381  25.519  1.00  0.00    -0.274 OA
BRANCH  21  23
ATOM     23  C   UNL A   1      42.364  24.105  27.834  1.00  0.00     0.099 C 
ATOM     24  C   UNL A   1      42.615  22.745  28.486  1.00  0.00     0.023 C 
ATOM     25  C   UNL A   1      40.888  24.446  27.726  1.00  0.00     0.142 C 
ATOM     26  C   UNL A   1      41.833  21.605  27.858  1.00  0.00     0.078 C 
ATOM     27  N   UNL A   1      40.076  23.297  27.403  1.00  0.00    -0.278 N 
ATOM     28  C   UNL A   1      40.469  22.007  27.377  1.00  0.00     0.133 A 
ATOM     29  C   UNL A   1      38.921  23.365  26.662  1.00  0.00     0.345 A 
ATOM     30  N   UNL A   1      39.683  21.211  26.712  1.00  0.00    -0.155 NA
ATOM     31  N   UNL A   1      38.694  22.051  26.235  1.00  0.00    -0.216 N 
ATOM     32  O   UNL A   1      38.331  24.373  26.314  1.00  0.00    -0.246 OA
ATOM     33  C   UNL A   1      37.893  21.718  25.088  1.00  0.00     0.179 C 
ENDBRANCH  21  23
ENDBRANCH  15  21
ENDBRANCH   4   7
ENDBRANCH   2   3
ENDBRANCH   1   2
BRANCH   1  34
ATOM     34  C   UNL A   1      46.382  33.093  26.593  1.00  0.00     0.023 C 
BRANCH  34  35
ATOM     35  C   UNL A   1      45.932  34.416  25.981  1.00  0.00     0.116 C 
BRANCH  35  36
ATOM     36  N   UNL A   1      46.509  35.600  26.633  1.00  0.00    -0.352 N 
ATOM     37  C   UNL A   1      45.919  36.389  27.616  1.00  0.00     0.251 C 
ATOM     38  H   UNL A   1      47.412  35.864  26.342  1.00  0.00     0.163 HD
ATOM     39  O   UNL A   1      46.266  37.534  27.819  1.00  0.00    -0.269 OA
BRANCH  37  40
ATOM     40  C   UNL A   1      44.864  35.756  28.429  1.00  0.00     0.039 A 
ATOM     41  C   UNL A   1      43.546  35.643  27.979  1.00  0.00     0.014 A 
ATOM     42  C   UNL A   1      45.280  35.159  29.614  1.00  0.00     0.014 A 
ATOM     43  C   UNL A   1      42.671  34.812  28.678  1.00  0.00     0.010 A 
ATOM     44  C   UNL A   1      44.462  34.235  30.213  1.00  0.00     0.010 A 
ATOM     45  C   UNL A   1      43.145  34.080  29.778  1.00  0.00    -0.014 A 
BRANCH  45  46
ATOM     46  C   UNL A   1      42.335  33.033  30.404  1.00  0.00     0.031 A 
ATOM     47  C   UNL A   1      42.876  31.646  30.293  1.00  0.00     0.074 A 
ATOM     48  C   UNL A   1      41.334  33.321  31.268  1.00  0.00     0.049 A 
ATOM     49  N   UNL A   1      42.356  30.633  29.680  1.00  0.00    -0.248 NA
ATOM     50  C   UNL A   1      44.217  31.377  30.840  1.00  0.00     0.031 C 
ATOM     51  C   UNL A   1      40.903  34.646  31.735  1.00  0.00     0.029 A 
ATOM     52  N   UNL A   1      40.587  32.482  32.034  1.00  0.00    -0.354 N 
ATOM     53  C   UNL A   1      43.187  29.547  29.950  1.00  0.00     0.074 A 
ATOM     54  C   UNL A   1      44.400  30.100  30.497  1.00  0.00     0.031 C 
ATOM     55  C   UNL A   1      40.183  34.516  32.870  1.00  0.00     0.029 A 
ATOM     56  C   UNL A   1      39.935  33.106  33.095  1.00  0.00     0.049 A 
ATOM     57  H   UNL A   1      40.514  31.516  31.855  1.00  0.00     0.167 HD
ATOM     58  C   UNL A   1      42.720  28.265  29.946  1.00  0.00     0.031 A 
ATOM     59  C   UNL A   1      39.250  32.511  34.102  1.00  0.00     0.031 A 
ATOM     60  C   UNL A   1      41.411  28.182  29.349  1.00  0.00     0.049 A 
ATOM     61  C   UNL A   1      38.898  31.151  33.637  1.00  0.00     0.074 A 
ATOM     62  C   UNL A   1      40.876  28.470  28.110  1.00  0.00     0.029 A 
ATOM     63  N   UNL A   1      40.348  28.106  30.217  1.00  0.00    -0.354 N 
ATOM     64  N   UNL A   1      38.085  30.921  32.645  1.00  0.00    -0.248 NA
ATOM     65  C   UNL A   1      39.773  30.047  33.993  1.00  0.00     0.031 C 
ATOM     66  C   UNL A   1      39.584  29.009  28.386  1.00  0.00     0.029 A 
ATOM     67  C   UNL A   1      39.371  28.953  29.765  1.00  0.00     0.049 A 
ATOM     68  H   UNL A   1      40.298  27.541  31.023  1.00  0.00     0.167 HD
ATOM     69  C   UNL A   1      38.639  29.840  31.978  1.00  0.00     0.074 A 
ATOM     70  C   UNL A   1      39.598  29.269  32.921  1.00  0.00     0.031 C 
ATOM     71  C   UNL A   1      38.471  29.687  30.630  1.00  0.00     0.031 A 
BRANCH  58  72
ATOM     72  C   UNL A   1      43.237  27.163  30.850  1.00  0.00    -0.014 A 
ATOM     73  C   UNL A   1      43.149  27.333  32.249  1.00  0.00     0.010 A 
ATOM     74  C   UNL A   1      44.059  26.113  30.391  1.00  0.00     0.010 A 
ATOM     75  C   UNL A   1      43.913  26.557  33.132  1.00  0.00     0.020 A 
ATOM     76  C   UNL A   1      44.789  25.302  31.265  1.00  0.00     0.020 A 
ATOM     77  C   UNL A   1      44.744  25.556  32.628  1.00  0.00     0.054 A 
BRANCH  77  78
ATOM     78  S   UNL A   1      45.820  24.639  33.759  1.00  0.00     0.124 S 
ATOM     79  O   UNL A   1      45.473  23.257  33.444  1.00  0.00    -0.237 OA
ATOM     80  O   UNL A   1      47.150  25.073  33.340  1.00  0.00    -0.237 OA
ATOM     81  O   UNL A   1      45.403  25.106  35.079  1.00  0.00    -0.744 OA
ENDBRANCH  77  78
ENDBRANCH  58  72
BRANCH  59  82
ATOM     82  C   UNL A   1      39.095  32.943  35.511  1.00  0.00    -0.014 A 
ATOM     83  C   UNL A   1      37.820  33.177  36.058  1.00  0.00     0.010 A 
ATOM     84  C   UNL A   1      40.183  32.845  36.402  1.00  0.00     0.010 A 
ATOM     85  C   UNL A   1      37.628  33.234  37.448  1.00  0.00     0.020 A 
ATOM     86  C   UNL A   1      40.001  32.906  37.790  1.00  0.00     0.020 A 
ATOM     87  C   UNL A   1      38.718  33.073  38.306  1.00  0.00     0.054 A 
BRANCH  87  88
ATOM     88  S   UNL A   1      38.429  32.945  40.097  1.00  0.00     0.124 S 
ATOM     89  O   UNL A   1      37.013  32.594  40.159  1.00  0.00    -0.237 OA
ATOM     90  O   UNL A   1      39.358  31.891  40.495  1.00  0.00    -0.237 OA
ATOM     91  O   UNL A   1      38.760  34.279  40.595  1.00  0.00    -0.744 OA
ENDBRANCH  87  88
ENDBRANCH  59  82
BRANCH  71  92
ATOM     92  C   UNL A   1      37.409  30.515  29.944  1.00  0.00    -0.014 A 
ATOM     93  C   UNL A   1      36.165  30.008  29.517  1.00  0.00     0.010 A 
ATOM     94  C   UNL A   1      37.631  31.901  29.858  1.00  0.00     0.010 A 
ATOM     95  C   UNL A   1      35.183  30.864  28.993  1.00  0.00     0.020 A 
ATOM     96  C   UNL A   1      36.652  32.760  29.356  1.00  0.00     0.020 A 
ATOM     97  C   UNL A   1      35.436  32.237  28.915  1.00  0.00     0.054 A 
BRANCH  97  98
ATOM     98  S   UNL A   1      34.151  33.349  28.277  1.00  0.00     0.124 S 
ATOM     99  O   UNL A   1      34.914  34.272  27.444  1.00  0.00    -0.237 OA
ATOM    100  O   UNL A   1      33.260  32.441  27.559  1.00  0.00    -0.237 OA
ATOM    101  O   UNL A   1      33.572  33.941  29.484  1.00  0.00    -0.744 OA
ENDBRANCH  97  98
ENDBRANCH  71  92
ENDBRANCH  45  46
ENDBRANCH  37  40
ENDBRANCH  35  36
ENDBRANCH  34  35
ENDBRANCH   1  34
TORSDOF 19
ENDMDL
