MODEL 1
REMARK VINA RESULT:     -10.0      0.000      0.000
REMARK SMILES O=C(N/N=C/c1ccc(C(=O)NCCCCNC(=O)c2ccc(-c3c4nc(c(-c5ccc(S(=O)(=O)[O-])cc5)c5ccc([nH]5)c(-c5ccc(S(=O)(=O)[O-])cc5)c5nc(c(-c6ccc(S(=O)(=O)[O-])cc6)c6ccc3[nH]6)C=C5)C=C4)cc2)cc1)C(=O)Nc1ccc2c(c1)OCO2
REMARK SMILES IDX 14 1 13 2 12 3 10 4 11 5 9 7 6 8 7 9 81 10 8 11 80 12 5 13
REMARK SMILES IDX 4 14 3 15 1 16 2 17 82 19 83 20 84 21 85 23 86 24 90 25
REMARK SMILES IDX 87 26 89 27 88 28 91 29 93 30 92 31 15 32 16 33 17 34 18 35
REMARK SMILES IDX 19 37 20 38 21 39 79 40 22 41 78 42 23 43 24 44 25 45 72 46
REMARK SMILES IDX 26 47 77 48 71 49 73 50 27 51 76 52 70 53 69 54 28 56 58 57
REMARK SMILES IDX 39 58 57 59 40 60 43 61 56 62 74 63 41 64 42 65 55 67 75 68
REMARK SMILES IDX 44 69 29 70 30 71 38 72 31 73 37 74 32 75 33 76 34 77 35 78
REMARK SMILES IDX 36 79 59 80 60 81 68 82 61 83 67 84 62 85 63 86 64 87 65 88
REMARK SMILES IDX 66 89 45 90 46 91 54 92 47 93 53 94 48 95 49 96 50 97 51 98
REMARK SMILES IDX 52 99
REMARK H PARENT 12 6 3 18 84 22 17 36 73 55 43 66
REMARK Flexibility Score: inf
ROOT
ATOM      1  C   UNL A   1      34.767  32.698  30.526  1.00  0.00     0.023 C 
ENDROOT
BRANCH   1   2
ATOM      2  C   UNL A   1      35.540  33.817  31.228  1.00  0.00     0.116 C 
BRANCH   2   3
ATOM      3  N   UNL A   1      35.247  33.808  32.650  1.00  0.00    -0.352 N 
ATOM      4  C   UNL A   1      35.970  33.295  33.701  1.00  0.00     0.251 C 
ATOM      5  O   UNL A   1      35.525  33.391  34.841  1.00  0.00    -0.269 OA
ATOM      6  H   UNL A   1      34.397  34.237  32.901  1.00  0.00     0.163 HD
BRANCH   4   7
ATOM      7  C   UNL A   1      37.337  32.757  33.488  1.00  0.00     0.039 A 
ATOM      8  C   UNL A   1      40.099  31.469  33.944  1.00  0.00    -0.005 A 
ATOM      9  C   UNL A   1      38.798  30.831  33.480  1.00  0.00     0.010 A 
ATOM     10  C   UNL A   1      39.758  32.907  33.674  1.00  0.00     0.010 A 
ATOM     11  C   UNL A   1      37.508  31.407  33.329  1.00  0.00     0.014 A 
ATOM     12  C   UNL A   1      38.488  33.500  33.456  1.00  0.00     0.014 A 
BRANCH   8  13
ATOM     13  C   UNL A   1      41.856  30.553  34.738  1.00  0.00     0.141 C 
ATOM     14  N   UNL A   1      42.426  29.296  34.726  1.00  0.00    -0.180 NA
BRANCH  14  15
ATOM     15  N   UNL A   1      43.142  29.004  35.830  1.00  0.00    -0.239 N 
ATOM     16  O   UNL A   1      43.700  27.562  37.479  1.00  0.00    -0.262 OA
ATOM     17  C   UNL A   1      42.880  27.889  36.619  1.00  0.00     0.329 C 
ATOM     18  H   UNL A   1      43.880  29.603  36.087  1.00  0.00     0.194 HD
BRANCH  17  19
ATOM     19  C   UNL A   1      41.622  26.985  36.422  1.00  0.00     0.315 C 
ATOM     20  O   UNL A   1      40.739  27.015  37.281  1.00  0.00    -0.263 OA
ATOM     21  N   UNL A   1      41.364  26.307  35.231  1.00  0.00    -0.318 N 
ATOM     22  H   UNL A   1      40.490  26.429  34.793  1.00  0.00     0.170 HD
BRANCH  21  23
ATOM     23  C   UNL A   1      42.307  25.455  34.633  1.00  0.00     0.045 A 
ATOM     24  C   UNL A   1      43.559  26.304  33.579  1.00  0.00     0.030 A 
ATOM     25  C   UNL A   1      42.752  23.944  35.574  1.00  0.00     0.076 A 
ATOM     26  C   UNL A   1      45.261  25.619  33.488  1.00  0.00     0.053 A 
ATOM     27  C   UNL A   1      44.496  23.421  35.580  1.00  0.00     0.167 A 
ATOM     28  C   UNL A   1      45.695  24.230  34.539  1.00  0.00     0.165 A 
ATOM     29  O   UNL A   1      45.196  22.618  36.424  1.00  0.00    -0.454 OA
ATOM     30  O   UNL A   1      46.911  23.775  34.936  1.00  0.00    -0.454 OA
ATOM     31  C   UNL A   1      46.570  23.115  36.214  1.00  0.00     0.468 C 
ENDBRANCH  21  23
ENDBRANCH  17  19
ENDBRANCH  14  15
ENDBRANCH   8  13
ENDBRANCH   4   7
ENDBRANCH   2   3
ENDBRANCH   1   2
BRANCH   1  32
ATOM     32  C   UNL A   1      34.029  33.152  29.275  1.00  0.00     0.023 C 
BRANCH  32  33
ATOM     33  C   UNL A   1      34.480  32.451  28.011  1.00  0.00     0.116 C 
BRANCH  33  34
ATOM     34  N   UNL A   1      33.868  31.139  27.845  1.00  0.00    -0.352 N 
ATOM     35  C   UNL A   1      34.491  29.915  27.902  1.00  0.00     0.251 C 
ATOM     36  H   UNL A   1      32.898  31.127  27.673  1.00  0.00     0.163 HD
ATOM     37  O   UNL A   1      33.898  28.889  27.595  1.00  0.00    -0.269 OA
BRANCH  35  38
ATOM     38  C   UNL A   1      35.908  29.890  28.305  1.00  0.00     0.039 A 
ATOM     39  C   UNL A   1      36.234  29.563  29.620  1.00  0.00     0.014 A 
ATOM     40  C   UNL A   1      36.902  30.053  27.334  1.00  0.00     0.014 A 
ATOM     41  C   UNL A   1      37.569  29.332  29.948  1.00  0.00     0.010 A 
ATOM     42  C   UNL A   1      38.213  29.721  27.641  1.00  0.00     0.010 A 
ATOM     43  C   UNL A   1      38.561  29.364  28.951  1.00  0.00    -0.014 A 
BRANCH  43  44
ATOM     44  C   UNL A   1      39.972  29.025  29.258  1.00  0.00     0.031 A 
ATOM     45  C   UNL A   1      40.865  30.054  29.894  1.00  0.00     0.074 A 
ATOM     46  C   UNL A   1      40.462  27.818  28.908  1.00  0.00     0.049 A 
ATOM     47  N   UNL A   1      42.134  29.969  30.192  1.00  0.00    -0.248 NA
ATOM     48  C   UNL A   1      40.259  31.358  30.214  1.00  0.00     0.031 C 
ATOM     49  C   UNL A   1      39.703  26.752  28.248  1.00  0.00     0.029 A 
ATOM     50  N   UNL A   1      41.718  27.286  29.054  1.00  0.00    -0.354 N 
ATOM     51  C   UNL A   1      42.481  31.208  30.718  1.00  0.00     0.074 A 
ATOM     52  C   UNL A   1      41.306  32.046  30.644  1.00  0.00     0.031 C 
ATOM     53  C   UNL A   1      40.499  25.684  28.079  1.00  0.00     0.029 A 
ATOM     54  C   UNL A   1      41.837  26.006  28.566  1.00  0.00     0.049 A 
ATOM     55  H   UNL A   1      42.465  27.775  29.471  1.00  0.00     0.167 HD
ATOM     56  C   UNL A   1      43.666  31.605  31.236  1.00  0.00     0.031 A 
ATOM     57  C   UNL A   1      42.906  25.186  28.503  1.00  0.00     0.031 A 
ATOM     58  C   UNL A   1      44.832  30.763  31.306  1.00  0.00     0.049 A 
ATOM     59  C   UNL A   1      44.222  25.664  29.053  1.00  0.00     0.074 A 
ATOM     60  C   UNL A   1      46.065  31.052  31.861  1.00  0.00     0.029 A 
ATOM     61  N   UNL A   1      44.913  29.477  30.795  1.00  0.00    -0.354 N 
ATOM     62  N   UNL A   1      44.510  26.812  29.619  1.00  0.00    -0.248 NA
ATOM     63  C   UNL A   1      45.356  24.735  28.963  1.00  0.00     0.031 C 
ATOM     64  C   UNL A   1      46.915  29.970  31.617  1.00  0.00     0.029 A 
ATOM     65  C   UNL A   1      46.188  28.972  30.986  1.00  0.00     0.049 A 
ATOM     66  H   UNL A   1      44.173  28.992  30.361  1.00  0.00     0.167 HD
ATOM     67  C   UNL A   1      45.852  26.730  29.980  1.00  0.00     0.074 A 
ATOM     68  C   UNL A   1      46.311  25.416  29.583  1.00  0.00     0.031 C 
ATOM     69  C   UNL A   1      46.632  27.661  30.584  1.00  0.00     0.031 A 
BRANCH  56  70
ATOM     70  C   UNL A   1      43.767  33.017  31.752  1.00  0.00    -0.014 A 
ATOM     71  C   UNL A   1      43.457  33.333  33.088  1.00  0.00     0.010 A 
ATOM     72  C   UNL A   1      44.222  34.038  30.897  1.00  0.00     0.010 A 
ATOM     73  C   UNL A   1      43.562  34.649  33.546  1.00  0.00     0.020 A 
ATOM     74  C   UNL A   1      44.361  35.348  31.362  1.00  0.00     0.020 A 
ATOM     75  C   UNL A   1      44.014  35.648  32.680  1.00  0.00     0.054 A 
BRANCH  75  76
ATOM     76  S   UNL A   1      44.168  37.340  33.314  1.00  0.00     0.124 S 
ATOM     77  O   UNL A   1      44.098  38.129  32.087  1.00  0.00    -0.237 OA
ATOM     78  O   UNL A   1      43.012  37.452  34.200  1.00  0.00    -0.237 OA
ATOM     79  O   UNL A   1      45.466  37.344  33.983  1.00  0.00    -0.744 OA
ENDBRANCH  75  76
ENDBRANCH  56  70
BRANCH  57  80
ATOM     80  C   UNL A   1      42.773  23.833  27.893  1.00  0.00    -0.014 A 
ATOM     81  C   UNL A   1      42.455  22.715  28.685  1.00  0.00     0.010 A 
ATOM     82  C   UNL A   1      42.956  23.658  26.509  1.00  0.00     0.010 A 
ATOM     83  C   UNL A   1      42.342  21.447  28.107  1.00  0.00     0.020 A 
ATOM     84  C   UNL A   1      42.810  22.398  25.923  1.00  0.00     0.020 A 
ATOM     85  C   UNL A   1      42.514  21.297  26.728  1.00  0.00     0.054 A 
BRANCH  85  86
ATOM     86  S   UNL A   1      42.311  19.650  25.996  1.00  0.00     0.124 S 
ATOM     87  O   UNL A   1      43.355  19.639  24.977  1.00  0.00    -0.237 OA
ATOM     88  O   UNL A   1      42.532  18.771  27.140  1.00  0.00    -0.237 OA
ATOM     89  O   UNL A   1      40.940  19.668  25.488  1.00  0.00    -0.744 OA
ENDBRANCH  85  86
ENDBRANCH  57  80
BRANCH  69  90
ATOM     90  C   UNL A   1      48.058  27.284  30.891  1.00  0.00    -0.014 A 
ATOM     91  C   UNL A   1      48.406  26.646  32.094  1.00  0.00     0.010 A 
ATOM     92  C   UNL A   1      49.054  27.508  29.922  1.00  0.00     0.010 A 
ATOM     93  C   UNL A   1      49.727  26.261  32.333  1.00  0.00     0.020 A 
ATOM     94  C   UNL A   1      50.370  27.092  30.142  1.00  0.00     0.020 A 
ATOM     95  C   UNL A   1      50.699  26.481  31.352  1.00  0.00     0.054 A 
BRANCH  95  96
ATOM     96  S   UNL A   1      52.394  25.915  31.664  1.00  0.00     0.124 S 
ATOM     97  O   UNL A   1      53.007  26.048  30.344  1.00  0.00    -0.237 OA
ATOM     98  O   UNL A   1      52.864  26.859  32.673  1.00  0.00    -0.237 OA
ATOM     99  O   UNL A   1      52.221  24.542  32.133  1.00  0.00    -0.744 OA
ENDBRANCH  95  96
ENDBRANCH  69  90
ENDBRANCH  43  44
ENDBRANCH  35  38
ENDBRANCH  33  34
ENDBRANCH  32  33
ENDBRANCH   1  32
TORSDOF 18
ENDMDL
MODEL 2
REMARK VINA RESULT:      -9.8      5.290     11.751
REMARK SMILES O=C(N/N=C/c1ccc(C(=O)NCCCCNC(=O)c2ccc(-c3c4nc(c(-c5ccc(S(=O)(=O)[O-])cc5)c5ccc([nH]5)c(-c5ccc(S(=O)(=O)[O-])cc5)c5nc(c(-c6ccc(S(=O)(=O)[O-])cc6)c6ccc3[nH]6)C=C5)C=C4)cc2)cc1)C(=O)Nc1ccc2c(c1)OCO2
REMARK SMILES IDX 14 1 13 2 12 3 10 4 11 5 9 7 6 8 7 9 81 10 8 11 80 12 5 13
REMARK SMILES IDX 4 14 3 15 1 16 2 17 82 19 83 20 84 21 85 23 86 24 90 25
REMARK SMILES IDX 87 26 89 27 88 28 91 29 93 30 92 31 15 32 16 33 17 34 18 35
REMARK SMILES IDX 19 37 20 38 21 39 79 40 22 41 78 42 23 43 24 44 25 45 72 46
REMARK SMILES IDX 26 47 77 48 71 49 73 50 27 51 76 52 70 53 69 54 28 56 58 57
REMARK SMILES IDX 39 58 57 59 40 60 43 61 56 62 74 63 41 64 42 65 55 67 75 68
REMARK SMILES IDX 44 69 29 70 30 71 38 72 31 73 37 74 32 75 33 76 34 77 35 78
REMARK SMILES IDX 36 79 59 80 60 81 68 82 61 83 67 84 62 85 63 86 64 87 65 88
REMARK SMILES IDX 66 89 45 90 46 91 54 92 47 93 53 94 48 95 49 96 50 97 51 98
REMARK SMILES IDX 52 99
REMARK H PARENT 12 6 3 18 84 22 17 36 73 55 43 66
REMARK Flexibility Score: inf
ROOT
ATOM      1  C   UNL A   1      32.417  30.351  25.722  1.00  0.00     0.023 C 
ENDROOT
BRANCH   1   2
ATOM      2  C   UNL A   1      32.001  29.220  24.778  1.00  0.00     0.116 C 
BRANCH   2   3
ATOM      3  N   UNL A   1      32.868  29.199  23.614  1.00  0.00    -0.352 N 
ATOM      4  C   UNL A   1      33.351  28.136  22.888  1.00  0.00     0.251 C 
ATOM      5  O   UNL A   1      34.089  28.348  21.929  1.00  0.00    -0.269 OA
ATOM      6  H   UNL A   1      33.154  30.085  23.293  1.00  0.00     0.163 HD
BRANCH   4   7
ATOM      7  C   UNL A   1      32.882  26.754  23.162  1.00  0.00     0.039 A 
ATOM      8  C   UNL A   1      32.294  23.740  22.914  1.00  0.00    -0.005 A 
ATOM      9  C   UNL A   1      33.459  24.447  23.592  1.00  0.00     0.010 A 
ATOM     10  C   UNL A   1      31.345  24.901  22.821  1.00  0.00     0.010 A 
ATOM     11  C   UNL A   1      33.767  25.833  23.655  1.00  0.00     0.014 A 
ATOM     12  C   UNL A   1      31.613  26.289  22.943  1.00  0.00     0.014 A 
BRANCH   8  13
ATOM     13  C   UNL A   1      32.113  21.705  22.295  1.00  0.00     0.141 C 
ATOM     14  N   UNL A   1      31.698  20.517  22.861  1.00  0.00    -0.180 NA
BRANCH  14  15
ATOM     15  N   UNL A   1      32.327  19.426  22.380  1.00  0.00    -0.239 N 
ATOM     16  O   UNL A   1      33.204  17.369  22.703  1.00  0.00    -0.262 OA
ATOM     17  C   UNL A   1      32.840  18.433  23.206  1.00  0.00     0.329 C 
ATOM     18  H   UNL A   1      32.427  19.330  21.405  1.00  0.00     0.194 HD
BRANCH  17  19
ATOM     19  C   UNL A   1      32.915  18.573  24.760  1.00  0.00     0.315 C 
ATOM     20  O   UNL A   1      32.026  18.054  25.437  1.00  0.00    -0.263 OA
ATOM     21  N   UNL A   1      34.037  19.079  25.416  1.00  0.00    -0.318 N 
ATOM     22  H   UNL A   1      34.448  18.546  26.136  1.00  0.00     0.170 HD
BRANCH  21  23
ATOM     23  C   UNL A   1      34.603  20.321  25.085  1.00  0.00     0.045 A 
ATOM     24  C   UNL A   1      33.852  21.768  25.944  1.00  0.00     0.030 A 
ATOM     25  C   UNL A   1      36.388  20.313  24.658  1.00  0.00     0.076 A 
ATOM     26  C   UNL A   1      34.917  23.203  26.372  1.00  0.00     0.053 A 
ATOM     27  C   UNL A   1      37.419  21.686  25.265  1.00  0.00     0.167 A 
ATOM     28  C   UNL A   1      36.683  23.095  26.072  1.00  0.00     0.165 A 
ATOM     29  O   UNL A   1      38.763  21.797  25.443  1.00  0.00    -0.454 OA
ATOM     30  O   UNL A   1      37.709  23.811  26.598  1.00  0.00    -0.454 OA
ATOM     31  C   UNL A   1      38.825  22.848  26.479  1.00  0.00     0.468 C 
ENDBRANCH  21  23
ENDBRANCH  17  19
ENDBRANCH  14  15
ENDBRANCH   8  13
ENDBRANCH   4   7
ENDBRANCH   2   3
ENDBRANCH   1   2
BRANCH   1  32
ATOM     32  C   UNL A   1      33.294  29.894  26.879  1.00  0.00     0.023 C 
BRANCH  32  33
ATOM     33  C   UNL A   1      34.109  31.007  27.504  1.00  0.00     0.116 C 
BRANCH  33  34
ATOM     34  N   UNL A   1      33.392  32.275  27.545  1.00  0.00    -0.352 N 
ATOM     35  C   UNL A   1      33.611  33.330  28.398  1.00  0.00     0.251 C 
ATOM     36  H   UNL A   1      32.668  32.390  26.886  1.00  0.00     0.163 HD
ATOM     37  O   UNL A   1      32.843  34.282  28.437  1.00  0.00    -0.269 OA
BRANCH  35  38
ATOM     38  C   UNL A   1      34.779  33.251  29.293  1.00  0.00     0.039 A 
ATOM     39  C   UNL A   1      34.720  32.427  30.416  1.00  0.00     0.014 A 
ATOM     40  C   UNL A   1      35.969  33.889  28.928  1.00  0.00     0.014 A 
ATOM     41  C   UNL A   1      35.885  32.188  31.141  1.00  0.00     0.010 A 
ATOM     42  C   UNL A   1      37.144  33.565  29.590  1.00  0.00     0.010 A 
ATOM     43  C   UNL A   1      37.114  32.718  30.706  1.00  0.00    -0.014 A 
BRANCH  43  44
ATOM     44  C   UNL A   1      38.381  32.396  31.405  1.00  0.00     0.031 A 
ATOM     45  C   UNL A   1      39.318  31.376  30.820  1.00  0.00     0.074 A 
ATOM     46  C   UNL A   1      38.656  32.974  32.593  1.00  0.00     0.049 A 
ATOM     47  N   UNL A   1      40.444  30.922  31.303  1.00  0.00    -0.248 NA
ATOM     48  C   UNL A   1      38.926  30.768  29.537  1.00  0.00     0.031 C 
ATOM     49  C   UNL A   1      37.804  33.948  33.281  1.00  0.00     0.029 A 
ATOM     50  N   UNL A   1      39.729  32.823  33.435  1.00  0.00    -0.354 N 
ATOM     51  C   UNL A   1      40.886  29.968  30.395  1.00  0.00     0.074 A 
ATOM     52  C   UNL A   1      39.879  29.864  29.363  1.00  0.00     0.031 C 
ATOM     53  C   UNL A   1      38.403  34.331  34.420  1.00  0.00     0.029 A 
ATOM     54  C   UNL A   1      39.653  33.592  34.572  1.00  0.00     0.049 A 
ATOM     55  H   UNL A   1      40.484  32.220  33.242  1.00  0.00     0.167 HD
ATOM     56  C   UNL A   1      42.037  29.256  30.407  1.00  0.00     0.031 A 
ATOM     57  C   UNL A   1      40.487  33.683  35.627  1.00  0.00     0.031 A 
ATOM     58  C   UNL A   1      43.034  29.366  31.439  1.00  0.00     0.049 A 
ATOM     59  C   UNL A   1      41.743  32.855  35.635  1.00  0.00     0.074 A 
ATOM     60  C   UNL A   1      44.259  28.730  31.516  1.00  0.00     0.029 A 
ATOM     61  N   UNL A   1      42.916  30.151  32.576  1.00  0.00    -0.354 N 
ATOM     62  N   UNL A   1      42.183  32.017  34.726  1.00  0.00    -0.248 NA
ATOM     63  C   UNL A   1      42.621  32.990  36.805  1.00  0.00     0.031 C 
ATOM     64  C   UNL A   1      44.848  29.069  32.737  1.00  0.00     0.029 A 
ATOM     65  C   UNL A   1      44.030  29.984  33.381  1.00  0.00     0.049 A 
ATOM     66  H   UNL A   1      42.154  30.740  32.781  1.00  0.00     0.167 HD
ATOM     67  C   UNL A   1      43.403  31.547  35.203  1.00  0.00     0.074 A 
ATOM     68  C   UNL A   1      43.638  32.208  36.470  1.00  0.00     0.031 C 
ATOM     69  C   UNL A   1      44.250  30.649  34.642  1.00  0.00     0.031 A 
BRANCH  56  70
ATOM     70  C   UNL A   1      42.271  28.284  29.280  1.00  0.00    -0.014 A 
ATOM     71  C   UNL A   1      42.844  28.698  28.062  1.00  0.00     0.010 A 
ATOM     72  C   UNL A   1      41.954  26.925  29.458  1.00  0.00     0.010 A 
ATOM     73  C   UNL A   1      43.056  27.778  27.032  1.00  0.00     0.020 A 
ATOM     74  C   UNL A   1      42.198  25.997  28.443  1.00  0.00     0.020 A 
ATOM     75  C   UNL A   1      42.733  26.433  27.229  1.00  0.00     0.054 A 
BRANCH  75  76
ATOM     76  S   UNL A   1      43.049  25.260  25.883  1.00  0.00     0.124 S 
ATOM     77  O   UNL A   1      44.427  24.858  26.151  1.00  0.00    -0.237 OA
ATOM     78  O   UNL A   1      42.039  24.231  26.115  1.00  0.00    -0.237 OA
ATOM     79  O   UNL A   1      42.858  26.058  24.675  1.00  0.00    -0.744 OA
ENDBRANCH  75  76
ENDBRANCH  56  70
BRANCH  57  80
ATOM     80  C   UNL A   1      40.158  34.590  36.762  1.00  0.00    -0.014 A 
ATOM     81  C   UNL A   1      40.676  35.897  36.813  1.00  0.00     0.010 A 
ATOM     82  C   UNL A   1      39.312  34.152  37.798  1.00  0.00     0.010 A 
ATOM     83  C   UNL A   1      40.370  36.739  37.887  1.00  0.00     0.020 A 
ATOM     84  C   UNL A   1      38.976  35.003  38.854  1.00  0.00     0.020 A 
ATOM     85  C   UNL A   1      39.517  36.289  38.898  1.00  0.00     0.054 A 
BRANCH  85  86
ATOM     86  S   UNL A   1      39.095  37.418  40.252  1.00  0.00     0.124 S 
ATOM     87  O   UNL A   1      38.404  36.533  41.184  1.00  0.00    -0.237 OA
ATOM     88  O   UNL A   1      40.406  37.893  40.683  1.00  0.00    -0.237 OA
ATOM     89  O   UNL A   1      38.255  38.427  39.608  1.00  0.00    -0.744 OA
ENDBRANCH  85  86
ENDBRANCH  57  80
BRANCH  69  90
ATOM     90  C   UNL A   1      45.534  30.349  35.372  1.00  0.00    -0.014 A 
ATOM     91  C   UNL A   1      45.630  29.281  36.280  1.00  0.00     0.010 A 
ATOM     92  C   UNL A   1      46.685  31.108  35.084  1.00  0.00     0.010 A 
ATOM     93  C   UNL A   1      46.845  28.993  36.906  1.00  0.00     0.020 A 
ATOM     94  C   UNL A   1      47.910  30.801  35.680  1.00  0.00     0.020 A 
ATOM     95  C   UNL A   1      47.979  29.751  36.596  1.00  0.00     0.054 A 
BRANCH  95  96
ATOM     96  S   UNL A   1      49.557  29.314  37.376  1.00  0.00     0.124 S 
ATOM     97  O   UNL A   1      50.507  29.546  36.291  1.00  0.00    -0.237 OA
ATOM     98  O   UNL A   1      49.632  30.256  38.490  1.00  0.00    -0.237 OA
ATOM     99  O   UNL A   1      49.381  27.915  37.759  1.00  0.00    -0.744 OA
ENDBRANCH  95  96
ENDBRANCH  69  90
ENDBRANCH  43  44
ENDBRANCH  35  38
ENDBRANCH  33  34
ENDBRANCH  32  33
ENDBRANCH   1  32
TORSDOF 18
ENDMDL
MODEL 3
REMARK VINA RESULT:      -9.7      1.498      2.389
REMARK SMILES O=C(N/N=C/c1ccc(C(=O)NCCCCNC(=O)c2ccc(-c3c4nc(c(-c5ccc(S(=O)(=O)[O-])cc5)c5ccc([nH]5)c(-c5ccc(S(=O)(=O)[O-])cc5)c5nc(c(-c6ccc(S(=O)(=O)[O-])cc6)c6ccc3[nH]6)C=C5)C=C4)cc2)cc1)C(=O)Nc1ccc2c(c1)OCO2
REMARK SMILES IDX 14 1 13 2 12 3 10 4 11 5 9 7 6 8 7 9 81 10 8 11 80 12 5 13
REMARK SMILES IDX 4 14 3 15 1 16 2 17 82 19 83 20 84 21 85 23 86 24 90 25
REMARK SMILES IDX 87 26 89 27 88 28 91 29 93 30 92 31 15 32 16 33 17 34 18 35
REMARK SMILES IDX 19 37 20 38 21 39 79 40 22 41 78 42 23 43 24 44 25 45 72 46
REMARK SMILES IDX 26 47 77 48 71 49 73 50 27 51 76 52 70 53 69 54 28 56 58 57
REMARK SMILES IDX 39 58 57 59 40 60 43 61 56 62 74 63 41 64 42 65 55 67 75 68
REMARK SMILES IDX 44 69 29 70 30 71 38 72 31 73 37 74 32 75 33 76 34 77 35 78
REMARK SMILES IDX 36 79 59 80 60 81 68 82 61 83 67 84 62 85 63 86 64 87 65 88
REMARK SMILES IDX 66 89 45 90 46 91 54 92 47 93 53 94 48 95 49 96 50 97 51 98
REMARK SMILES IDX 52 99
REMARK H PARENT 12 6 3 18 84 22 17 36 73 55 43 66
REMARK Flexibility Score: inf
ROOT
ATOM      1  C   UNL A   1      35.728  32.205  31.956  1.00  0.00     0.023 C 
ENDROOT
BRANCH   1   2
ATOM      2  C   UNL A   1      36.775  33.105  32.618  1.00  0.00     0.116 C 
BRANCH   2   3
ATOM      3  N   UNL A   1      36.791  32.878  34.051  1.00  0.00    -0.352 N 
ATOM      4  C   UNL A   1      37.557  32.018  34.804  1.00  0.00     0.251 C 
ATOM      5  O   UNL A   1      37.399  31.980  36.021  1.00  0.00    -0.269 OA
ATOM      6  H   UNL A   1      36.156  33.426  34.566  1.00  0.00     0.163 HD
BRANCH   4   7
ATOM      7  C   UNL A   1      38.659  31.242  34.181  1.00  0.00     0.039 A 
ATOM      8  C   UNL A   1      40.809  29.107  33.627  1.00  0.00    -0.005 A 
ATOM      9  C   UNL A   1      39.373  29.186  33.131  1.00  0.00     0.010 A 
ATOM     10  C   UNL A   1      40.983  30.536  34.055  1.00  0.00     0.010 A 
ATOM     11  C   UNL A   1      38.359  30.135  33.434  1.00  0.00     0.014 A 
ATOM     12  C   UNL A   1      39.994  31.523  34.303  1.00  0.00     0.014 A 
BRANCH   8  13
ATOM     13  C   UNL A   1      42.139  27.438  33.681  1.00  0.00     0.141 C 
ATOM     14  N   UNL A   1      43.254  27.065  34.404  1.00  0.00    -0.180 NA
BRANCH  14  15
ATOM     15  N   UNL A   1      44.125  26.298  33.719  1.00  0.00    -0.239 N 
ATOM     16  O   UNL A   1      44.889  24.256  33.123  1.00  0.00    -0.262 OA
ATOM     17  C   UNL A   1      44.237  24.927  33.925  1.00  0.00     0.329 C 
ATOM     18  H   UNL A   1      44.705  26.724  33.048  1.00  0.00     0.194 HD
BRANCH  17  19
ATOM     19  C   UNL A   1      43.515  24.180  35.092  1.00  0.00     0.315 C 
ATOM     20  O   UNL A   1      42.284  24.196  35.123  1.00  0.00    -0.263 OA
ATOM     21  N   UNL A   1      44.189  23.335  35.973  1.00  0.00    -0.318 N 
ATOM     22  H   UNL A   1      43.856  22.416  36.100  1.00  0.00     0.170 HD
BRANCH  21  23
ATOM     23  C   UNL A   1      45.327  23.747  36.685  1.00  0.00     0.045 A 
ATOM     24  C   UNL A   1      44.998  24.317  38.408  1.00  0.00     0.030 A 
ATOM     25  C   UNL A   1      46.900  22.898  36.269  1.00  0.00     0.076 A 
ATOM     26  C   UNL A   1      46.266  24.019  39.703  1.00  0.00     0.053 A 
ATOM     27  C   UNL A   1      48.034  22.478  37.631  1.00  0.00     0.167 A 
ATOM     28  C   UNL A   1      47.723  23.055  39.288  1.00  0.00     0.165 A 
ATOM     29  O   UNL A   1      49.044  21.573  37.719  1.00  0.00    -0.454 OA
ATOM     30  O   UNL A   1      48.599  22.396  40.090  1.00  0.00    -0.454 OA
ATOM     31  C   UNL A   1      49.091  21.343  39.177  1.00  0.00     0.468 C 
ENDBRANCH  21  23
ENDBRANCH  17  19
ENDBRANCH  14  15
ENDBRANCH   8  13
ENDBRANCH   4   7
ENDBRANCH   2   3
ENDBRANCH   1   2
BRANCH   1  32
ATOM     32  C   UNL A   1      34.906  32.906  30.884  1.00  0.00     0.023 C 
BRANCH  32  33
ATOM     33  C   UNL A   1      35.400  32.655  29.474  1.00  0.00     0.116 C 
BRANCH  33  34
ATOM     34  N   UNL A   1      34.451  31.896  28.671  1.00  0.00    -0.352 N 
ATOM     35  C   UNL A   1      34.674  30.709  28.016  1.00  0.00     0.251 C 
ATOM     36  H   UNL A   1      33.545  32.276  28.588  1.00  0.00     0.163 HD
ATOM     37  O   UNL A   1      33.842  30.245  27.246  1.00  0.00    -0.269 OA
BRANCH  35  38
ATOM     38  C   UNL A   1      35.967  30.039  28.241  1.00  0.00     0.039 A 
ATOM     39  C   UNL A   1      36.958  30.131  27.265  1.00  0.00     0.014 A 
ATOM     40  C   UNL A   1      36.227  29.446  29.480  1.00  0.00     0.014 A 
ATOM     41  C   UNL A   1      38.244  29.682  27.563  1.00  0.00     0.010 A 
ATOM     42  C   UNL A   1      37.529  29.098  29.807  1.00  0.00     0.010 A 
ATOM     43  C   UNL A   1      38.549  29.206  28.851  1.00  0.00    -0.014 A 
BRANCH  43  44
ATOM     44  C   UNL A   1      39.931  28.816  29.220  1.00  0.00     0.031 A 
ATOM     45  C   UNL A   1      40.828  29.809  29.906  1.00  0.00     0.074 A 
ATOM     46  C   UNL A   1      40.396  27.596  28.881  1.00  0.00     0.049 A 
ATOM     47  N   UNL A   1      42.079  29.678  30.262  1.00  0.00    -0.248 NA
ATOM     48  C   UNL A   1      40.253  31.131  30.209  1.00  0.00     0.031 C 
ATOM     49  C   UNL A   1      39.633  26.562  28.176  1.00  0.00     0.029 A 
ATOM     50  N   UNL A   1      41.625  27.020  29.080  1.00  0.00    -0.354 N 
ATOM     51  C   UNL A   1      42.443  30.900  30.815  1.00  0.00     0.074 A 
ATOM     52  C   UNL A   1      41.302  31.778  30.694  1.00  0.00     0.031 C 
ATOM     53  C   UNL A   1      40.399  25.469  28.034  1.00  0.00     0.029 A 
ATOM     54  C   UNL A   1      41.723  25.741  28.585  1.00  0.00     0.049 A 
ATOM     55  H   UNL A   1      42.368  27.479  29.535  1.00  0.00     0.167 HD
ATOM     56  C   UNL A   1      43.616  31.251  31.391  1.00  0.00     0.031 A 
ATOM     57  C   UNL A   1      42.765  24.885  28.564  1.00  0.00     0.031 A 
ATOM     58  C   UNL A   1      44.747  30.369  31.507  1.00  0.00     0.049 A 
ATOM     59  C   UNL A   1      44.070  25.313  29.180  1.00  0.00     0.074 A 
ATOM     60  C   UNL A   1      45.962  30.611  32.122  1.00  0.00     0.029 A 
ATOM     61  N   UNL A   1      44.808  29.085  30.988  1.00  0.00    -0.354 N 
ATOM     62  N   UNL A   1      44.370  26.445  29.770  1.00  0.00    -0.248 NA
ATOM     63  C   UNL A   1      45.174  24.346  29.134  1.00  0.00     0.031 C 
ATOM     64  C   UNL A   1      46.785  29.502  31.907  1.00  0.00     0.029 A 
ATOM     65  C   UNL A   1      46.055  28.536  31.234  1.00  0.00     0.049 A 
ATOM     66  H   UNL A   1      44.073  28.630  30.515  1.00  0.00     0.167 HD
ATOM     67  C   UNL A   1      45.690  26.315  30.191  1.00  0.00     0.074 A 
ATOM     68  C   UNL A   1      46.122  24.988  29.804  1.00  0.00     0.031 C 
ATOM     69  C   UNL A   1      46.472  27.212  30.840  1.00  0.00     0.031 A 
BRANCH  56  70
ATOM     70  C   UNL A   1      43.740  32.655  31.924  1.00  0.00    -0.014 A 
ATOM     71  C   UNL A   1      43.439  32.959  33.266  1.00  0.00     0.010 A 
ATOM     72  C   UNL A   1      44.208  33.679  31.081  1.00  0.00     0.010 A 
ATOM     73  C   UNL A   1      43.566  34.267  33.740  1.00  0.00     0.020 A 
ATOM     74  C   UNL A   1      44.370  34.981  31.562  1.00  0.00     0.020 A 
ATOM     75  C   UNL A   1      44.032  35.270  32.885  1.00  0.00     0.054 A 
BRANCH  75  76
ATOM     76  S   UNL A   1      44.214  36.951  33.541  1.00  0.00     0.124 S 
ATOM     77  O   UNL A   1      45.389  36.815  34.397  1.00  0.00    -0.237 OA
ATOM     78  O   UNL A   1      44.408  37.744  32.330  1.00  0.00    -0.237 OA
ATOM     79  O   UNL A   1      42.956  37.188  34.244  1.00  0.00    -0.744 OA
ENDBRANCH  75  76
ENDBRANCH  56  70
BRANCH  57  80
ATOM     80  C   UNL A   1      42.615  23.542  27.937  1.00  0.00    -0.014 A 
ATOM     81  C   UNL A   1      43.103  23.294  26.642  1.00  0.00     0.010 A 
ATOM     82  C   UNL A   1      41.986  22.497  28.640  1.00  0.00     0.010 A 
ATOM     83  C   UNL A   1      42.949  22.034  26.055  1.00  0.00     0.020 A 
ATOM     84  C   UNL A   1      41.862  21.227  28.071  1.00  0.00     0.020 A 
ATOM     85  C   UNL A   1      42.334  21.006  26.777  1.00  0.00     0.054 A 
BRANCH  85  86
ATOM     86  S   UNL A   1      42.193  19.367  26.014  1.00  0.00     0.124 S 
ATOM     87  O   UNL A   1      42.755  18.501  27.045  1.00  0.00    -0.237 OA
ATOM     88  O   UNL A   1      40.754  19.245  25.799  1.00  0.00    -0.237 OA
ATOM     89  O   UNL A   1      42.990  19.487  24.794  1.00  0.00    -0.744 OA
ENDBRANCH  85  86
ENDBRANCH  57  80
BRANCH  69  90
ATOM     90  C   UNL A   1      47.869  26.784  31.210  1.00  0.00    -0.014 A 
ATOM     91  C   UNL A   1      48.959  27.023  30.355  1.00  0.00     0.010 A 
ATOM     92  C   UNL A   1      48.101  26.199  32.469  1.00  0.00     0.010 A 
ATOM     93  C   UNL A   1      50.252  26.662  30.742  1.00  0.00     0.020 A 
ATOM     94  C   UNL A   1      49.396  25.870  32.875  1.00  0.00     0.020 A 
ATOM     95  C   UNL A   1      50.462  26.093  32.003  1.00  0.00     0.054 A 
BRANCH  95  96
ATOM     96  S   UNL A   1      52.159  25.692  32.504  1.00  0.00     0.124 S 
ATOM     97  O   UNL A   1      52.940  26.653  31.728  1.00  0.00    -0.237 OA
ATOM     98  O   UNL A   1      52.128  25.925  33.945  1.00  0.00    -0.237 OA
ATOM     99  O   UNL A   1      52.318  24.296  32.106  1.00  0.00    -0.744 OA
ENDBRANCH  95  96
ENDBRANCH  69  90
ENDBRANCH  43  44
ENDBRANCH  35  38
ENDBRANCH  33  34
ENDBRANCH  32  33
ENDBRANCH   1  32
TORSDOF 18
ENDMDL
