MODEL 1
REMARK VINA RESULT:     -13.8      0.000      0.000
REMARK SMILES CC1(C)S[C@@H]2c3ccccc3C(=O)N2[C@H]1C(=O)N[C@H](Cc1c[nH]c2ccccc12)C(=O)NCCCCNC(=O)c1ccc(-c2c3nc(c(-c4ccc(S(=O)(=O)[O-])cc4)c4ccc([nH]4)c(-c4ccc(S(=O)(=O)[O-])cc4)c4nc(c(-c5ccc(S(=O)(=O)[O-])cc5)c5ccc2[nH]5)C=C4)C=C3)cc1
REMARK SMILES IDX 35 1 34 2 33 3 32 4 30 5 31 6 19 8 18 9 16 10 17 11 15 13
REMARK SMILES IDX 1 14 2 15 3 16 4 17 5 18 14 19 6 20 12 21 7 22 11 23 13 24
REMARK SMILES IDX 8 25 10 26 9 27 20 28 21 29 22 30 29 31 23 32 24 33 28 34
REMARK SMILES IDX 25 36 27 37 26 38 36 39 37 40 38 41 39 43 40 44 41 45 99 46
REMARK SMILES IDX 42 47 98 48 43 49 44 50 45 51 92 52 46 53 97 54 91 55 93 56
REMARK SMILES IDX 47 57 96 58 90 59 89 60 48 62 78 63 59 64 77 65 60 66 63 67
REMARK SMILES IDX 76 68 94 69 61 70 62 71 75 73 95 74 64 75 49 76 50 77 58 78
REMARK SMILES IDX 51 79 57 80 52 81 53 82 54 83 55 84 56 85 79 86 80 87 88 88
REMARK SMILES IDX 81 89 87 90 82 91 83 92 84 93 85 94 86 95 65 96 66 97 74 98
REMARK SMILES IDX 67 99 73 100 68 101 69 102 70 103 71 104 72 105
REMARK H PARENT 32 7 18 12 23 35 37 42 93 61 63 72
REMARK Flexibility Score: inf
ROOT
ATOM      1  C   UNL A   1      33.153  28.659  25.899  1.00  0.00     0.023 C 
ENDROOT
BRANCH   1   2
ATOM      2  C   UNL A   1      33.674  27.334  25.304  1.00  0.00     0.023 C 
BRANCH   2   3
ATOM      3  C   UNL A   1      32.899  26.007  25.474  1.00  0.00     0.116 C 
BRANCH   3   4
ATOM      4  N   UNL A   1      31.455  26.129  25.544  1.00  0.00    -0.354 N 
ATOM      5  C   UNL A   1      30.462  25.839  24.655  1.00  0.00     0.242 C 
ATOM      6  O   UNL A   1      29.323  26.181  25.008  1.00  0.00    -0.273 OA
ATOM      7  H   UNL A   1      31.130  26.491  26.400  1.00  0.00     0.163 HD
BRANCH   5   8
ATOM      8  C   UNL A   1      30.649  25.231  23.224  1.00  0.00     0.175 C 
BRANCH   8   9
ATOM      9  N   UNL A   1      31.623  24.110  22.945  1.00  0.00    -0.342 N 
ATOM     10  C   UNL A   1      32.134  23.027  23.602  1.00  0.00     0.244 C 
ATOM     11  O   UNL A   1      32.085  21.986  22.925  1.00  0.00    -0.273 OA
ATOM     12  H   UNL A   1      31.992  24.179  22.035  1.00  0.00     0.164 HD
BRANCH  10  13
ATOM     13  C   UNL A   1      33.006  23.016  24.891  1.00  0.00     0.191 C 
ATOM     14  C   UNL A   1      30.811  22.238  26.021  1.00  0.00     0.026 C 
ATOM     15  C   UNL A   1      32.348  22.239  26.060  1.00  0.00     0.042 C 
ATOM     16  C   UNL A   1      32.743  22.793  27.440  1.00  0.00     0.026 C 
ATOM     17  S   UNL A   1      33.162  20.562  25.950  1.00  0.00    -0.123 SA
ATOM     18  C   UNL A   1      34.381  21.040  24.699  1.00  0.00     0.176 C 
ATOM     19  N   UNL A   1      34.331  22.462  24.730  1.00  0.00    -0.309 N 
ATOM     20  C   UNL A   1      35.806  20.730  24.949  1.00  0.00    -0.002 A 
ATOM     21  C   UNL A   1      35.505  23.002  25.229  1.00  0.00     0.256 C 
ATOM     22  C   UNL A   1      36.492  19.549  24.727  1.00  0.00     0.007 A 
ATOM     23  C   UNL A   1      36.481  21.899  25.290  1.00  0.00     0.046 A 
ATOM     24  O   UNL A   1      35.709  24.147  25.593  1.00  0.00    -0.269 OA
ATOM     25  C   UNL A   1      37.875  19.556  24.912  1.00  0.00     0.000 A 
ATOM     26  C   UNL A   1      37.839  21.919  25.529  1.00  0.00     0.014 A 
ATOM     27  C   UNL A   1      38.540  20.724  25.333  1.00  0.00     0.001 A 
ENDBRANCH  10  13
ENDBRANCH   8   9
BRANCH   8  28
ATOM     28  C   UNL A   1      31.042  26.381  22.282  1.00  0.00     0.072 C 
BRANCH  28  29
ATOM     29  C   UNL A   1      30.903  27.828  22.647  1.00  0.00    -0.020 A 
ATOM     30  C   UNL A   1      31.886  28.800  22.645  1.00  0.00     0.087 A 
ATOM     31  C   UNL A   1      29.691  28.589  22.647  1.00  0.00     0.003 A 
ATOM     32  N   UNL A   1      31.367  29.745  21.788  1.00  0.00    -0.361 N 
ATOM     33  C   UNL A   1      30.009  29.778  21.983  1.00  0.00     0.046 A 
ATOM     34  C   UNL A   1      28.351  28.365  23.011  1.00  0.00     0.010 A 
ATOM     35  H   UNL A   1      31.878  30.296  21.152  1.00  0.00     0.166 HD
ATOM     36  C   UNL A   1      29.062  30.733  21.614  1.00  0.00     0.026 A 
ATOM     37  C   UNL A   1      27.401  29.362  22.741  1.00  0.00     0.001 A 
ATOM     38  C   UNL A   1      27.750  30.515  22.036  1.00  0.00     0.002 A 
ENDBRANCH  28  29
ENDBRANCH   8  28
ENDBRANCH   5   8
ENDBRANCH   3   4
ENDBRANCH   2   3
ENDBRANCH   1   2
BRANCH   1  39
ATOM     39  C   UNL A   1      33.335  29.030  27.387  1.00  0.00     0.116 C 
BRANCH  39  40
ATOM     40  N   UNL A   1      33.490  30.437  27.723  1.00  0.00    -0.352 N 
ATOM     41  C   UNL A   1      34.630  31.089  28.155  1.00  0.00     0.251 C 
ATOM     42  H   UNL A   1      32.682  30.993  27.632  1.00  0.00     0.163 HD
ATOM     43  O   UNL A   1      34.603  32.296  28.381  1.00  0.00    -0.269 OA
BRANCH  41  44
ATOM     44  C   UNL A   1      35.878  30.323  28.390  1.00  0.00     0.039 A 
ATOM     45  C   UNL A   1      36.085  29.635  29.587  1.00  0.00     0.014 A 
ATOM     46  C   UNL A   1      36.868  30.311  27.403  1.00  0.00     0.014 A 
ATOM     47  C   UNL A   1      37.337  29.076  29.863  1.00  0.00     0.010 A 
ATOM     48  C   UNL A   1      38.107  29.709  27.663  1.00  0.00     0.010 A 
ATOM     49  C   UNL A   1      38.378  29.143  28.921  1.00  0.00    -0.014 A 
BRANCH  49  50
ATOM     50  C   UNL A   1      39.756  28.700  29.286  1.00  0.00     0.031 A 
ATOM     51  C   UNL A   1      40.620  29.567  30.173  1.00  0.00     0.074 A 
ATOM     52  C   UNL A   1      40.227  27.503  28.884  1.00  0.00     0.049 A 
ATOM     53  N   UNL A   1      41.832  29.344  30.620  1.00  0.00    -0.248 NA
ATOM     54  C   UNL A   1      40.051  30.850  30.617  1.00  0.00     0.031 C 
ATOM     55  C   UNL A   1      39.494  26.547  28.056  1.00  0.00     0.029 A 
ATOM     56  N   UNL A   1      41.427  26.877  29.133  1.00  0.00    -0.354 N 
ATOM     57  C   UNL A   1      42.168  30.454  31.388  1.00  0.00     0.074 A 
ATOM     58  C   UNL A   1      41.052  31.371  31.314  1.00  0.00     0.031 C 
ATOM     59  C   UNL A   1      40.240  25.443  27.897  1.00  0.00     0.029 A 
ATOM     60  C   UNL A   1      41.528  25.627  28.566  1.00  0.00     0.049 A 
ATOM     61  H   UNL A   1      42.147  27.285  29.666  1.00  0.00     0.167 HD
ATOM     62  C   UNL A   1      43.293  30.683  32.109  1.00  0.00     0.031 A 
ATOM     63  C   UNL A   1      42.536  24.729  28.570  1.00  0.00     0.031 A 
ATOM     64  C   UNL A   1      44.402  29.769  32.197  1.00  0.00     0.049 A 
ATOM     65  C   UNL A   1      43.806  25.031  29.320  1.00  0.00     0.074 A 
ATOM     66  C   UNL A   1      45.573  29.917  32.922  1.00  0.00     0.029 A 
ATOM     67  N   UNL A   1      44.486  28.547  31.550  1.00  0.00    -0.354 N 
ATOM     68  N   UNL A   1      44.097  26.081  30.051  1.00  0.00    -0.248 NA
ATOM     69  C   UNL A   1      44.882  24.032  29.252  1.00  0.00     0.031 C 
ATOM     70  C   UNL A   1      46.394  28.819  32.658  1.00  0.00     0.029 A 
ATOM     71  C   UNL A   1      45.703  27.946  31.833  1.00  0.00     0.049 A 
ATOM     72  H   UNL A   1      43.786  28.161  30.976  1.00  0.00     0.167 HD
ATOM     73  C   UNL A   1      45.380  25.860  30.542  1.00  0.00     0.074 A 
ATOM     74  C   UNL A   1      45.805  24.570  30.040  1.00  0.00     0.031 C 
ATOM     75  C   UNL A   1      46.133  26.662  31.334  1.00  0.00     0.031 A 
BRANCH  62  76
ATOM     76  C   UNL A   1      43.398  31.976  32.881  1.00  0.00    -0.014 A 
ATOM     77  C   UNL A   1      42.885  32.053  34.189  1.00  0.00     0.010 A 
ATOM     78  C   UNL A   1      43.886  33.145  32.270  1.00  0.00     0.010 A 
ATOM     79  C   UNL A   1      42.827  33.278  34.861  1.00  0.00     0.020 A 
ATOM     80  C   UNL A   1      43.860  34.367  32.950  1.00  0.00     0.020 A 
ATOM     81  C   UNL A   1      43.307  34.429  34.233  1.00  0.00     0.054 A 
BRANCH  81  82
ATOM     82  S   UNL A   1      43.205  36.014  35.110  1.00  0.00     0.124 S 
ATOM     83  O   UNL A   1      42.120  35.775  36.055  1.00  0.00    -0.237 OA
ATOM     84  O   UNL A   1      44.538  36.142  35.695  1.00  0.00    -0.237 OA
ATOM     85  O   UNL A   1      42.911  36.974  34.048  1.00  0.00    -0.744 OA
ENDBRANCH  81  82
ENDBRANCH  62  76
BRANCH  63  86
ATOM     86  C   UNL A   1      42.355  23.439  27.845  1.00  0.00    -0.014 A 
ATOM     87  C   UNL A   1      41.668  22.372  28.455  1.00  0.00     0.010 A 
ATOM     88  C   UNL A   1      42.947  23.237  26.587  1.00  0.00     0.010 A 
ATOM     89  C   UNL A   1      41.642  21.109  27.858  1.00  0.00     0.020 A 
ATOM     90  C   UNL A   1      42.894  21.981  25.970  1.00  0.00     0.020 A 
ATOM     91  C   UNL A   1      42.273  20.917  26.627  1.00  0.00     0.054 A 
BRANCH  91  92
ATOM     92  S   UNL A   1      42.298  19.250  25.914  1.00  0.00     0.124 S 
ATOM     93  O   UNL A   1      42.904  18.474  26.993  1.00  0.00    -0.237 OA
ATOM     94  O   UNL A   1      40.883  18.986  25.668  1.00  0.00    -0.237 OA
ATOM     95  O   UNL A   1      43.118  19.401  24.715  1.00  0.00    -0.744 OA
ENDBRANCH  91  92
ENDBRANCH  63  86
BRANCH  75  96
ATOM     96  C   UNL A   1      47.514  26.199  31.729  1.00  0.00    -0.014 A 
ATOM     97  C   UNL A   1      48.557  26.221  30.783  1.00  0.00     0.010 A 
ATOM     98  C   UNL A   1      47.743  25.599  32.981  1.00  0.00     0.010 A 
ATOM     99  C   UNL A   1      49.785  25.616  31.062  1.00  0.00     0.020 A 
ATOM    100  C   UNL A   1      48.982  25.020  33.275  1.00  0.00     0.020 A 
ATOM    101  C   UNL A   1      49.985  25.006  32.302  1.00  0.00     0.054 A 
BRANCH 101 102
ATOM    102  S   UNL A   1      51.567  24.178  32.625  1.00  0.00     0.124 S 
ATOM    103  O   UNL A   1      52.507  25.009  31.880  1.00  0.00    -0.237 OA
ATOM    104  O   UNL A   1      51.677  24.254  34.081  1.00  0.00    -0.237 OA
ATOM    105  O   UNL A   1      51.366  22.832  32.093  1.00  0.00    -0.744 OA
ENDBRANCH 101 102
ENDBRANCH  75  96
ENDBRANCH  49  50
ENDBRANCH  41  44
ENDBRANCH  39  40
ENDBRANCH   1  39
TORSDOF 18
ENDMDL
MODEL 2
REMARK VINA RESULT:     -13.3      3.616      8.920
REMARK SMILES CC1(C)S[C@@H]2c3ccccc3C(=O)N2[C@H]1C(=O)N[C@H](Cc1c[nH]c2ccccc12)C(=O)NCCCCNC(=O)c1ccc(-c2c3nc(c(-c4ccc(S(=O)(=O)[O-])cc4)c4ccc([nH]4)c(-c4ccc(S(=O)(=O)[O-])cc4)c4nc(c(-c5ccc(S(=O)(=O)[O-])cc5)c5ccc2[nH]5)C=C4)C=C3)cc1
REMARK SMILES IDX 35 1 34 2 33 3 32 4 30 5 31 6 19 8 18 9 16 10 17 11 15 13
REMARK SMILES IDX 1 14 2 15 3 16 4 17 5 18 14 19 6 20 12 21 7 22 11 23 13 24
REMARK SMILES IDX 8 25 10 26 9 27 20 28 21 29 22 30 29 31 23 32 24 33 28 34
REMARK SMILES IDX 25 36 27 37 26 38 36 39 37 40 38 41 39 43 40 44 41 45 99 46
REMARK SMILES IDX 42 47 98 48 43 49 44 50 45 51 92 52 46 53 97 54 91 55 93 56
REMARK SMILES IDX 47 57 96 58 90 59 89 60 48 62 78 63 59 64 77 65 60 66 63 67
REMARK SMILES IDX 76 68 94 69 61 70 62 71 75 73 95 74 64 75 49 76 50 77 58 78
REMARK SMILES IDX 51 79 57 80 52 81 53 82 54 83 55 84 56 85 79 86 80 87 88 88
REMARK SMILES IDX 81 89 87 90 82 91 83 92 84 93 85 94 86 95 65 96 66 97 74 98
REMARK SMILES IDX 67 99 73 100 68 101 69 102 70 103 71 104 72 105
REMARK H PARENT 32 7 18 12 23 35 37 42 93 61 63 72
REMARK Flexibility Score: inf
ROOT
ATOM      1  C   UNL A   1      32.444  30.986  27.058  1.00  0.00     0.023 C 
ENDROOT
BRANCH   1   2
ATOM      2  C   UNL A   1      32.702  30.036  25.868  1.00  0.00     0.023 C 
BRANCH   2   3
ATOM      3  C   UNL A   1      33.883  29.038  25.868  1.00  0.00     0.116 C 
BRANCH   3   4
ATOM      4  N   UNL A   1      33.793  27.962  24.899  1.00  0.00    -0.354 N 
ATOM      5  C   UNL A   1      33.164  26.752  24.922  1.00  0.00     0.242 C 
ATOM      6  O   UNL A   1      33.396  26.020  23.947  1.00  0.00    -0.273 OA
ATOM      7  H   UNL A   1      34.281  28.141  24.063  1.00  0.00     0.163 HD
BRANCH   5   8
ATOM      8  C   UNL A   1      32.291  26.184  26.091  1.00  0.00     0.175 C 
BRANCH   8   9
ATOM      9  N   UNL A   1      32.142  24.701  26.338  1.00  0.00    -0.342 N 
ATOM     10  C   UNL A   1      32.898  23.571  26.201  1.00  0.00     0.244 C 
ATOM     11  O   UNL A   1      32.890  22.860  27.220  1.00  0.00    -0.273 OA
ATOM     12  H   UNL A   1      31.251  24.489  26.700  1.00  0.00     0.164 HD
BRANCH  10  13
ATOM     13  C   UNL A   1      33.468  22.957  24.889  1.00  0.00     0.191 C 
ATOM     14  C   UNL A   1      35.669  24.074  25.665  1.00  0.00     0.026 C 
ATOM     15  C   UNL A   1      35.017  22.945  24.850  1.00  0.00     0.042 C 
ATOM     16  C   UNL A   1      35.577  23.067  23.421  1.00  0.00     0.026 C 
ATOM     17  S   UNL A   1      35.431  21.209  25.396  1.00  0.00    -0.123 SA
ATOM     18  C   UNL A   1      33.725  20.602  25.362  1.00  0.00     0.176 C 
ATOM     19  N   UNL A   1      33.044  21.602  24.613  1.00  0.00    -0.309 N 
ATOM     20  C   UNL A   1      33.437  19.351  24.628  1.00  0.00    -0.002 A 
ATOM     21  C   UNL A   1      32.617  21.118  23.387  1.00  0.00     0.256 C 
ATOM     22  C   UNL A   1      33.572  18.041  25.052  1.00  0.00     0.007 A 
ATOM     23  C   UNL A   1      32.793  19.655  23.431  1.00  0.00     0.046 A 
ATOM     24  O   UNL A   1      32.211  21.752  22.430  1.00  0.00    -0.269 OA
ATOM     25  C   UNL A   1      33.092  17.033  24.215  1.00  0.00     0.000 A 
ATOM     26  C   UNL A   1      32.357  18.675  22.563  1.00  0.00     0.014 A 
ATOM     27  C   UNL A   1      32.512  17.346  22.970  1.00  0.00     0.001 A 
ENDBRANCH  10  13
ENDBRANCH   8   9
BRANCH   8  28
ATOM     28  C   UNL A   1      30.866  26.731  25.910  1.00  0.00     0.072 C 
BRANCH  28  29
ATOM     29  C   UNL A   1      30.147  26.735  24.595  1.00  0.00    -0.020 A 
ATOM     30  C   UNL A   1      29.381  25.724  24.045  1.00  0.00     0.087 A 
ATOM     31  C   UNL A   1      29.743  27.891  23.853  1.00  0.00     0.003 A 
ATOM     32  N   UNL A   1      28.166  26.344  23.854  1.00  0.00    -0.361 N 
ATOM     33  C   UNL A   1      28.417  27.643  23.487  1.00  0.00     0.046 A 
ATOM     34  C   UNL A   1      30.291  29.154  23.563  1.00  0.00     0.010 A 
ATOM     35  H   UNL A   1      27.278  25.930  23.962  1.00  0.00     0.166 HD
ATOM     36  C   UNL A   1      27.588  28.595  22.895  1.00  0.00     0.026 A 
ATOM     37  C   UNL A   1      29.505  30.089  22.873  1.00  0.00     0.001 A 
ATOM     38  C   UNL A   1      28.171  29.819  22.565  1.00  0.00     0.002 A 
ENDBRANCH  28  29
ENDBRANCH   8  28
ENDBRANCH   5   8
ENDBRANCH   3   4
ENDBRANCH   2   3
ENDBRANCH   1   2
BRANCH   1  39
ATOM     39  C   UNL A   1      33.419  32.120  27.442  1.00  0.00     0.116 C 
BRANCH  39  40
ATOM     40  N   UNL A   1      32.861  33.440  27.696  1.00  0.00    -0.352 N 
ATOM     41  C   UNL A   1      33.303  34.391  28.597  1.00  0.00     0.251 C 
ATOM     42  H   UNL A   1      32.072  33.685  27.160  1.00  0.00     0.163 HD
ATOM     43  O   UNL A   1      32.731  35.474  28.680  1.00  0.00    -0.269 OA
BRANCH  41  44
ATOM     44  C   UNL A   1      34.442  34.087  29.498  1.00  0.00     0.039 A 
ATOM     45  C   UNL A   1      35.756  34.354  29.110  1.00  0.00     0.014 A 
ATOM     46  C   UNL A   1      34.191  33.506  30.743  1.00  0.00     0.014 A 
ATOM     47  C   UNL A   1      36.821  33.893  29.890  1.00  0.00     0.010 A 
ATOM     48  C   UNL A   1      35.260  33.086  31.547  1.00  0.00     0.010 A 
ATOM     49  C   UNL A   1      36.586  33.214  31.098  1.00  0.00    -0.014 A 
BRANCH  49  50
ATOM     50  C   UNL A   1      37.716  32.576  31.837  1.00  0.00     0.031 A 
ATOM     51  C   UNL A   1      38.458  31.410  31.224  1.00  0.00     0.074 A 
ATOM     52  C   UNL A   1      38.127  33.061  33.026  1.00  0.00     0.049 A 
ATOM     53  N   UNL A   1      39.479  30.739  31.698  1.00  0.00    -0.248 NA
ATOM     54  C   UNL A   1      37.996  30.936  29.908  1.00  0.00     0.031 C 
ATOM     55  C   UNL A   1      37.530  34.200  33.720  1.00  0.00     0.029 A 
ATOM     56  N   UNL A   1      39.156  32.668  33.851  1.00  0.00    -0.354 N 
ATOM     57  C   UNL A   1      39.775  29.768  30.747  1.00  0.00     0.074 A 
ATOM     58  C   UNL A   1      38.801  29.906  29.687  1.00  0.00     0.031 C 
ATOM     59  C   UNL A   1      38.224  34.440  34.843  1.00  0.00     0.029 A 
ATOM     60  C   UNL A   1      39.284  33.442  34.982  1.00  0.00     0.049 A 
ATOM     61  H   UNL A   1      39.746  31.906  33.651  1.00  0.00     0.167 HD
ATOM     62  C   UNL A   1      40.779  28.857  30.742  1.00  0.00     0.031 A 
ATOM     63  C   UNL A   1      40.144  33.363  36.019  1.00  0.00     0.031 A 
ATOM     64  C   UNL A   1      41.760  28.722  31.788  1.00  0.00     0.049 A 
ATOM     65  C   UNL A   1      41.210  32.299  36.028  1.00  0.00     0.074 A 
ATOM     66  C   UNL A   1      42.822  27.837  31.851  1.00  0.00     0.029 A 
ATOM     67  N   UNL A   1      41.806  29.483  32.945  1.00  0.00    -0.354 N 
ATOM     68  N   UNL A   1      41.481  31.401  35.113  1.00  0.00    -0.248 NA
ATOM     69  C   UNL A   1      42.090  32.238  37.206  1.00  0.00     0.031 C 
ATOM     70  C   UNL A   1      43.468  28.013  33.076  1.00  0.00     0.029 A 
ATOM     71  C   UNL A   1      42.859  29.064  33.743  1.00  0.00     0.049 A 
ATOM     72  H   UNL A   1      41.185  30.213  33.168  1.00  0.00     0.167 HD
ATOM     73  C   UNL A   1      42.569  30.680  35.594  1.00  0.00     0.074 A 
ATOM     74  C   UNL A   1      42.920  31.257  36.875  1.00  0.00     0.031 C 
ATOM     75  C   UNL A   1      43.212  29.633  35.022  1.00  0.00     0.031 A 
BRANCH  62  76
ATOM     76  C   UNL A   1      40.891  27.920  29.564  1.00  0.00    -0.014 A 
ATOM     77  C   UNL A   1      40.009  26.829  29.451  1.00  0.00     0.010 A 
ATOM     78  C   UNL A   1      41.944  28.043  28.639  1.00  0.00     0.010 A 
ATOM     79  C   UNL A   1      40.195  25.861  28.459  1.00  0.00     0.020 A 
ATOM     80  C   UNL A   1      42.115  27.095  27.626  1.00  0.00     0.020 A 
ATOM     81  C   UNL A   1      41.254  25.997  27.558  1.00  0.00     0.054 A 
BRANCH  81  82
ATOM     82  S   UNL A   1      41.494  24.721  26.291  1.00  0.00     0.124 S 
ATOM     83  O   UNL A   1      41.466  25.501  25.058  1.00  0.00    -0.237 OA
ATOM     84  O   UNL A   1      42.791  24.153  26.651  1.00  0.00    -0.237 OA
ATOM     85  O   UNL A   1      40.358  23.823  26.490  1.00  0.00    -0.744 OA
ENDBRANCH  81  82
ENDBRANCH  62  76
BRANCH  63  86
ATOM     86  C   UNL A   1      40.031  34.354  37.128  1.00  0.00    -0.014 A 
ATOM     87  C   UNL A   1      39.220  34.078  38.246  1.00  0.00     0.010 A 
ATOM     88  C   UNL A   1      40.652  35.610  37.028  1.00  0.00     0.010 A 
ATOM     89  C   UNL A   1      38.972  35.066  39.203  1.00  0.00     0.020 A 
ATOM     90  C   UNL A   1      40.432  36.590  38.003  1.00  0.00     0.020 A 
ATOM     91  C   UNL A   1      39.565  36.323  39.064  1.00  0.00     0.054 A 
BRANCH  91  92
ATOM     92  S   UNL A   1      39.159  37.612  40.274  1.00  0.00     0.124 S 
ATOM     93  O   UNL A   1      38.617  36.824  41.378  1.00  0.00    -0.237 OA
ATOM     94  O   UNL A   1      40.456  38.236  40.524  1.00  0.00    -0.237 OA
ATOM     95  O   UNL A   1      38.193  38.451  39.570  1.00  0.00    -0.744 OA
ENDBRANCH  91  92
ENDBRANCH  63  86
BRANCH  75  96
ATOM     96  C   UNL A   1      44.374  29.008  35.754  1.00  0.00    -0.014 A 
ATOM     97  C   UNL A   1      44.137  28.017  36.726  1.00  0.00     0.010 A 
ATOM     98  C   UNL A   1      45.680  29.507  35.595  1.00  0.00     0.010 A 
ATOM     99  C   UNL A   1      45.170  27.569  37.554  1.00  0.00     0.020 A 
ATOM    100  C   UNL A   1      46.722  29.038  36.402  1.00  0.00     0.020 A 
ATOM    101  C   UNL A   1      46.454  28.094  37.396  1.00  0.00     0.054 A 
BRANCH 101 102
ATOM    102  S   UNL A   1      47.770  27.539  38.516  1.00  0.00     0.124 S 
ATOM    103  O   UNL A   1      48.964  27.697  37.690  1.00  0.00    -0.237 OA
ATOM    104  O   UNL A   1      47.652  28.471  39.635  1.00  0.00    -0.237 OA
ATOM    105  O   UNL A   1      47.401  26.159  38.823  1.00  0.00    -0.744 OA
ENDBRANCH 101 102
ENDBRANCH  75  96
ENDBRANCH  49  50
ENDBRANCH  41  44
ENDBRANCH  39  40
ENDBRANCH   1  39
TORSDOF 18
ENDMDL
MODEL 3
REMARK VINA RESULT:     -13.2      3.678      5.225
REMARK SMILES CC1(C)S[C@@H]2c3ccccc3C(=O)N2[C@H]1C(=O)N[C@H](Cc1c[nH]c2ccccc12)C(=O)NCCCCNC(=O)c1ccc(-c2c3nc(c(-c4ccc(S(=O)(=O)[O-])cc4)c4ccc([nH]4)c(-c4ccc(S(=O)(=O)[O-])cc4)c4nc(c(-c5ccc(S(=O)(=O)[O-])cc5)c5ccc2[nH]5)C=C4)C=C3)cc1
REMARK SMILES IDX 35 1 34 2 33 3 32 4 30 5 31 6 19 8 18 9 16 10 17 11 15 13
REMARK SMILES IDX 1 14 2 15 3 16 4 17 5 18 14 19 6 20 12 21 7 22 11 23 13 24
REMARK SMILES IDX 8 25 10 26 9 27 20 28 21 29 22 30 29 31 23 32 24 33 28 34
REMARK SMILES IDX 25 36 27 37 26 38 36 39 37 40 38 41 39 43 40 44 41 45 99 46
REMARK SMILES IDX 42 47 98 48 43 49 44 50 45 51 92 52 46 53 97 54 91 55 93 56
REMARK SMILES IDX 47 57 96 58 90 59 89 60 48 62 78 63 59 64 77 65 60 66 63 67
REMARK SMILES IDX 76 68 94 69 61 70 62 71 75 73 95 74 64 75 49 76 50 77 58 78
REMARK SMILES IDX 51 79 57 80 52 81 53 82 54 83 55 84 56 85 79 86 80 87 88 88
REMARK SMILES IDX 81 89 87 90 82 91 83 92 84 93 85 94 86 95 65 96 66 97 74 98
REMARK SMILES IDX 67 99 73 100 68 101 69 102 70 103 71 104 72 105
REMARK H PARENT 32 7 18 12 23 35 37 42 93 61 63 72
REMARK Flexibility Score: inf
ROOT
ATOM      1  C   UNL A   1      32.378  31.201  27.202  1.00  0.00     0.023 C 
ENDROOT
BRANCH   1   2
ATOM      2  C   UNL A   1      32.523  30.093  26.137  1.00  0.00     0.023 C 
BRANCH   2   3
ATOM      3  C   UNL A   1      33.702  29.094  26.160  1.00  0.00     0.116 C 
BRANCH   3   4
ATOM      4  N   UNL A   1      33.662  28.055  25.149  1.00  0.00    -0.354 N 
ATOM      5  C   UNL A   1      33.063  26.830  25.110  1.00  0.00     0.242 C 
ATOM      6  O   UNL A   1      33.335  26.142  24.114  1.00  0.00    -0.273 OA
ATOM      7  H   UNL A   1      34.165  28.277  24.332  1.00  0.00     0.163 HD
BRANCH   5   8
ATOM      8  C   UNL A   1      32.176  26.197  26.234  1.00  0.00     0.175 C 
BRANCH   8   9
ATOM      9  N   UNL A   1      32.092  24.703  26.450  1.00  0.00    -0.342 N 
ATOM     10  C   UNL A   1      32.886  23.608  26.260  1.00  0.00     0.244 C 
ATOM     11  O   UNL A   1      32.938  22.873  27.261  1.00  0.00    -0.273 OA
ATOM     12  H   UNL A   1      31.223  24.449  26.835  1.00  0.00     0.164 HD
BRANCH  10  13
ATOM     13  C   UNL A   1      33.435  23.047  24.916  1.00  0.00     0.191 C 
ATOM     14  C   UNL A   1      35.643  24.151  25.692  1.00  0.00     0.026 C 
ATOM     15  C   UNL A   1      34.983  23.049  24.847  1.00  0.00     0.042 C 
ATOM     16  C   UNL A   1      35.515  23.228  23.415  1.00  0.00     0.026 C 
ATOM     17  S   UNL A   1      35.419  21.296  25.321  1.00  0.00    -0.123 SA
ATOM     18  C   UNL A   1      33.717  20.679  25.296  1.00  0.00     0.176 C 
ATOM     19  N   UNL A   1      33.015  21.701  24.597  1.00  0.00    -0.309 N 
ATOM     20  C   UNL A   1      33.424  19.453  24.521  1.00  0.00    -0.002 A 
ATOM     21  C   UNL A   1      32.568  21.259  23.362  1.00  0.00     0.256 C 
ATOM     22  C   UNL A   1      33.576  18.129  24.893  1.00  0.00     0.007 A 
ATOM     23  C   UNL A   1      32.755  19.797  23.349  1.00  0.00     0.046 A 
ATOM     24  O   UNL A   1      32.140  21.926  22.438  1.00  0.00    -0.269 OA
ATOM     25  C   UNL A   1      33.086  17.150  24.028  1.00  0.00     0.000 A 
ATOM     26  C   UNL A   1      32.309  18.847  22.453  1.00  0.00     0.014 A 
ATOM     27  C   UNL A   1      32.480  17.504  22.807  1.00  0.00     0.001 A 
ENDBRANCH  10  13
ENDBRANCH   8   9
BRANCH   8  28
ATOM     28  C   UNL A   1      30.732  26.676  26.009  1.00  0.00     0.072 C 
BRANCH  28  29
ATOM     29  C   UNL A   1      30.065  26.673  24.667  1.00  0.00    -0.020 A 
ATOM     30  C   UNL A   1      29.261  25.687  24.123  1.00  0.00     0.087 A 
ATOM     31  C   UNL A   1      29.758  27.822  23.870  1.00  0.00     0.003 A 
ATOM     32  N   UNL A   1      28.093  26.368  23.863  1.00  0.00    -0.361 N 
ATOM     33  C   UNL A   1      28.434  27.636  23.461  1.00  0.00     0.046 A 
ATOM     34  C   UNL A   1      30.390  29.039  23.557  1.00  0.00     0.010 A 
ATOM     35  H   UNL A   1      27.179  26.011  23.950  1.00  0.00     0.166 HD
ATOM     36  C   UNL A   1      27.685  28.612  22.803  1.00  0.00     0.026 A 
ATOM     37  C   UNL A   1      29.686  29.991  22.804  1.00  0.00     0.001 A 
ATOM     38  C   UNL A   1      28.351  29.787  22.454  1.00  0.00     0.002 A 
ENDBRANCH  28  29
ENDBRANCH   8  28
ENDBRANCH   5   8
ENDBRANCH   3   4
ENDBRANCH   2   3
ENDBRANCH   1   2
BRANCH   1  39
ATOM     39  C   UNL A   1      33.290  32.447  27.233  1.00  0.00     0.116 C 
BRANCH  39  40
ATOM     40  N   UNL A   1      32.691  33.720  27.606  1.00  0.00    -0.352 N 
ATOM     41  C   UNL A   1      33.127  34.618  28.563  1.00  0.00     0.251 C 
ATOM     42  H   UNL A   1      31.874  33.972  27.117  1.00  0.00     0.163 HD
ATOM     43  O   UNL A   1      32.517  35.667  28.748  1.00  0.00    -0.269 OA
BRANCH  41  44
ATOM     44  C   UNL A   1      34.309  34.295  29.399  1.00  0.00     0.039 A 
ATOM     45  C   UNL A   1      35.602  34.572  28.953  1.00  0.00     0.014 A 
ATOM     46  C   UNL A   1      34.119  33.684  30.642  1.00  0.00     0.014 A 
ATOM     47  C   UNL A   1      36.704  34.093  29.670  1.00  0.00     0.010 A 
ATOM     48  C   UNL A   1      35.226  33.247  31.382  1.00  0.00     0.010 A 
ATOM     49  C   UNL A   1      36.529  33.387  30.872  1.00  0.00    -0.014 A 
BRANCH  49  50
ATOM     50  C   UNL A   1      37.693  32.732  31.540  1.00  0.00     0.031 A 
ATOM     51  C   UNL A   1      38.114  33.167  32.925  1.00  0.00     0.074 A 
ATOM     52  C   UNL A   1      38.346  31.712  30.948  1.00  0.00     0.049 A 
ATOM     53  N   UNL A   1      39.081  32.704  33.678  1.00  0.00    -0.248 NA
ATOM     54  C   UNL A   1      37.349  34.262  33.547  1.00  0.00     0.031 C 
ATOM     55  C   UNL A   1      38.029  31.164  29.630  1.00  0.00     0.029 A 
ATOM     56  N   UNL A   1      39.399  30.942  31.386  1.00  0.00    -0.354 N 
ATOM     57  C   UNL A   1      39.043  33.450  34.852  1.00  0.00     0.074 A 
ATOM     58  C   UNL A   1      37.988  34.425  34.697  1.00  0.00     0.031 C 
ATOM     59  C   UNL A   1      38.841  30.124  29.383  1.00  0.00     0.029 A 
ATOM     60  C   UNL A   1      39.773  29.960  30.498  1.00  0.00     0.049 A 
ATOM     61  H   UNL A   1      39.843  31.080  32.253  1.00  0.00     0.167 HD
ATOM     62  C   UNL A   1      39.803  33.323  35.968  1.00  0.00     0.031 A 
ATOM     63  C   UNL A   1      40.755  29.034  30.559  1.00  0.00     0.031 A 
ATOM     64  C   UNL A   1      40.848  32.345  36.133  1.00  0.00     0.049 A 
ATOM     65  C   UNL A   1      41.633  28.954  31.779  1.00  0.00     0.074 A 
ATOM     66  C   UNL A   1      41.652  32.137  37.241  1.00  0.00     0.029 A 
ATOM     67  N   UNL A   1      41.235  31.418  35.180  1.00  0.00    -0.354 N 
ATOM     68  N   UNL A   1      41.571  29.660  32.883  1.00  0.00    -0.248 NA
ATOM     69  C   UNL A   1      42.711  27.953  31.767  1.00  0.00     0.031 C 
ATOM     70  C   UNL A   1      42.572  31.134  36.932  1.00  0.00     0.029 A 
ATOM     71  C   UNL A   1      42.289  30.658  35.662  1.00  0.00     0.049 A 
ATOM     72  H   UNL A   1      40.823  31.313  34.292  1.00  0.00     0.167 HD
ATOM     73  C   UNL A   1      42.588  29.178  33.701  1.00  0.00     0.074 A 
ATOM     74  C   UNL A   1      43.240  28.109  32.975  1.00  0.00     0.031 C 
ATOM     75  C   UNL A   1      42.945  29.593  34.941  1.00  0.00     0.031 A 
BRANCH  62  76
ATOM     76  C   UNL A   1      39.541  34.258  37.123  1.00  0.00    -0.014 A 
ATOM     77  C   UNL A   1      40.081  35.558  37.108  1.00  0.00     0.010 A 
ATOM     78  C   UNL A   1      38.871  33.811  38.277  1.00  0.00     0.010 A 
ATOM     79  C   UNL A   1      39.987  36.382  38.234  1.00  0.00     0.020 A 
ATOM     80  C   UNL A   1      38.746  34.645  39.394  1.00  0.00     0.020 A 
ATOM     81  C   UNL A   1      39.327  35.916  39.373  1.00  0.00     0.054 A 
BRANCH  81  82
ATOM     82  S   UNL A   1      39.232  36.990  40.832  1.00  0.00     0.124 S 
ATOM     83  O   UNL A   1      38.514  36.152  41.787  1.00  0.00    -0.237 OA
ATOM     84  O   UNL A   1      40.639  37.237  41.139  1.00  0.00    -0.237 OA
ATOM     85  O   UNL A   1      38.498  38.158  40.349  1.00  0.00    -0.744 OA
ENDBRANCH  81  82
ENDBRANCH  62  76
BRANCH  63  86
ATOM     86  C   UNL A   1      40.929  28.092  29.417  1.00  0.00    -0.014 A 
ATOM     87  C   UNL A   1      40.208  26.883  29.378  1.00  0.00     0.010 A 
ATOM     88  C   UNL A   1      41.882  28.351  28.416  1.00  0.00     0.010 A 
ATOM     89  C   UNL A   1      40.490  25.919  28.406  1.00  0.00     0.020 A 
ATOM     90  C   UNL A   1      42.143  27.401  27.422  1.00  0.00     0.020 A 
ATOM     91  C   UNL A   1      41.471  26.177  27.446  1.00  0.00     0.054 A 
BRANCH  91  92
ATOM     92  S   UNL A   1      41.877  24.877  26.248  1.00  0.00     0.124 S 
ATOM     93  O   UNL A   1      43.079  24.294  26.838  1.00  0.00    -0.237 OA
ATOM     94  O   UNL A   1      40.687  24.030  26.279  1.00  0.00    -0.237 OA
ATOM     95  O   UNL A   1      42.084  25.610  25.002  1.00  0.00    -0.744 OA
ENDBRANCH  91  92
ENDBRANCH  63  86
BRANCH  75  96
ATOM     96  C   UNL A   1      44.102  28.909  35.629  1.00  0.00    -0.014 A 
ATOM     97  C   UNL A   1      43.859  27.827  36.496  1.00  0.00     0.010 A 
ATOM     98  C   UNL A   1      45.405  29.432  35.540  1.00  0.00     0.010 A 
ATOM     99  C   UNL A   1      44.883  27.309  37.293  1.00  0.00     0.020 A 
ATOM    100  C   UNL A   1      46.439  28.895  36.314  1.00  0.00     0.020 A 
ATOM    101  C   UNL A   1      46.165  27.857  37.207  1.00  0.00     0.054 A 
BRANCH 101 102
ATOM    102  S   UNL A   1      47.468  27.207  38.290  1.00  0.00     0.124 S 
ATOM    103  O   UNL A   1      47.250  25.766  38.205  1.00  0.00    -0.237 OA
ATOM    104  O   UNL A   1      48.689  27.697  37.652  1.00  0.00    -0.237 OA
ATOM    105  O   UNL A   1      47.169  27.808  39.588  1.00  0.00    -0.744 OA
ENDBRANCH 101 102
ENDBRANCH  75  96
ENDBRANCH  49  50
ENDBRANCH  41  44
ENDBRANCH  39  40
ENDBRANCH   1  39
TORSDOF 18
ENDMDL
