MODEL 1
REMARK VINA RESULT:      -8.6      0.000      0.000
REMARK SMILES CCOC(=O)N[C@H]1C=C[C@H](C(=O)NCCCCNC(=O)c2ccc(-c3c4nc(c(-c5ccc(S(=O)(=O)[O-])cc5)c5ccc([nH]5)c(-c5ccc(S(=O)(=O)[O-])cc5)c5nc(c(-c6ccc(S(=O)(=O)[O-])cc6)c6ccc3[nH]6)C=C5)C=C4)cc2)C1
REMARK SMILES IDX 15 1 14 2 13 3 11 4 12 5 10 7 7 8 8 9 81 10 9 11 6 12 4 13
REMARK SMILES IDX 5 14 3 16 2 17 1 18 16 19 17 20 18 21 19 22 20 24 21 25
REMARK SMILES IDX 22 26 80 27 23 28 79 29 24 30 25 31 26 32 73 33 27 34 78 35
REMARK SMILES IDX 72 36 74 37 28 38 77 39 71 40 70 41 29 43 59 44 40 45 58 46
REMARK SMILES IDX 41 47 44 48 57 49 75 50 42 51 43 52 56 54 76 55 45 56 30 57
REMARK SMILES IDX 31 58 39 59 32 60 38 61 33 62 34 63 35 64 36 65 37 66 60 67
REMARK SMILES IDX 61 68 69 69 62 70 68 71 63 72 64 73 65 74 66 75 67 76 46 77
REMARK SMILES IDX 47 78 55 79 48 80 54 81 49 82 50 83 51 84 52 85 53 86
REMARK H PARENT 13 6 6 15 18 23 74 42 44 53
REMARK Flexibility Score: inf
ROOT
ATOM      1  C   UNL A   1      36.663  33.456  28.499  1.00  0.00     0.023 C 
ENDROOT
BRANCH   1   2
ATOM      2  C   UNL A   1      36.625  34.555  29.559  1.00  0.00     0.116 C 
BRANCH   2   3
ATOM      3  N   UNL A   1      37.917  34.761  30.195  1.00  0.00    -0.356 N 
ATOM      4  C   UNL A   1      38.381  34.266  31.386  1.00  0.00     0.227 C 
ATOM      5  O   UNL A   1      39.538  34.518  31.721  1.00  0.00    -0.274 OA
ATOM      6  H   UNL A   1      38.546  35.335  29.701  1.00  0.00     0.163 HD
BRANCH   4   7
ATOM      7  C   UNL A   1      37.431  33.413  32.229  1.00  0.00     0.103 C 
ATOM      8  C   UNL A   1      38.385  31.958  33.990  1.00  0.00     0.109 C 
ATOM      9  C   UNL A   1      37.879  31.175  32.819  1.00  0.00    -0.006 C 
ATOM     10  C   UNL A   1      37.874  33.375  33.693  1.00  0.00     0.047 C 
ATOM     11  C   UNL A   1      37.383  31.964  31.860  1.00  0.00    -0.016 C 
BRANCH   8  12
ATOM     12  N   UNL A   1      37.892  31.343  35.204  1.00  0.00    -0.315 N 
ATOM     13  C   UNL A   1      38.598  30.638  36.132  1.00  0.00     0.407 C 
ATOM     14  O   UNL A   1      38.041  30.072  37.065  1.00  0.00    -0.225 OA
ATOM     15  H   UNL A   1      36.929  31.447  35.379  1.00  0.00     0.167 HD
BRANCH  13  16
ATOM     16  O   UNL A   1      39.936  30.701  35.949  1.00  0.00    -0.450 OA
BRANCH  16  17
ATOM     17  C   UNL A   1      40.587  29.519  35.463  1.00  0.00     0.231 C 
ATOM     18  C   UNL A   1      41.345  29.799  34.173  1.00  0.00     0.049 C 
ENDBRANCH  16  17
ENDBRANCH  13  16
ENDBRANCH   8  12
ENDBRANCH   4   7
ENDBRANCH   2   3
ENDBRANCH   1   2
BRANCH   1  19
ATOM     19  C   UNL A   1      35.302  33.070  27.918  1.00  0.00     0.023 C 
BRANCH  19  20
ATOM     20  C   UNL A   1      34.415  32.234  28.833  1.00  0.00     0.116 C 
BRANCH  20  21
ATOM     21  N   UNL A   1      33.901  31.036  28.186  1.00  0.00    -0.352 N 
ATOM     22  C   UNL A   1      34.573  29.894  27.815  1.00  0.00     0.251 C 
ATOM     23  H   UNL A   1      32.938  31.044  27.985  1.00  0.00     0.163 HD
ATOM     24  O   UNL A   1      33.998  29.039  27.147  1.00  0.00    -0.269 OA
BRANCH  22  25
ATOM     25  C   UNL A   1      35.994  29.715  28.193  1.00  0.00     0.039 A 
ATOM     26  C   UNL A   1      36.300  29.285  29.487  1.00  0.00     0.014 A 
ATOM     27  C   UNL A   1      37.019  29.952  27.274  1.00  0.00     0.014 A 
ATOM     28  C   UNL A   1      37.628  29.022  29.833  1.00  0.00     0.010 A 
ATOM     29  C   UNL A   1      38.330  29.611  27.595  1.00  0.00     0.010 A 
ATOM     30  C   UNL A   1      38.650  29.142  28.878  1.00  0.00    -0.014 A 
BRANCH  30  31
ATOM     31  C   UNL A   1      40.055  28.771  29.197  1.00  0.00     0.031 A 
ATOM     32  C   UNL A   1      40.972  29.762  29.865  1.00  0.00     0.074 A 
ATOM     33  C   UNL A   1      40.527  27.562  28.831  1.00  0.00     0.049 A 
ATOM     34  N   UNL A   1      42.237  29.637  30.176  1.00  0.00    -0.248 NA
ATOM     35  C   UNL A   1      40.397  31.074  30.209  1.00  0.00     0.031 C 
ATOM     36  C   UNL A   1      39.754  26.522  28.148  1.00  0.00     0.029 A 
ATOM     37  N   UNL A   1      41.771  27.001  28.981  1.00  0.00    -0.354 N 
ATOM     38  C   UNL A   1      42.612  30.851  30.739  1.00  0.00     0.074 A 
ATOM     39  C   UNL A   1      41.456  31.720  30.672  1.00  0.00     0.031 C 
ATOM     40  C   UNL A   1      40.531  25.441  27.969  1.00  0.00     0.029 A 
ATOM     41  C   UNL A   1      41.868  25.724  28.479  1.00  0.00     0.049 A 
ATOM     42  H   UNL A   1      42.525  27.470  29.409  1.00  0.00     0.167 HD
ATOM     43  C   UNL A   1      43.802  31.208  31.281  1.00  0.00     0.031 A 
ATOM     44  C   UNL A   1      42.916  24.877  28.427  1.00  0.00     0.031 A 
ATOM     45  C   UNL A   1      44.950  30.343  31.343  1.00  0.00     0.049 A 
ATOM     46  C   UNL A   1      44.238  25.308  29.001  1.00  0.00     0.074 A 
ATOM     47  C   UNL A   1      46.187  30.595  31.912  1.00  0.00     0.029 A 
ATOM     48  N   UNL A   1      45.009  29.062  30.814  1.00  0.00    -0.354 N 
ATOM     49  N   UNL A   1      44.553  26.439  29.587  1.00  0.00    -0.248 NA
ATOM     50  C   UNL A   1      45.344  24.345  28.916  1.00  0.00     0.031 C 
ATOM     51  C   UNL A   1      47.012  29.492  31.671  1.00  0.00     0.029 A 
ATOM     52  C   UNL A   1      46.269  28.523  31.016  1.00  0.00     0.049 A 
ATOM     53  H   UNL A   1      44.265  28.603  30.360  1.00  0.00     0.167 HD
ATOM     54  C   UNL A   1      45.884  26.308  29.970  1.00  0.00     0.074 A 
ATOM     55  C   UNL A   1      46.308  24.985  29.562  1.00  0.00     0.031 C 
ATOM     56  C   UNL A   1      46.681  27.204  30.605  1.00  0.00     0.031 A 
BRANCH  43  57
ATOM     57  C   UNL A   1      43.921  32.602  31.843  1.00  0.00    -0.014 A 
ATOM     58  C   UNL A   1      43.697  32.859  33.209  1.00  0.00     0.010 A 
ATOM     59  C   UNL A   1      44.294  33.666  31.002  1.00  0.00     0.010 A 
ATOM     60  C   UNL A   1      43.795  34.160  33.711  1.00  0.00     0.020 A 
ATOM     61  C   UNL A   1      44.426  34.963  31.508  1.00  0.00     0.020 A 
ATOM     62  C   UNL A   1      44.155  35.204  32.856  1.00  0.00     0.054 A 
BRANCH  62  63
ATOM     63  S   UNL A   1      44.285  36.878  33.540  1.00  0.00     0.124 S 
ATOM     64  O   UNL A   1      44.998  37.583  32.476  1.00  0.00    -0.237 OA
ATOM     65  O   UNL A   1      42.887  37.261  33.719  1.00  0.00    -0.237 OA
ATOM     66  O   UNL A   1      45.040  36.692  34.776  1.00  0.00    -0.744 OA
ENDBRANCH  62  63
ENDBRANCH  43  57
BRANCH  44  67
ATOM     67  C   UNL A   1      42.752  23.525  27.821  1.00  0.00    -0.014 A 
ATOM     68  C   UNL A   1      42.291  22.447  28.597  1.00  0.00     0.010 A 
ATOM     69  C   UNL A   1      43.050  23.310  26.463  1.00  0.00     0.010 A 
ATOM     70  C   UNL A   1      42.152  21.175  28.032  1.00  0.00     0.020 A 
ATOM     71  C   UNL A   1      42.881  22.047  25.888  1.00  0.00     0.020 A 
ATOM     72  C   UNL A   1      42.445  20.985  26.680  1.00  0.00     0.054 A 
BRANCH  72  73
ATOM     73  S   UNL A   1      42.209  19.335  25.959  1.00  0.00     0.124 S 
ATOM     74  O   UNL A   1      40.767  19.304  25.738  1.00  0.00    -0.237 OA
ATOM     75  O   UNL A   1      43.035  19.399  24.755  1.00  0.00    -0.237 OA
ATOM     76  O   UNL A   1      42.705  18.435  26.998  1.00  0.00    -0.744 OA
ENDBRANCH  72  73
ENDBRANCH  44  67
BRANCH  56  77
ATOM     77  C   UNL A   1      48.086  26.771  30.939  1.00  0.00    -0.014 A 
ATOM     78  C   UNL A   1      49.149  26.968  30.040  1.00  0.00     0.010 A 
ATOM     79  C   UNL A   1      48.353  26.205  32.200  1.00  0.00     0.010 A 
ATOM     80  C   UNL A   1      50.446  26.576  30.382  1.00  0.00     0.020 A 
ATOM     81  C   UNL A   1      49.653  25.844  32.559  1.00  0.00     0.020 A 
ATOM     82  C   UNL A   1      50.691  26.018  31.642  1.00  0.00     0.054 A 
BRANCH  82  83
ATOM     83  S   UNL A   1      52.391  25.562  32.078  1.00  0.00     0.124 S 
ATOM     84  O   UNL A   1      53.121  25.915  30.863  1.00  0.00    -0.237 OA
ATOM     85  O   UNL A   1      52.660  26.404  33.241  1.00  0.00    -0.237 OA
ATOM     86  O   UNL A   1      52.306  24.130  32.359  1.00  0.00    -0.744 OA
ENDBRANCH  82  83
ENDBRANCH  56  77
ENDBRANCH  30  31
ENDBRANCH  22  25
ENDBRANCH  20  21
ENDBRANCH  19  20
ENDBRANCH   1  19
TORSDOF 17
ENDMDL
MODEL 2
REMARK VINA RESULT:      -8.5      3.772      6.774
REMARK SMILES CCOC(=O)N[C@H]1C=C[C@H](C(=O)NCCCCNC(=O)c2ccc(-c3c4nc(c(-c5ccc(S(=O)(=O)[O-])cc5)c5ccc([nH]5)c(-c5ccc(S(=O)(=O)[O-])cc5)c5nc(c(-c6ccc(S(=O)(=O)[O-])cc6)c6ccc3[nH]6)C=C5)C=C4)cc2)C1
REMARK SMILES IDX 15 1 14 2 13 3 11 4 12 5 10 7 7 8 8 9 81 10 9 11 6 12 4 13
REMARK SMILES IDX 5 14 3 16 2 17 1 18 16 19 17 20 18 21 19 22 20 24 21 25
REMARK SMILES IDX 22 26 80 27 23 28 79 29 24 30 25 31 26 32 73 33 27 34 78 35
REMARK SMILES IDX 72 36 74 37 28 38 77 39 71 40 70 41 29 43 59 44 40 45 58 46
REMARK SMILES IDX 41 47 44 48 57 49 75 50 42 51 43 52 56 54 76 55 45 56 30 57
REMARK SMILES IDX 31 58 39 59 32 60 38 61 33 62 34 63 35 64 36 65 37 66 60 67
REMARK SMILES IDX 61 68 69 69 62 70 68 71 63 72 64 73 65 74 66 75 67 76 46 77
REMARK SMILES IDX 47 78 55 79 48 80 54 81 49 82 50 83 51 84 52 85 53 86
REMARK H PARENT 13 6 6 15 18 23 74 42 44 53
REMARK Flexibility Score: inf
ROOT
ATOM      1  C   UNL A   1      32.068  26.360  26.485  1.00  0.00     0.023 C 
ENDROOT
BRANCH   1   2
ATOM      2  C   UNL A   1      30.797  25.833  25.819  1.00  0.00     0.116 C 
BRANCH   2   3
ATOM      3  N   UNL A   1      30.225  24.701  26.530  1.00  0.00    -0.356 N 
ATOM      4  C   UNL A   1      30.760  23.458  26.746  1.00  0.00     0.227 C 
ATOM      5  O   UNL A   1      30.128  22.652  27.427  1.00  0.00    -0.274 OA
ATOM      6  H   UNL A   1      29.329  24.848  26.910  1.00  0.00     0.163 HD
BRANCH   4   7
ATOM      7  C   UNL A   1      32.126  23.146  26.132  1.00  0.00     0.103 C 
ATOM      8  C   UNL A   1      32.906  20.798  26.097  1.00  0.00     0.109 C 
ATOM      9  C   UNL A   1      33.659  21.630  27.087  1.00  0.00    -0.006 C 
ATOM     10  C   UNL A   1      32.088  21.845  25.328  1.00  0.00     0.047 C 
ATOM     11  C   UNL A   1      33.222  22.894  27.119  1.00  0.00    -0.016 C 
BRANCH   8  12
ATOM     12  N   UNL A   1      33.858  20.035  25.317  1.00  0.00    -0.315 N 
ATOM     13  C   UNL A   1      33.734  18.757  24.860  1.00  0.00     0.407 C 
ATOM     14  O   UNL A   1      34.662  18.184  24.302  1.00  0.00    -0.225 OA
ATOM     15  H   UNL A   1      34.698  20.496  25.091  1.00  0.00     0.167 HD
BRANCH  13  16
ATOM     16  O   UNL A   1      32.491  18.248  25.021  1.00  0.00    -0.450 OA
BRANCH  16  17
ATOM     17  C   UNL A   1      32.379  17.011  25.738  1.00  0.00     0.231 C 
ATOM     18  C   UNL A   1      32.970  15.857  24.939  1.00  0.00     0.049 C 
ENDBRANCH  16  17
ENDBRANCH  13  16
ENDBRANCH   8  12
ENDBRANCH   4   7
ENDBRANCH   2   3
ENDBRANCH   1   2
BRANCH   1  19
ATOM     19  C   UNL A   1      32.086  27.867  26.744  1.00  0.00     0.023 C 
BRANCH  19  20
ATOM     20  C   UNL A   1      33.439  28.446  27.142  1.00  0.00     0.116 C 
BRANCH  20  21
ATOM     21  N   UNL A   1      33.394  29.879  27.388  1.00  0.00    -0.352 N 
ATOM     22  C   UNL A   1      34.364  30.699  27.917  1.00  0.00     0.251 C 
ATOM     23  H   UNL A   1      32.551  30.324  27.144  1.00  0.00     0.163 HD
ATOM     24  O   UNL A   1      34.095  31.866  28.185  1.00  0.00    -0.269 OA
BRANCH  22  25
ATOM     25  C   UNL A   1      35.717  30.164  28.192  1.00  0.00     0.039 A 
ATOM     26  C   UNL A   1      36.666  30.164  27.166  1.00  0.00     0.014 A 
ATOM     27  C   UNL A   1      36.057  29.680  29.458  1.00  0.00     0.014 A 
ATOM     28  C   UNL A   1      37.973  29.749  27.431  1.00  0.00     0.010 A 
ATOM     29  C   UNL A   1      37.379  29.345  29.740  1.00  0.00     0.010 A 
ATOM     30  C   UNL A   1      38.353  29.376  28.731  1.00  0.00    -0.014 A 
BRANCH  30  31
ATOM     31  C   UNL A   1      39.762  29.027  29.056  1.00  0.00     0.031 A 
ATOM     32  C   UNL A   1      40.670  30.045  29.695  1.00  0.00     0.074 A 
ATOM     33  C   UNL A   1      40.244  27.813  28.722  1.00  0.00     0.049 A 
ATOM     34  N   UNL A   1      41.937  29.940  30.006  1.00  0.00    -0.248 NA
ATOM     35  C   UNL A   1      40.084  31.359  30.005  1.00  0.00     0.031 C 
ATOM     36  C   UNL A   1      39.480  26.748  28.068  1.00  0.00     0.029 A 
ATOM     37  N   UNL A   1      41.494  27.269  28.883  1.00  0.00    -0.354 N 
ATOM     38  C   UNL A   1      42.302  31.172  30.535  1.00  0.00     0.074 A 
ATOM     39  C   UNL A   1      41.138  32.027  30.449  1.00  0.00     0.031 C 
ATOM     40  C   UNL A   1      40.267  25.670  27.916  1.00  0.00     0.029 A 
ATOM     41  C   UNL A   1      41.602  25.979  28.415  1.00  0.00     0.049 A 
ATOM     42  H   UNL A   1      42.245  27.756  29.296  1.00  0.00     0.167 HD
ATOM     43  C   UNL A   1      43.489  31.554  31.064  1.00  0.00     0.031 A 
ATOM     44  C   UNL A   1      42.658  25.141  28.382  1.00  0.00     0.031 A 
ATOM     45  C   UNL A   1      44.646  30.702  31.147  1.00  0.00     0.049 A 
ATOM     46  C   UNL A   1      43.977  25.601  28.942  1.00  0.00     0.074 A 
ATOM     47  C   UNL A   1      45.882  30.981  31.706  1.00  0.00     0.029 A 
ATOM     48  N   UNL A   1      44.716  29.408  30.652  1.00  0.00    -0.354 N 
ATOM     49  N   UNL A   1      44.283  26.749  29.496  1.00  0.00    -0.248 NA
ATOM     50  C   UNL A   1      45.092  24.645  28.879  1.00  0.00     0.031 C 
ATOM     51  C   UNL A   1      46.718  29.880  31.492  1.00  0.00     0.029 A 
ATOM     52  C   UNL A   1      45.982  28.887  30.865  1.00  0.00     0.049 A 
ATOM     53  H   UNL A   1      43.976  28.931  30.212  1.00  0.00     0.167 HD
ATOM     54  C   UNL A   1      45.616  26.642  29.879  1.00  0.00     0.074 A 
ATOM     55  C   UNL A   1      46.052  25.312  29.505  1.00  0.00     0.031 C 
ATOM     56  C   UNL A   1      46.405  27.561  30.488  1.00  0.00     0.031 A 
BRANCH  43  57
ATOM     57  C   UNL A   1      43.597  32.964  31.589  1.00  0.00    -0.014 A 
ATOM     58  C   UNL A   1      44.077  34.009  30.776  1.00  0.00     0.010 A 
ATOM     59  C   UNL A   1      43.183  33.257  32.900  1.00  0.00     0.010 A 
ATOM     60  C   UNL A   1      44.187  35.307  31.282  1.00  0.00     0.020 A 
ATOM     61  C   UNL A   1      43.259  34.561  33.399  1.00  0.00     0.020 A 
ATOM     62  C   UNL A   1      43.781  35.574  32.593  1.00  0.00     0.054 A 
BRANCH  62  63
ATOM     63  S   UNL A   1      43.924  37.270  33.216  1.00  0.00     0.124 S 
ATOM     64  O   UNL A   1      43.855  38.051  31.982  1.00  0.00    -0.237 OA
ATOM     65  O   UNL A   1      42.766  37.387  34.098  1.00  0.00    -0.237 OA
ATOM     66  O   UNL A   1      45.220  37.286  33.889  1.00  0.00    -0.744 OA
ENDBRANCH  62  63
ENDBRANCH  43  57
BRANCH  44  67
ATOM     67  C   UNL A   1      42.505  23.772  27.813  1.00  0.00    -0.014 A 
ATOM     68  C   UNL A   1      42.092  22.703  28.627  1.00  0.00     0.010 A 
ATOM     69  C   UNL A   1      42.768  23.531  26.452  1.00  0.00     0.010 A 
ATOM     70  C   UNL A   1      41.964  21.416  28.097  1.00  0.00     0.020 A 
ATOM     71  C   UNL A   1      42.609  22.252  25.911  1.00  0.00     0.020 A 
ATOM     72  C   UNL A   1      42.220  21.200  26.741  1.00  0.00     0.054 A 
BRANCH  72  73
ATOM     73  S   UNL A   1      41.999  19.529  26.066  1.00  0.00     0.124 S 
ATOM     74  O   UNL A   1      42.807  19.583  24.851  1.00  0.00    -0.237 OA
ATOM     75  O   UNL A   1      42.521  18.686  27.139  1.00  0.00    -0.237 OA
ATOM     76  O   UNL A   1      40.556  19.434  25.856  1.00  0.00    -0.744 OA
ENDBRANCH  72  73
ENDBRANCH  44  67
BRANCH  56  77
ATOM     77  C   UNL A   1      47.816  27.151  30.830  1.00  0.00    -0.014 A 
ATOM     78  C   UNL A   1      48.850  27.215  29.880  1.00  0.00     0.010 A 
ATOM     79  C   UNL A   1      48.117  26.744  32.143  1.00  0.00     0.010 A 
ATOM     80  C   UNL A   1      50.153  26.848  30.228  1.00  0.00     0.020 A 
ATOM     81  C   UNL A   1      49.424  26.410  32.504  1.00  0.00     0.020 A 
ATOM     82  C   UNL A   1      50.432  26.449  31.540  1.00  0.00     0.054 A 
BRANCH  82  83
ATOM     83  S   UNL A   1      52.141  26.024  31.976  1.00  0.00     0.124 S 
ATOM     84  O   UNL A   1      52.516  27.134  32.849  1.00  0.00    -0.237 OA
ATOM     85  O   UNL A   1      51.990  24.729  32.635  1.00  0.00    -0.237 OA
ATOM     86  O   UNL A   1      52.829  25.985  30.688  1.00  0.00    -0.744 OA
ENDBRANCH  82  83
ENDBRANCH  56  77
ENDBRANCH  30  31
ENDBRANCH  22  25
ENDBRANCH  20  21
ENDBRANCH  19  20
ENDBRANCH   1  19
TORSDOF 17
ENDMDL
MODEL 3
REMARK VINA RESULT:      -8.3      5.288     12.170
REMARK SMILES CCOC(=O)N[C@H]1C=C[C@H](C(=O)NCCCCNC(=O)c2ccc(-c3c4nc(c(-c5ccc(S(=O)(=O)[O-])cc5)c5ccc([nH]5)c(-c5ccc(S(=O)(=O)[O-])cc5)c5nc(c(-c6ccc(S(=O)(=O)[O-])cc6)c6ccc3[nH]6)C=C5)C=C4)cc2)C1
REMARK SMILES IDX 15 1 14 2 13 3 11 4 12 5 10 7 7 8 8 9 81 10 9 11 6 12 4 13
REMARK SMILES IDX 5 14 3 16 2 17 1 18 16 19 17 20 18 21 19 22 20 24 21 25
REMARK SMILES IDX 22 26 80 27 23 28 79 29 24 30 25 31 26 32 73 33 27 34 78 35
REMARK SMILES IDX 72 36 74 37 28 38 77 39 71 40 70 41 29 43 59 44 40 45 58 46
REMARK SMILES IDX 41 47 44 48 57 49 75 50 42 51 43 52 56 54 76 55 45 56 30 57
REMARK SMILES IDX 31 58 39 59 32 60 38 61 33 62 34 63 35 64 36 65 37 66 60 67
REMARK SMILES IDX 61 68 69 69 62 70 68 71 63 72 64 73 65 74 66 75 67 76 46 77
REMARK SMILES IDX 47 78 55 79 48 80 54 81 49 82 50 83 51 84 52 85 53 86
REMARK H PARENT 13 6 6 15 18 23 74 42 44 53
REMARK Flexibility Score: inf
ROOT
ATOM      1  C   UNL A   1      38.803  24.050  26.546  1.00  0.00     0.023 C 
ENDROOT
BRANCH   1   2
ATOM      2  C   UNL A   1      37.365  23.764  26.117  1.00  0.00     0.116 C 
BRANCH   2   3
ATOM      3  N   UNL A   1      37.255  23.478  24.695  1.00  0.00    -0.356 N 
ATOM      4  C   UNL A   1      36.206  22.929  24.004  1.00  0.00     0.227 C 
ATOM      5  O   UNL A   1      36.294  22.820  22.782  1.00  0.00    -0.274 OA
ATOM      6  H   UNL A   1      38.042  23.713  24.153  1.00  0.00     0.163 HD
BRANCH   4   7
ATOM      7  C   UNL A   1      34.974  22.489  24.798  1.00  0.00     0.103 C 
ATOM      8  C   UNL A   1      34.221  20.138  24.617  1.00  0.00     0.109 C 
ATOM      9  C   UNL A   1      33.299  21.084  23.913  1.00  0.00    -0.006 C 
ATOM     10  C   UNL A   1      35.160  21.085  25.377  1.00  0.00     0.047 C 
ATOM     11  C   UNL A   1      33.719  22.352  23.994  1.00  0.00    -0.016 C 
BRANCH   8  12
ATOM     12  N   UNL A   1      33.428  19.240  25.429  1.00  0.00    -0.315 N 
ATOM     13  C   UNL A   1      32.823  18.079  25.049  1.00  0.00     0.407 C 
ATOM     14  O   UNL A   1      32.084  17.463  25.807  1.00  0.00    -0.225 OA
ATOM     15  H   UNL A   1      33.310  19.500  26.371  1.00  0.00     0.167 HD
BRANCH  13  16
ATOM     16  O   UNL A   1      33.184  17.667  23.812  1.00  0.00    -0.450 OA
BRANCH  16  17
ATOM     17  C   UNL A   1      33.839  16.396  23.711  1.00  0.00     0.231 C 
ATOM     18  C   UNL A   1      34.821  16.190  24.857  1.00  0.00     0.049 C 
ENDBRANCH  16  17
ENDBRANCH  13  16
ENDBRANCH   8  12
ENDBRANCH   4   7
ENDBRANCH   2   3
ENDBRANCH   1   2
BRANCH   1  19
ATOM     19  C   UNL A   1      39.707  22.820  26.642  1.00  0.00     0.023 C 
BRANCH  19  20
ATOM     20  C   UNL A   1      41.146  23.098  27.061  1.00  0.00     0.116 C 
BRANCH  20  21
ATOM     21  N   UNL A   1      41.896  23.842  26.061  1.00  0.00    -0.352 N 
ATOM     22  C   UNL A   1      42.331  25.147  26.096  1.00  0.00     0.251 C 
ATOM     23  H   UNL A   1      42.122  23.343  25.244  1.00  0.00     0.163 HD
ATOM     24  O   UNL A   1      42.829  25.650  25.093  1.00  0.00    -0.269 OA
BRANCH  22  25
ATOM     25  C   UNL A   1      42.167  25.950  27.329  1.00  0.00     0.039 A 
ATOM     26  C   UNL A   1      43.078  26.976  27.594  1.00  0.00     0.014 A 
ATOM     27  C   UNL A   1      41.112  25.706  28.212  1.00  0.00     0.014 A 
ATOM     28  C   UNL A   1      42.887  27.803  28.704  1.00  0.00     0.010 A 
ATOM     29  C   UNL A   1      40.878  26.582  29.270  1.00  0.00     0.010 A 
ATOM     30  C   UNL A   1      41.761  27.640  29.528  1.00  0.00    -0.014 A 
BRANCH  30  31
ATOM     31  C   UNL A   1      41.485  28.571  30.655  1.00  0.00     0.031 A 
ATOM     32  C   UNL A   1      42.310  28.510  31.913  1.00  0.00     0.074 A 
ATOM     33  C   UNL A   1      40.452  29.434  30.571  1.00  0.00     0.049 A 
ATOM     34  N   UNL A   1      42.187  29.205  33.015  1.00  0.00    -0.248 NA
ATOM     35  C   UNL A   1      43.403  27.524  31.946  1.00  0.00     0.031 C 
ATOM     36  C   UNL A   1      39.553  29.571  29.423  1.00  0.00     0.029 A 
ATOM     37  N   UNL A   1      39.980  30.359  31.470  1.00  0.00    -0.354 N 
ATOM     38  C   UNL A   1      43.174  28.735  33.873  1.00  0.00     0.074 A 
ATOM     39  C   UNL A   1      43.849  27.656  33.186  1.00  0.00     0.031 C 
ATOM     40  C   UNL A   1      38.663  30.546  29.673  1.00  0.00     0.029 A 
ATOM     41  C   UNL A   1      38.893  31.070  31.015  1.00  0.00     0.049 A 
ATOM     42  H   UNL A   1      40.382  30.501  32.358  1.00  0.00     0.167 HD
ATOM     43  C   UNL A   1      43.505  29.173  35.112  1.00  0.00     0.031 A 
ATOM     44  C   UNL A   1      38.158  32.029  31.612  1.00  0.00     0.031 A 
ATOM     45  C   UNL A   1      42.831  30.245  35.795  1.00  0.00     0.049 A 
ATOM     46  C   UNL A   1      38.521  32.474  33.003  1.00  0.00     0.074 A 
ATOM     47  C   UNL A   1      43.119  30.792  37.033  1.00  0.00     0.029 A 
ATOM     48  N   UNL A   1      41.729  30.930  35.304  1.00  0.00    -0.354 N 
ATOM     49  N   UNL A   1      39.499  32.059  33.772  1.00  0.00    -0.248 NA
ATOM     50  C   UNL A   1      37.685  33.522  33.603  1.00  0.00     0.031 C 
ATOM     51  C   UNL A   1      42.154  31.764  37.318  1.00  0.00     0.029 A 
ATOM     52  C   UNL A   1      41.308  31.874  36.226  1.00  0.00     0.049 A 
ATOM     53  H   UNL A   1      41.308  30.769  34.429  1.00  0.00     0.167 HD
ATOM     54  C   UNL A   1      39.417  32.821  34.933  1.00  0.00     0.074 A 
ATOM     55  C   UNL A   1      38.302  33.729  34.758  1.00  0.00     0.031 C 
ATOM     56  C   UNL A   1      40.196  32.773  36.042  1.00  0.00     0.031 A 
BRANCH  43  57
ATOM     57  C   UNL A   1      44.647  28.480  35.814  1.00  0.00    -0.014 A 
ATOM     58  C   UNL A   1      44.425  27.357  36.632  1.00  0.00     0.010 A 
ATOM     59  C   UNL A   1      45.964  28.937  35.627  1.00  0.00     0.010 A 
ATOM     60  C   UNL A   1      45.491  26.737  37.290  1.00  0.00     0.020 A 
ATOM     61  C   UNL A   1      47.037  28.299  36.255  1.00  0.00     0.020 A 
ATOM     62  C   UNL A   1      46.791  27.215  37.100  1.00  0.00     0.054 A 
BRANCH  62  63
ATOM     63  S   UNL A   1      48.154  26.381  37.956  1.00  0.00     0.124 S 
ATOM     64  O   UNL A   1      47.933  26.790  39.342  1.00  0.00    -0.237 OA
ATOM     65  O   UNL A   1      47.899  24.972  37.669  1.00  0.00    -0.237 OA
ATOM     66  O   UNL A   1      49.351  26.935  37.328  1.00  0.00    -0.744 OA
ENDBRANCH  62  63
ENDBRANCH  43  57
BRANCH  44  67
ATOM     67  C   UNL A   1      37.013  32.650  30.887  1.00  0.00    -0.014 A 
ATOM     68  C   UNL A   1      37.215  33.765  30.054  1.00  0.00     0.010 A 
ATOM     69  C   UNL A   1      35.714  32.126  31.022  1.00  0.00     0.010 A 
ATOM     70  C   UNL A   1      36.139  34.356  29.387  1.00  0.00     0.020 A 
ATOM     71  C   UNL A   1      34.641  32.696  30.330  1.00  0.00     0.020 A 
ATOM     72  C   UNL A   1      34.859  33.815  29.526  1.00  0.00     0.054 A 
BRANCH  72  73
ATOM     73  S   UNL A   1      33.486  34.571  28.611  1.00  0.00     0.124 S 
ATOM     74  O   UNL A   1      34.161  35.635  27.875  1.00  0.00    -0.237 OA
ATOM     75  O   UNL A   1      32.994  33.455  27.806  1.00  0.00    -0.237 OA
ATOM     76  O   UNL A   1      32.577  35.017  29.664  1.00  0.00    -0.744 OA
ENDBRANCH  72  73
ENDBRANCH  44  67
BRANCH  56  77
ATOM     77  C   UNL A   1      39.901  33.760  37.143  1.00  0.00    -0.014 A 
ATOM     78  C   UNL A   1      38.952  33.483  38.143  1.00  0.00     0.010 A 
ATOM     79  C   UNL A   1      40.628  34.964  37.205  1.00  0.00     0.010 A 
ATOM     80  C   UNL A   1      38.711  34.406  39.165  1.00  0.00     0.020 A 
ATOM     81  C   UNL A   1      40.415  35.873  38.243  1.00  0.00     0.020 A 
ATOM     82  C   UNL A   1      39.447  35.595  39.209  1.00  0.00     0.054 A 
BRANCH  82  83
ATOM     83  S   UNL A   1      39.148  36.754  40.573  1.00  0.00     0.124 S 
ATOM     84  O   UNL A   1      38.444  37.842  39.898  1.00  0.00    -0.237 OA
ATOM     85  O   UNL A   1      38.342  35.960  41.496  1.00  0.00    -0.237 OA
ATOM     86  O   UNL A   1      40.490  37.082  41.049  1.00  0.00    -0.744 OA
ENDBRANCH  82  83
ENDBRANCH  56  77
ENDBRANCH  30  31
ENDBRANCH  22  25
ENDBRANCH  20  21
ENDBRANCH  19  20
ENDBRANCH   1  19
TORSDOF 17
ENDMDL
