MODEL 1
REMARK VINA RESULT:     -11.0      0.000      0.000
REMARK SMILES C[C@@H](C(=O)NCCCCNC(=O)c1ccc(-c2c3nc(c(-c4ccc(S(=O)(=O)[O-])cc4)c4ccc([nH]4)c(-c4ccc(S(=O)(=O)[O-])cc4)c4nc(c(-c5ccc(S(=O)(=O)[O-])cc5)c5ccc2[nH]5)C=C4)C=C3)cc1)c1ccc(C[C@@H]2CCC[C@@H]2O)cc1F
REMARK SMILES IDX 7 1 6 2 5 3 3 4 4 5 2 7 1 8 73 9 74 10 85 11 75 12 84 13
REMARK SMILES IDX 86 14 76 15 77 16 78 17 79 18 82 19 80 20 81 21 83 22 8 24
REMARK SMILES IDX 9 25 10 26 11 27 12 29 13 30 14 31 72 32 15 33 71 34 16 35
REMARK SMILES IDX 17 36 18 37 65 38 19 39 70 40 64 41 66 42 20 43 69 44 63 45
REMARK SMILES IDX 62 46 21 48 51 49 32 50 50 51 33 52 36 53 49 54 67 55 34 56
REMARK SMILES IDX 35 57 48 59 68 60 37 61 22 62 23 63 31 64 24 65 30 66 25 67
REMARK SMILES IDX 26 68 27 69 28 70 29 71 52 72 53 73 61 74 54 75 60 76 55 77
REMARK SMILES IDX 56 78 57 79 58 80 59 81 38 82 39 83 47 84 40 85 46 86 41 87
REMARK SMILES IDX 42 88 43 89 44 90 45 91
REMARK H PARENT 5 6 83 23 10 28 66 47 36 58
REMARK Flexibility Score: inf
ROOT
ATOM      1  C   UNL A   1      34.915  23.004  26.160  1.00  0.00     0.023 C 
ENDROOT
BRANCH   1   2
ATOM      2  C   UNL A   1      34.533  21.602  26.646  1.00  0.00     0.116 C 
BRANCH   2   3
ATOM      3  N   UNL A   1      34.980  20.583  25.716  1.00  0.00    -0.356 N 
ATOM      4  C   UNL A   1      34.254  19.724  24.938  1.00  0.00     0.227 C 
ATOM      5  O   UNL A   1      34.867  18.777  24.440  1.00  0.00    -0.274 OA
ATOM      6  H   UNL A   1      35.958  20.497  25.631  1.00  0.00     0.163 HD
BRANCH   4   7
ATOM      7  C   UNL A   1      32.751  19.973  24.714  1.00  0.00     0.108 C 
ATOM      8  C   UNL A   1      32.215  18.842  23.827  1.00  0.00     0.023 C 
BRANCH   7   9
ATOM      9  C   UNL A   1      32.409  21.372  24.189  1.00  0.00    -0.000 A 
ATOM     10  C   UNL A   1      32.998  21.879  23.017  1.00  0.00     0.008 A 
ATOM     11  C   UNL A   1      31.552  22.239  24.881  1.00  0.00     0.127 A 
ATOM     12  C   UNL A   1      32.682  23.152  22.526  1.00  0.00     0.004 A 
ATOM     13  C   UNL A   1      31.250  23.516  24.410  1.00  0.00     0.043 A 
ATOM     14  F   UNL A   1      30.996  21.881  26.046  1.00  0.00    -0.207 F 
ATOM     15  C   UNL A   1      31.813  23.992  23.225  1.00  0.00    -0.045 A 
BRANCH  15  16
ATOM     16  C   UNL A   1      31.490  25.380  22.739  1.00  0.00     0.041 C 
BRANCH  16  17
ATOM     17  C   UNL A   1      32.417  26.538  23.166  1.00  0.00     0.022 C 
ATOM     18  C   UNL A   1      33.703  26.098  23.874  1.00  0.00     0.007 C 
ATOM     19  C   UNL A   1      31.849  27.587  24.127  1.00  0.00     0.117 C 
ATOM     20  C   UNL A   1      33.470  26.296  25.374  1.00  0.00     0.003 C 
ATOM     21  C   UNL A   1      32.149  27.046  25.518  1.00  0.00     0.032 C 
BRANCH  19  22
ATOM     22  O   UNL A   1      30.475  27.857  23.947  1.00  0.00    -0.393 OA
ATOM     23  H   UNL A   1      30.349  28.351  23.122  1.00  0.00     0.210 HD
ENDBRANCH  19  22
ENDBRANCH  16  17
ENDBRANCH  15  16
ENDBRANCH   7   9
ENDBRANCH   4   7
ENDBRANCH   2   3
ENDBRANCH   1   2
BRANCH   1  24
ATOM     24  C   UNL A   1      35.750  23.037  24.880  1.00  0.00     0.023 C 
BRANCH  24  25
ATOM     25  C   UNL A   1      37.155  23.593  25.050  1.00  0.00     0.116 C 
BRANCH  25  26
ATOM     26  N   UNL A   1      38.080  22.619  25.610  1.00  0.00    -0.352 N 
ATOM     27  C   UNL A   1      39.163  22.848  26.426  1.00  0.00     0.251 C 
ATOM     28  H   UNL A   1      37.910  21.678  25.374  1.00  0.00     0.163 HD
ATOM     29  O   UNL A   1      39.932  21.936  26.712  1.00  0.00    -0.269 OA
BRANCH  27  30
ATOM     30  C   UNL A   1      39.400  24.216  26.922  1.00  0.00     0.039 A 
ATOM     31  C   UNL A   1      39.009  24.548  28.222  1.00  0.00     0.014 A 
ATOM     32  C   UNL A   1      40.074  25.142  26.120  1.00  0.00     0.014 A 
ATOM     33  C   UNL A   1      39.364  25.793  28.748  1.00  0.00     0.010 A 
ATOM     34  C   UNL A   1      40.480  26.352  26.668  1.00  0.00     0.010 A 
ATOM     35  C   UNL A   1      40.133  26.686  27.987  1.00  0.00    -0.014 A 
BRANCH  35  36
ATOM     36  C   UNL A   1      40.603  27.984  28.533  1.00  0.00     0.031 A 
ATOM     37  C   UNL A   1      41.996  28.094  29.082  1.00  0.00     0.074 A 
ATOM     38  C   UNL A   1      39.742  29.013  28.653  1.00  0.00     0.049 A 
ATOM     39  N   UNL A   1      42.539  29.064  29.769  1.00  0.00    -0.248 NA
ATOM     40  C   UNL A   1      42.881  26.939  28.862  1.00  0.00     0.031 C 
ATOM     41  C   UNL A   1      38.351  29.015  28.196  1.00  0.00     0.029 A 
ATOM     42  N   UNL A   1      39.906  30.248  29.228  1.00  0.00    -0.354 N 
ATOM     43  C   UNL A   1      43.811  28.620  30.104  1.00  0.00     0.074 A 
ATOM     44  C   UNL A   1      43.948  27.283  29.567  1.00  0.00     0.031 C 
ATOM     45  C   UNL A   1      37.788  30.193  28.509  1.00  0.00     0.029 A 
ATOM     46  C   UNL A   1      38.763  31.012  29.223  1.00  0.00     0.049 A 
ATOM     47  H   UNL A   1      40.759  30.557  29.608  1.00  0.00     0.167 HD
ATOM     48  C   UNL A   1      44.781  29.268  30.793  1.00  0.00     0.031 A 
ATOM     49  C   UNL A   1      38.520  32.226  29.753  1.00  0.00     0.031 A 
ATOM     50  C   UNL A   1      44.648  30.605  31.304  1.00  0.00     0.049 A 
ATOM     51  C   UNL A   1      39.619  32.947  30.480  1.00  0.00     0.074 A 
ATOM     52  C   UNL A   1      45.593  31.375  31.956  1.00  0.00     0.029 A 
ATOM     53  N   UNL A   1      43.495  31.371  31.217  1.00  0.00    -0.354 N 
ATOM     54  N   UNL A   1      40.836  32.535  30.742  1.00  0.00    -0.248 NA
ATOM     55  C   UNL A   1      39.319  34.299  30.972  1.00  0.00     0.031 C 
ATOM     56  C   UNL A   1      45.001  32.599  32.292  1.00  0.00     0.029 A 
ATOM     57  C   UNL A   1      43.700  32.603  31.812  1.00  0.00     0.049 A 
ATOM     58  H   UNL A   1      42.655  31.081  30.793  1.00  0.00     0.167 HD
ATOM     59  C   UNL A   1      41.456  33.585  31.410  1.00  0.00     0.074 A 
ATOM     60  C   UNL A   1      40.480  34.652  31.507  1.00  0.00     0.031 C 
ATOM     61  C   UNL A   1      42.720  33.657  31.894  1.00  0.00     0.031 A 
BRANCH  48  62
ATOM     62  C   UNL A   1      46.056  28.512  31.049  1.00  0.00    -0.014 A 
ATOM     63  C   UNL A   1      47.144  28.595  30.160  1.00  0.00     0.010 A 
ATOM     64  C   UNL A   1      46.159  27.686  32.182  1.00  0.00     0.010 A 
ATOM     65  C   UNL A   1      48.282  27.811  30.362  1.00  0.00     0.020 A 
ATOM     66  C   UNL A   1      47.307  26.922  32.403  1.00  0.00     0.020 A 
ATOM     67  C   UNL A   1      48.350  26.967  31.475  1.00  0.00     0.054 A 
BRANCH  67  68
ATOM     68  S   UNL A   1      49.822  25.932  31.701  1.00  0.00     0.124 S 
ATOM     69  O   UNL A   1      50.745  26.862  32.345  1.00  0.00    -0.237 OA
ATOM     70  O   UNL A   1      49.331  24.848  32.548  1.00  0.00    -0.237 OA
ATOM     71  O   UNL A   1      50.180  25.540  30.339  1.00  0.00    -0.744 OA
ENDBRANCH  67  68
ENDBRANCH  48  62
BRANCH  49  72
ATOM     72  C   UNL A   1      37.171  32.831  29.592  1.00  0.00    -0.014 A 
ATOM     73  C   UNL A   1      36.275  32.860  30.674  1.00  0.00     0.010 A 
ATOM     74  C   UNL A   1      36.806  33.447  28.382  1.00  0.00     0.010 A 
ATOM     75  C   UNL A   1      35.040  33.502  30.552  1.00  0.00     0.020 A 
ATOM     76  C   UNL A   1      35.579  34.106  28.262  1.00  0.00     0.020 A 
ATOM     77  C   UNL A   1      34.702  34.129  29.348  1.00  0.00     0.054 A 
BRANCH  77  78
ATOM     78  S   UNL A   1      33.139  35.046  29.247  1.00  0.00     0.124 S 
ATOM     79  O   UNL A   1      33.589  36.364  28.812  1.00  0.00    -0.237 OA
ATOM     80  O   UNL A   1      32.384  34.277  28.260  1.00  0.00    -0.237 OA
ATOM     81  O   UNL A   1      32.615  34.976  30.609  1.00  0.00    -0.744 OA
ENDBRANCH  77  78
ENDBRANCH  49  72
BRANCH  61  82
ATOM     82  C   UNL A   1      43.145  34.946  32.542  1.00  0.00    -0.014 A 
ATOM     83  C   UNL A   1      43.748  35.970  31.793  1.00  0.00     0.010 A 
ATOM     84  C   UNL A   1      42.852  35.163  33.900  1.00  0.00     0.010 A 
ATOM     85  C   UNL A   1      44.060  37.192  32.397  1.00  0.00     0.020 A 
ATOM     86  C   UNL A   1      43.145  36.390  34.501  1.00  0.00     0.020 A 
ATOM     87  C   UNL A   1      43.754  37.395  33.747  1.00  0.00     0.054 A 
BRANCH  87  88
ATOM     88  S   UNL A   1      44.098  39.013  34.490  1.00  0.00     0.124 S 
ATOM     89  O   UNL A   1      45.411  39.330  33.936  1.00  0.00    -0.237 OA
ATOM     90  O   UNL A   1      42.994  39.835  34.000  1.00  0.00    -0.237 OA
ATOM     91  O   UNL A   1      44.074  38.745  35.927  1.00  0.00    -0.744 OA
ENDBRANCH  87  88
ENDBRANCH  61  82
ENDBRANCH  35  36
ENDBRANCH  27  30
ENDBRANCH  25  26
ENDBRANCH  24  25
ENDBRANCH   1  24
TORSDOF 18
ENDMDL
MODEL 2
REMARK VINA RESULT:     -10.7      1.892      2.914
REMARK SMILES C[C@@H](C(=O)NCCCCNC(=O)c1ccc(-c2c3nc(c(-c4ccc(S(=O)(=O)[O-])cc4)c4ccc([nH]4)c(-c4ccc(S(=O)(=O)[O-])cc4)c4nc(c(-c5ccc(S(=O)(=O)[O-])cc5)c5ccc2[nH]5)C=C4)C=C3)cc1)c1ccc(C[C@@H]2CCC[C@@H]2O)cc1F
REMARK SMILES IDX 7 1 6 2 5 3 3 4 4 5 2 7 1 8 73 9 74 10 85 11 75 12 84 13
REMARK SMILES IDX 86 14 76 15 77 16 78 17 79 18 82 19 80 20 81 21 83 22 8 24
REMARK SMILES IDX 9 25 10 26 11 27 12 29 13 30 14 31 72 32 15 33 71 34 16 35
REMARK SMILES IDX 17 36 18 37 65 38 19 39 70 40 64 41 66 42 20 43 69 44 63 45
REMARK SMILES IDX 62 46 21 48 51 49 32 50 50 51 33 52 36 53 49 54 67 55 34 56
REMARK SMILES IDX 35 57 48 59 68 60 37 61 22 62 23 63 31 64 24 65 30 66 25 67
REMARK SMILES IDX 26 68 27 69 28 70 29 71 52 72 53 73 61 74 54 75 60 76 55 77
REMARK SMILES IDX 56 78 57 79 58 80 59 81 38 82 39 83 47 84 40 85 46 86 41 87
REMARK SMILES IDX 42 88 43 89 44 90 45 91
REMARK H PARENT 5 6 83 23 10 28 66 47 36 58
REMARK Flexibility Score: inf
ROOT
ATOM      1  C   UNL A   1      35.277  22.586  23.823  1.00  0.00     0.023 C 
ENDROOT
BRANCH   1   2
ATOM      2  C   UNL A   1      34.306  23.599  23.207  1.00  0.00     0.116 C 
BRANCH   2   3
ATOM      3  N   UNL A   1      32.927  23.221  23.450  1.00  0.00    -0.356 N 
ATOM      4  C   UNL A   1      32.023  23.721  24.347  1.00  0.00     0.227 C 
ATOM      5  O   UNL A   1      31.008  23.049  24.539  1.00  0.00    -0.274 OA
ATOM      6  H   UNL A   1      32.589  22.492  22.880  1.00  0.00     0.163 HD
BRANCH   4   7
ATOM      7  C   UNL A   1      32.299  25.063  25.048  1.00  0.00     0.108 C 
ATOM      8  C   UNL A   1      31.779  24.956  26.488  1.00  0.00     0.023 C 
BRANCH   7   9
ATOM      9  C   UNL A   1      31.769  26.292  24.300  1.00  0.00    -0.000 A 
ATOM     10  C   UNL A   1      30.389  26.515  24.144  1.00  0.00     0.008 A 
ATOM     11  C   UNL A   1      32.624  27.213  23.680  1.00  0.00     0.127 A 
ATOM     12  C   UNL A   1      29.898  27.642  23.472  1.00  0.00     0.004 A 
ATOM     13  C   UNL A   1      32.142  28.325  22.990  1.00  0.00     0.043 A 
ATOM     14  F   UNL A   1      33.954  27.053  23.708  1.00  0.00    -0.207 F 
ATOM     15  C   UNL A   1      30.770  28.554  22.874  1.00  0.00    -0.045 A 
BRANCH  15  16
ATOM     16  C   UNL A   1      30.266  29.750  22.112  1.00  0.00     0.041 C 
BRANCH  16  17
ATOM     17  C   UNL A   1      28.845  30.268  22.422  1.00  0.00     0.022 C 
ATOM     18  C   UNL A   1      28.015  30.635  21.187  1.00  0.00     0.007 C 
ATOM     19  C   UNL A   1      28.720  31.522  23.293  1.00  0.00     0.117 C 
ATOM     20  C   UNL A   1      28.080  32.158  21.049  1.00  0.00     0.003 C 
ATOM     21  C   UNL A   1      28.756  32.686  22.312  1.00  0.00     0.032 C 
BRANCH  19  22
ATOM     22  O   UNL A   1      29.711  31.638  24.291  1.00  0.00    -0.393 OA
ATOM     23  H   UNL A   1      29.721  30.833  24.832  1.00  0.00     0.210 HD
ENDBRANCH  19  22
ENDBRANCH  16  17
ENDBRANCH  15  16
ENDBRANCH   7   9
ENDBRANCH   4   7
ENDBRANCH   2   3
ENDBRANCH   1   2
BRANCH   1  24
ATOM     24  C   UNL A   1      35.375  22.632  25.348  1.00  0.00     0.023 C 
BRANCH  24  25
ATOM     25  C   UNL A   1      36.607  23.342  25.886  1.00  0.00     0.116 C 
BRANCH  25  26
ATOM     26  N   UNL A   1      37.771  22.470  25.957  1.00  0.00    -0.352 N 
ATOM     27  C   UNL A   1      39.050  22.792  26.346  1.00  0.00     0.251 C 
ATOM     28  H   UNL A   1      37.623  21.533  25.694  1.00  0.00     0.163 HD
ATOM     29  O   UNL A   1      39.961  21.979  26.228  1.00  0.00    -0.269 OA
BRANCH  27  30
ATOM     30  C   UNL A   1      39.312  24.144  26.873  1.00  0.00     0.039 A 
ATOM     31  C   UNL A   1      38.910  24.459  28.173  1.00  0.00     0.014 A 
ATOM     32  C   UNL A   1      40.019  25.070  26.100  1.00  0.00     0.014 A 
ATOM     33  C   UNL A   1      39.285  25.684  28.731  1.00  0.00     0.010 A 
ATOM     34  C   UNL A   1      40.445  26.258  26.680  1.00  0.00     0.010 A 
ATOM     35  C   UNL A   1      40.086  26.574  28.000  1.00  0.00    -0.014 A 
BRANCH  35  36
ATOM     36  C   UNL A   1      40.578  27.849  28.579  1.00  0.00     0.031 A 
ATOM     37  C   UNL A   1      41.966  27.916  29.146  1.00  0.00     0.074 A 
ATOM     38  C   UNL A   1      39.739  28.894  28.712  1.00  0.00     0.049 A 
ATOM     39  N   UNL A   1      42.522  28.859  29.861  1.00  0.00    -0.248 NA
ATOM     40  C   UNL A   1      42.829  26.747  28.911  1.00  0.00     0.031 C 
ATOM     41  C   UNL A   1      38.353  28.936  28.239  1.00  0.00     0.029 A 
ATOM     42  N   UNL A   1      39.923  30.112  29.315  1.00  0.00    -0.354 N 
ATOM     43  C   UNL A   1      43.781  28.379  30.200  1.00  0.00     0.074 A 
ATOM     44  C   UNL A   1      43.895  27.051  29.635  1.00  0.00     0.031 C 
ATOM     45  C   UNL A   1      37.813  30.120  28.571  1.00  0.00     0.029 A 
ATOM     46  C   UNL A   1      38.798  30.902  29.314  1.00  0.00     0.049 A 
ATOM     47  H   UNL A   1      40.778  30.394  29.711  1.00  0.00     0.167 HD
ATOM     48  C   UNL A   1      44.756  28.991  30.914  1.00  0.00     0.031 A 
ATOM     49  C   UNL A   1      38.574  32.109  29.868  1.00  0.00     0.031 A 
ATOM     50  C   UNL A   1      44.647  30.318  31.452  1.00  0.00     0.049 A 
ATOM     51  C   UNL A   1      39.680  32.789  30.623  1.00  0.00     0.074 A 
ATOM     52  C   UNL A   1      45.600  31.053  32.132  1.00  0.00     0.029 A 
ATOM     53  N   UNL A   1      43.512  31.112  31.369  1.00  0.00    -0.354 N 
ATOM     54  N   UNL A   1      40.885  32.345  30.890  1.00  0.00    -0.248 NA
ATOM     55  C   UNL A   1      39.404  34.137  31.140  1.00  0.00     0.031 C 
ATOM     56  C   UNL A   1      45.032  32.282  32.488  1.00  0.00     0.029 A 
ATOM     57  C   UNL A   1      43.737  32.326  31.993  1.00  0.00     0.049 A 
ATOM     58  H   UNL A   1      42.671  30.850  30.929  1.00  0.00     0.167 HD
ATOM     59  C   UNL A   1      41.520  33.366  31.587  1.00  0.00     0.074 A 
ATOM     60  C   UNL A   1      40.567  34.452  31.697  1.00  0.00     0.031 C 
ATOM     61  C   UNL A   1      42.780  33.399  32.087  1.00  0.00     0.031 A 
BRANCH  48  62
ATOM     62  C   UNL A   1      46.011  28.201  31.168  1.00  0.00    -0.014 A 
ATOM     63  C   UNL A   1      46.148  27.395  32.313  1.00  0.00     0.010 A 
ATOM     64  C   UNL A   1      47.081  28.288  30.260  1.00  0.00     0.010 A 
ATOM     65  C   UNL A   1      47.355  26.746  32.580  1.00  0.00     0.020 A 
ATOM     66  C   UNL A   1      48.282  27.618  30.510  1.00  0.00     0.020 A 
ATOM     67  C   UNL A   1      48.421  26.875  31.685  1.00  0.00     0.054 A 
BRANCH  67  68
ATOM     68  S   UNL A   1      49.992  26.054  32.067  1.00  0.00     0.124 S 
ATOM     69  O   UNL A   1      49.730  25.513  33.399  1.00  0.00    -0.237 OA
ATOM     70  O   UNL A   1      50.110  25.063  31.001  1.00  0.00    -0.237 OA
ATOM     71  O   UNL A   1      50.969  27.139  32.016  1.00  0.00    -0.744 OA
ENDBRANCH  67  68
ENDBRANCH  48  62
BRANCH  49  72
ATOM     72  C   UNL A   1      37.241  32.747  29.705  1.00  0.00    -0.014 A 
ATOM     73  C   UNL A   1      36.307  32.712  30.754  1.00  0.00     0.010 A 
ATOM     74  C   UNL A   1      36.929  33.456  28.531  1.00  0.00     0.010 A 
ATOM     75  C   UNL A   1      35.087  33.383  30.636  1.00  0.00     0.020 A 
ATOM     76  C   UNL A   1      35.717  34.143  28.418  1.00  0.00     0.020 A 
ATOM     77  C   UNL A   1      34.802  34.101  29.471  1.00  0.00     0.054 A 
BRANCH  77  78
ATOM     78  S   UNL A   1      33.257  35.050  29.383  1.00  0.00     0.124 S 
ATOM     79  O   UNL A   1      32.764  34.954  30.753  1.00  0.00    -0.237 OA
ATOM     80  O   UNL A   1      33.720  36.372  28.968  1.00  0.00    -0.237 OA
ATOM     81  O   UNL A   1      32.474  34.331  28.380  1.00  0.00    -0.744 OA
ENDBRANCH  77  78
ENDBRANCH  49  72
BRANCH  61  82
ATOM     82  C   UNL A   1      43.225  34.664  32.768  1.00  0.00    -0.014 A 
ATOM     83  C   UNL A   1      43.684  35.765  32.025  1.00  0.00     0.010 A 
ATOM     84  C   UNL A   1      43.095  34.778  34.164  1.00  0.00     0.010 A 
ATOM     85  C   UNL A   1      44.015  36.959  32.672  1.00  0.00     0.020 A 
ATOM     86  C   UNL A   1      43.406  35.977  34.809  1.00  0.00     0.020 A 
ATOM     87  C   UNL A   1      43.872  37.059  34.059  1.00  0.00     0.054 A 
BRANCH  87  88
ATOM     88  S   UNL A   1      44.234  38.641  34.868  1.00  0.00     0.124 S 
ATOM     89  O   UNL A   1      43.845  38.374  36.249  1.00  0.00    -0.237 OA
ATOM     90  O   UNL A   1      45.669  38.800  34.638  1.00  0.00    -0.237 OA
ATOM     91  O   UNL A   1      43.388  39.595  34.154  1.00  0.00    -0.744 OA
ENDBRANCH  87  88
ENDBRANCH  61  82
ENDBRANCH  35  36
ENDBRANCH  27  30
ENDBRANCH  25  26
ENDBRANCH  24  25
ENDBRANCH   1  24
TORSDOF 18
ENDMDL
MODEL 3
REMARK VINA RESULT:     -10.6      2.860      9.390
REMARK SMILES C[C@@H](C(=O)NCCCCNC(=O)c1ccc(-c2c3nc(c(-c4ccc(S(=O)(=O)[O-])cc4)c4ccc([nH]4)c(-c4ccc(S(=O)(=O)[O-])cc4)c4nc(c(-c5ccc(S(=O)(=O)[O-])cc5)c5ccc2[nH]5)C=C4)C=C3)cc1)c1ccc(C[C@@H]2CCC[C@@H]2O)cc1F
REMARK SMILES IDX 7 1 6 2 5 3 3 4 4 5 2 7 1 8 73 9 74 10 85 11 75 12 84 13
REMARK SMILES IDX 86 14 76 15 77 16 78 17 79 18 82 19 80 20 81 21 83 22 8 24
REMARK SMILES IDX 9 25 10 26 11 27 12 29 13 30 14 31 72 32 15 33 71 34 16 35
REMARK SMILES IDX 17 36 18 37 65 38 19 39 70 40 64 41 66 42 20 43 69 44 63 45
REMARK SMILES IDX 62 46 21 48 51 49 32 50 50 51 33 52 36 53 49 54 67 55 34 56
REMARK SMILES IDX 35 57 48 59 68 60 37 61 22 62 23 63 31 64 24 65 30 66 25 67
REMARK SMILES IDX 26 68 27 69 28 70 29 71 52 72 53 73 61 74 54 75 60 76 55 77
REMARK SMILES IDX 56 78 57 79 58 80 59 81 38 82 39 83 47 84 40 85 46 86 41 87
REMARK SMILES IDX 42 88 43 89 44 90 45 91
REMARK H PARENT 5 6 83 23 10 28 66 47 36 58
REMARK Flexibility Score: inf
ROOT
ATOM      1  C   UNL A   1      31.559  29.083  26.077  1.00  0.00     0.023 C 
ENDROOT
BRANCH   1   2
ATOM      2  C   UNL A   1      32.116  29.124  24.651  1.00  0.00     0.116 C 
BRANCH   2   3
ATOM      3  N   UNL A   1      31.203  28.502  23.711  1.00  0.00    -0.356 N 
ATOM      4  C   UNL A   1      31.431  27.532  22.775  1.00  0.00     0.227 C 
ATOM      5  O   UNL A   1      30.554  27.370  21.923  1.00  0.00    -0.274 OA
ATOM      6  H   UNL A   1      30.275  28.830  23.755  1.00  0.00     0.163 HD
BRANCH   4   7
ATOM      7  C   UNL A   1      32.726  26.701  22.828  1.00  0.00     0.108 C 
ATOM      8  C   UNL A   1      33.016  26.192  21.410  1.00  0.00     0.023 C 
BRANCH   7   9
ATOM      9  C   UNL A   1      32.727  25.591  23.885  1.00  0.00    -0.000 A 
ATOM     10  C   UNL A   1      31.765  24.565  23.870  1.00  0.00     0.008 A 
ATOM     11  C   UNL A   1      33.635  25.578  24.953  1.00  0.00     0.127 A 
ATOM     12  C   UNL A   1      31.767  23.541  24.826  1.00  0.00     0.004 A 
ATOM     13  C   UNL A   1      33.628  24.575  25.921  1.00  0.00     0.043 A 
ATOM     14  F   UNL A   1      34.545  26.550  25.100  1.00  0.00    -0.207 F 
ATOM     15  C   UNL A   1      32.691  23.541  25.872  1.00  0.00    -0.045 A 
BRANCH  15  16
ATOM     16  C   UNL A   1      32.687  22.475  26.934  1.00  0.00     0.041 C 
BRANCH  16  17
ATOM     17  C   UNL A   1      33.677  21.299  26.792  1.00  0.00     0.022 C 
ATOM     18  C   UNL A   1      35.084  21.700  26.336  1.00  0.00     0.007 C 
ATOM     19  C   UNL A   1      33.315  20.178  25.814  1.00  0.00     0.117 C 
ATOM     20  C   UNL A   1      35.164  21.392  24.838  1.00  0.00     0.003 C 
ATOM     21  C   UNL A   1      33.898  20.620  24.479  1.00  0.00     0.032 C 
BRANCH  19  22
ATOM     22  O   UNL A   1      31.932  19.907  25.726  1.00  0.00    -0.393 OA
ATOM     23  H   UNL A   1      31.800  18.990  25.437  1.00  0.00     0.210 HD
ENDBRANCH  19  22
ENDBRANCH  16  17
ENDBRANCH  15  16
ENDBRANCH   7   9
ENDBRANCH   4   7
ENDBRANCH   2   3
ENDBRANCH   1   2
BRANCH   1  24
ATOM     24  C   UNL A   1      32.299  28.146  27.032  1.00  0.00     0.023 C 
BRANCH  24  25
ATOM     25  C   UNL A   1      33.651  28.657  27.505  1.00  0.00     0.116 C 
BRANCH  25  26
ATOM     26  N   UNL A   1      33.632  30.074  27.835  1.00  0.00    -0.352 N 
ATOM     27  C   UNL A   1      34.643  30.833  28.377  1.00  0.00     0.251 C 
ATOM     28  H   UNL A   1      32.790  30.549  27.648  1.00  0.00     0.163 HD
ATOM     29  O   UNL A   1      34.436  31.991  28.725  1.00  0.00    -0.269 OA
BRANCH  27  30
ATOM     30  C   UNL A   1      35.970  30.217  28.563  1.00  0.00     0.039 A 
ATOM     31  C   UNL A   1      36.872  30.205  27.496  1.00  0.00     0.014 A 
ATOM     32  C   UNL A   1      36.339  29.720  29.817  1.00  0.00     0.014 A 
ATOM     33  C   UNL A   1      38.179  29.759  27.708  1.00  0.00     0.010 A 
ATOM     34  C   UNL A   1      37.655  29.338  30.038  1.00  0.00     0.010 A 
ATOM     35  C   UNL A   1      38.588  29.359  28.989  1.00  0.00    -0.014 A 
BRANCH  35  36
ATOM     36  C   UNL A   1      39.987  28.957  29.280  1.00  0.00     0.031 A 
ATOM     37  C   UNL A   1      40.948  29.970  29.831  1.00  0.00     0.074 A 
ATOM     38  C   UNL A   1      40.420  27.731  28.928  1.00  0.00     0.049 A 
ATOM     39  N   UNL A   1      42.244  29.885  29.977  1.00  0.00    -0.248 NA
ATOM     40  C   UNL A   1      40.377  31.265  30.234  1.00  0.00     0.031 C 
ATOM     41  C   UNL A   1      39.592  26.673  28.344  1.00  0.00     0.029 A 
ATOM     42  N   UNL A   1      41.675  27.181  28.981  1.00  0.00    -0.354 N 
ATOM     43  C   UNL A   1      42.651  31.129  30.443  1.00  0.00     0.074 A 
ATOM     44  C   UNL A   1      41.466  31.957  30.530  1.00  0.00     0.031 C 
ATOM     45  C   UNL A   1      40.363  25.602  28.094  1.00  0.00     0.029 A 
ATOM     46  C   UNL A   1      41.742  25.912  28.458  1.00  0.00     0.049 A 
ATOM     47  H   UNL A   1      42.454  27.651  29.357  1.00  0.00     0.167 HD
ATOM     48  C   UNL A   1      43.897  31.543  30.773  1.00  0.00     0.031 A 
ATOM     49  C   UNL A   1      42.798  25.096  28.272  1.00  0.00     0.031 A 
ATOM     50  C   UNL A   1      45.066  30.710  30.708  1.00  0.00     0.049 A 
ATOM     51  C   UNL A   1      44.167  25.558  28.681  1.00  0.00     0.074 A 
ATOM     52  C   UNL A   1      46.362  31.012  31.083  1.00  0.00     0.029 A 
ATOM     53  N   UNL A   1      45.078  29.405  30.237  1.00  0.00    -0.354 N 
ATOM     54  N   UNL A   1      44.529  26.719  29.171  1.00  0.00    -0.248 NA
ATOM     55  C   UNL A   1      45.269  24.598  28.524  1.00  0.00     0.031 C 
ATOM     56  C   UNL A   1      47.166  29.900  30.809  1.00  0.00     0.029 A 
ATOM     57  C   UNL A   1      46.361  28.891  30.301  1.00  0.00     0.049 A 
ATOM     58  H   UNL A   1      44.290  28.917  29.905  1.00  0.00     0.167 HD
ATOM     59  C   UNL A   1      45.896  26.624  29.403  1.00  0.00     0.074 A 
ATOM     60  C   UNL A   1      46.296  25.290  29.003  1.00  0.00     0.031 C 
ATOM     61  C   UNL A   1      46.740  27.558  29.906  1.00  0.00     0.031 A 
BRANCH  48  62
ATOM     62  C   UNL A   1      44.046  32.976  31.208  1.00  0.00    -0.014 A 
ATOM     63  C   UNL A   1      43.960  34.032  30.283  1.00  0.00     0.010 A 
ATOM     64  C   UNL A   1      44.301  33.268  32.560  1.00  0.00     0.010 A 
ATOM     65  C   UNL A   1      44.196  35.347  30.688  1.00  0.00     0.020 A 
ATOM     66  C   UNL A   1      44.511  34.585  32.975  1.00  0.00     0.020 A 
ATOM     67  C   UNL A   1      44.486  35.614  32.030  1.00  0.00     0.054 A 
BRANCH  67  68
ATOM     68  S   UNL A   1      44.825  37.324  32.530  1.00  0.00     0.124 S 
ATOM     69  O   UNL A   1      43.476  37.863  32.683  1.00  0.00    -0.237 OA
ATOM     70  O   UNL A   1      45.577  37.158  33.771  1.00  0.00    -0.237 OA
ATOM     71  O   UNL A   1      45.590  37.866  31.409  1.00  0.00    -0.744 OA
ENDBRANCH  67  68
ENDBRANCH  48  62
BRANCH  49  72
ATOM     72  C   UNL A   1      42.579  23.750  27.679  1.00  0.00    -0.014 A 
ATOM     73  C   UNL A   1      42.771  23.543  26.303  1.00  0.00     0.010 A 
ATOM     74  C   UNL A   1      42.253  22.655  28.500  1.00  0.00     0.010 A 
ATOM     75  C   UNL A   1      42.648  22.262  25.757  1.00  0.00     0.020 A 
ATOM     76  C   UNL A   1      42.149  21.370  27.960  1.00  0.00     0.020 A 
ATOM     77  C   UNL A   1      42.346  21.181  26.590  1.00  0.00     0.054 A 
BRANCH  77  78
ATOM     78  S   UNL A   1      42.296  19.513  25.877  1.00  0.00     0.124 S 
ATOM     79  O   UNL A   1      40.907  19.412  25.439  1.00  0.00    -0.237 OA
ATOM     80  O   UNL A   1      43.292  19.594  24.811  1.00  0.00    -0.237 OA
ATOM     81  O   UNL A   1      42.666  18.653  26.999  1.00  0.00    -0.744 OA
ENDBRANCH  77  78
ENDBRANCH  49  72
BRANCH  61  82
ATOM     82  C   UNL A   1      48.180  27.165  30.093  1.00  0.00    -0.014 A 
ATOM     83  C   UNL A   1      49.161  27.540  29.159  1.00  0.00     0.010 A 
ATOM     84  C   UNL A   1      48.564  26.490  31.265  1.00  0.00     0.010 A 
ATOM     85  C   UNL A   1      50.505  27.236  29.393  1.00  0.00     0.020 A 
ATOM     86  C   UNL A   1      49.909  26.203  31.510  1.00  0.00     0.020 A 
ATOM     87  C   UNL A   1      50.871  26.572  30.568  1.00  0.00     0.054 A 
BRANCH  87  88
ATOM     88  S   UNL A   1      52.629  26.255  30.886  1.00  0.00     0.124 S 
ATOM     89  O   UNL A   1      52.573  25.106  31.783  1.00  0.00    -0.237 OA
ATOM     90  O   UNL A   1      53.155  25.985  29.550  1.00  0.00    -0.237 OA
ATOM     91  O   UNL A   1      53.099  27.499  31.492  1.00  0.00    -0.744 OA
ENDBRANCH  87  88
ENDBRANCH  61  82
ENDBRANCH  35  36
ENDBRANCH  27  30
ENDBRANCH  25  26
ENDBRANCH  24  25
ENDBRANCH   1  24
TORSDOF 18
ENDMDL
