MODEL 1
REMARK VINA RESULT:     -11.7      0.000      0.000
REMARK SMILES O=C(NCCCCNC(=O)c1ccc(-c2c3nc(c(-c4ccc(S(=O)(=O)[O-])cc4)c4ccc([nH]4)c(-c4ccc(S(=O)(=O)[O-])cc4)c4nc(c(-c5ccc(S(=O)(=O)[O-])cc5)c5ccc2[nH]5)C=C4)C=C3)cc1)c1ccc(Cn2cc(Cl)c(=O)[nH]c2=O)cc1
REMARK SMILES IDX 6 1 5 2 4 3 3 4 1 5 2 6 71 8 72 9 86 10 73 11 85 12 74 13
REMARK SMILES IDX 75 14 76 15 77 16 83 17 78 18 82 19 84 20 79 21 80 22 81 24
REMARK SMILES IDX 7 25 8 26 9 27 10 29 11 30 12 31 70 32 13 33 69 34 14 35
REMARK SMILES IDX 15 36 16 37 63 38 17 39 68 40 62 41 64 42 18 43 67 44 61 45
REMARK SMILES IDX 60 46 19 48 49 49 30 50 48 51 31 52 34 53 47 54 65 55 32 56
REMARK SMILES IDX 33 57 46 59 66 60 35 61 20 62 21 63 29 64 22 65 28 66 23 67
REMARK SMILES IDX 24 68 25 69 26 70 27 71 50 72 51 73 59 74 52 75 58 76 53 77
REMARK SMILES IDX 54 78 55 79 56 80 57 81 36 82 37 83 45 84 38 85 44 86 39 87
REMARK SMILES IDX 40 88 41 89 42 90 43 91
REMARK H PARENT 3 7 82 23 8 28 64 47 34 58
REMARK Flexibility Score: inf
ROOT
ATOM      1  C   UNL A   1      33.580  28.487  25.807  1.00  0.00     0.023 C 
ENDROOT
BRANCH   1   2
ATOM      2  C   UNL A   1      32.903  29.483  24.866  1.00  0.00     0.023 C 
BRANCH   2   3
ATOM      3  C   UNL A   1      31.392  29.618  25.032  1.00  0.00     0.116 C 
BRANCH   3   4
ATOM      4  N   UNL A   1      30.703  29.841  23.769  1.00  0.00    -0.352 N 
ATOM      5  O   UNL A   1      29.832  29.247  21.758  1.00  0.00    -0.269 OA
ATOM      6  C   UNL A   1      30.345  28.915  22.819  1.00  0.00     0.251 C 
ATOM      7  H   UNL A   1      30.464  30.774  23.571  1.00  0.00     0.163 HD
BRANCH   6   8
ATOM      8  C   UNL A   1      30.610  27.492  23.091  1.00  0.00     0.039 A 
ATOM      9  C   UNL A   1      31.675  26.849  22.457  1.00  0.00     0.014 A 
ATOM     10  C   UNL A   1      29.743  26.790  23.929  1.00  0.00     0.014 A 
ATOM     11  C   UNL A   1      31.823  25.470  22.598  1.00  0.00     0.006 A 
ATOM     12  C   UNL A   1      29.888  25.407  24.059  1.00  0.00     0.006 A 
ATOM     13  C   UNL A   1      30.910  24.733  23.372  1.00  0.00    -0.028 A 
BRANCH  13  14
ATOM     14  C   UNL A   1      30.978  23.221  23.398  1.00  0.00     0.162 C 
BRANCH  14  15
ATOM     15  N   UNL A   1      31.928  22.729  24.406  1.00  0.00    -0.295 N 
ATOM     16  C   UNL A   1      33.256  22.538  24.060  1.00  0.00     0.117 A 
ATOM     17  C   UNL A   1      31.464  22.448  25.685  1.00  0.00     0.328 A 
ATOM     18  C   UNL A   1      34.167  22.079  24.924  1.00  0.00     0.122 A 
ATOM     19  N   UNL A   1      32.408  21.985  26.568  1.00  0.00    -0.273 N 
ATOM     20  O   UNL A   1      30.301  22.599  26.052  1.00  0.00    -0.248 OA
ATOM     21  Cl  UNL A   1      35.803  21.834  24.477  1.00  0.00    -0.077 Cl
ATOM     22  C   UNL A   1      33.739  21.784  26.311  1.00  0.00     0.272 A 
ATOM     23  H   UNL A   1      32.097  21.777  27.478  1.00  0.00     0.175 HD
ATOM     24  O   UNL A   1      34.508  21.401  27.186  1.00  0.00    -0.268 OA
ENDBRANCH  14  15
ENDBRANCH  13  14
ENDBRANCH   6   8
ENDBRANCH   3   4
ENDBRANCH   2   3
ENDBRANCH   1   2
BRANCH   1  25
ATOM     25  C   UNL A   1      33.318  28.698  27.297  1.00  0.00     0.116 C 
BRANCH  25  26
ATOM     26  N   UNL A   1      33.383  30.094  27.704  1.00  0.00    -0.352 N 
ATOM     27  C   UNL A   1      34.426  30.799  28.258  1.00  0.00     0.251 C 
ATOM     28  H   UNL A   1      32.557  30.611  27.561  1.00  0.00     0.163 HD
ATOM     29  O   UNL A   1      34.255  31.957  28.628  1.00  0.00    -0.269 OA
BRANCH  27  30
ATOM     30  C   UNL A   1      35.741  30.148  28.448  1.00  0.00     0.039 A 
ATOM     31  C   UNL A   1      36.641  30.125  27.379  1.00  0.00     0.014 A 
ATOM     32  C   UNL A   1      36.101  29.599  29.682  1.00  0.00     0.014 A 
ATOM     33  C   UNL A   1      37.939  29.648  27.577  1.00  0.00     0.010 A 
ATOM     34  C   UNL A   1      37.413  29.182  29.895  1.00  0.00     0.010 A 
ATOM     35  C   UNL A   1      38.351  29.226  28.851  1.00  0.00    -0.014 A 
BRANCH  35  36
ATOM     36  C   UNL A   1      39.772  28.903  29.137  1.00  0.00     0.031 A 
ATOM     37  C   UNL A   1      40.709  29.955  29.656  1.00  0.00     0.074 A 
ATOM     38  C   UNL A   1      40.244  27.682  28.819  1.00  0.00     0.049 A 
ATOM     39  N   UNL A   1      41.999  29.881  29.859  1.00  0.00    -0.248 NA
ATOM     40  C   UNL A   1      40.122  31.269  29.964  1.00  0.00     0.031 C 
ATOM     41  C   UNL A   1      39.451  26.587  28.254  1.00  0.00     0.029 A 
ATOM     42  N   UNL A   1      41.513  27.162  28.901  1.00  0.00    -0.354 N 
ATOM     43  C   UNL A   1      42.385  31.139  30.301  1.00  0.00     0.074 A 
ATOM     44  C   UNL A   1      41.197  31.968  30.301  1.00  0.00     0.031 C 
ATOM     45  C   UNL A   1      40.249  25.529  28.043  1.00  0.00     0.029 A 
ATOM     46  C   UNL A   1      41.615  25.879  28.421  1.00  0.00     0.049 A 
ATOM     47  H   UNL A   1      42.277  27.663  29.270  1.00  0.00     0.167 HD
ATOM     48  C   UNL A   1      43.614  31.565  30.683  1.00  0.00     0.031 A 
ATOM     49  C   UNL A   1      42.686  25.076  28.277  1.00  0.00     0.031 A 
ATOM     50  C   UNL A   1      44.794  30.742  30.681  1.00  0.00     0.049 A 
ATOM     51  C   UNL A   1      44.040  25.567  28.698  1.00  0.00     0.074 A 
ATOM     52  C   UNL A   1      46.068  31.064  31.118  1.00  0.00     0.029 A 
ATOM     53  N   UNL A   1      44.851  29.441  30.208  1.00  0.00    -0.354 N 
ATOM     54  N   UNL A   1      44.371  26.737  29.189  1.00  0.00    -0.248 NA
ATOM     55  C   UNL A   1      45.162  24.631  28.548  1.00  0.00     0.031 C 
ATOM     56  C   UNL A   1      46.905  29.970  30.865  1.00  0.00     0.029 A 
ATOM     57  C   UNL A   1      46.144  28.954  30.311  1.00  0.00     0.049 A 
ATOM     58  H   UNL A   1      44.085  28.936  29.850  1.00  0.00     0.167 HD
ATOM     59  C   UNL A   1      45.741  26.678  29.412  1.00  0.00     0.074 A 
ATOM     60  C   UNL A   1      46.173  25.351  29.020  1.00  0.00     0.031 C 
ATOM     61  C   UNL A   1      46.565  27.638  29.898  1.00  0.00     0.031 A 
BRANCH  48  62
ATOM     62  C   UNL A   1      43.733  33.001  31.119  1.00  0.00    -0.014 A 
ATOM     63  C   UNL A   1      44.150  33.999  30.220  1.00  0.00     0.010 A 
ATOM     64  C   UNL A   1      43.428  33.356  32.445  1.00  0.00     0.010 A 
ATOM     65  C   UNL A   1      44.322  35.315  30.655  1.00  0.00     0.020 A 
ATOM     66  C   UNL A   1      43.574  34.677  32.878  1.00  0.00     0.020 A 
ATOM     67  C   UNL A   1      44.046  35.643  31.985  1.00  0.00     0.054 A 
BRANCH  67  68
ATOM     68  S   UNL A   1      44.301  37.353  32.536  1.00  0.00     0.124 S 
ATOM     69  O   UNL A   1      43.841  38.111  31.375  1.00  0.00    -0.237 OA
ATOM     70  O   UNL A   1      43.452  37.442  33.720  1.00  0.00    -0.237 OA
ATOM     71  O   UNL A   1      45.736  37.422  32.796  1.00  0.00    -0.744 OA
ENDBRANCH  67  68
ENDBRANCH  48  62
BRANCH  49  72
ATOM     72  C   UNL A   1      42.502  23.719  27.696  1.00  0.00    -0.014 A 
ATOM     73  C   UNL A   1      42.724  23.495  26.328  1.00  0.00     0.010 A 
ATOM     74  C   UNL A   1      42.173  22.633  28.528  1.00  0.00     0.010 A 
ATOM     75  C   UNL A   1      42.631  22.203  25.801  1.00  0.00     0.020 A 
ATOM     76  C   UNL A   1      42.100  21.338  28.009  1.00  0.00     0.020 A 
ATOM     77  C   UNL A   1      42.328  21.132  26.647  1.00  0.00     0.054 A 
BRANCH  77  78
ATOM     78  S   UNL A   1      42.318  19.450  25.963  1.00  0.00     0.124 S 
ATOM     79  O   UNL A   1      42.817  18.663  27.085  1.00  0.00    -0.237 OA
ATOM     80  O   UNL A   1      40.910  19.253  25.628  1.00  0.00    -0.237 OA
ATOM     81  O   UNL A   1      43.214  19.546  24.813  1.00  0.00    -0.744 OA
ENDBRANCH  77  78
ENDBRANCH  49  72
BRANCH  61  82
ATOM     82  C   UNL A   1      48.024  27.294  30.026  1.00  0.00    -0.014 A 
ATOM     83  C   UNL A   1      48.937  27.642  29.016  1.00  0.00     0.010 A 
ATOM     84  C   UNL A   1      48.496  26.669  31.195  1.00  0.00     0.010 A 
ATOM     85  C   UNL A   1      50.297  27.354  29.163  1.00  0.00     0.020 A 
ATOM     86  C   UNL A   1      49.857  26.397  31.353  1.00  0.00     0.020 A 
ATOM     87  C   UNL A   1      50.748  26.733  30.331  1.00  0.00     0.054 A 
BRANCH  87  88
ATOM     88  S   UNL A   1      52.525  26.419  30.526  1.00  0.00     0.124 S 
ATOM     89  O   UNL A   1      52.535  25.322  31.489  1.00  0.00    -0.237 OA
ATOM     90  O   UNL A   1      52.940  26.068  29.169  1.00  0.00    -0.237 OA
ATOM     91  O   UNL A   1      53.048  27.689  31.021  1.00  0.00    -0.744 OA
ENDBRANCH  87  88
ENDBRANCH  61  82
ENDBRANCH  35  36
ENDBRANCH  27  30
ENDBRANCH  25  26
ENDBRANCH   1  25
TORSDOF 16
ENDMDL
MODEL 2
REMARK VINA RESULT:     -11.2      2.852      9.472
REMARK SMILES O=C(NCCCCNC(=O)c1ccc(-c2c3nc(c(-c4ccc(S(=O)(=O)[O-])cc4)c4ccc([nH]4)c(-c4ccc(S(=O)(=O)[O-])cc4)c4nc(c(-c5ccc(S(=O)(=O)[O-])cc5)c5ccc2[nH]5)C=C4)C=C3)cc1)c1ccc(Cn2cc(Cl)c(=O)[nH]c2=O)cc1
REMARK SMILES IDX 6 1 5 2 4 3 3 4 1 5 2 6 71 8 72 9 86 10 73 11 85 12 74 13
REMARK SMILES IDX 75 14 76 15 77 16 83 17 78 18 82 19 84 20 79 21 80 22 81 24
REMARK SMILES IDX 7 25 8 26 9 27 10 29 11 30 12 31 70 32 13 33 69 34 14 35
REMARK SMILES IDX 15 36 16 37 63 38 17 39 68 40 62 41 64 42 18 43 67 44 61 45
REMARK SMILES IDX 60 46 19 48 49 49 30 50 48 51 31 52 34 53 47 54 65 55 32 56
REMARK SMILES IDX 33 57 46 59 66 60 35 61 20 62 21 63 29 64 22 65 28 66 23 67
REMARK SMILES IDX 24 68 25 69 26 70 27 71 50 72 51 73 59 74 52 75 58 76 53 77
REMARK SMILES IDX 54 78 55 79 56 80 57 81 36 82 37 83 45 84 38 85 44 86 39 87
REMARK SMILES IDX 40 88 41 89 42 90 43 91
REMARK H PARENT 3 7 82 23 8 28 64 47 34 58
REMARK Flexibility Score: inf
ROOT
ATOM      1  C   UNL A   1      35.709  22.631  25.035  1.00  0.00     0.023 C 
ENDROOT
BRANCH   1   2
ATOM      2  C   UNL A   1      35.608  21.262  25.708  1.00  0.00     0.023 C 
BRANCH   2   3
ATOM      3  C   UNL A   1      35.422  20.079  24.763  1.00  0.00     0.116 C 
BRANCH   3   4
ATOM      4  N   UNL A   1      34.273  19.255  25.110  1.00  0.00    -0.352 N 
ATOM      5  O   UNL A   1      32.076  18.830  25.498  1.00  0.00    -0.269 OA
ATOM      6  C   UNL A   1      32.944  19.603  25.110  1.00  0.00     0.251 C 
ATOM      7  H   UNL A   1      34.475  18.331  25.380  1.00  0.00     0.163 HD
BRANCH   6   8
ATOM      8  C   UNL A   1      32.571  20.950  24.646  1.00  0.00     0.039 A 
ATOM      9  C   UNL A   1      32.048  21.878  25.549  1.00  0.00     0.014 A 
ATOM     10  C   UNL A   1      32.682  21.253  23.288  1.00  0.00     0.014 A 
ATOM     11  C   UNL A   1      31.554  23.091  25.074  1.00  0.00     0.006 A 
ATOM     12  C   UNL A   1      32.177  22.466  22.815  1.00  0.00     0.006 A 
ATOM     13  C   UNL A   1      31.582  23.380  23.699  1.00  0.00    -0.028 A 
BRANCH  13  14
ATOM     14  C   UNL A   1      30.906  24.626  23.167  1.00  0.00     0.162 C 
BRANCH  14  15
ATOM     15  N   UNL A   1      31.841  25.753  23.047  1.00  0.00    -0.295 N 
ATOM     16  C   UNL A   1      32.302  26.386  24.191  1.00  0.00     0.117 A 
ATOM     17  C   UNL A   1      32.229  26.171  21.780  1.00  0.00     0.328 A 
ATOM     18  C   UNL A   1      33.141  27.425  24.150  1.00  0.00     0.122 A 
ATOM     19  N   UNL A   1      33.098  27.234  21.749  1.00  0.00    -0.273 N 
ATOM     20  O   UNL A   1      31.857  25.651  20.732  1.00  0.00    -0.248 OA
ATOM     21  Cl  UNL A   1      33.691  28.206  25.573  1.00  0.00    -0.077 Cl
ATOM     22  C   UNL A   1      33.611  27.903  22.829  1.00  0.00     0.272 A 
ATOM     23  H   UNL A   1      33.381  27.547  20.860  1.00  0.00     0.175 HD
ATOM     24  O   UNL A   1      34.414  28.820  22.691  1.00  0.00    -0.268 OA
ENDBRANCH  14  15
ENDBRANCH  13  14
ENDBRANCH   6   8
ENDBRANCH   3   4
ENDBRANCH   2   3
ENDBRANCH   1   2
BRANCH   1  25
ATOM     25  C   UNL A   1      37.007  23.397  25.281  1.00  0.00     0.116 C 
BRANCH  25  26
ATOM     26  N   UNL A   1      38.123  22.540  25.656  1.00  0.00    -0.352 N 
ATOM     27  C   UNL A   1      39.279  22.851  26.333  1.00  0.00     0.251 C 
ATOM     28  H   UNL A   1      38.036  21.597  25.385  1.00  0.00     0.163 HD
ATOM     29  O   UNL A   1      40.156  22.002  26.470  1.00  0.00    -0.269 OA
BRANCH  27  30
ATOM     30  C   UNL A   1      39.485  24.220  26.857  1.00  0.00     0.039 A 
ATOM     31  C   UNL A   1      39.048  24.516  28.151  1.00  0.00     0.014 A 
ATOM     32  C   UNL A   1      40.139  25.191  26.094  1.00  0.00     0.014 A 
ATOM     33  C   UNL A   1      39.360  25.754  28.720  1.00  0.00     0.010 A 
ATOM     34  C   UNL A   1      40.504  26.399  26.685  1.00  0.00     0.010 A 
ATOM     35  C   UNL A   1      40.140  26.681  28.010  1.00  0.00    -0.014 A 
BRANCH  35  36
ATOM     36  C   UNL A   1      40.653  27.915  28.659  1.00  0.00     0.031 A 
ATOM     37  C   UNL A   1      42.041  27.962  29.229  1.00  0.00     0.074 A 
ATOM     38  C   UNL A   1      39.821  28.961  28.831  1.00  0.00     0.049 A 
ATOM     39  N   UNL A   1      42.615  28.913  29.920  1.00  0.00    -0.248 NA
ATOM     40  C   UNL A   1      42.885  26.777  29.014  1.00  0.00     0.031 C 
ATOM     41  C   UNL A   1      38.429  29.021  28.375  1.00  0.00     0.029 A 
ATOM     42  N   UNL A   1      40.015  30.166  29.462  1.00  0.00    -0.354 N 
ATOM     43  C   UNL A   1      43.880  28.437  30.240  1.00  0.00     0.074 A 
ATOM     44  C   UNL A   1      43.974  27.097  29.697  1.00  0.00     0.031 C 
ATOM     45  C   UNL A   1      37.898  30.199  28.738  1.00  0.00     0.029 A 
ATOM     46  C   UNL A   1      38.895  30.962  29.483  1.00  0.00     0.049 A 
ATOM     47  H   UNL A   1      40.875  30.433  29.860  1.00  0.00     0.167 HD
ATOM     48  C   UNL A   1      44.876  29.061  30.914  1.00  0.00     0.031 A 
ATOM     49  C   UNL A   1      38.679  32.161  30.055  1.00  0.00     0.031 A 
ATOM     50  C   UNL A   1      44.782  30.391  31.454  1.00  0.00     0.049 A 
ATOM     51  C   UNL A   1      39.792  32.834  30.805  1.00  0.00     0.074 A 
ATOM     52  C   UNL A   1      45.762  31.133  32.089  1.00  0.00     0.029 A 
ATOM     53  N   UNL A   1      43.637  31.172  31.436  1.00  0.00    -0.354 N 
ATOM     54  N   UNL A   1      41.009  32.399  31.029  1.00  0.00    -0.248 NA
ATOM     55  C   UNL A   1      39.505  34.156  31.376  1.00  0.00     0.031 C 
ATOM     56  C   UNL A   1      45.195  32.348  32.496  1.00  0.00     0.029 A 
ATOM     57  C   UNL A   1      43.876  32.378  32.077  1.00  0.00     0.049 A 
ATOM     58  H   UNL A   1      42.781  30.910  31.029  1.00  0.00     0.167 HD
ATOM     59  C   UNL A   1      41.636  33.397  31.763  1.00  0.00     0.074 A 
ATOM     60  C   UNL A   1      40.671  34.466  31.930  1.00  0.00     0.031 C 
ATOM     61  C   UNL A   1      42.900  33.424  32.255  1.00  0.00     0.031 A 
BRANCH  48  62
ATOM     62  C   UNL A   1      46.152  28.287  31.113  1.00  0.00    -0.014 A 
ATOM     63  C   UNL A   1      47.183  28.332  30.157  1.00  0.00     0.010 A 
ATOM     64  C   UNL A   1      46.321  27.502  32.268  1.00  0.00     0.010 A 
ATOM     65  C   UNL A   1      48.333  27.556  30.320  1.00  0.00     0.020 A 
ATOM     66  C   UNL A   1      47.482  26.743  32.447  1.00  0.00     0.020 A 
ATOM     67  C   UNL A   1      48.469  26.755  31.457  1.00  0.00     0.054 A 
BRANCH  67  68
ATOM     68  S   UNL A   1      49.958  25.735  31.637  1.00  0.00     0.124 S 
ATOM     69  O   UNL A   1      50.109  25.189  30.291  1.00  0.00    -0.237 OA
ATOM     70  O   UNL A   1      50.971  26.709  32.036  1.00  0.00    -0.237 OA
ATOM     71  O   UNL A   1      49.591  24.766  32.666  1.00  0.00    -0.744 OA
ENDBRANCH  67  68
ENDBRANCH  48  62
BRANCH  49  72
ATOM     72  C   UNL A   1      37.337  32.791  29.936  1.00  0.00    -0.014 A 
ATOM     73  C   UNL A   1      36.429  32.740  31.006  1.00  0.00     0.010 A 
ATOM     74  C   UNL A   1      36.993  33.507  28.775  1.00  0.00     0.010 A 
ATOM     75  C   UNL A   1      35.202  33.403  30.923  1.00  0.00     0.020 A 
ATOM     76  C   UNL A   1      35.776  34.188  28.696  1.00  0.00     0.020 A 
ATOM     77  C   UNL A   1      34.887  34.130  29.771  1.00  0.00     0.054 A 
BRANCH  77  78
ATOM     78  S   UNL A   1      33.335  35.071  29.725  1.00  0.00     0.124 S 
ATOM     79  O   UNL A   1      33.785  36.375  29.251  1.00  0.00    -0.237 OA
ATOM     80  O   UNL A   1      32.525  34.301  28.784  1.00  0.00    -0.237 OA
ATOM     81  O   UNL A   1      32.872  35.029  31.110  1.00  0.00    -0.744 OA
ENDBRANCH  77  78
ENDBRANCH  49  72
BRANCH  61  82
ATOM     82  C   UNL A   1      43.311  34.645  33.030  1.00  0.00    -0.014 A 
ATOM     83  C   UNL A   1      43.810  35.781  32.370  1.00  0.00     0.010 A 
ATOM     84  C   UNL A   1      43.143  34.679  34.427  1.00  0.00     0.010 A 
ATOM     85  C   UNL A   1      44.151  36.927  33.096  1.00  0.00     0.020 A 
ATOM     86  C   UNL A   1      43.466  35.828  35.153  1.00  0.00     0.020 A 
ATOM     87  C   UNL A   1      43.977  36.942  34.483  1.00  0.00     0.054 A 
BRANCH  87  88
ATOM     88  S   UNL A   1      44.374  38.458  35.399  1.00  0.00     0.124 S 
ATOM     89  O   UNL A   1      43.818  38.170  36.717  1.00  0.00    -0.237 OA
ATOM     90  O   UNL A   1      45.833  38.504  35.328  1.00  0.00    -0.237 OA
ATOM     91  O   UNL A   1      43.688  39.506  34.647  1.00  0.00    -0.744 OA
ENDBRANCH  87  88
ENDBRANCH  61  82
ENDBRANCH  35  36
ENDBRANCH  27  30
ENDBRANCH  25  26
ENDBRANCH   1  25
TORSDOF 16
ENDMDL
MODEL 3
REMARK VINA RESULT:     -11.1      2.766      3.527
REMARK SMILES O=C(NCCCCNC(=O)c1ccc(-c2c3nc(c(-c4ccc(S(=O)(=O)[O-])cc4)c4ccc([nH]4)c(-c4ccc(S(=O)(=O)[O-])cc4)c4nc(c(-c5ccc(S(=O)(=O)[O-])cc5)c5ccc2[nH]5)C=C4)C=C3)cc1)c1ccc(Cn2cc(Cl)c(=O)[nH]c2=O)cc1
REMARK SMILES IDX 6 1 5 2 4 3 3 4 1 5 2 6 71 8 72 9 86 10 73 11 85 12 74 13
REMARK SMILES IDX 75 14 76 15 77 16 83 17 78 18 82 19 84 20 79 21 80 22 81 24
REMARK SMILES IDX 7 25 8 26 9 27 10 29 11 30 12 31 70 32 13 33 69 34 14 35
REMARK SMILES IDX 15 36 16 37 63 38 17 39 68 40 62 41 64 42 18 43 67 44 61 45
REMARK SMILES IDX 60 46 19 48 49 49 30 50 48 51 31 52 34 53 47 54 65 55 32 56
REMARK SMILES IDX 33 57 46 59 66 60 35 61 20 62 21 63 29 64 22 65 28 66 23 67
REMARK SMILES IDX 24 68 25 69 26 70 27 71 50 72 51 73 59 74 52 75 58 76 53 77
REMARK SMILES IDX 54 78 55 79 56 80 57 81 36 82 37 83 45 84 38 85 44 86 39 87
REMARK SMILES IDX 40 88 41 89 42 90 43 91
REMARK H PARENT 3 7 82 23 8 28 64 47 34 58
REMARK Flexibility Score: inf
ROOT
ATOM      1  C   UNL A   1      34.265  31.082  27.595  1.00  0.00     0.023 C 
ENDROOT
BRANCH   1   2
ATOM      2  C   UNL A   1      33.607  29.743  27.262  1.00  0.00     0.023 C 
BRANCH   2   3
ATOM      3  C   UNL A   1      33.648  29.340  25.791  1.00  0.00     0.116 C 
BRANCH   3   4
ATOM      4  N   UNL A   1      32.325  29.255  25.192  1.00  0.00    -0.352 N 
ATOM      5  O   UNL A   1      30.587  28.221  24.157  1.00  0.00    -0.269 OA
ATOM      6  C   UNL A   1      31.679  28.143  24.708  1.00  0.00     0.251 C 
ATOM      7  H   UNL A   1      31.829  30.102  25.124  1.00  0.00     0.163 HD
BRANCH   6   8
ATOM      8  C   UNL A   1      32.337  26.833  24.848  1.00  0.00     0.039 A 
ATOM      9  C   UNL A   1      32.095  26.049  25.978  1.00  0.00     0.014 A 
ATOM     10  C   UNL A   1      33.252  26.428  23.875  1.00  0.00     0.014 A 
ATOM     11  C   UNL A   1      32.840  24.888  26.177  1.00  0.00     0.006 A 
ATOM     12  C   UNL A   1      34.002  25.269  24.082  1.00  0.00     0.006 A 
ATOM     13  C   UNL A   1      33.823  24.507  25.248  1.00  0.00    -0.028 A 
BRANCH  13  14
ATOM     14  C   UNL A   1      34.735  23.335  25.540  1.00  0.00     0.162 C 
BRANCH  14  15
ATOM     15  N   UNL A   1      34.025  22.051  25.469  1.00  0.00    -0.295 N 
ATOM     16  C   UNL A   1      33.486  21.632  24.263  1.00  0.00     0.117 A 
ATOM     17  C   UNL A   1      33.893  21.291  26.625  1.00  0.00     0.328 A 
ATOM     18  C   UNL A   1      32.816  20.483  24.133  1.00  0.00     0.122 A 
ATOM     19  N   UNL A   1      33.210  20.109  26.480  1.00  0.00    -0.273 N 
ATOM     20  O   UNL A   1      34.348  21.608  27.721  1.00  0.00    -0.248 OA
ATOM     21  Cl  UNL A   1      32.144  19.984  22.637  1.00  0.00    -0.077 Cl
ATOM     22  C   UNL A   1      32.663  19.616  25.325  1.00  0.00     0.272 A 
ATOM     23  H   UNL A   1      33.103  19.559  27.290  1.00  0.00     0.175 HD
ATOM     24  O   UNL A   1      32.103  18.525  25.297  1.00  0.00    -0.268 OA
ENDBRANCH  14  15
ENDBRANCH  13  14
ENDBRANCH   6   8
ENDBRANCH   3   4
ENDBRANCH   2   3
ENDBRANCH   1   2
BRANCH   1  25
ATOM     25  C   UNL A   1      35.610  31.000  28.314  1.00  0.00     0.116 C 
BRANCH  25  26
ATOM     26  N   UNL A   1      35.493  30.650  29.722  1.00  0.00    -0.352 N 
ATOM     27  C   UNL A   1      36.458  30.217  30.601  1.00  0.00     0.251 C 
ATOM     28  H   UNL A   1      34.588  30.736  30.101  1.00  0.00     0.163 HD
ATOM     29  O   UNL A   1      36.142  29.875  31.738  1.00  0.00    -0.269 OA
BRANCH  27  30
ATOM     30  C   UNL A   1      37.869  30.123  30.165  1.00  0.00     0.039 A 
ATOM     31  C   UNL A   1      38.875  30.137  31.136  1.00  0.00     0.014 A 
ATOM     32  C   UNL A   1      38.196  29.983  28.814  1.00  0.00     0.014 A 
ATOM     33  C   UNL A   1      40.201  29.903  30.761  1.00  0.00     0.010 A 
ATOM     34  C   UNL A   1      39.508  29.687  28.450  1.00  0.00     0.010 A 
ATOM     35  C   UNL A   1      40.518  29.621  29.423  1.00  0.00    -0.014 A 
BRANCH  35  36
ATOM     36  C   UNL A   1      41.879  29.175  29.029  1.00  0.00     0.031 A 
ATOM     37  C   UNL A   1      43.007  30.159  28.921  1.00  0.00     0.074 A 
ATOM     38  C   UNL A   1      42.069  27.893  28.659  1.00  0.00     0.049 A 
ATOM     39  N   UNL A   1      44.227  29.968  28.491  1.00  0.00    -0.248 NA
ATOM     40  C   UNL A   1      42.719  31.543  29.327  1.00  0.00     0.031 C 
ATOM     41  C   UNL A   1      41.040  26.849  28.664  1.00  0.00     0.029 A 
ATOM     42  N   UNL A   1      43.187  27.254  28.182  1.00  0.00    -0.354 N 
ATOM     43  C   UNL A   1      44.850  31.207  28.556  1.00  0.00     0.074 A 
ATOM     44  C   UNL A   1      43.859  32.150  29.033  1.00  0.00     0.031 C 
ATOM     45  C   UNL A   1      41.575  25.703  28.213  1.00  0.00     0.029 A 
ATOM     46  C   UNL A   1      42.971  25.937  27.854  1.00  0.00     0.049 A 
ATOM     47  H   UNL A   1      44.060  27.698  28.084  1.00  0.00     0.167 HD
ATOM     48  C   UNL A   1      46.132  31.530  28.256  1.00  0.00     0.031 A 
ATOM     49  C   UNL A   1      43.790  25.022  27.304  1.00  0.00     0.031 A 
ATOM     50  C   UNL A   1      47.115  30.594  27.781  1.00  0.00     0.049 A 
ATOM     51  C   UNL A   1      45.204  25.400  26.972  1.00  0.00     0.074 A 
ATOM     52  C   UNL A   1      48.457  30.813  27.520  1.00  0.00     0.029 A 
ATOM     53  N   UNL A   1      46.862  29.265  27.482  1.00  0.00    -0.354 N 
ATOM     54  N   UNL A   1      45.797  26.561  27.115  1.00  0.00    -0.248 NA
ATOM     55  C   UNL A   1      46.058  24.347  26.407  1.00  0.00     0.031 C 
ATOM     56  C   UNL A   1      49.004  29.625  27.019  1.00  0.00     0.029 A 
ATOM     57  C   UNL A   1      48.013  28.656  27.008  1.00  0.00     0.049 A 
ATOM     58  H   UNL A   1      45.991  28.817  27.590  1.00  0.00     0.167 HD
ATOM     59  C   UNL A   1      47.098  26.378  26.663  1.00  0.00     0.074 A 
ATOM     60  C   UNL A   1      47.210  24.990  26.259  1.00  0.00     0.031 C 
ATOM     61  C   UNL A   1      48.107  27.280  26.589  1.00  0.00     0.031 A 
BRANCH  48  62
ATOM     62  C   UNL A   1      46.528  32.973  28.424  1.00  0.00    -0.014 A 
ATOM     63  C   UNL A   1      46.228  33.927  27.435  1.00  0.00     0.010 A 
ATOM     64  C   UNL A   1      47.212  33.380  29.584  1.00  0.00     0.010 A 
ATOM     65  C   UNL A   1      46.660  35.248  27.572  1.00  0.00     0.020 A 
ATOM     66  C   UNL A   1      47.625  34.707  29.736  1.00  0.00     0.020 A 
ATOM     67  C   UNL A   1      47.369  35.626  28.716  1.00  0.00     0.054 A 
BRANCH  67  68
ATOM     68  S   UNL A   1      47.944  37.340  28.861  1.00  0.00     0.124 S 
ATOM     69  O   UNL A   1      49.171  37.312  28.068  1.00  0.00    -0.237 OA
ATOM     70  O   UNL A   1      46.841  38.103  28.282  1.00  0.00    -0.237 OA
ATOM     71  O   UNL A   1      48.135  37.520  30.298  1.00  0.00    -0.744 OA
ENDBRANCH  67  68
ENDBRANCH  48  62
BRANCH  49  72
ATOM     72  C   UNL A   1      43.272  23.655  27.033  1.00  0.00    -0.014 A 
ATOM     73  C   UNL A   1      42.938  23.267  25.725  1.00  0.00     0.010 A 
ATOM     74  C   UNL A   1      43.180  22.713  28.075  1.00  0.00     0.010 A 
ATOM     75  C   UNL A   1      42.530  21.956  25.460  1.00  0.00     0.020 A 
ATOM     76  C   UNL A   1      42.792  21.398  27.810  1.00  0.00     0.020 A 
ATOM     77  C   UNL A   1      42.468  21.028  26.503  1.00  0.00     0.054 A 
BRANCH  77  78
ATOM     78  S   UNL A   1      42.040  19.306  26.121  1.00  0.00     0.124 S 
ATOM     79  O   UNL A   1      42.473  18.610  27.328  1.00  0.00    -0.237 OA
ATOM     80  O   UNL A   1      40.595  19.376  25.915  1.00  0.00    -0.237 OA
ATOM     81  O   UNL A   1      42.818  19.022  24.917  1.00  0.00    -0.744 OA
ENDBRANCH  77  78
ENDBRANCH  49  72
BRANCH  61  82
ATOM     82  C   UNL A   1      49.423  26.799  26.043  1.00  0.00    -0.014 A 
ATOM     83  C   UNL A   1      49.778  27.041  24.705  1.00  0.00     0.010 A 
ATOM     84  C   UNL A   1      50.338  26.149  26.891  1.00  0.00     0.010 A 
ATOM     85  C   UNL A   1      51.020  26.626  24.218  1.00  0.00     0.020 A 
ATOM     86  C   UNL A   1      51.588  25.750  26.413  1.00  0.00     0.020 A 
ATOM     87  C   UNL A   1      51.918  25.982  25.075  1.00  0.00     0.054 A 
BRANCH  87  88
ATOM     88  S   UNL A   1      53.547  25.501  24.437  1.00  0.00     0.124 S 
ATOM     89  O   UNL A   1      53.578  24.072  24.730  1.00  0.00    -0.237 OA
ATOM     90  O   UNL A   1      53.455  25.851  23.021  1.00  0.00    -0.237 OA
ATOM     91  O   UNL A   1      54.477  26.318  25.213  1.00  0.00    -0.744 OA
ENDBRANCH  87  88
ENDBRANCH  61  82
ENDBRANCH  35  36
ENDBRANCH  27  30
ENDBRANCH  25  26
ENDBRANCH   1  25
TORSDOF 16
ENDMDL
