MODEL 1
REMARK VINA RESULT:     -10.4      0.000      0.000
REMARK SMILES CCOc1cc(/C=C(/F)C(=O)NCCCCNC(=O)c2ccc(-c3c4nc(c(-c5ccc(S(=O)(=O)[O-])cc5)c5ccc([nH]5)c(-c5ccc(S(=O)(=O)[O-])cc5)c5nc(c(-c6ccc(S(=O)(=O)[O-])cc6)c6ccc3[nH]6)C=C5)C=C4)cc2)ccc1O
REMARK SMILES IDX 14 1 13 2 12 3 10 4 11 5 8 7 7 8 9 9 6 10 4 11 5 12 82 13
REMARK SMILES IDX 81 14 80 15 3 16 2 17 1 18 83 19 15 21 16 22 17 23 18 24
REMARK SMILES IDX 19 26 20 27 21 28 79 29 22 30 78 31 23 32 24 33 25 34 72 35
REMARK SMILES IDX 26 36 77 37 71 38 73 39 27 40 76 41 70 42 69 43 28 45 58 46
REMARK SMILES IDX 39 47 57 48 40 49 43 50 56 51 74 52 41 53 42 54 55 56 75 57
REMARK SMILES IDX 44 58 29 59 30 60 38 61 31 62 37 63 32 64 33 65 34 66 35 67
REMARK SMILES IDX 36 68 59 69 60 70 68 71 61 72 67 73 62 74 63 75 64 76 65 77
REMARK SMILES IDX 66 78 45 79 46 80 54 81 47 82 53 83 48 84 49 85 50 86 51 87
REMARK SMILES IDX 52 88
REMARK H PARENT 12 6 83 20 17 25 73 44 43 55
REMARK Flexibility Score: inf
ROOT
ATOM      1  C   UNL A   1      36.817  21.191  25.171  1.00  0.00     0.023 C 
ENDROOT
BRANCH   1   2
ATOM      2  C   UNL A   1      37.046  22.658  24.818  1.00  0.00     0.116 C 
BRANCH   2   3
ATOM      3  N   UNL A   1      36.230  23.129  23.714  1.00  0.00    -0.350 N 
ATOM      4  C   UNL A   1      34.941  23.572  23.641  1.00  0.00     0.280 C 
ATOM      5  O   UNL A   1      34.603  24.112  22.589  1.00  0.00    -0.267 OA
ATOM      6  H   UNL A   1      36.697  23.129  22.848  1.00  0.00     0.163 HD
BRANCH   4   7
ATOM      7  C   UNL A   1      34.001  23.415  24.792  1.00  0.00     0.188 C 
ATOM      8  C   UNL A   1      33.178  22.389  25.075  1.00  0.00     0.053 C 
ATOM      9  F   UNL A   1      33.928  24.477  25.625  1.00  0.00    -0.201 F 
BRANCH   8  10
ATOM     10  C   UNL A   1      32.943  21.094  24.415  1.00  0.00    -0.019 A 
ATOM     11  C   UNL A   1      33.041  18.639  24.332  1.00  0.00     0.161 A 
ATOM     12  C   UNL A   1      33.227  19.859  25.004  1.00  0.00     0.058 A 
ATOM     13  C   UNL A   1      32.478  18.664  23.058  1.00  0.00     0.157 A 
ATOM     14  C   UNL A   1      32.097  19.878  22.486  1.00  0.00     0.051 A 
ATOM     15  C   UNL A   1      32.338  21.084  23.153  1.00  0.00     0.012 A 
BRANCH  11  16
ATOM     16  O   UNL A   1      33.441  17.586  25.097  1.00  0.00    -0.490 OA
BRANCH  16  17
ATOM     17  C   UNL A   1      32.512  16.712  25.712  1.00  0.00     0.226 C 
ATOM     18  C   UNL A   1      32.885  15.303  25.280  1.00  0.00     0.049 C 
ENDBRANCH  16  17
ENDBRANCH  11  16
BRANCH  13  19
ATOM     19  O   UNL A   1      32.249  17.564  22.287  1.00  0.00    -0.504 OA
ATOM     20  H   UNL A   1      31.565  17.575  21.645  1.00  0.00     0.293 HD
ENDBRANCH  13  19
ENDBRANCH   8  10
ENDBRANCH   4   7
ENDBRANCH   2   3
ENDBRANCH   1   2
BRANCH   1  21
ATOM     21  C   UNL A   1      38.040  20.276  25.082  1.00  0.00     0.023 C 
BRANCH  21  22
ATOM     22  C   UNL A   1      39.198  20.603  26.019  1.00  0.00     0.116 C 
BRANCH  22  23
ATOM     23  N   UNL A   1      40.271  19.626  25.967  1.00  0.00    -0.352 N 
ATOM     24  C   UNL A   1      41.628  19.799  26.089  1.00  0.00     0.251 C 
ATOM     25  H   UNL A   1      39.981  18.696  25.822  1.00  0.00     0.163 HD
ATOM     26  O   UNL A   1      42.374  18.844  25.892  1.00  0.00    -0.269 OA
BRANCH  24  27
ATOM     27  C   UNL A   1      42.199  21.126  26.425  1.00  0.00     0.039 A 
ATOM     28  C   UNL A   1      42.425  22.034  25.387  1.00  0.00     0.014 A 
ATOM     29  C   UNL A   1      42.540  21.472  27.736  1.00  0.00     0.014 A 
ATOM     30  C   UNL A   1      42.950  23.299  25.668  1.00  0.00     0.010 A 
ATOM     31  C   UNL A   1      42.986  22.761  28.025  1.00  0.00     0.010 A 
ATOM     32  C   UNL A   1      43.211  23.685  26.993  1.00  0.00    -0.014 A 
BRANCH  32  33
ATOM     33  C   UNL A   1      43.740  25.041  27.300  1.00  0.00     0.031 A 
ATOM     34  C   UNL A   1      45.185  25.376  27.030  1.00  0.00     0.074 A 
ATOM     35  C   UNL A   1      42.924  25.970  27.838  1.00  0.00     0.049 A 
ATOM     36  N   UNL A   1      45.815  26.509  27.213  1.00  0.00    -0.248 NA
ATOM     37  C   UNL A   1      46.036  24.295  26.510  1.00  0.00     0.031 C 
ATOM     38  C   UNL A   1      41.517  25.761  28.189  1.00  0.00     0.029 A 
ATOM     39  N   UNL A   1      43.159  27.279  28.182  1.00  0.00    -0.354 N 
ATOM     40  C   UNL A   1      47.134  26.274  26.839  1.00  0.00     0.074 A 
ATOM     41  C   UNL A   1      47.226  24.877  26.477  1.00  0.00     0.031 C 
ATOM     42  C   UNL A   1      41.004  26.910  28.658  1.00  0.00     0.029 A 
ATOM     43  C   UNL A   1      42.051  27.926  28.680  1.00  0.00     0.049 A 
ATOM     44  H   UNL A   1      44.036  27.713  28.080  1.00  0.00     0.167 HD
ATOM     45  C   UNL A   1      48.171  27.144  26.779  1.00  0.00     0.031 A 
ATOM     46  C   UNL A   1      41.893  29.195  29.105  1.00  0.00     0.031 A 
ATOM     47  C   UNL A   1      48.077  28.537  27.135  1.00  0.00     0.049 A 
ATOM     48  C   UNL A   1      43.062  30.141  29.037  1.00  0.00     0.074 A 
ATOM     49  C   UNL A   1      49.056  29.512  27.059  1.00  0.00     0.029 A 
ATOM     50  N   UNL A   1      46.941  29.150  27.639  1.00  0.00    -0.354 N 
ATOM     51  N   UNL A   1      44.283  29.917  28.610  1.00  0.00    -0.248 NA
ATOM     52  C   UNL A   1      42.826  31.517  29.493  1.00  0.00     0.031 C 
ATOM     53  C   UNL A   1      48.529  30.701  27.573  1.00  0.00     0.029 A 
ATOM     54  C   UNL A   1      47.202  30.485  27.904  1.00  0.00     0.049 A 
ATOM     55  H   UNL A   1      46.075  28.704  27.787  1.00  0.00     0.167 HD
ATOM     56  C   UNL A   1      44.951  31.131  28.720  1.00  0.00     0.074 A 
ATOM     57  C   UNL A   1      43.993  32.090  29.232  1.00  0.00     0.031 C 
ATOM     58  C   UNL A   1      46.241  31.427  28.424  1.00  0.00     0.031 A 
BRANCH  45  59
ATOM     59  C   UNL A   1      49.503  26.612  26.314  1.00  0.00    -0.014 A 
ATOM     60  C   UNL A   1      49.986  26.885  25.019  1.00  0.00     0.010 A 
ATOM     61  C   UNL A   1      50.303  25.861  27.194  1.00  0.00     0.010 A 
ATOM     62  C   UNL A   1      51.219  26.380  24.601  1.00  0.00     0.020 A 
ATOM     63  C   UNL A   1      51.553  25.380  26.789  1.00  0.00     0.020 A 
ATOM     64  C   UNL A   1      51.995  25.629  25.489  1.00  0.00     0.054 A 
BRANCH  64  65
ATOM     65  S   UNL A   1      53.602  25.006  24.925  1.00  0.00     0.124 S 
ATOM     66  O   UNL A   1      53.504  23.584  25.247  1.00  0.00    -0.237 OA
ATOM     67  O   UNL A   1      53.588  25.328  23.500  1.00  0.00    -0.237 OA
ATOM     68  O   UNL A   1      54.567  25.759  25.722  1.00  0.00    -0.744 OA
ENDBRANCH  64  65
ENDBRANCH  45  59
BRANCH  46  69
ATOM     69  C   UNL A   1      40.570  29.652  29.614  1.00  0.00    -0.014 A 
ATOM     70  C   UNL A   1      39.533  29.980  28.724  1.00  0.00     0.010 A 
ATOM     71  C   UNL A   1      40.339  29.758  30.999  1.00  0.00     0.010 A 
ATOM     72  C   UNL A   1      38.298  30.427  29.206  1.00  0.00     0.020 A 
ATOM     73  C   UNL A   1      39.097  30.174  31.485  1.00  0.00     0.020 A 
ATOM     74  C   UNL A   1      38.088  30.518  30.585  1.00  0.00     0.054 A 
BRANCH  74  75
ATOM     75  S   UNL A   1      36.463  31.055  31.188  1.00  0.00     0.124 S 
ATOM     76  O   UNL A   1      36.033  29.904  31.974  1.00  0.00    -0.237 OA
ATOM     77  O   UNL A   1      36.792  32.256  31.951  1.00  0.00    -0.237 OA
ATOM     78  O   UNL A   1      35.706  31.294  29.961  1.00  0.00    -0.744 OA
ENDBRANCH  74  75
ENDBRANCH  46  69
BRANCH  58  79
ATOM     79  C   UNL A   1      46.685  32.855  28.617  1.00  0.00    -0.014 A 
ATOM     80  C   UNL A   1      46.547  33.810  27.594  1.00  0.00     0.010 A 
ATOM     81  C   UNL A   1      47.225  33.252  29.854  1.00  0.00     0.010 A 
ATOM     82  C   UNL A   1      46.987  35.122  27.788  1.00  0.00     0.020 A 
ATOM     83  C   UNL A   1      47.633  34.571  30.064  1.00  0.00     0.020 A 
ATOM     84  C   UNL A   1      47.530  35.494  29.022  1.00  0.00     0.054 A 
BRANCH  84  85
ATOM     85  S   UNL A   1      48.078  37.207  29.253  1.00  0.00     0.124 S 
ATOM     86  O   UNL A   1      49.529  37.079  29.149  1.00  0.00    -0.237 OA
ATOM     87  O   UNL A   1      47.427  37.904  28.146  1.00  0.00    -0.237 OA
ATOM     88  O   UNL A   1      47.577  37.555  30.581  1.00  0.00    -0.744 OA
ENDBRANCH  84  85
ENDBRANCH  58  79
ENDBRANCH  32  33
ENDBRANCH  24  27
ENDBRANCH  22  23
ENDBRANCH  21  22
ENDBRANCH   1  21
TORSDOF 18
ENDMDL
MODEL 2
REMARK VINA RESULT:     -10.3      3.902      9.377
REMARK SMILES CCOc1cc(/C=C(/F)C(=O)NCCCCNC(=O)c2ccc(-c3c4nc(c(-c5ccc(S(=O)(=O)[O-])cc5)c5ccc([nH]5)c(-c5ccc(S(=O)(=O)[O-])cc5)c5nc(c(-c6ccc(S(=O)(=O)[O-])cc6)c6ccc3[nH]6)C=C5)C=C4)cc2)ccc1O
REMARK SMILES IDX 14 1 13 2 12 3 10 4 11 5 8 7 7 8 9 9 6 10 4 11 5 12 82 13
REMARK SMILES IDX 81 14 80 15 3 16 2 17 1 18 83 19 15 21 16 22 17 23 18 24
REMARK SMILES IDX 19 26 20 27 21 28 79 29 22 30 78 31 23 32 24 33 25 34 72 35
REMARK SMILES IDX 26 36 77 37 71 38 73 39 27 40 76 41 70 42 69 43 28 45 58 46
REMARK SMILES IDX 39 47 57 48 40 49 43 50 56 51 74 52 41 53 42 54 55 56 75 57
REMARK SMILES IDX 44 58 29 59 30 60 38 61 31 62 37 63 32 64 33 65 34 66 35 67
REMARK SMILES IDX 36 68 59 69 60 70 68 71 61 72 67 73 62 74 63 75 64 76 65 77
REMARK SMILES IDX 66 78 45 79 46 80 54 81 47 82 53 83 48 84 49 85 50 86 51 87
REMARK SMILES IDX 52 88
REMARK H PARENT 12 6 83 20 17 25 73 44 43 55
REMARK Flexibility Score: inf
ROOT
ATOM      1  C   UNL A   1      32.090  27.080  26.011  1.00  0.00     0.023 C 
ENDROOT
BRANCH   1   2
ATOM      2  C   UNL A   1      31.599  25.645  26.178  1.00  0.00     0.116 C 
BRANCH   2   3
ATOM      3  N   UNL A   1      30.823  25.157  25.052  1.00  0.00    -0.350 N 
ATOM      4  C   UNL A   1      31.156  24.849  23.765  1.00  0.00     0.280 C 
ATOM      5  O   UNL A   1      30.310  24.247  23.106  1.00  0.00    -0.267 OA
ATOM      6  H   UNL A   1      29.870  25.021  25.258  1.00  0.00     0.163 HD
BRANCH   4   7
ATOM      7  C   UNL A   1      32.488  25.221  23.199  1.00  0.00     0.188 C 
ATOM      8  C   UNL A   1      33.646  24.537  23.248  1.00  0.00     0.053 C 
ATOM      9  F   UNL A   1      32.546  26.436  22.611  1.00  0.00    -0.201 F 
BRANCH   8  10
ATOM     10  C   UNL A   1      33.999  23.222  23.810  1.00  0.00    -0.019 A 
ATOM     11  C   UNL A   1      35.458  21.723  25.101  1.00  0.00     0.161 A 
ATOM     12  C   UNL A   1      35.115  22.998  24.619  1.00  0.00     0.058 A 
ATOM     13  C   UNL A   1      34.605  20.658  24.820  1.00  0.00     0.157 A 
ATOM     14  C   UNL A   1      33.433  20.873  24.094  1.00  0.00     0.051 A 
ATOM     15  C   UNL A   1      33.138  22.141  23.583  1.00  0.00     0.012 A 
BRANCH  11  16
ATOM     16  O   UNL A   1      36.614  21.758  25.819  1.00  0.00    -0.490 OA
BRANCH  16  17
ATOM     17  C   UNL A   1      37.879  21.879  25.193  1.00  0.00     0.226 C 
ATOM     18  C   UNL A   1      38.858  22.323  26.269  1.00  0.00     0.049 C 
ENDBRANCH  16  17
ENDBRANCH  11  16
BRANCH  13  19
ATOM     19  O   UNL A   1      34.813  19.369  25.212  1.00  0.00    -0.504 OA
ATOM     20  H   UNL A   1      35.649  19.110  25.549  1.00  0.00     0.293 HD
ENDBRANCH  13  19
ENDBRANCH   8  10
ENDBRANCH   4   7
ENDBRANCH   2   3
ENDBRANCH   1   2
BRANCH   1  21
ATOM     21  C   UNL A   1      33.596  27.301  26.173  1.00  0.00     0.023 C 
BRANCH  21  22
ATOM     22  C   UNL A   1      34.143  28.631  25.665  1.00  0.00     0.116 C 
BRANCH  22  23
ATOM     23  N   UNL A   1      33.737  29.765  26.475  1.00  0.00    -0.352 N 
ATOM     24  C   UNL A   1      34.383  30.376  27.522  1.00  0.00     0.251 C 
ATOM     25  H   UNL A   1      32.866  30.157  26.237  1.00  0.00     0.163 HD
ATOM     26  O   UNL A   1      33.803  31.256  28.153  1.00  0.00    -0.269 OA
BRANCH  24  27
ATOM     27  C   UNL A   1      35.754  29.968  27.914  1.00  0.00     0.039 A 
ATOM     28  C   UNL A   1      36.783  30.112  26.980  1.00  0.00     0.014 A 
ATOM     29  C   UNL A   1      36.030  29.420  29.171  1.00  0.00     0.014 A 
ATOM     30  C   UNL A   1      38.089  29.749  27.319  1.00  0.00     0.010 A 
ATOM     31  C   UNL A   1      37.346  29.136  29.535  1.00  0.00     0.010 A 
ATOM     32  C   UNL A   1      38.389  29.282  28.609  1.00  0.00    -0.014 A 
BRANCH  32  33
ATOM     33  C   UNL A   1      39.783  28.925  28.984  1.00  0.00     0.031 A 
ATOM     34  C   UNL A   1      40.656  29.916  29.711  1.00  0.00     0.074 A 
ATOM     35  C   UNL A   1      40.274  27.713  28.654  1.00  0.00     0.049 A 
ATOM     36  N   UNL A   1      41.886  29.773  30.137  1.00  0.00    -0.248 NA
ATOM     37  C   UNL A   1      40.082  31.245  29.976  1.00  0.00     0.031 C 
ATOM     38  C   UNL A   1      39.549  26.678  27.912  1.00  0.00     0.029 A 
ATOM     39  N   UNL A   1      41.498  27.142  28.905  1.00  0.00    -0.354 N 
ATOM     40  C   UNL A   1      42.233  30.993  30.709  1.00  0.00     0.074 A 
ATOM     41  C   UNL A   1      41.107  31.881  30.523  1.00  0.00     0.031 C 
ATOM     42  C   UNL A   1      40.325  25.589  27.803  1.00  0.00     0.029 A 
ATOM     43  C   UNL A   1      41.615  25.856  28.431  1.00  0.00     0.049 A 
ATOM     44  H   UNL A   1      42.223  27.610  29.379  1.00  0.00     0.167 HD
ATOM     45  C   UNL A   1      43.375  31.337  31.352  1.00  0.00     0.031 A 
ATOM     46  C   UNL A   1      42.643  24.987  28.496  1.00  0.00     0.031 A 
ATOM     47  C   UNL A   1      44.494  30.450  31.541  1.00  0.00     0.049 A 
ATOM     48  C   UNL A   1      43.905  25.396  29.208  1.00  0.00     0.074 A 
ATOM     49  C   UNL A   1      45.674  30.688  32.223  1.00  0.00     0.029 A 
ATOM     50  N   UNL A   1      44.574  29.160  31.043  1.00  0.00    -0.354 N 
ATOM     51  N   UNL A   1      44.184  26.530  29.807  1.00  0.00    -0.248 NA
ATOM     52  C   UNL A   1      44.983  24.400  29.267  1.00  0.00     0.031 C 
ATOM     53  C   UNL A   1      46.492  29.563  32.087  1.00  0.00     0.029 A 
ATOM     54  C   UNL A   1      45.795  28.597  31.379  1.00  0.00     0.049 A 
ATOM     55  H   UNL A   1      43.868  28.708  30.525  1.00  0.00     0.167 HD
ATOM     56  C   UNL A   1      45.460  26.372  30.337  1.00  0.00     0.074 A 
ATOM     57  C   UNL A   1      45.886  25.027  30.008  1.00  0.00     0.031 C 
ATOM     58  C   UNL A   1      46.212  27.260  31.036  1.00  0.00     0.031 A 
BRANCH  45  59
ATOM     59  C   UNL A   1      43.473  32.741  31.896  1.00  0.00    -0.014 A 
ATOM     60  C   UNL A   1      43.056  33.046  33.206  1.00  0.00     0.010 A 
ATOM     61  C   UNL A   1      44.025  33.763  31.102  1.00  0.00     0.010 A 
ATOM     62  C   UNL A   1      43.148  34.352  33.694  1.00  0.00     0.020 A 
ATOM     63  C   UNL A   1      44.148  35.065  31.598  1.00  0.00     0.020 A 
ATOM     64  C   UNL A   1      43.693  35.354  32.885  1.00  0.00     0.054 A 
BRANCH  64  65
ATOM     65  S   UNL A   1      43.820  37.035  33.554  1.00  0.00     0.124 S 
ATOM     66  O   UNL A   1      45.031  36.946  34.366  1.00  0.00    -0.237 OA
ATOM     67  O   UNL A   1      43.932  37.851  32.347  1.00  0.00    -0.237 OA
ATOM     68  O   UNL A   1      42.578  37.206  34.304  1.00  0.00    -0.744 OA
ENDBRANCH  64  65
ENDBRANCH  45  59
BRANCH  46  69
ATOM     69  C   UNL A   1      42.514  23.633  27.887  1.00  0.00    -0.014 A 
ATOM     70  C   UNL A   1      42.090  22.537  28.657  1.00  0.00     0.010 A 
ATOM     71  C   UNL A   1      42.815  23.435  26.526  1.00  0.00     0.010 A 
ATOM     72  C   UNL A   1      41.989  21.264  28.085  1.00  0.00     0.020 A 
ATOM     73  C   UNL A   1      42.686  22.172  25.943  1.00  0.00     0.020 A 
ATOM     74  C   UNL A   1      42.286  21.092  26.730  1.00  0.00     0.054 A 
BRANCH  74  75
ATOM     75  S   UNL A   1      42.103  19.441  25.999  1.00  0.00     0.124 S 
ATOM     76  O   UNL A   1      42.960  19.532  24.822  1.00  0.00    -0.237 OA
ATOM     77  O   UNL A   1      42.585  18.568  27.067  1.00  0.00    -0.237 OA
ATOM     78  O   UNL A   1      40.671  19.345  25.725  1.00  0.00    -0.744 OA
ENDBRANCH  74  75
ENDBRANCH  46  69
BRANCH  58  79
ATOM     79  C   UNL A   1      47.561  26.795  31.518  1.00  0.00    -0.014 A 
ATOM     80  C   UNL A   1      48.732  27.053  30.782  1.00  0.00     0.010 A 
ATOM     81  C   UNL A   1      47.662  26.110  32.743  1.00  0.00     0.010 A 
ATOM     82  C   UNL A   1      49.970  26.591  31.238  1.00  0.00     0.020 A 
ATOM     83  C   UNL A   1      48.901  25.677  33.219  1.00  0.00     0.020 A 
ATOM     84  C   UNL A   1      50.046  25.903  32.453  1.00  0.00     0.054 A 
BRANCH  84  85
ATOM     85  S   UNL A   1      51.666  25.329  33.031  1.00  0.00     0.124 S 
ATOM     86  O   UNL A   1      51.359  23.987  33.515  1.00  0.00    -0.237 OA
ATOM     87  O   UNL A   1      52.479  25.389  31.818  1.00  0.00    -0.237 OA
ATOM     88  O   UNL A   1      52.029  26.297  34.065  1.00  0.00    -0.744 OA
ENDBRANCH  84  85
ENDBRANCH  58  79
ENDBRANCH  32  33
ENDBRANCH  24  27
ENDBRANCH  22  23
ENDBRANCH  21  22
ENDBRANCH   1  21
TORSDOF 18
ENDMDL
MODEL 3
REMARK VINA RESULT:     -10.2      4.180      9.435
REMARK SMILES CCOc1cc(/C=C(/F)C(=O)NCCCCNC(=O)c2ccc(-c3c4nc(c(-c5ccc(S(=O)(=O)[O-])cc5)c5ccc([nH]5)c(-c5ccc(S(=O)(=O)[O-])cc5)c5nc(c(-c6ccc(S(=O)(=O)[O-])cc6)c6ccc3[nH]6)C=C5)C=C4)cc2)ccc1O
REMARK SMILES IDX 14 1 13 2 12 3 10 4 11 5 8 7 7 8 9 9 6 10 4 11 5 12 82 13
REMARK SMILES IDX 81 14 80 15 3 16 2 17 1 18 83 19 15 21 16 22 17 23 18 24
REMARK SMILES IDX 19 26 20 27 21 28 79 29 22 30 78 31 23 32 24 33 25 34 72 35
REMARK SMILES IDX 26 36 77 37 71 38 73 39 27 40 76 41 70 42 69 43 28 45 58 46
REMARK SMILES IDX 39 47 57 48 40 49 43 50 56 51 74 52 41 53 42 54 55 56 75 57
REMARK SMILES IDX 44 58 29 59 30 60 38 61 31 62 37 63 32 64 33 65 34 66 35 67
REMARK SMILES IDX 36 68 59 69 60 70 68 71 61 72 67 73 62 74 63 75 64 76 65 77
REMARK SMILES IDX 66 78 45 79 46 80 54 81 47 82 53 83 48 84 49 85 50 86 51 87
REMARK SMILES IDX 52 88
REMARK H PARENT 12 6 83 20 17 25 73 44 43 55
REMARK Flexibility Score: inf
ROOT
ATOM      1  C   UNL A   1      34.237  24.817  24.407  1.00  0.00     0.023 C 
ENDROOT
BRANCH   1   2
ATOM      2  C   UNL A   1      33.492  25.221  25.676  1.00  0.00     0.116 C 
BRANCH   2   3
ATOM      3  N   UNL A   1      32.317  24.413  25.948  1.00  0.00    -0.350 N 
ATOM      4  C   UNL A   1      32.135  23.248  26.633  1.00  0.00     0.280 C 
ATOM      5  O   UNL A   1      30.973  22.924  26.872  1.00  0.00    -0.267 OA
ATOM      6  H   UNL A   1      31.489  24.778  25.561  1.00  0.00     0.163 HD
BRANCH   4   7
ATOM      7  C   UNL A   1      33.298  22.419  27.077  1.00  0.00     0.188 C 
ATOM      8  C   UNL A   1      33.696  21.216  26.628  1.00  0.00     0.053 C 
ATOM      9  F   UNL A   1      34.006  22.927  28.110  1.00  0.00    -0.201 F 
BRANCH   8  10
ATOM     10  C   UNL A   1      33.187  20.335  25.563  1.00  0.00    -0.019 A 
ATOM     11  C   UNL A   1      32.409  18.163  24.715  1.00  0.00     0.161 A 
ATOM     12  C   UNL A   1      32.844  18.995  25.760  1.00  0.00     0.058 A 
ATOM     13  C   UNL A   1      32.242  18.722  23.449  1.00  0.00     0.157 A 
ATOM     14  C   UNL A   1      32.487  20.080  23.247  1.00  0.00     0.051 A 
ATOM     15  C   UNL A   1      32.967  20.878  24.291  1.00  0.00     0.012 A 
BRANCH  11  16
ATOM     16  O   UNL A   1      32.189  16.892  25.151  1.00  0.00    -0.490 OA
BRANCH  16  17
ATOM     17  C   UNL A   1      33.255  16.025  25.496  1.00  0.00     0.226 C 
ATOM     18  C   UNL A   1      32.694  14.612  25.471  1.00  0.00     0.049 C 
ENDBRANCH  16  17
ENDBRANCH  11  16
BRANCH  13  19
ATOM     19  O   UNL A   1      31.837  18.036  22.343  1.00  0.00    -0.504 OA
ATOM     20  H   UNL A   1      30.935  17.805  22.238  1.00  0.00     0.293 HD
ENDBRANCH  13  19
ENDBRANCH   8  10
ENDBRANCH   4   7
ENDBRANCH   2   3
ENDBRANCH   1   2
BRANCH   1  21
ATOM     21  C   UNL A   1      35.338  23.767  24.577  1.00  0.00     0.023 C 
BRANCH  21  22
ATOM     22  C   UNL A   1      36.470  24.123  25.535  1.00  0.00     0.116 C 
BRANCH  22  23
ATOM     23  N   UNL A   1      37.477  23.083  25.644  1.00  0.00    -0.352 N 
ATOM     24  C   UNL A   1      38.741  23.131  26.179  1.00  0.00     0.251 C 
ATOM     25  H   UNL A   1      37.213  22.207  25.278  1.00  0.00     0.163 HD
ATOM     26  O   UNL A   1      39.480  22.158  26.060  1.00  0.00    -0.269 OA
BRANCH  24  27
ATOM     27  C   UNL A   1      39.229  24.350  26.869  1.00  0.00     0.039 A 
ATOM     28  C   UNL A   1      38.870  24.546  28.205  1.00  0.00     0.014 A 
ATOM     29  C   UNL A   1      40.005  25.309  26.211  1.00  0.00     0.014 A 
ATOM     30  C   UNL A   1      39.322  25.676  28.891  1.00  0.00     0.010 A 
ATOM     31  C   UNL A   1      40.523  26.393  26.920  1.00  0.00     0.010 A 
ATOM     32  C   UNL A   1      40.175  26.599  28.263  1.00  0.00    -0.014 A 
BRANCH  32  33
ATOM     33  C   UNL A   1      40.685  27.787  28.999  1.00  0.00     0.031 A 
ATOM     34  C   UNL A   1      39.809  28.998  29.192  1.00  0.00     0.074 A 
ATOM     35  C   UNL A   1      41.944  27.785  29.481  1.00  0.00     0.049 A 
ATOM     36  N   UNL A   1      40.074  30.114  29.825  1.00  0.00    -0.248 NA
ATOM     37  C   UNL A   1      38.471  28.962  28.580  1.00  0.00     0.031 C 
ATOM     38  C   UNL A   1      42.910  26.694  29.323  1.00  0.00     0.029 A 
ATOM     39  N   UNL A   1      42.629  28.730  30.204  1.00  0.00    -0.354 N 
ATOM     40  C   UNL A   1      38.944  30.912  29.678  1.00  0.00     0.074 A 
ATOM     41  C   UNL A   1      38.015  30.177  28.847  1.00  0.00     0.031 C 
ATOM     42  C   UNL A   1      44.044  27.014  29.966  1.00  0.00     0.029 A 
ATOM     43  C   UNL A   1      43.905  28.345  30.547  1.00  0.00     0.049 A 
ATOM     44  H   UNL A   1      42.243  29.600  30.455  1.00  0.00     0.167 HD
ATOM     45  C   UNL A   1      38.690  32.134  30.204  1.00  0.00     0.031 A 
ATOM     46  C   UNL A   1      44.857  28.988  31.251  1.00  0.00     0.031 A 
ATOM     47  C   UNL A   1      39.613  32.863  31.034  1.00  0.00     0.049 A 
ATOM     48  C   UNL A   1      44.554  30.350  31.818  1.00  0.00     0.074 A 
ATOM     49  C   UNL A   1      39.430  34.084  31.658  1.00  0.00     0.029 A 
ATOM     50  N   UNL A   1      40.895  32.441  31.353  1.00  0.00    -0.354 N 
ATOM     51  N   UNL A   1      43.450  31.055  31.729  1.00  0.00    -0.248 NA
ATOM     52  C   UNL A   1      45.620  30.994  32.596  1.00  0.00     0.031 C 
ATOM     53  C   UNL A   1      40.621  34.429  32.305  1.00  0.00     0.029 A 
ATOM     54  C   UNL A   1      41.523  33.391  32.142  1.00  0.00     0.049 A 
ATOM     55  H   UNL A   1      41.299  31.592  31.061  1.00  0.00     0.167 HD
ATOM     56  C   UNL A   1      43.682  32.213  32.462  1.00  0.00     0.074 A 
ATOM     57  C   UNL A   1      45.020  32.103  33.006  1.00  0.00     0.031 C 
ATOM     58  C   UNL A   1      42.861  33.273  32.669  1.00  0.00     0.031 A 
BRANCH  45  59
ATOM     59  C   UNL A   1      37.356  32.765  29.890  1.00  0.00    -0.014 A 
ATOM     60  C   UNL A   1      36.315  32.778  30.838  1.00  0.00     0.010 A 
ATOM     61  C   UNL A   1      37.152  33.389  28.646  1.00  0.00     0.010 A 
ATOM     62  C   UNL A   1      35.083  33.361  30.531  1.00  0.00     0.020 A 
ATOM     63  C   UNL A   1      35.931  34.002  28.346  1.00  0.00     0.020 A 
ATOM     64  C   UNL A   1      34.898  33.969  29.286  1.00  0.00     0.054 A 
BRANCH  64  65
ATOM     65  S   UNL A   1      33.296  34.738  28.924  1.00  0.00     0.124 S 
ATOM     66  O   UNL A   1      33.699  36.036  28.388  1.00  0.00    -0.237 OA
ATOM     67  O   UNL A   1      32.710  33.814  27.956  1.00  0.00    -0.237 OA
ATOM     68  O   UNL A   1      32.630  34.781  30.223  1.00  0.00    -0.744 OA
ENDBRANCH  64  65
ENDBRANCH  45  59
BRANCH  46  69
ATOM     69  C   UNL A   1      46.180  28.344  31.479  1.00  0.00    -0.014 A 
ATOM     70  C   UNL A   1      46.395  27.519  32.597  1.00  0.00     0.010 A 
ATOM     71  C   UNL A   1      47.237  28.551  30.571  1.00  0.00     0.010 A 
ATOM     72  C   UNL A   1      47.645  26.931  32.816  1.00  0.00     0.020 A 
ATOM     73  C   UNL A   1      48.478  27.941  30.770  1.00  0.00     0.020 A 
ATOM     74  C   UNL A   1      48.678  27.144  31.898  1.00  0.00     0.054 A 
BRANCH  74  75
ATOM     75  S   UNL A   1      50.277  26.334  32.179  1.00  0.00     0.124 S 
ATOM     76  O   UNL A   1      49.938  24.925  32.013  1.00  0.00    -0.237 OA
ATOM     77  O   UNL A   1      51.112  26.912  31.129  1.00  0.00    -0.237 OA
ATOM     78  O   UNL A   1      50.630  26.738  33.538  1.00  0.00    -0.744 OA
ENDBRANCH  74  75
ENDBRANCH  46  69
BRANCH  58  79
ATOM     79  C   UNL A   1      43.375  34.386  33.545  1.00  0.00    -0.014 A 
ATOM     80  C   UNL A   1      44.094  35.469  33.009  1.00  0.00     0.010 A 
ATOM     81  C   UNL A   1      43.110  34.359  34.927  1.00  0.00     0.010 A 
ATOM     82  C   UNL A   1      44.581  36.478  33.845  1.00  0.00     0.020 A 
ATOM     83  C   UNL A   1      43.565  35.383  35.761  1.00  0.00     0.020 A 
ATOM     84  C   UNL A   1      44.316  36.427  35.217  1.00  0.00     0.054 A 
BRANCH  84  85
ATOM     85  S   UNL A   1      44.944  37.757  36.277  1.00  0.00     0.124 S 
ATOM     86  O   UNL A   1      44.309  38.936  35.695  1.00  0.00    -0.237 OA
ATOM     87  O   UNL A   1      44.458  37.369  37.600  1.00  0.00    -0.237 OA
ATOM     88  O   UNL A   1      46.394  37.681  36.106  1.00  0.00    -0.744 OA
ENDBRANCH  84  85
ENDBRANCH  58  79
ENDBRANCH  32  33
ENDBRANCH  24  27
ENDBRANCH  22  23
ENDBRANCH  21  22
ENDBRANCH   1  21
TORSDOF 18
ENDMDL
