MODEL 1
REMARK VINA RESULT:     -11.7      0.000      0.000
REMARK SMILES O=C(C[C@H](CNC(=O)c1ccccn1)c1ccc(Cl)cc1)NCCCCNC(=O)c1ccc(-c2c3nc(c(-c4ccc(S(=O)(=O)[O-])cc4)c4ccc([nH]4)c(-c4ccc(S(=O)(=O)[O-])cc4)c4nc(c(-c5ccc(S(=O)(=O)[O-])cc5)c5ccc2[nH]5)C=C4)C=C3)cc1
REMARK SMILES IDX 24 1 23 2 22 3 1 4 2 5 3 7 4 8 15 9 16 10 21 11 17 12 20 13
REMARK SMILES IDX 18 14 19 15 5 16 6 17 7 18 8 20 9 21 10 22 14 23 11 24 13 25
REMARK SMILES IDX 12 26 25 27 26 28 27 29 28 30 29 32 30 33 31 34 89 35 32 36
REMARK SMILES IDX 88 37 33 38 34 39 35 40 82 41 36 42 87 43 81 44 83 45 37 46
REMARK SMILES IDX 86 47 80 48 79 49 38 51 68 52 49 53 67 54 50 55 53 56 66 57
REMARK SMILES IDX 84 58 51 59 52 60 65 62 85 63 54 64 39 65 40 66 48 67 41 68
REMARK SMILES IDX 47 69 42 70 43 71 44 72 45 73 46 74 69 75 70 76 78 77 71 78
REMARK SMILES IDX 77 79 72 80 73 81 74 82 75 83 76 84 55 85 56 86 64 87 57 88
REMARK SMILES IDX 63 89 58 90 59 91 60 92 61 93 62 94
REMARK H PARENT 22 6 6 19 27 31 83 50 53 61
REMARK Flexibility Score: inf
ROOT
ATOM      1  C   UNL A   1      32.913  29.367  26.748  1.00  0.00     0.023 C 
ENDROOT
BRANCH   1   2
ATOM      2  C   UNL A   1      32.431  29.541  25.309  1.00  0.00     0.116 C 
BRANCH   2   3
ATOM      3  N   UNL A   1      31.598  28.440  24.872  1.00  0.00    -0.356 N 
ATOM      4  O   UNL A   1      32.939  27.815  23.115  1.00  0.00    -0.275 OA
ATOM      5  C   UNL A   1      31.939  27.642  23.804  1.00  0.00     0.220 C 
ATOM      6  H   UNL A   1      30.760  28.256  25.354  1.00  0.00     0.163 HD
BRANCH   5   7
ATOM      7  C   UNL A   1      30.960  26.519  23.537  1.00  0.00     0.110 C 
BRANCH   7   8
ATOM      8  C   UNL A   1      31.211  25.254  24.375  1.00  0.00     0.048 C 
BRANCH   8   9
ATOM      9  C   UNL A   1      32.571  24.609  24.095  1.00  0.00    -0.043 A 
ATOM     10  C   UNL A   1      33.652  24.887  24.947  1.00  0.00     0.005 A 
ATOM     11  C   UNL A   1      32.806  23.783  22.979  1.00  0.00     0.005 A 
ATOM     12  C   UNL A   1      34.930  24.394  24.668  1.00  0.00     0.021 A 
ATOM     13  C   UNL A   1      34.085  23.304  22.690  1.00  0.00     0.021 A 
ATOM     14  C   UNL A   1      35.144  23.617  23.532  1.00  0.00     0.041 A 
ATOM     15  Cl  UNL A   1      36.725  23.051  23.162  1.00  0.00    -0.084 Cl
ENDBRANCH   8   9
BRANCH   8  16
ATOM     16  C   UNL A   1      30.978  25.429  25.887  1.00  0.00     0.125 C 
BRANCH  16  17
ATOM     17  N   UNL A   1      29.975  24.574  26.487  1.00  0.00    -0.350 N 
ATOM     18  C   UNL A   1      30.174  23.287  26.959  1.00  0.00     0.269 C 
ATOM     19  H   UNL A   1      29.066  24.943  26.567  1.00  0.00     0.163 HD
ATOM     20  O   UNL A   1      29.236  22.704  27.496  1.00  0.00    -0.268 OA
BRANCH  18  21
ATOM     21  C   UNL A   1      31.511  22.633  26.794  1.00  0.00     0.128 A 
ATOM     22  C   UNL A   1      31.744  21.749  25.743  1.00  0.00     0.034 A 
ATOM     23  N   UNL A   1      32.415  22.892  27.770  1.00  0.00    -0.251 NA
ATOM     24  C   UNL A   1      32.956  21.064  25.717  1.00  0.00     0.004 A 
ATOM     25  C   UNL A   1      33.597  22.247  27.688  1.00  0.00     0.112 A 
ATOM     26  C   UNL A   1      33.902  21.318  26.704  1.00  0.00     0.020 A 
ENDBRANCH  18  21
ENDBRANCH  16  17
ENDBRANCH   8  16
ENDBRANCH   7   8
ENDBRANCH   5   7
ENDBRANCH   2   3
ENDBRANCH   1   2
BRANCH   1  27
ATOM     27  C   UNL A   1      34.207  28.565  26.911  1.00  0.00     0.023 C 
BRANCH  27  28
ATOM     28  C   UNL A   1      35.409  29.355  27.418  1.00  0.00     0.116 C 
BRANCH  28  29
ATOM     29  N   UNL A   1      35.293  29.706  28.824  1.00  0.00    -0.352 N 
ATOM     30  C   UNL A   1      36.252  29.704  29.808  1.00  0.00     0.251 C 
ATOM     31  H   UNL A   1      34.395  29.987  29.114  1.00  0.00     0.163 HD
ATOM     32  O   UNL A   1      35.916  29.861  30.982  1.00  0.00    -0.269 OA
BRANCH  30  33
ATOM     33  C   UNL A   1      37.678  29.494  29.469  1.00  0.00     0.039 A 
ATOM     34  C   UNL A   1      38.574  29.164  30.490  1.00  0.00     0.014 A 
ATOM     35  C   UNL A   1      38.138  29.632  28.157  1.00  0.00     0.014 A 
ATOM     36  C   UNL A   1      39.913  28.905  30.185  1.00  0.00     0.010 A 
ATOM     37  C   UNL A   1      39.455  29.300  27.842  1.00  0.00     0.010 A 
ATOM     38  C   UNL A   1      40.358  28.933  28.852  1.00  0.00    -0.014 A 
BRANCH  38  39
ATOM     39  C   UNL A   1      41.756  28.568  28.498  1.00  0.00     0.031 A 
ATOM     40  C   UNL A   1      42.836  29.618  28.467  1.00  0.00     0.074 A 
ATOM     41  C   UNL A   1      42.045  27.299  28.141  1.00  0.00     0.049 A 
ATOM     42  N   UNL A   1      44.096  29.497  28.133  1.00  0.00    -0.248 NA
ATOM     43  C   UNL A   1      42.445  30.987  28.841  1.00  0.00     0.031 C 
ATOM     44  C   UNL A   1      41.084  26.194  28.094  1.00  0.00     0.029 A 
ATOM     45  N   UNL A   1      43.228  26.725  27.744  1.00  0.00    -0.354 N 
ATOM     46  C   UNL A   1      44.641  30.771  28.237  1.00  0.00     0.074 A 
ATOM     47  C   UNL A   1      43.566  31.659  28.621  1.00  0.00     0.031 C 
ATOM     48  C   UNL A   1      41.722  25.073  27.722  1.00  0.00     0.029 A 
ATOM     49  C   UNL A   1      43.123  25.385  27.455  1.00  0.00     0.049 A 
ATOM     50  H   UNL A   1      44.073  27.226  27.673  1.00  0.00     0.167 HD
ATOM     51  C   UNL A   1      45.924  31.165  28.046  1.00  0.00     0.031 A 
ATOM     52  C   UNL A   1      44.044  24.505  27.015  1.00  0.00     0.031 A 
ATOM     53  C   UNL A   1      46.993  30.278  27.668  1.00  0.00     0.049 A 
ATOM     54  C   UNL A   1      45.455  24.973  26.785  1.00  0.00     0.074 A 
ATOM     55  C   UNL A   1      48.337  30.572  27.509  1.00  0.00     0.029 A 
ATOM     56  N   UNL A   1      46.844  28.929  27.381  1.00  0.00    -0.354 N 
ATOM     57  N   UNL A   1      45.967  26.168  26.960  1.00  0.00    -0.248 NA
ATOM     58  C   UNL A   1      46.417  23.970  26.307  1.00  0.00     0.031 C 
ATOM     59  C   UNL A   1      48.987  29.417  27.064  1.00  0.00     0.029 A 
ATOM     60  C   UNL A   1      48.064  28.385  27.016  1.00  0.00     0.049 A 
ATOM     61  H   UNL A   1      45.995  28.432  27.430  1.00  0.00     0.167 HD
ATOM     62  C   UNL A   1      47.316  26.052  26.645  1.00  0.00     0.074 A 
ATOM     63  C   UNL A   1      47.544  24.667  26.283  1.00  0.00     0.031 C 
ATOM     64  C   UNL A   1      48.281  27.006  26.657  1.00  0.00     0.031 A 
BRANCH  51  65
ATOM     65  C   UNL A   1      46.242  32.629  28.226  1.00  0.00    -0.014 A 
ATOM     66  C   UNL A   1      46.532  33.162  29.495  1.00  0.00     0.010 A 
ATOM     67  C   UNL A   1      46.299  33.473  27.102  1.00  0.00     0.010 A 
ATOM     68  C   UNL A   1      46.829  34.519  29.643  1.00  0.00     0.020 A 
ATOM     69  C   UNL A   1      46.627  34.825  27.241  1.00  0.00     0.020 A 
ATOM     70  C   UNL A   1      46.872  35.344  28.514  1.00  0.00     0.054 A 
BRANCH  70  71
ATOM     71  S   UNL A   1      47.277  37.098  28.734  1.00  0.00     0.124 S 
ATOM     72  O   UNL A   1      46.929  37.312  30.136  1.00  0.00    -0.237 OA
ATOM     73  O   UNL A   1      48.703  37.137  28.427  1.00  0.00    -0.237 OA
ATOM     74  O   UNL A   1      46.415  37.776  27.770  1.00  0.00    -0.744 OA
ENDBRANCH  70  71
ENDBRANCH  51  65
BRANCH  52  75
ATOM     75  C   UNL A   1      43.663  23.085  26.775  1.00  0.00    -0.014 A 
ATOM     76  C   UNL A   1      43.018  22.340  27.779  1.00  0.00     0.010 A 
ATOM     77  C   UNL A   1      43.937  22.469  25.540  1.00  0.00     0.010 A 
ATOM     78  C   UNL A   1      42.673  21.002  27.559  1.00  0.00     0.020 A 
ATOM     79  C   UNL A   1      43.565  21.142  25.305  1.00  0.00     0.020 A 
ATOM     80  C   UNL A   1      42.946  20.413  26.322  1.00  0.00     0.054 A 
BRANCH  80  81
ATOM     81  S   UNL A   1      42.444  18.691  26.046  1.00  0.00     0.124 S 
ATOM     82  O   UNL A   1      43.347  18.279  24.977  1.00  0.00    -0.237 OA
ATOM     83  O   UNL A   1      42.687  18.080  27.351  1.00  0.00    -0.237 OA
ATOM     84  O   UNL A   1      41.037  18.801  25.670  1.00  0.00    -0.744 OA
ENDBRANCH  80  81
ENDBRANCH  52  75
BRANCH  64  85
ATOM     85  C   UNL A   1      49.685  26.582  26.310  1.00  0.00    -0.014 A 
ATOM     86  C   UNL A   1      50.516  25.952  27.253  1.00  0.00     0.010 A 
ATOM     87  C   UNL A   1      50.159  26.768  24.998  1.00  0.00     0.010 A 
ATOM     88  C   UNL A   1      51.806  25.546  26.899  1.00  0.00     0.020 A 
ATOM     89  C   UNL A   1      51.434  26.335  24.631  1.00  0.00     0.020 A 
ATOM     90  C   UNL A   1      52.256  25.739  25.589  1.00  0.00     0.054 A 
BRANCH  90  91
ATOM     91  S   UNL A   1      53.918  25.162  25.143  1.00  0.00     0.124 S 
ATOM     92  O   UNL A   1      53.695  23.737  24.917  1.00  0.00    -0.237 OA
ATOM     93  O   UNL A   1      54.219  25.948  23.949  1.00  0.00    -0.237 OA
ATOM     94  O   UNL A   1      54.724  25.487  26.318  1.00  0.00    -0.744 OA
ENDBRANCH  90  91
ENDBRANCH  64  85
ENDBRANCH  38  39
ENDBRANCH  30  33
ENDBRANCH  28  29
ENDBRANCH  27  28
ENDBRANCH   1  27
TORSDOF 19
ENDMDL
MODEL 2
REMARK VINA RESULT:     -11.7      3.497      4.736
REMARK SMILES O=C(C[C@H](CNC(=O)c1ccccn1)c1ccc(Cl)cc1)NCCCCNC(=O)c1ccc(-c2c3nc(c(-c4ccc(S(=O)(=O)[O-])cc4)c4ccc([nH]4)c(-c4ccc(S(=O)(=O)[O-])cc4)c4nc(c(-c5ccc(S(=O)(=O)[O-])cc5)c5ccc2[nH]5)C=C4)C=C3)cc1
REMARK SMILES IDX 24 1 23 2 22 3 1 4 2 5 3 7 4 8 15 9 16 10 21 11 17 12 20 13
REMARK SMILES IDX 18 14 19 15 5 16 6 17 7 18 8 20 9 21 10 22 14 23 11 24 13 25
REMARK SMILES IDX 12 26 25 27 26 28 27 29 28 30 29 32 30 33 31 34 89 35 32 36
REMARK SMILES IDX 88 37 33 38 34 39 35 40 82 41 36 42 87 43 81 44 83 45 37 46
REMARK SMILES IDX 86 47 80 48 79 49 38 51 68 52 49 53 67 54 50 55 53 56 66 57
REMARK SMILES IDX 84 58 51 59 52 60 65 62 85 63 54 64 39 65 40 66 48 67 41 68
REMARK SMILES IDX 47 69 42 70 43 71 44 72 45 73 46 74 69 75 70 76 78 77 71 78
REMARK SMILES IDX 77 79 72 80 73 81 74 82 75 83 76 84 55 85 56 86 64 87 57 88
REMARK SMILES IDX 63 89 58 90 59 91 60 92 61 93 62 94
REMARK H PARENT 22 6 6 19 27 31 83 50 53 61
REMARK Flexibility Score: inf
ROOT
ATOM      1  C   UNL A   1      31.746  27.218  25.760  1.00  0.00     0.023 C 
ENDROOT
BRANCH   1   2
ATOM      2  C   UNL A   1      30.625  26.184  25.860  1.00  0.00     0.116 C 
BRANCH   2   3
ATOM      3  N   UNL A   1      31.022  24.892  25.340  1.00  0.00    -0.356 N 
ATOM      4  O   UNL A   1      30.609  23.725  27.274  1.00  0.00    -0.275 OA
ATOM      5  C   UNL A   1      30.961  23.746  26.100  1.00  0.00     0.220 C 
ATOM      6  H   UNL A   1      31.348  24.831  24.413  1.00  0.00     0.163 HD
BRANCH   5   7
ATOM      7  C   UNL A   1      31.377  22.494  25.358  1.00  0.00     0.110 C 
BRANCH   7   8
ATOM      8  C   UNL A   1      32.760  21.954  25.760  1.00  0.00     0.048 C 
BRANCH   8   9
ATOM      9  C   UNL A   1      33.120  20.644  25.053  1.00  0.00    -0.043 A 
ATOM     10  C   UNL A   1      32.158  20.009  24.251  1.00  0.00     0.005 A 
ATOM     11  C   UNL A   1      34.368  20.012  25.213  1.00  0.00     0.005 A 
ATOM     12  C   UNL A   1      32.419  18.765  23.669  1.00  0.00     0.021 A 
ATOM     13  C   UNL A   1      34.624  18.762  24.645  1.00  0.00     0.021 A 
ATOM     14  C   UNL A   1      33.645  18.140  23.881  1.00  0.00     0.041 A 
ATOM     15  Cl  UNL A   1      33.948  16.588  23.205  1.00  0.00    -0.084 Cl
ENDBRANCH   8   9
BRANCH   8  16
ATOM     16  C   UNL A   1      33.905  22.978  25.652  1.00  0.00     0.125 C 
BRANCH  16  17
ATOM     17  N   UNL A   1      34.344  23.313  24.315  1.00  0.00    -0.350 N 
ATOM     18  C   UNL A   1      35.651  23.296  23.854  1.00  0.00     0.269 C 
ATOM     19  H   UNL A   1      33.648  23.579  23.671  1.00  0.00     0.163 HD
ATOM     20  O   UNL A   1      35.864  23.552  22.673  1.00  0.00    -0.268 OA
BRANCH  18  21
ATOM     21  C   UNL A   1      36.767  22.983  24.802  1.00  0.00     0.128 A 
ATOM     22  C   UNL A   1      37.270  23.961  25.656  1.00  0.00     0.034 A 
ATOM     23  N   UNL A   1      37.293  21.737  24.697  1.00  0.00    -0.251 NA
ATOM     24  C   UNL A   1      38.398  23.656  26.414  1.00  0.00     0.004 A 
ATOM     25  C   UNL A   1      38.356  21.461  25.481  1.00  0.00     0.112 A 
ATOM     26  C   UNL A   1      38.951  22.383  26.329  1.00  0.00     0.020 A 
ENDBRANCH  18  21
ENDBRANCH  16  17
ENDBRANCH   8  16
ENDBRANCH   7   8
ENDBRANCH   5   7
ENDBRANCH   2   3
ENDBRANCH   1   2
BRANCH   1  27
ATOM     27  C   UNL A   1      33.115  26.748  26.259  1.00  0.00     0.023 C 
BRANCH  27  28
ATOM     28  C   UNL A   1      34.210  27.808  26.261  1.00  0.00     0.116 C 
BRANCH  28  29
ATOM     29  N   UNL A   1      33.727  29.109  26.695  1.00  0.00    -0.352 N 
ATOM     30  C   UNL A   1      34.315  30.027  27.532  1.00  0.00     0.251 C 
ATOM     31  H   UNL A   1      32.848  29.370  26.336  1.00  0.00     0.163 HD
ATOM     32  O   UNL A   1      33.663  30.995  27.922  1.00  0.00    -0.269 OA
BRANCH  30  33
ATOM     33  C   UNL A   1      35.714  29.848  27.982  1.00  0.00     0.039 A 
ATOM     34  C   UNL A   1      35.953  29.425  29.292  1.00  0.00     0.014 A 
ATOM     35  C   UNL A   1      36.788  30.105  27.126  1.00  0.00     0.014 A 
ATOM     36  C   UNL A   1      37.264  29.194  29.721  1.00  0.00     0.010 A 
ATOM     37  C   UNL A   1      38.087  29.801  27.529  1.00  0.00     0.010 A 
ATOM     38  C   UNL A   1      38.341  29.343  28.831  1.00  0.00    -0.014 A 
BRANCH  38  39
ATOM     39  C   UNL A   1      39.732  29.011  29.241  1.00  0.00     0.031 A 
ATOM     40  C   UNL A   1      40.573  30.019  29.980  1.00  0.00     0.074 A 
ATOM     41  C   UNL A   1      40.264  27.821  28.893  1.00  0.00     0.049 A 
ATOM     42  N   UNL A   1      41.818  29.928  30.372  1.00  0.00    -0.248 NA
ATOM     43  C   UNL A   1      39.937  31.307  30.304  1.00  0.00     0.031 C 
ATOM     44  C   UNL A   1      39.570  26.770  28.146  1.00  0.00     0.029 A 
ATOM     45  N   UNL A   1      41.514  27.298  29.116  1.00  0.00    -0.354 N 
ATOM     46  C   UNL A   1      42.121  31.146  30.968  1.00  0.00     0.074 A 
ATOM     47  C   UNL A   1      40.944  31.978  30.847  1.00  0.00     0.031 C 
ATOM     48  C   UNL A   1      40.392  25.718  28.000  1.00  0.00     0.029 A 
ATOM     49  C   UNL A   1      41.686  26.035  28.596  1.00  0.00     0.049 A 
ATOM     50  H   UNL A   1      42.222  27.780  29.602  1.00  0.00     0.167 HD
ATOM     51  C   UNL A   1      43.268  31.533  31.576  1.00  0.00     0.031 A 
ATOM     52  C   UNL A   1      42.763  25.226  28.589  1.00  0.00     0.031 A 
ATOM     53  C   UNL A   1      44.437  30.701  31.701  1.00  0.00     0.049 A 
ATOM     54  C   UNL A   1      44.034  25.690  29.248  1.00  0.00     0.074 A 
ATOM     55  C   UNL A   1      45.627  30.982  32.351  1.00  0.00     0.029 A 
ATOM     56  N   UNL A   1      44.570  29.432  31.157  1.00  0.00    -0.354 N 
ATOM     57  N   UNL A   1      44.276  26.818  29.872  1.00  0.00    -0.248 NA
ATOM     58  C   UNL A   1      45.176  24.764  29.212  1.00  0.00     0.031 C 
ATOM     59  C   UNL A   1      46.500  29.910  32.147  1.00  0.00     0.029 A 
ATOM     60  C   UNL A   1      45.833  28.930  31.432  1.00  0.00     0.049 A 
ATOM     61  H   UNL A   1      43.871  28.957  30.652  1.00  0.00     0.167 HD
ATOM     62  C   UNL A   1      45.586  26.725  30.329  1.00  0.00     0.074 A 
ATOM     63  C   UNL A   1      46.079  25.424  29.924  1.00  0.00     0.031 C 
ATOM     64  C   UNL A   1      46.314  27.634  31.024  1.00  0.00     0.031 A 
BRANCH  51  65
ATOM     65  C   UNL A   1      43.324  32.930  32.143  1.00  0.00    -0.014 A 
ATOM     66  C   UNL A   1      43.055  33.178  33.501  1.00  0.00     0.010 A 
ATOM     67  C   UNL A   1      43.701  34.003  31.315  1.00  0.00     0.010 A 
ATOM     68  C   UNL A   1      43.116  34.479  34.009  1.00  0.00     0.020 A 
ATOM     69  C   UNL A   1      43.794  35.301  31.827  1.00  0.00     0.020 A 
ATOM     70  C   UNL A   1      43.484  35.533  33.167  1.00  0.00     0.054 A 
BRANCH  70  71
ATOM     71  S   UNL A   1      43.571  37.207  33.859  1.00  0.00     0.124 S 
ATOM     72  O   UNL A   1      43.952  37.996  32.689  1.00  0.00    -0.237 OA
ATOM     73  O   UNL A   1      42.212  37.423  34.347  1.00  0.00    -0.237 OA
ATOM     74  O   UNL A   1      44.594  37.102  34.896  1.00  0.00    -0.744 OA
ENDBRANCH  70  71
ENDBRANCH  51  65
BRANCH  52  75
ATOM     75  C   UNL A   1      42.683  23.884  27.947  1.00  0.00    -0.014 A 
ATOM     76  C   UNL A   1      42.287  22.759  28.693  1.00  0.00     0.010 A 
ATOM     77  C   UNL A   1      42.997  23.722  26.585  1.00  0.00     0.010 A 
ATOM     78  C   UNL A   1      42.226  21.496  28.094  1.00  0.00     0.020 A 
ATOM     79  C   UNL A   1      42.906  22.468  25.975  1.00  0.00     0.020 A 
ATOM     80  C   UNL A   1      42.533  21.360  26.737  1.00  0.00     0.054 A 
BRANCH  80  81
ATOM     81  S   UNL A   1      42.397  19.720  25.973  1.00  0.00     0.124 S 
ATOM     82  O   UNL A   1      43.440  19.772  24.954  1.00  0.00    -0.237 OA
ATOM     83  O   UNL A   1      42.658  18.826  27.100  1.00  0.00    -0.237 OA
ATOM     84  O   UNL A   1      41.027  19.690  25.468  1.00  0.00    -0.744 OA
ENDBRANCH  80  81
ENDBRANCH  52  75
BRANCH  64  85
ATOM     85  C   UNL A   1      47.711  27.242  31.433  1.00  0.00    -0.014 A 
ATOM     86  C   UNL A   1      48.837  27.682  30.715  1.00  0.00     0.010 A 
ATOM     87  C   UNL A   1      47.900  26.466  32.592  1.00  0.00     0.010 A 
ATOM     88  C   UNL A   1      50.123  27.325  31.129  1.00  0.00     0.020 A 
ATOM     89  C   UNL A   1      49.184  26.134  33.028  1.00  0.00     0.020 A 
ATOM     90  C   UNL A   1      50.288  26.555  32.285  1.00  0.00     0.054 A 
BRANCH  90  91
ATOM     91  S   UNL A   1      51.971  26.144  32.826  1.00  0.00     0.124 S 
ATOM     92  O   UNL A   1      52.272  27.239  33.744  1.00  0.00    -0.237 OA
ATOM     93  O   UNL A   1      51.795  24.833  33.447  1.00  0.00    -0.237 OA
ATOM     94  O   UNL A   1      52.743  26.142  31.585  1.00  0.00    -0.744 OA
ENDBRANCH  90  91
ENDBRANCH  64  85
ENDBRANCH  38  39
ENDBRANCH  30  33
ENDBRANCH  28  29
ENDBRANCH  27  28
ENDBRANCH   1  27
TORSDOF 19
ENDMDL
MODEL 3
REMARK VINA RESULT:     -11.7      6.290      8.346
REMARK SMILES O=C(C[C@H](CNC(=O)c1ccccn1)c1ccc(Cl)cc1)NCCCCNC(=O)c1ccc(-c2c3nc(c(-c4ccc(S(=O)(=O)[O-])cc4)c4ccc([nH]4)c(-c4ccc(S(=O)(=O)[O-])cc4)c4nc(c(-c5ccc(S(=O)(=O)[O-])cc5)c5ccc2[nH]5)C=C4)C=C3)cc1
REMARK SMILES IDX 24 1 23 2 22 3 1 4 2 5 3 7 4 8 15 9 16 10 21 11 17 12 20 13
REMARK SMILES IDX 18 14 19 15 5 16 6 17 7 18 8 20 9 21 10 22 14 23 11 24 13 25
REMARK SMILES IDX 12 26 25 27 26 28 27 29 28 30 29 32 30 33 31 34 89 35 32 36
REMARK SMILES IDX 88 37 33 38 34 39 35 40 82 41 36 42 87 43 81 44 83 45 37 46
REMARK SMILES IDX 86 47 80 48 79 49 38 51 68 52 49 53 67 54 50 55 53 56 66 57
REMARK SMILES IDX 84 58 51 59 52 60 65 62 85 63 54 64 39 65 40 66 48 67 41 68
REMARK SMILES IDX 47 69 42 70 43 71 44 72 45 73 46 74 69 75 70 76 78 77 71 78
REMARK SMILES IDX 77 79 72 80 73 81 74 82 75 83 76 84 55 85 56 86 64 87 57 88
REMARK SMILES IDX 63 89 58 90 59 91 60 92 61 93 62 94
REMARK H PARENT 22 6 6 19 27 31 83 50 53 61
REMARK Flexibility Score: inf
ROOT
ATOM      1  C   UNL A   1      31.782  30.735  26.353  1.00  0.00     0.023 C 
ENDROOT
BRANCH   1   2
ATOM      2  C   UNL A   1      33.067  30.060  26.832  1.00  0.00     0.116 C 
BRANCH   2   3
ATOM      3  N   UNL A   1      32.947  28.617  26.870  1.00  0.00    -0.356 N 
ATOM      4  O   UNL A   1      33.846  28.253  24.789  1.00  0.00    -0.275 OA
ATOM      5  C   UNL A   1      33.373  27.819  25.833  1.00  0.00     0.220 C 
ATOM      6  H   UNL A   1      32.546  28.193  27.662  1.00  0.00     0.163 HD
BRANCH   5   7
ATOM      7  C   UNL A   1      33.201  26.337  26.087  1.00  0.00     0.110 C 
BRANCH   7   8
ATOM      8  C   UNL A   1      33.259  25.469  24.818  1.00  0.00     0.048 C 
BRANCH   8   9
ATOM      9  C   UNL A   1      34.383  24.429  24.855  1.00  0.00    -0.043 A 
ATOM     10  C   UNL A   1      35.331  24.478  25.889  1.00  0.00     0.005 A 
ATOM     11  C   UNL A   1      34.542  23.447  23.858  1.00  0.00     0.005 A 
ATOM     12  C   UNL A   1      36.424  23.606  25.901  1.00  0.00     0.021 A 
ATOM     13  C   UNL A   1      35.642  22.587  23.860  1.00  0.00     0.021 A 
ATOM     14  C   UNL A   1      36.583  22.674  24.879  1.00  0.00     0.041 A 
ATOM     15  Cl  UNL A   1      37.952  21.634  24.867  1.00  0.00    -0.084 Cl
ENDBRANCH   8   9
BRANCH   8  16
ATOM     16  C   UNL A   1      31.918  24.827  24.417  1.00  0.00     0.125 C 
BRANCH  16  17
ATOM     17  N   UNL A   1      30.918  24.724  25.459  1.00  0.00    -0.350 N 
ATOM     18  C   UNL A   1      30.800  23.695  26.380  1.00  0.00     0.269 C 
ATOM     19  H   UNL A   1      30.260  25.453  25.518  1.00  0.00     0.163 HD
ATOM     20  O   UNL A   1      29.931  23.774  27.244  1.00  0.00    -0.268 OA
BRANCH  18  21
ATOM     21  C   UNL A   1      31.715  22.513  26.295  1.00  0.00     0.128 A 
ATOM     22  C   UNL A   1      32.767  22.362  27.195  1.00  0.00     0.034 A 
ATOM     23  N   UNL A   1      31.499  21.680  25.247  1.00  0.00    -0.251 NA
ATOM     24  C   UNL A   1      33.669  21.323  26.984  1.00  0.00     0.004 A 
ATOM     25  C   UNL A   1      32.366  20.655  25.100  1.00  0.00     0.112 A 
ATOM     26  C   UNL A   1      33.465  20.451  25.920  1.00  0.00     0.020 A 
ENDBRANCH  18  21
ENDBRANCH  16  17
ENDBRANCH   8  16
ENDBRANCH   7   8
ENDBRANCH   5   7
ENDBRANCH   2   3
ENDBRANCH   1   2
BRANCH   1  27
ATOM     27  C   UNL A   1      31.593  32.183  26.815  1.00  0.00     0.023 C 
BRANCH  27  28
ATOM     28  C   UNL A   1      32.845  32.867  27.355  1.00  0.00     0.116 C 
BRANCH  28  29
ATOM     29  N   UNL A   1      32.600  34.243  27.755  1.00  0.00    -0.352 N 
ATOM     30  C   UNL A   1      33.151  34.965  28.787  1.00  0.00     0.251 C 
ATOM     31  H   UNL A   1      31.943  34.729  27.205  1.00  0.00     0.163 HD
ATOM     32  O   UNL A   1      32.679  36.065  29.075  1.00  0.00    -0.269 OA
BRANCH  30  33
ATOM     33  C   UNL A   1      34.288  34.422  29.564  1.00  0.00     0.039 A 
ATOM     34  C   UNL A   1      34.037  33.827  30.803  1.00  0.00     0.014 A 
ATOM     35  C   UNL A   1      35.598  34.506  29.083  1.00  0.00     0.014 A 
ATOM     36  C   UNL A   1      35.088  33.257  31.527  1.00  0.00     0.010 A 
ATOM     37  C   UNL A   1      36.632  33.871  29.769  1.00  0.00     0.010 A 
ATOM     38  C   UNL A   1      36.390  33.239  30.998  1.00  0.00    -0.014 A 
BRANCH  38  39
ATOM     39  C   UNL A   1      37.503  32.554  31.710  1.00  0.00     0.031 A 
ATOM     40  C   UNL A   1      37.984  33.062  33.044  1.00  0.00     0.074 A 
ATOM     41  C   UNL A   1      38.124  31.509  31.126  1.00  0.00     0.049 A 
ATOM     42  N   UNL A   1      38.971  32.626  33.786  1.00  0.00    -0.248 NA
ATOM     43  C   UNL A   1      37.277  34.222  33.610  1.00  0.00     0.031 C 
ATOM     44  C   UNL A   1      37.780  30.940  29.821  1.00  0.00     0.029 A 
ATOM     45  N   UNL A   1      39.181  30.741  31.552  1.00  0.00    -0.354 N 
ATOM     46  C   UNL A   1      39.017  33.468  34.891  1.00  0.00     0.074 A 
ATOM     47  C   UNL A   1      37.988  34.467  34.702  1.00  0.00     0.031 C 
ATOM     48  C   UNL A   1      38.588  29.899  29.567  1.00  0.00     0.029 A 
ATOM     49  C   UNL A   1      39.540  29.753  30.664  1.00  0.00     0.049 A 
ATOM     50  H   UNL A   1      39.639  30.885  32.412  1.00  0.00     0.167 HD
ATOM     51  C   UNL A   1      39.829  33.405  35.973  1.00  0.00     0.031 A 
ATOM     52  C   UNL A   1      40.528  28.839  30.719  1.00  0.00     0.031 A 
ATOM     53  C   UNL A   1      40.849  32.407  36.162  1.00  0.00     0.049 A 
ATOM     54  C   UNL A   1      41.435  28.808  31.920  1.00  0.00     0.074 A 
ATOM     55  C   UNL A   1      41.684  32.226  37.252  1.00  0.00     0.029 A 
ATOM     56  N   UNL A   1      41.183  31.427  35.238  1.00  0.00    -0.354 N 
ATOM     57  N   UNL A   1      41.413  29.566  32.989  1.00  0.00    -0.248 NA
ATOM     58  C   UNL A   1      42.493  27.788  31.926  1.00  0.00     0.031 C 
ATOM     59  C   UNL A   1      42.563  31.178  36.960  1.00  0.00     0.029 A 
ATOM     60  C   UNL A   1      42.230  30.659  35.720  1.00  0.00     0.049 A 
ATOM     61  H   UNL A   1      40.740  31.297  34.368  1.00  0.00     0.167 HD
ATOM     62  C   UNL A   1      42.433  29.095  33.808  1.00  0.00     0.074 A 
ATOM     63  C   UNL A   1      43.042  27.976  33.117  1.00  0.00     0.031 C 
ATOM     64  C   UNL A   1      42.829  29.547  35.025  1.00  0.00     0.031 A 
BRANCH  51  65
ATOM     65  C   UNL A   1      39.661  34.462  37.037  1.00  0.00    -0.014 A 
ATOM     66  C   UNL A   1      38.983  34.187  38.238  1.00  0.00     0.010 A 
ATOM     67  C   UNL A   1      40.235  35.733  36.854  1.00  0.00     0.010 A 
ATOM     68  C   UNL A   1      38.840  35.176  39.215  1.00  0.00     0.020 A 
ATOM     69  C   UNL A   1      40.122  36.717  37.842  1.00  0.00     0.020 A 
ATOM     70  C   UNL A   1      39.410  36.437  39.009  1.00  0.00     0.054 A 
BRANCH  70  71
ATOM     71  S   UNL A   1      39.224  37.696  40.301  1.00  0.00     0.124 S 
ATOM     72  O   UNL A   1      38.703  36.908  41.415  1.00  0.00    -0.237 OA
ATOM     73  O   UNL A   1      40.588  38.190  40.464  1.00  0.00    -0.237 OA
ATOM     74  O   UNL A   1      38.282  38.651  39.722  1.00  0.00    -0.744 OA
ENDBRANCH  70  71
ENDBRANCH  51  65
BRANCH  52  75
ATOM     75  C   UNL A   1      40.705  27.865  29.605  1.00  0.00    -0.014 A 
ATOM     76  C   UNL A   1      41.770  28.007  28.697  1.00  0.00     0.010 A 
ATOM     77  C   UNL A   1      39.815  26.787  29.448  1.00  0.00     0.010 A 
ATOM     78  C   UNL A   1      41.928  27.102  27.642  1.00  0.00     0.020 A 
ATOM     79  C   UNL A   1      39.989  25.862  28.414  1.00  0.00     0.020 A 
ATOM     80  C   UNL A   1      41.038  26.032  27.510  1.00  0.00     0.054 A 
BRANCH  80  81
ATOM     81  S   UNL A   1      41.295  24.844  26.164  1.00  0.00     0.124 S 
ATOM     82  O   UNL A   1      42.556  24.218  26.547  1.00  0.00    -0.237 OA
ATOM     83  O   UNL A   1      40.110  23.995  26.264  1.00  0.00    -0.237 OA
ATOM     84  O   UNL A   1      41.349  25.685  24.971  1.00  0.00    -0.744 OA
ENDBRANCH  80  81
ENDBRANCH  52  75
BRANCH  64  85
ATOM     85  C   UNL A   1      43.947  28.807  35.714  1.00  0.00    -0.014 A 
ATOM     86  C   UNL A   1      45.289  29.195  35.558  1.00  0.00     0.010 A 
ATOM     87  C   UNL A   1      43.639  27.739  36.576  1.00  0.00     0.010 A 
ATOM     88  C   UNL A   1      46.305  28.507  36.227  1.00  0.00     0.020 A 
ATOM     89  C   UNL A   1      44.648  27.069  37.272  1.00  0.00     0.020 A 
ATOM     90  C   UNL A   1      45.978  27.449  37.082  1.00  0.00     0.054 A 
BRANCH  90  91
ATOM     91  S   UNL A   1      47.312  26.602  37.974  1.00  0.00     0.124 S 
ATOM     92  O   UNL A   1      48.405  26.652  37.007  1.00  0.00    -0.237 OA
ATOM     93  O   UNL A   1      47.483  27.438  39.160  1.00  0.00    -0.237 OA
ATOM     94  O   UNL A   1      46.767  25.270  38.229  1.00  0.00    -0.744 OA
ENDBRANCH  90  91
ENDBRANCH  64  85
ENDBRANCH  38  39
ENDBRANCH  30  33
ENDBRANCH  28  29
ENDBRANCH  27  28
ENDBRANCH   1  27
TORSDOF 19
ENDMDL
