MODEL 1
REMARK VINA RESULT:     -10.8      0.000      0.000
REMARK SMILES C[C@@H](C(=O)NCCCCNC(=O)c1ccc(-c2c3nc(c(-c4ccc(S(=O)(=O)[O-])cc4)c4ccc([nH]4)c(-c4ccc(S(=O)(=O)[O-])cc4)c4nc(c(-c5ccc(S(=O)(=O)[O-])cc5)c5ccc2[nH]5)C=C4)C=C3)cc1)c1ccc(C[C@H]2CCC[C@@H]2O)cc1
REMARK SMILES IDX 7 1 6 2 5 3 3 4 4 5 2 7 1 8 73 9 74 10 85 11 75 12 84 13
REMARK SMILES IDX 76 14 77 15 78 16 79 17 82 18 80 19 81 20 83 21 8 23 9 24
REMARK SMILES IDX 10 25 11 26 12 28 13 29 14 30 72 31 15 32 71 33 16 34 17 35
REMARK SMILES IDX 18 36 65 37 19 38 70 39 64 40 66 41 20 42 69 43 63 44 62 45
REMARK SMILES IDX 21 47 51 48 32 49 50 50 33 51 36 52 49 53 67 54 34 55 35 56
REMARK SMILES IDX 48 58 68 59 37 60 22 61 23 62 31 63 24 64 30 65 25 66 26 67
REMARK SMILES IDX 27 68 28 69 29 70 52 71 53 72 61 73 54 74 60 75 55 76 56 77
REMARK SMILES IDX 57 78 58 79 59 80 38 81 39 82 47 83 40 84 46 85 41 86 42 87
REMARK SMILES IDX 43 88 44 89 45 90
REMARK H PARENT 5 6 83 22 10 27 66 46 36 57
REMARK Flexibility Score: inf
ROOT
ATOM      1  C   UNL A   1      35.284  24.135  23.834  1.00  0.00     0.023 C 
ENDROOT
BRANCH   1   2
ATOM      2  C   UNL A   1      34.224  25.162  24.247  1.00  0.00     0.116 C 
BRANCH   2   3
ATOM      3  N   UNL A   1      33.662  25.820  23.084  1.00  0.00    -0.356 N 
ATOM      4  C   UNL A   1      32.471  25.603  22.451  1.00  0.00     0.227 C 
ATOM      5  O   UNL A   1      32.378  26.022  21.296  1.00  0.00    -0.274 OA
ATOM      6  H   UNL A   1      34.223  26.529  22.692  1.00  0.00     0.163 HD
BRANCH   4   7
ATOM      7  C   UNL A   1      31.334  24.871  23.191  1.00  0.00     0.105 C 
ATOM      8  C   UNL A   1      30.884  25.750  24.365  1.00  0.00     0.023 C 
BRANCH   7   9
ATOM      9  C   UNL A   1      31.661  23.439  23.640  1.00  0.00    -0.036 A 
ATOM     10  C   UNL A   1      32.132  22.466  22.746  1.00  0.00     0.005 A 
ATOM     11  C   UNL A   1      31.441  23.033  24.967  1.00  0.00     0.005 A 
ATOM     12  C   UNL A   1      32.448  21.173  23.173  1.00  0.00     0.004 A 
ATOM     13  C   UNL A   1      31.732  21.733  25.391  1.00  0.00     0.004 A 
ATOM     14  C   UNL A   1      32.234  20.786  24.496  1.00  0.00    -0.048 A 
BRANCH  14  15
ATOM     15  C   UNL A   1      32.516  19.379  24.959  1.00  0.00     0.041 C 
BRANCH  15  16
ATOM     16  C   UNL A   1      33.445  18.544  24.061  1.00  0.00     0.022 C 
ATOM     17  C   UNL A   1      34.704  17.973  24.736  1.00  0.00     0.007 C 
ATOM     18  C   UNL A   1      32.788  17.345  23.371  1.00  0.00     0.117 C 
ATOM     19  C   UNL A   1      34.873  16.555  24.186  1.00  0.00     0.003 C 
ATOM     20  C   UNL A   1      33.980  16.495  22.959  1.00  0.00     0.032 C 
BRANCH  18  21
ATOM     21  O   UNL A   1      32.041  17.739  22.234  1.00  0.00    -0.393 OA
ATOM     22  H   UNL A   1      31.263  18.246  22.518  1.00  0.00     0.210 HD
ENDBRANCH  18  21
ENDBRANCH  15  16
ENDBRANCH  14  15
ENDBRANCH   7   9
ENDBRANCH   4   7
ENDBRANCH   2   3
ENDBRANCH   1   2
BRANCH   1  23
ATOM     23  C   UNL A   1      35.496  22.994  24.832  1.00  0.00     0.023 C 
BRANCH  23  24
ATOM     24  C   UNL A   1      36.453  23.314  25.969  1.00  0.00     0.116 C 
BRANCH  24  25
ATOM     25  N   UNL A   1      37.599  22.417  26.005  1.00  0.00    -0.352 N 
ATOM     26  C   UNL A   1      38.898  22.716  26.340  1.00  0.00     0.251 C 
ATOM     27  H   UNL A   1      37.421  21.481  25.761  1.00  0.00     0.163 HD
ATOM     28  O   UNL A   1      39.787  21.885  26.193  1.00  0.00    -0.269 OA
BRANCH  26  29
ATOM     29  C   UNL A   1      39.205  24.068  26.846  1.00  0.00     0.039 A 
ATOM     30  C   UNL A   1      38.952  24.368  28.187  1.00  0.00     0.014 A 
ATOM     31  C   UNL A   1      39.805  25.009  26.006  1.00  0.00     0.014 A 
ATOM     32  C   UNL A   1      39.368  25.596  28.706  1.00  0.00     0.010 A 
ATOM     33  C   UNL A   1      40.277  26.200  26.541  1.00  0.00     0.010 A 
ATOM     34  C   UNL A   1      40.065  26.505  27.895  1.00  0.00    -0.014 A 
BRANCH  34  35
ATOM     35  C   UNL A   1      40.588  27.789  28.420  1.00  0.00     0.031 A 
ATOM     36  C   UNL A   1      42.012  27.869  28.891  1.00  0.00     0.074 A 
ATOM     37  C   UNL A   1      39.757  28.836  28.588  1.00  0.00     0.049 A 
ATOM     38  N   UNL A   1      42.614  28.827  29.546  1.00  0.00    -0.248 NA
ATOM     39  C   UNL A   1      42.859  26.697  28.619  1.00  0.00     0.031 C 
ATOM     40  C   UNL A   1      38.344  28.869  28.207  1.00  0.00     0.029 A 
ATOM     41  N   UNL A   1      39.978  30.066  29.155  1.00  0.00    -0.354 N 
ATOM     42  C   UNL A   1      43.895  28.356  29.805  1.00  0.00     0.074 A 
ATOM     43  C   UNL A   1      43.972  27.017  29.262  1.00  0.00     0.031 C 
ATOM     44  C   UNL A   1      37.826  30.060  28.547  1.00  0.00     0.029 A 
ATOM     45  C   UNL A   1      38.855  30.856  29.210  1.00  0.00     0.049 A 
ATOM     46  H   UNL A   1      40.857  30.354  29.491  1.00  0.00     0.167 HD
ATOM     47  C   UNL A   1      44.918  28.985  30.432  1.00  0.00     0.031 A 
ATOM     48  C   UNL A   1      38.667  32.076  29.751  1.00  0.00     0.031 A 
ATOM     49  C   UNL A   1      44.841  30.324  30.950  1.00  0.00     0.049 A 
ATOM     50  C   UNL A   1      39.820  32.771  30.417  1.00  0.00     0.074 A 
ATOM     51  C   UNL A   1      45.837  31.075  31.546  1.00  0.00     0.029 A 
ATOM     52  N   UNL A   1      43.700  31.113  30.930  1.00  0.00    -0.354 N 
ATOM     53  N   UNL A   1      41.042  32.333  30.609  1.00  0.00    -0.248 NA
ATOM     54  C   UNL A   1      39.577  34.126  30.928  1.00  0.00     0.031 C 
ATOM     55  C   UNL A   1      45.290  32.308  31.919  1.00  0.00     0.029 A 
ATOM     56  C   UNL A   1      43.964  32.340  31.513  1.00  0.00     0.049 A 
ATOM     57  H   UNL A   1      42.831  30.840  30.556  1.00  0.00     0.167 HD
ATOM     58  C   UNL A   1      41.721  33.368  31.241  1.00  0.00     0.074 A 
ATOM     59  C   UNL A   1      40.775  34.455  31.396  1.00  0.00     0.031 C 
ATOM     60  C   UNL A   1      43.012  33.415  31.651  1.00  0.00     0.031 A 
BRANCH  47  61
ATOM     61  C   UNL A   1      46.194  28.207  30.606  1.00  0.00    -0.014 A 
ATOM     62  C   UNL A   1      46.424  27.430  31.756  1.00  0.00     0.010 A 
ATOM     63  C   UNL A   1      47.186  28.269  29.611  1.00  0.00     0.010 A 
ATOM     64  C   UNL A   1      47.651  26.789  31.941  1.00  0.00     0.020 A 
ATOM     65  C   UNL A   1      48.405  27.604  29.779  1.00  0.00     0.020 A 
ATOM     66  C   UNL A   1      48.639  26.892  30.957  1.00  0.00     0.054 A 
BRANCH  66  67
ATOM     67  S   UNL A   1      50.235  26.075  31.232  1.00  0.00     0.124 S 
ATOM     68  O   UNL A   1      50.224  25.044  30.196  1.00  0.00    -0.237 OA
ATOM     69  O   UNL A   1      51.194  27.158  31.028  1.00  0.00    -0.237 OA
ATOM     70  O   UNL A   1      50.139  25.582  32.603  1.00  0.00    -0.744 OA
ENDBRANCH  66  67
ENDBRANCH  47  61
BRANCH  48  71
ATOM     71  C   UNL A   1      37.327  32.714  29.660  1.00  0.00    -0.014 A 
ATOM     72  C   UNL A   1      36.515  32.822  30.802  1.00  0.00     0.010 A 
ATOM     73  C   UNL A   1      36.888  33.280  28.449  1.00  0.00     0.010 A 
ATOM     74  C   UNL A   1      35.289  33.489  30.737  1.00  0.00     0.020 A 
ATOM     75  C   UNL A   1      35.671  33.966  28.386  1.00  0.00     0.020 A 
ATOM     76  C   UNL A   1      34.878  34.065  29.531  1.00  0.00     0.054 A 
BRANCH  76  77
ATOM     77  S   UNL A   1      33.330  35.012  29.496  1.00  0.00     0.124 S 
ATOM     78  O   UNL A   1      32.578  34.328  28.449  1.00  0.00    -0.237 OA
ATOM     79  O   UNL A   1      32.822  34.839  30.856  1.00  0.00    -0.237 OA
ATOM     80  O   UNL A   1      33.767  36.367  29.172  1.00  0.00    -0.744 OA
ENDBRANCH  76  77
ENDBRANCH  48  71
BRANCH  60  81
ATOM     81  C   UNL A   1      43.503  34.695  32.268  1.00  0.00    -0.014 A 
ATOM     82  C   UNL A   1      43.966  35.756  31.471  1.00  0.00     0.010 A 
ATOM     83  C   UNL A   1      43.411  34.867  33.661  1.00  0.00     0.010 A 
ATOM     84  C   UNL A   1      44.338  36.967  32.061  1.00  0.00     0.020 A 
ATOM     85  C   UNL A   1      43.763  36.083  34.251  1.00  0.00     0.020 A 
ATOM     86  C   UNL A   1      44.231  37.124  33.447  1.00  0.00     0.054 A 
BRANCH  86  87
ATOM     87  S   UNL A   1      44.648  38.730  34.182  1.00  0.00     0.124 S 
ATOM     88  O   UNL A   1      45.968  38.472  34.748  1.00  0.00    -0.237 OA
ATOM     89  O   UNL A   1      44.623  39.628  33.030  1.00  0.00    -0.237 OA
ATOM     90  O   UNL A   1      43.582  38.950  35.158  1.00  0.00    -0.744 OA
ENDBRANCH  86  87
ENDBRANCH  60  81
ENDBRANCH  34  35
ENDBRANCH  26  29
ENDBRANCH  24  25
ENDBRANCH  23  24
ENDBRANCH   1  23
TORSDOF 18
ENDMDL
MODEL 2
REMARK VINA RESULT:     -10.8      1.727      4.039
REMARK SMILES C[C@@H](C(=O)NCCCCNC(=O)c1ccc(-c2c3nc(c(-c4ccc(S(=O)(=O)[O-])cc4)c4ccc([nH]4)c(-c4ccc(S(=O)(=O)[O-])cc4)c4nc(c(-c5ccc(S(=O)(=O)[O-])cc5)c5ccc2[nH]5)C=C4)C=C3)cc1)c1ccc(C[C@H]2CCC[C@@H]2O)cc1
REMARK SMILES IDX 7 1 6 2 5 3 3 4 4 5 2 7 1 8 73 9 74 10 85 11 75 12 84 13
REMARK SMILES IDX 76 14 77 15 78 16 79 17 82 18 80 19 81 20 83 21 8 23 9 24
REMARK SMILES IDX 10 25 11 26 12 28 13 29 14 30 72 31 15 32 71 33 16 34 17 35
REMARK SMILES IDX 18 36 65 37 19 38 70 39 64 40 66 41 20 42 69 43 63 44 62 45
REMARK SMILES IDX 21 47 51 48 32 49 50 50 33 51 36 52 49 53 67 54 34 55 35 56
REMARK SMILES IDX 48 58 68 59 37 60 22 61 23 62 31 63 24 64 30 65 25 66 26 67
REMARK SMILES IDX 27 68 28 69 29 70 52 71 53 72 61 73 54 74 60 75 55 76 56 77
REMARK SMILES IDX 57 78 58 79 59 80 38 81 39 82 47 83 40 84 46 85 41 86 42 87
REMARK SMILES IDX 43 88 44 89 45 90
REMARK H PARENT 5 6 83 22 10 27 66 46 36 57
REMARK Flexibility Score: inf
ROOT
ATOM      1  C   UNL A   1      36.020  21.820  24.187  1.00  0.00     0.023 C 
ENDROOT
BRANCH   1   2
ATOM      2  C   UNL A   1      35.244  21.063  25.271  1.00  0.00     0.116 C 
BRANCH   2   3
ATOM      3  N   UNL A   1      33.842  20.953  24.919  1.00  0.00    -0.356 N 
ATOM      4  C   UNL A   1      32.760  21.607  25.438  1.00  0.00     0.227 C 
ATOM      5  O   UNL A   1      31.659  21.092  25.236  1.00  0.00    -0.274 OA
ATOM      6  H   UNL A   1      33.640  20.312  24.199  1.00  0.00     0.163 HD
BRANCH   4   7
ATOM      7  C   UNL A   1      32.962  22.918  26.221  1.00  0.00     0.105 C 
ATOM      8  C   UNL A   1      32.131  22.839  27.509  1.00  0.00     0.023 C 
BRANCH   7   9
ATOM      9  C   UNL A   1      32.675  24.203  25.432  1.00  0.00    -0.036 A 
ATOM     10  C   UNL A   1      32.452  24.194  24.047  1.00  0.00     0.005 A 
ATOM     11  C   UNL A   1      32.682  25.457  26.068  1.00  0.00     0.005 A 
ATOM     12  C   UNL A   1      32.168  25.369  23.344  1.00  0.00     0.004 A 
ATOM     13  C   UNL A   1      32.424  26.636  25.364  1.00  0.00     0.004 A 
ATOM     14  C   UNL A   1      32.169  26.605  23.991  1.00  0.00    -0.048 A 
BRANCH  14  15
ATOM     15  C   UNL A   1      31.921  27.887  23.236  1.00  0.00     0.041 C 
BRANCH  15  16
ATOM     16  C   UNL A   1      30.524  28.045  22.613  1.00  0.00     0.022 C 
ATOM     17  C   UNL A   1      29.372  27.337  23.347  1.00  0.00     0.007 C 
ATOM     18  C   UNL A   1      30.046  29.489  22.428  1.00  0.00     0.117 C 
ATOM     19  C   UNL A   1      28.187  28.304  23.306  1.00  0.00     0.003 C 
ATOM     20  C   UNL A   1      28.545  29.329  22.245  1.00  0.00     0.032 C 
BRANCH  18  21
ATOM     21  O   UNL A   1      30.627  30.090  21.285  1.00  0.00    -0.393 OA
ATOM     22  H   UNL A   1      31.499  30.448  21.514  1.00  0.00     0.210 HD
ENDBRANCH  18  21
ENDBRANCH  15  16
ENDBRANCH  14  15
ENDBRANCH   7   9
ENDBRANCH   4   7
ENDBRANCH   2   3
ENDBRANCH   1   2
BRANCH   1  23
ATOM     23  C   UNL A   1      36.115  23.332  24.405  1.00  0.00     0.023 C 
BRANCH  23  24
ATOM     24  C   UNL A   1      37.037  23.755  25.538  1.00  0.00     0.116 C 
BRANCH  24  25
ATOM     25  N   UNL A   1      38.164  22.850  25.710  1.00  0.00    -0.352 N 
ATOM     26  C   UNL A   1      39.389  23.119  26.271  1.00  0.00     0.251 C 
ATOM     27  H   UNL A   1      38.031  21.931  25.383  1.00  0.00     0.163 HD
ATOM     28  O   UNL A   1      40.292  22.292  26.224  1.00  0.00    -0.269 OA
BRANCH  26  29
ATOM     29  C   UNL A   1      39.604  24.436  26.901  1.00  0.00     0.039 A 
ATOM     30  C   UNL A   1      39.147  24.653  28.203  1.00  0.00     0.014 A 
ATOM     31  C   UNL A   1      40.318  25.427  26.222  1.00  0.00     0.014 A 
ATOM     32  C   UNL A   1      39.469  25.845  28.854  1.00  0.00     0.010 A 
ATOM     33  C   UNL A   1      40.694  26.582  26.895  1.00  0.00     0.010 A 
ATOM     34  C   UNL A   1      40.275  26.802  28.217  1.00  0.00    -0.014 A 
BRANCH  34  35
ATOM     35  C   UNL A   1      40.701  28.050  28.893  1.00  0.00     0.031 A 
ATOM     36  C   UNL A   1      42.048  28.108  29.556  1.00  0.00     0.074 A 
ATOM     37  C   UNL A   1      39.838  29.077  29.019  1.00  0.00     0.049 A 
ATOM     38  N   UNL A   1      42.540  29.023  30.349  1.00  0.00    -0.248 NA
ATOM     39  C   UNL A   1      42.944  26.964  29.321  1.00  0.00     0.031 C 
ATOM     40  C   UNL A   1      38.488  29.126  28.454  1.00  0.00     0.029 A 
ATOM     41  N   UNL A   1      39.961  30.266  29.693  1.00  0.00    -0.354 N 
ATOM     42  C   UNL A   1      43.784  28.545  30.746  1.00  0.00     0.074 A 
ATOM     43  C   UNL A   1      43.955  27.247  30.129  1.00  0.00     0.031 C 
ATOM     44  C   UNL A   1      37.909  30.286  28.802  1.00  0.00     0.029 A 
ATOM     45  C   UNL A   1      38.827  31.042  29.650  1.00  0.00     0.049 A 
ATOM     46  H   UNL A   1      40.782  30.537  30.163  1.00  0.00     0.167 HD
ATOM     47  C   UNL A   1      44.702  29.136  31.546  1.00  0.00     0.031 A 
ATOM     48  C   UNL A   1      38.548  32.219  30.242  1.00  0.00     0.031 A 
ATOM     49  C   UNL A   1      44.535  30.435  32.138  1.00  0.00     0.049 A 
ATOM     50  C   UNL A   1      39.590  32.875  31.103  1.00  0.00     0.074 A 
ATOM     51  C   UNL A   1      45.430  31.150  32.913  1.00  0.00     0.029 A 
ATOM     52  N   UNL A   1      43.394  31.215  32.019  1.00  0.00    -0.354 N 
ATOM     53  N   UNL A   1      40.782  32.434  31.428  1.00  0.00    -0.248 NA
ATOM     54  C   UNL A   1      39.258  34.190  31.668  1.00  0.00     0.031 C 
ATOM     55  C   UNL A   1      44.817  32.349  33.292  1.00  0.00     0.029 A 
ATOM     56  C   UNL A   1      43.557  32.400  32.715  1.00  0.00     0.049 A 
ATOM     57  H   UNL A   1      42.587  30.962  31.514  1.00  0.00     0.167 HD
ATOM     58  C   UNL A   1      41.354  33.428  32.214  1.00  0.00     0.074 A 
ATOM     59  C   UNL A   1      40.377  34.494  32.314  1.00  0.00     0.031 C 
ATOM     60  C   UNL A   1      42.577  33.455  32.796  1.00  0.00     0.031 A 
BRANCH  47  61
ATOM     61  C   UNL A   1      45.957  28.357  31.837  1.00  0.00    -0.014 A 
ATOM     62  C   UNL A   1      46.045  27.506  32.954  1.00  0.00     0.010 A 
ATOM     63  C   UNL A   1      47.071  28.493  30.989  1.00  0.00     0.010 A 
ATOM     64  C   UNL A   1      47.247  26.863  33.258  1.00  0.00     0.020 A 
ATOM     65  C   UNL A   1      48.267  27.827  31.274  1.00  0.00     0.020 A 
ATOM     66  C   UNL A   1      48.355  27.039  32.423  1.00  0.00     0.054 A 
BRANCH  66  67
ATOM     67  S   UNL A   1      49.913  26.217  32.853  1.00  0.00     0.124 S 
ATOM     68  O   UNL A   1      50.897  27.231  32.483  1.00  0.00    -0.237 OA
ATOM     69  O   UNL A   1      49.769  25.977  34.287  1.00  0.00    -0.237 OA
ATOM     70  O   UNL A   1      49.911  25.017  32.021  1.00  0.00    -0.744 OA
ENDBRANCH  66  67
ENDBRANCH  47  61
BRANCH  48  71
ATOM     71  C   UNL A   1      37.222  32.853  30.016  1.00  0.00    -0.014 A 
ATOM     72  C   UNL A   1      36.308  32.981  31.075  1.00  0.00     0.010 A 
ATOM     73  C   UNL A   1      36.895  33.393  28.758  1.00  0.00     0.010 A 
ATOM     74  C   UNL A   1      35.093  33.644  30.885  1.00  0.00     0.020 A 
ATOM     75  C   UNL A   1      35.689  34.075  28.569  1.00  0.00     0.020 A 
ATOM     76  C   UNL A   1      34.794  34.194  29.634  1.00  0.00     0.054 A 
BRANCH  76  77
ATOM     77  S   UNL A   1      33.255  35.137  29.439  1.00  0.00     0.124 S 
ATOM     78  O   UNL A   1      32.665  35.035  30.769  1.00  0.00    -0.237 OA
ATOM     79  O   UNL A   1      33.741  36.463  29.062  1.00  0.00    -0.237 OA
ATOM     80  O   UNL A   1      32.548  34.419  28.381  1.00  0.00    -0.744 OA
ENDBRANCH  76  77
ENDBRANCH  48  71
BRANCH  60  81
ATOM     81  C   UNL A   1      42.960  34.693  33.559  1.00  0.00    -0.014 A 
ATOM     82  C   UNL A   1      42.851  34.747  34.959  1.00  0.00     0.010 A 
ATOM     83  C   UNL A   1      43.523  35.782  32.868  1.00  0.00     0.010 A 
ATOM     84  C   UNL A   1      43.291  35.877  35.655  1.00  0.00     0.020 A 
ATOM     85  C   UNL A   1      43.982  36.903  33.563  1.00  0.00     0.020 A 
ATOM     86  C   UNL A   1      43.857  36.946  34.952  1.00  0.00     0.054 A 
BRANCH  86  87
ATOM     87  S   UNL A   1      44.491  38.369  35.883  1.00  0.00     0.124 S 
ATOM     88  O   UNL A   1      44.061  39.491  35.053  1.00  0.00    -0.237 OA
ATOM     89  O   UNL A   1      43.809  38.242  37.170  1.00  0.00    -0.237 OA
ATOM     90  O   UNL A   1      45.933  38.139  35.925  1.00  0.00    -0.744 OA
ENDBRANCH  86  87
ENDBRANCH  60  81
ENDBRANCH  34  35
ENDBRANCH  26  29
ENDBRANCH  24  25
ENDBRANCH  23  24
ENDBRANCH   1  23
TORSDOF 18
ENDMDL
MODEL 3
REMARK VINA RESULT:     -10.7      3.814      5.807
REMARK SMILES C[C@@H](C(=O)NCCCCNC(=O)c1ccc(-c2c3nc(c(-c4ccc(S(=O)(=O)[O-])cc4)c4ccc([nH]4)c(-c4ccc(S(=O)(=O)[O-])cc4)c4nc(c(-c5ccc(S(=O)(=O)[O-])cc5)c5ccc2[nH]5)C=C4)C=C3)cc1)c1ccc(C[C@H]2CCC[C@@H]2O)cc1
REMARK SMILES IDX 7 1 6 2 5 3 3 4 4 5 2 7 1 8 73 9 74 10 85 11 75 12 84 13
REMARK SMILES IDX 76 14 77 15 78 16 79 17 82 18 80 19 81 20 83 21 8 23 9 24
REMARK SMILES IDX 10 25 11 26 12 28 13 29 14 30 72 31 15 32 71 33 16 34 17 35
REMARK SMILES IDX 18 36 65 37 19 38 70 39 64 40 66 41 20 42 69 43 63 44 62 45
REMARK SMILES IDX 21 47 51 48 32 49 50 50 33 51 36 52 49 53 67 54 34 55 35 56
REMARK SMILES IDX 48 58 68 59 37 60 22 61 23 62 31 63 24 64 30 65 25 66 26 67
REMARK SMILES IDX 27 68 28 69 29 70 52 71 53 72 61 73 54 74 60 75 55 76 56 77
REMARK SMILES IDX 57 78 58 79 59 80 38 81 39 82 47 83 40 84 46 85 41 86 42 87
REMARK SMILES IDX 43 88 44 89 45 90
REMARK H PARENT 5 6 83 22 10 27 66 46 36 57
REMARK Flexibility Score: inf
ROOT
ATOM      1  C   UNL A   1      39.026  22.911  26.672  1.00  0.00     0.023 C 
ENDROOT
BRANCH   1   2
ATOM      2  C   UNL A   1      38.329  21.899  25.756  1.00  0.00     0.116 C 
BRANCH   2   3
ATOM      3  N   UNL A   1      37.809  22.549  24.570  1.00  0.00    -0.356 N 
ATOM      4  C   UNL A   1      36.521  22.652  24.126  1.00  0.00     0.227 C 
ATOM      5  O   UNL A   1      36.370  22.928  22.934  1.00  0.00    -0.274 OA
ATOM      6  H   UNL A   1      38.486  22.981  23.998  1.00  0.00     0.163 HD
BRANCH   4   7
ATOM      7  C   UNL A   1      35.354  22.430  25.108  1.00  0.00     0.105 C 
ATOM      8  C   UNL A   1      34.648  21.123  24.724  1.00  0.00     0.023 C 
BRANCH   7   9
ATOM      9  C   UNL A   1      34.367  23.601  25.227  1.00  0.00    -0.036 A 
ATOM     10  C   UNL A   1      34.784  24.938  25.153  1.00  0.00     0.005 A 
ATOM     11  C   UNL A   1      33.003  23.370  25.475  1.00  0.00     0.005 A 
ATOM     12  C   UNL A   1      33.872  25.994  25.240  1.00  0.00     0.004 A 
ATOM     13  C   UNL A   1      32.092  24.424  25.588  1.00  0.00     0.004 A 
ATOM     14  C   UNL A   1      32.519  25.750  25.477  1.00  0.00    -0.048 A 
BRANCH  14  15
ATOM     15  C   UNL A   1      31.531  26.880  25.629  1.00  0.00     0.041 C 
BRANCH  15  16
ATOM     16  C   UNL A   1      31.112  27.591  24.332  1.00  0.00     0.022 C 
ATOM     17  C   UNL A   1      29.784  27.129  23.706  1.00  0.00     0.007 C 
ATOM     18  C   UNL A   1      30.994  29.115  24.427  1.00  0.00     0.117 C 
ATOM     19  C   UNL A   1      29.084  28.398  23.215  1.00  0.00     0.003 C 
ATOM     20  C   UNL A   1      30.161  29.469  23.205  1.00  0.00     0.032 C 
BRANCH  18  21
ATOM     21  O   UNL A   1      32.262  29.743  24.364  1.00  0.00    -0.393 OA
ATOM     22  H   UNL A   1      32.333  30.248  23.538  1.00  0.00     0.210 HD
ENDBRANCH  18  21
ENDBRANCH  15  16
ENDBRANCH  14  15
ENDBRANCH   7   9
ENDBRANCH   4   7
ENDBRANCH   2   3
ENDBRANCH   1   2
BRANCH   1  23
ATOM     23  C   UNL A   1      40.270  22.381  27.386  1.00  0.00     0.023 C 
BRANCH  23  24
ATOM     24  C   UNL A   1      41.448  23.342  27.410  1.00  0.00     0.116 C 
BRANCH  24  25
ATOM     25  N   UNL A   1      41.569  24.110  26.180  1.00  0.00    -0.352 N 
ATOM     26  C   UNL A   1      41.542  25.475  26.027  1.00  0.00     0.251 C 
ATOM     27  H   UNL A   1      41.685  23.586  25.355  1.00  0.00     0.163 HD
ATOM     28  O   UNL A   1      41.519  25.978  24.909  1.00  0.00    -0.269 OA
BRANCH  26  29
ATOM     29  C   UNL A   1      41.507  26.322  27.235  1.00  0.00     0.039 A 
ATOM     30  C   UNL A   1      42.516  27.267  27.436  1.00  0.00     0.014 A 
ATOM     31  C   UNL A   1      40.437  26.220  28.128  1.00  0.00     0.014 A 
ATOM     32  C   UNL A   1      42.414  28.164  28.501  1.00  0.00     0.010 A 
ATOM     33  C   UNL A   1      40.305  27.156  29.146  1.00  0.00     0.010 A 
ATOM     34  C   UNL A   1      41.290  28.138  29.341  1.00  0.00    -0.014 A 
BRANCH  34  35
ATOM     35  C   UNL A   1      41.105  29.114  30.441  1.00  0.00     0.031 A 
ATOM     36  C   UNL A   1      41.948  29.000  31.679  1.00  0.00     0.074 A 
ATOM     37  C   UNL A   1      40.105  30.015  30.381  1.00  0.00     0.049 A 
ATOM     38  N   UNL A   1      41.829  29.625  32.821  1.00  0.00    -0.248 NA
ATOM     39  C   UNL A   1      43.049  28.024  31.635  1.00  0.00     0.031 C 
ATOM     40  C   UNL A   1      39.194  30.198  29.250  1.00  0.00     0.029 A 
ATOM     41  N   UNL A   1      39.670  30.925  31.311  1.00  0.00    -0.354 N 
ATOM     42  C   UNL A   1      42.809  29.087  33.647  1.00  0.00     0.074 A 
ATOM     43  C   UNL A   1      43.492  28.064  32.882  1.00  0.00     0.031 C 
ATOM     44  C   UNL A   1      38.310  31.164  29.551  1.00  0.00     0.029 A 
ATOM     45  C   UNL A   1      38.563  31.635  30.910  1.00  0.00     0.049 A 
ATOM     46  H   UNL A   1      40.108  31.057  32.183  1.00  0.00     0.167 HD
ATOM     47  C   UNL A   1      43.116  29.417  34.923  1.00  0.00     0.031 A 
ATOM     48  C   UNL A   1      37.822  32.547  31.568  1.00  0.00     0.031 A 
ATOM     49  C   UNL A   1      42.447  30.449  35.669  1.00  0.00     0.049 A 
ATOM     50  C   UNL A   1      38.195  32.924  32.973  1.00  0.00     0.074 A 
ATOM     51  C   UNL A   1      42.723  30.905  36.945  1.00  0.00     0.029 A 
ATOM     52  N   UNL A   1      41.370  31.186  35.203  1.00  0.00    -0.354 N 
ATOM     53  N   UNL A   1      39.158  32.442  33.724  1.00  0.00    -0.248 NA
ATOM     54  C   UNL A   1      37.395  33.973  33.618  1.00  0.00     0.031 C 
ATOM     55  C   UNL A   1      41.788  31.896  37.265  1.00  0.00     0.029 A 
ATOM     56  C   UNL A   1      40.960  32.088  36.170  1.00  0.00     0.049 A 
ATOM     57  H   UNL A   1      40.957  31.084  34.315  1.00  0.00     0.167 HD
ATOM     58  C   UNL A   1      39.095  33.147  34.920  1.00  0.00     0.074 A 
ATOM     59  C   UNL A   1      38.001  34.090  34.792  1.00  0.00     0.031 C 
ATOM     60  C   UNL A   1      39.875  33.026  36.022  1.00  0.00     0.031 A 
BRANCH  47  61
ATOM     61  C   UNL A   1      44.212  28.629  35.588  1.00  0.00    -0.014 A 
ATOM     62  C   UNL A   1      45.559  29.021  35.485  1.00  0.00     0.010 A 
ATOM     63  C   UNL A   1      43.890  27.467  36.313  1.00  0.00     0.010 A 
ATOM     64  C   UNL A   1      46.570  28.228  36.032  1.00  0.00     0.020 A 
ATOM     65  C   UNL A   1      44.897  26.686  36.888  1.00  0.00     0.020 A 
ATOM     66  C   UNL A   1      46.232  27.057  36.718  1.00  0.00     0.054 A 
BRANCH  66  67
ATOM     67  S   UNL A   1      47.562  26.027  37.396  1.00  0.00     0.124 S 
ATOM     68  O   UNL A   1      47.226  24.712  36.854  1.00  0.00    -0.237 OA
ATOM     69  O   UNL A   1      48.765  26.643  36.842  1.00  0.00    -0.237 OA
ATOM     70  O   UNL A   1      47.404  26.165  38.841  1.00  0.00    -0.744 OA
ENDBRANCH  66  67
ENDBRANCH  47  61
BRANCH  48  71
ATOM     71  C   UNL A   1      36.661  33.175  30.881  1.00  0.00    -0.014 A 
ATOM     72  C   UNL A   1      35.371  33.065  31.428  1.00  0.00     0.010 A 
ATOM     73  C   UNL A   1      36.851  33.944  29.719  1.00  0.00     0.010 A 
ATOM     74  C   UNL A   1      34.292  33.717  30.827  1.00  0.00     0.020 A 
ATOM     75  C   UNL A   1      35.776  34.614  29.127  1.00  0.00     0.020 A 
ATOM     76  C   UNL A   1      34.502  34.495  29.684  1.00  0.00     0.054 A 
BRANCH  76  77
ATOM     77  S   UNL A   1      33.103  35.413  28.981  1.00  0.00     0.124 S 
ATOM     78  O   UNL A   1      33.774  36.518  28.304  1.00  0.00    -0.237 OA
ATOM     79  O   UNL A   1      32.479  34.421  28.108  1.00  0.00    -0.237 OA
ATOM     80  O   UNL A   1      32.314  35.782  30.154  1.00  0.00    -0.744 OA
ENDBRANCH  76  77
ENDBRANCH  48  71
BRANCH  60  81
ATOM     81  C   UNL A   1      39.613  33.962  37.169  1.00  0.00    -0.014 A 
ATOM     82  C   UNL A   1      38.790  33.585  38.243  1.00  0.00     0.010 A 
ATOM     83  C   UNL A   1      40.278  35.202  37.211  1.00  0.00     0.010 A 
ATOM     84  C   UNL A   1      38.628  34.438  39.339  1.00  0.00     0.020 A 
ATOM     85  C   UNL A   1      40.134  36.047  38.313  1.00  0.00     0.020 A 
ATOM     86  C   UNL A   1      39.304  35.663  39.368  1.00  0.00     0.054 A 
BRANCH  86  87
ATOM     87  S   UNL A   1      39.139  36.720  40.834  1.00  0.00     0.124 S 
ATOM     88  O   UNL A   1      38.397  37.860  40.304  1.00  0.00    -0.237 OA
ATOM     89  O   UNL A   1      38.403  35.868  41.764  1.00  0.00    -0.237 OA
ATOM     90  O   UNL A   1      40.522  36.998  41.216  1.00  0.00    -0.744 OA
ENDBRANCH  86  87
ENDBRANCH  60  81
ENDBRANCH  34  35
ENDBRANCH  26  29
ENDBRANCH  24  25
ENDBRANCH  23  24
ENDBRANCH   1  23
TORSDOF 18
ENDMDL
