MODEL 1
REMARK VINA RESULT:      -9.4      0.000      0.000
REMARK SMILES NC(=S)S/C=C/C(=O)NCCCCNC(=O)c1ccc(-c2c3nc(c(-c4ccc(S(=O)(=O)[O-])cc4)c4ccc([nH]4)c(-c4ccc(S(=O)(=O)[O-])cc4)c4nc(c(-c5ccc(S(=O)(=O)[O-])cc5)c5ccc2[nH]5)C=C4)C=C3)cc1
REMARK SMILES IDX 11 1 10 2 9 3 7 4 8 5 6 7 5 8 4 9 2 10 3 11 1 12 12 15 13 16
REMARK SMILES IDX 14 17 15 18 16 20 17 21 18 22 76 23 19 24 75 25 20 26 21 27
REMARK SMILES IDX 22 28 69 29 23 30 74 31 68 32 70 33 24 34 73 35 67 36 66 37
REMARK SMILES IDX 25 39 55 40 36 41 54 42 37 43 40 44 53 45 71 46 38 47 39 48
REMARK SMILES IDX 52 50 72 51 41 52 26 53 27 54 35 55 28 56 34 57 29 58 30 59
REMARK SMILES IDX 31 60 32 61 33 62 56 63 57 64 65 65 58 66 64 67 59 68 60 69
REMARK SMILES IDX 61 70 62 71 63 72 42 73 43 74 51 75 44 76 50 77 45 78 46 79
REMARK SMILES IDX 47 80 48 81 49 82
REMARK H PARENT 9 6 1 13 1 14 14 19 70 38 40 49
REMARK Flexibility Score: inf
ROOT
ATOM      1  C   UNL A   1      34.195  23.555  26.581  1.00  0.00     0.023 C 
ENDROOT
BRANCH   1   2
ATOM      2  C   UNL A   1      32.910  22.752  26.392  1.00  0.00     0.116 C 
BRANCH   2   3
ATOM      3  N   UNL A   1      32.441  22.827  25.019  1.00  0.00    -0.353 N 
ATOM      4  C   UNL A   1      32.580  21.937  23.998  1.00  0.00     0.244 C 
ATOM      5  O   UNL A   1      32.009  22.123  22.928  1.00  0.00    -0.270 OA
ATOM      6  H   UNL A   1      31.946  23.646  24.792  1.00  0.00     0.163 HD
BRANCH   4   7
ATOM      7  C   UNL A   1      33.347  20.698  24.217  1.00  0.00     0.078 C 
ATOM      8  C   UNL A   1      32.830  19.493  23.946  1.00  0.00     0.054 C 
BRANCH   8   9
ATOM      9  S   UNL A   1      33.734  18.033  24.147  1.00  0.00    -0.069 SA
BRANCH   9  10
ATOM     10  C   UNL A   1      32.995  17.184  25.480  1.00  0.00     0.135 C 
ATOM     11  S   UNL A   1      32.614  15.580  25.657  1.00  0.00    -0.053 S 
BRANCH  10  12
ATOM     12  N   UNL A   1      32.710  18.062  26.480  1.00  0.00    -0.384 N 
ATOM     13  H   UNL A   1      32.216  17.758  27.277  1.00  0.00     0.158 HD
ATOM     14  H   UNL A   1      32.996  19.001  26.408  1.00  0.00     0.158 HD
ENDBRANCH  10  12
ENDBRANCH   9  10
ENDBRANCH   8   9
ENDBRANCH   4   7
ENDBRANCH   2   3
ENDBRANCH   1   2
BRANCH   1  15
ATOM     15  C   UNL A   1      35.477  22.715  26.587  1.00  0.00     0.023 C 
BRANCH  15  16
ATOM     16  C   UNL A   1      36.663  23.320  25.836  1.00  0.00     0.116 C 
BRANCH  16  17
ATOM     17  N   UNL A   1      37.858  22.497  25.894  1.00  0.00    -0.352 N 
ATOM     18  C   UNL A   1      39.124  22.837  26.322  1.00  0.00     0.251 C 
ATOM     19  H   UNL A   1      37.750  21.568  25.585  1.00  0.00     0.163 HD
ATOM     20  O   UNL A   1      40.047  22.042  26.200  1.00  0.00    -0.269 OA
BRANCH  18  21
ATOM     21  C   UNL A   1      39.363  24.181  26.889  1.00  0.00     0.039 A 
ATOM     22  C   UNL A   1      38.921  24.452  28.185  1.00  0.00     0.014 A 
ATOM     23  C   UNL A   1      40.047  25.155  26.156  1.00  0.00     0.014 A 
ATOM     24  C   UNL A   1      39.239  25.674  28.783  1.00  0.00     0.010 A 
ATOM     25  C   UNL A   1      40.410  26.352  26.772  1.00  0.00     0.010 A 
ATOM     26  C   UNL A   1      40.023  26.614  28.095  1.00  0.00    -0.014 A 
BRANCH  26  27
ATOM     27  C   UNL A   1      40.494  27.856  28.759  1.00  0.00     0.031 A 
ATOM     28  C   UNL A   1      41.851  27.912  29.399  1.00  0.00     0.074 A 
ATOM     29  C   UNL A   1      39.653  28.905  28.865  1.00  0.00     0.049 A 
ATOM     30  N   UNL A   1      42.395  28.879  30.093  1.00  0.00    -0.248 NA
ATOM     31  C   UNL A   1      42.697  26.718  29.260  1.00  0.00     0.031 C 
ATOM     32  C   UNL A   1      38.289  28.954  28.333  1.00  0.00     0.029 A 
ATOM     33  N   UNL A   1      39.816  30.124  29.474  1.00  0.00    -0.354 N 
ATOM     34  C   UNL A   1      43.640  28.407  30.486  1.00  0.00     0.074 A 
ATOM     35  C   UNL A   1      43.753  27.052  29.990  1.00  0.00     0.031 C 
ATOM     36  C   UNL A   1      37.743  30.142  28.635  1.00  0.00     0.029 A 
ATOM     37  C   UNL A   1      38.702  30.925  29.408  1.00  0.00     0.049 A 
ATOM     38  H   UNL A   1      40.652  30.397  29.918  1.00  0.00     0.167 HD
ATOM     39  C   UNL A   1      44.609  29.047  31.184  1.00  0.00     0.031 A 
ATOM     40  C   UNL A   1      38.468  32.147  29.924  1.00  0.00     0.031 A 
ATOM     41  C   UNL A   1      44.493  30.393  31.682  1.00  0.00     0.049 A 
ATOM     42  C   UNL A   1      39.553  32.840  30.697  1.00  0.00     0.074 A 
ATOM     43  C   UNL A   1      45.440  31.149  32.352  1.00  0.00     0.029 A 
ATOM     44  N   UNL A   1      43.358  31.182  31.570  1.00  0.00    -0.354 N 
ATOM     45  N   UNL A   1      40.753  32.405  30.996  1.00  0.00    -0.248 NA
ATOM     46  C   UNL A   1      39.256  34.191  31.193  1.00  0.00     0.031 C 
ATOM     47  C   UNL A   1      44.861  32.379  32.683  1.00  0.00     0.029 A 
ATOM     48  C   UNL A   1      43.570  32.407  32.179  1.00  0.00     0.049 A 
ATOM     49  H   UNL A   1      42.524  30.910  31.123  1.00  0.00     0.167 HD
ATOM     50  C   UNL A   1      41.361  33.432  31.708  1.00  0.00     0.074 A 
ATOM     51  C   UNL A   1      40.402  34.517  31.778  1.00  0.00     0.031 C 
ATOM     52  C   UNL A   1      42.601  33.473  32.254  1.00  0.00     0.031 A 
BRANCH  39  53
ATOM     53  C   UNL A   1      45.875  28.281  31.459  1.00  0.00    -0.014 A 
ATOM     54  C   UNL A   1      46.007  27.494  32.618  1.00  0.00     0.010 A 
ATOM     55  C   UNL A   1      46.947  28.348  30.551  1.00  0.00     0.010 A 
ATOM     56  C   UNL A   1      47.209  26.837  32.894  1.00  0.00     0.020 A 
ATOM     57  C   UNL A   1      48.143  27.670  30.811  1.00  0.00     0.020 A 
ATOM     58  C   UNL A   1      48.274  26.941  31.995  1.00  0.00     0.054 A 
BRANCH  58  59
ATOM     59  S   UNL A   1      49.831  26.096  32.387  1.00  0.00     0.124 S 
ATOM     60  O   UNL A   1      49.634  25.741  33.790  1.00  0.00    -0.237 OA
ATOM     61  O   UNL A   1      49.835  24.976  31.450  1.00  0.00    -0.237 OA
ATOM     62  O   UNL A   1      50.848  27.114  32.138  1.00  0.00    -0.744 OA
ENDBRANCH  58  59
ENDBRANCH  39  53
BRANCH  40  63
ATOM     63  C   UNL A   1      37.142  32.786  29.713  1.00  0.00    -0.014 A 
ATOM     64  C   UNL A   1      36.198  32.830  30.752  1.00  0.00     0.010 A 
ATOM     65  C   UNL A   1      36.841  33.407  28.486  1.00  0.00     0.010 A 
ATOM     66  C   UNL A   1      34.975  33.484  30.570  1.00  0.00     0.020 A 
ATOM     67  C   UNL A   1      35.630  34.080  28.308  1.00  0.00     0.020 A 
ATOM     68  C   UNL A   1      34.702  34.110  29.351  1.00  0.00     0.054 A 
BRANCH  68  69
ATOM     69  S   UNL A   1      33.149  35.030  29.168  1.00  0.00     0.124 S 
ATOM     70  O   UNL A   1      32.466  34.270  28.126  1.00  0.00    -0.237 OA
ATOM     71  O   UNL A   1      32.566  34.939  30.504  1.00  0.00    -0.237 OA
ATOM     72  O   UNL A   1      33.590  36.369  28.781  1.00  0.00    -0.744 OA
ENDBRANCH  68  69
ENDBRANCH  40  63
BRANCH  52  73
ATOM     73  C   UNL A   1      42.998  34.733  32.972  1.00  0.00    -0.014 A 
ATOM     74  C   UNL A   1      42.838  34.853  34.364  1.00  0.00     0.010 A 
ATOM     75  C   UNL A   1      43.594  35.787  32.255  1.00  0.00     0.010 A 
ATOM     76  C   UNL A   1      43.248  36.014  35.024  1.00  0.00     0.020 A 
ATOM     77  C   UNL A   1      44.023  36.941  32.915  1.00  0.00     0.020 A 
ATOM     78  C   UNL A   1      43.838  37.051  34.295  1.00  0.00     0.054 A 
BRANCH  78  79
ATOM     79  S   UNL A   1      44.410  38.528  35.182  1.00  0.00     0.124 S 
ATOM     80  O   UNL A   1      43.763  39.601  34.434  1.00  0.00    -0.237 OA
ATOM     81  O   UNL A   1      43.904  38.307  36.534  1.00  0.00    -0.237 OA
ATOM     82  O   UNL A   1      45.864  38.465  35.051  1.00  0.00    -0.744 OA
ENDBRANCH  78  79
ENDBRANCH  52  73
ENDBRANCH  26  27
ENDBRANCH  18  21
ENDBRANCH  16  17
ENDBRANCH  15  16
ENDBRANCH   1  15
TORSDOF 17
ENDMDL
MODEL 2
REMARK VINA RESULT:      -9.0      3.068      9.506
REMARK SMILES NC(=S)S/C=C/C(=O)NCCCCNC(=O)c1ccc(-c2c3nc(c(-c4ccc(S(=O)(=O)[O-])cc4)c4ccc([nH]4)c(-c4ccc(S(=O)(=O)[O-])cc4)c4nc(c(-c5ccc(S(=O)(=O)[O-])cc5)c5ccc2[nH]5)C=C4)C=C3)cc1
REMARK SMILES IDX 11 1 10 2 9 3 7 4 8 5 6 7 5 8 4 9 2 10 3 11 1 12 12 15 13 16
REMARK SMILES IDX 14 17 15 18 16 20 17 21 18 22 76 23 19 24 75 25 20 26 21 27
REMARK SMILES IDX 22 28 69 29 23 30 74 31 68 32 70 33 24 34 73 35 67 36 66 37
REMARK SMILES IDX 25 39 55 40 36 41 54 42 37 43 40 44 53 45 71 46 38 47 39 48
REMARK SMILES IDX 52 50 72 51 41 52 26 53 27 54 35 55 28 56 34 57 29 58 30 59
REMARK SMILES IDX 31 60 32 61 33 62 56 63 57 64 65 65 58 66 64 67 59 68 60 69
REMARK SMILES IDX 61 70 62 71 63 72 42 73 43 74 51 75 44 76 50 77 45 78 46 79
REMARK SMILES IDX 47 80 48 81 49 82
REMARK H PARENT 9 6 1 13 1 14 14 19 70 38 40 49
REMARK Flexibility Score: inf
ROOT
ATOM      1  C   UNL A   1      31.576  27.870  25.865  1.00  0.00     0.023 C 
ENDROOT
BRANCH   1   2
ATOM      2  C   UNL A   1      31.586  26.542  25.110  1.00  0.00     0.116 C 
BRANCH   2   3
ATOM      3  N   UNL A   1      32.350  26.643  23.878  1.00  0.00    -0.353 N 
ATOM      4  C   UNL A   1      33.314  25.823  23.377  1.00  0.00     0.244 C 
ATOM      5  O   UNL A   1      33.769  26.011  22.253  1.00  0.00    -0.270 OA
ATOM      6  H   UNL A   1      32.137  27.425  23.319  1.00  0.00     0.163 HD
BRANCH   4   7
ATOM      7  C   UNL A   1      33.743  24.650  24.159  1.00  0.00     0.078 C 
ATOM      8  C   UNL A   1      34.906  24.635  24.824  1.00  0.00     0.054 C 
BRANCH   8   9
ATOM      9  S   UNL A   1      35.401  23.288  25.789  1.00  0.00    -0.069 SA
BRANCH   9  10
ATOM     10  C   UNL A   1      36.652  22.476  24.884  1.00  0.00     0.135 C 
ATOM     11  S   UNL A   1      37.251  20.935  25.018  1.00  0.00    -0.053 S 
BRANCH  10  12
ATOM     12  N   UNL A   1      37.168  23.324  23.953  1.00  0.00    -0.384 N 
ATOM     13  H   UNL A   1      37.752  24.066  24.232  1.00  0.00     0.158 HD
ATOM     14  H   UNL A   1      36.958  23.195  23.000  1.00  0.00     0.158 HD
ENDBRANCH  10  12
ENDBRANCH   9  10
ENDBRANCH   8   9
ENDBRANCH   4   7
ENDBRANCH   2   3
ENDBRANCH   1   2
BRANCH   1  15
ATOM     15  C   UNL A   1      32.312  27.844  27.209  1.00  0.00     0.023 C 
BRANCH  15  16
ATOM     16  C   UNL A   1      33.686  28.514  27.219  1.00  0.00     0.116 C 
BRANCH  16  17
ATOM     17  N   UNL A   1      33.634  29.921  27.575  1.00  0.00    -0.352 N 
ATOM     18  C   UNL A   1      34.604  30.703  28.167  1.00  0.00     0.251 C 
ATOM     19  H   UNL A   1      32.788  30.382  27.364  1.00  0.00     0.163 HD
ATOM     20  O   UNL A   1      34.349  31.854  28.496  1.00  0.00    -0.269 OA
BRANCH  18  21
ATOM     21  C   UNL A   1      35.937  30.124  28.437  1.00  0.00     0.039 A 
ATOM     22  C   UNL A   1      36.897  30.146  27.423  1.00  0.00     0.014 A 
ATOM     23  C   UNL A   1      36.246  29.594  29.692  1.00  0.00     0.014 A 
ATOM     24  C   UNL A   1      38.197  29.713  27.692  1.00  0.00     0.010 A 
ATOM     25  C   UNL A   1      37.556  29.213  29.976  1.00  0.00     0.010 A 
ATOM     26  C   UNL A   1      38.546  29.284  28.983  1.00  0.00    -0.014 A 
BRANCH  26  27
ATOM     27  C   UNL A   1      39.951  28.957  29.331  1.00  0.00     0.031 A 
ATOM     28  C   UNL A   1      40.855  29.999  29.924  1.00  0.00     0.074 A 
ATOM     29  C   UNL A   1      40.438  27.737  29.024  1.00  0.00     0.049 A 
ATOM     30  N   UNL A   1      42.129  29.917  30.213  1.00  0.00    -0.248 NA
ATOM     31  C   UNL A   1      40.254  31.311  30.207  1.00  0.00     0.031 C 
ATOM     32  C   UNL A   1      39.676  26.655  28.396  1.00  0.00     0.029 A 
ATOM     33  N   UNL A   1      41.696  27.211  29.178  1.00  0.00    -0.354 N 
ATOM     34  C   UNL A   1      42.487  31.168  30.698  1.00  0.00     0.074 A 
ATOM     35  C   UNL A   1      41.306  32.002  30.623  1.00  0.00     0.031 C 
ATOM     36  C   UNL A   1      40.480  25.594  28.224  1.00  0.00     0.029 A 
ATOM     37  C   UNL A   1      41.819  25.930  28.697  1.00  0.00     0.049 A 
ATOM     38  H   UNL A   1      42.440  27.705  29.594  1.00  0.00     0.167 HD
ATOM     39  C   UNL A   1      43.685  31.582  31.176  1.00  0.00     0.031 A 
ATOM     40  C   UNL A   1      42.891  25.118  28.628  1.00  0.00     0.031 A 
ATOM     41  C   UNL A   1      44.859  30.753  31.243  1.00  0.00     0.049 A 
ATOM     42  C   UNL A   1      44.212  25.595  29.160  1.00  0.00     0.074 A 
ATOM     43  C   UNL A   1      46.105  31.063  31.762  1.00  0.00     0.029 A 
ATOM     44  N   UNL A   1      44.937  29.451  30.771  1.00  0.00    -0.354 N 
ATOM     45  N   UNL A   1      44.514  26.759  29.683  1.00  0.00    -0.248 NA
ATOM     46  C   UNL A   1      45.334  24.648  29.102  1.00  0.00     0.031 C 
ATOM     47  C   UNL A   1      46.947  29.963  31.563  1.00  0.00     0.029 A 
ATOM     48  C   UNL A   1      46.213  28.952  30.964  1.00  0.00     0.049 A 
ATOM     49  H   UNL A   1      44.192  28.955  30.360  1.00  0.00     0.167 HD
ATOM     50  C   UNL A   1      45.858  26.682  30.027  1.00  0.00     0.074 A 
ATOM     51  C   UNL A   1      46.306  25.351  29.669  1.00  0.00     0.031 C 
ATOM     52  C   UNL A   1      46.649  27.629  30.589  1.00  0.00     0.031 A 
BRANCH  39  53
ATOM     53  C   UNL A   1      43.777  33.008  31.649  1.00  0.00    -0.014 A 
ATOM     54  C   UNL A   1      43.484  33.347  32.983  1.00  0.00     0.010 A 
ATOM     55  C   UNL A   1      44.158  34.023  30.753  1.00  0.00     0.010 A 
ATOM     56  C   UNL A   1      43.512  34.682  33.396  1.00  0.00     0.020 A 
ATOM     57  C   UNL A   1      44.212  35.357  31.170  1.00  0.00     0.020 A 
ATOM     58  C   UNL A   1      43.863  35.679  32.483  1.00  0.00     0.054 A 
BRANCH  58  59
ATOM     59  S   UNL A   1      43.871  37.406  33.039  1.00  0.00     0.124 S 
ATOM     60  O   UNL A   1      45.172  37.502  33.697  1.00  0.00    -0.237 OA
ATOM     61  O   UNL A   1      43.744  38.149  31.788  1.00  0.00    -0.237 OA
ATOM     62  O   UNL A   1      42.715  37.489  33.928  1.00  0.00    -0.744 OA
ENDBRANCH  58  59
ENDBRANCH  39  53
BRANCH  40  63
ATOM     63  C   UNL A   1      42.744  23.765  28.030  1.00  0.00    -0.014 A 
ATOM     64  C   UNL A   1      42.328  22.678  28.818  1.00  0.00     0.010 A 
ATOM     65  C   UNL A   1      42.964  23.570  26.653  1.00  0.00     0.010 A 
ATOM     66  C   UNL A   1      42.133  21.420  28.240  1.00  0.00     0.020 A 
ATOM     67  C   UNL A   1      42.749  22.319  26.069  1.00  0.00     0.020 A 
ATOM     68  C   UNL A   1      42.339  21.249  26.868  1.00  0.00     0.054 A 
BRANCH  68  69
ATOM     69  S   UNL A   1      41.992  19.631  26.124  1.00  0.00     0.124 S 
ATOM     70  O   UNL A   1      42.470  18.714  27.153  1.00  0.00    -0.237 OA
ATOM     71  O   UNL A   1      40.544  19.673  25.934  1.00  0.00    -0.237 OA
ATOM     72  O   UNL A   1      42.773  19.651  24.889  1.00  0.00    -0.744 OA
ENDBRANCH  68  69
ENDBRANCH  40  63
BRANCH  52  73
ATOM     73  C   UNL A   1      48.082  27.260  30.857  1.00  0.00    -0.014 A 
ATOM     74  C   UNL A   1      48.479  26.763  32.111  1.00  0.00     0.010 A 
ATOM     75  C   UNL A   1      49.032  27.356  29.824  1.00  0.00     0.010 A 
ATOM     76  C   UNL A   1      49.806  26.387  32.334  1.00  0.00     0.020 A 
ATOM     77  C   UNL A   1      50.356  26.962  30.037  1.00  0.00     0.020 A 
ATOM     78  C   UNL A   1      50.736  26.489  31.294  1.00  0.00     0.054 A 
BRANCH  78  79
ATOM     79  S   UNL A   1      52.442  25.944  31.592  1.00  0.00     0.124 S 
ATOM     80  O   UNL A   1      52.264  24.521  31.860  1.00  0.00    -0.237 OA
ATOM     81  O   UNL A   1      53.107  26.269  30.332  1.00  0.00    -0.237 OA
ATOM     82  O   UNL A   1      52.864  26.747  32.737  1.00  0.00    -0.744 OA
ENDBRANCH  78  79
ENDBRANCH  52  73
ENDBRANCH  26  27
ENDBRANCH  18  21
ENDBRANCH  16  17
ENDBRANCH  15  16
ENDBRANCH   1  15
TORSDOF 17
ENDMDL
MODEL 3
REMARK VINA RESULT:      -9.0      3.691     10.051
REMARK SMILES NC(=S)S/C=C/C(=O)NCCCCNC(=O)c1ccc(-c2c3nc(c(-c4ccc(S(=O)(=O)[O-])cc4)c4ccc([nH]4)c(-c4ccc(S(=O)(=O)[O-])cc4)c4nc(c(-c5ccc(S(=O)(=O)[O-])cc5)c5ccc2[nH]5)C=C4)C=C3)cc1
REMARK SMILES IDX 11 1 10 2 9 3 7 4 8 5 6 7 5 8 4 9 2 10 3 11 1 12 12 15 13 16
REMARK SMILES IDX 14 17 15 18 16 20 17 21 18 22 76 23 19 24 75 25 20 26 21 27
REMARK SMILES IDX 22 28 69 29 23 30 74 31 68 32 70 33 24 34 73 35 67 36 66 37
REMARK SMILES IDX 25 39 55 40 36 41 54 42 37 43 40 44 53 45 71 46 38 47 39 48
REMARK SMILES IDX 52 50 72 51 41 52 26 53 27 54 35 55 28 56 34 57 29 58 30 59
REMARK SMILES IDX 31 60 32 61 33 62 56 63 57 64 65 65 58 66 64 67 59 68 60 69
REMARK SMILES IDX 61 70 62 71 63 72 42 73 43 74 51 75 44 76 50 77 45 78 46 79
REMARK SMILES IDX 47 80 48 81 49 82
REMARK H PARENT 9 6 1 13 1 14 14 19 70 38 40 49
REMARK Flexibility Score: inf
ROOT
ATOM      1  C   UNL A   1      33.309  26.903  25.231  1.00  0.00     0.023 C 
ENDROOT
BRANCH   1   2
ATOM      2  C   UNL A   1      33.685  27.232  23.788  1.00  0.00     0.116 C 
BRANCH   2   3
ATOM      3  N   UNL A   1      32.853  26.502  22.848  1.00  0.00    -0.353 N 
ATOM      4  C   UNL A   1      31.740  26.899  22.173  1.00  0.00     0.244 C 
ATOM      5  O   UNL A   1      31.233  26.173  21.324  1.00  0.00    -0.270 OA
ATOM      6  H   UNL A   1      33.139  25.576  22.671  1.00  0.00     0.163 HD
BRANCH   4   7
ATOM      7  C   UNL A   1      31.199  28.251  22.403  1.00  0.00     0.078 C 
ATOM      8  C   UNL A   1      30.087  28.449  23.122  1.00  0.00     0.054 C 
BRANCH   8   9
ATOM      9  S   UNL A   1      29.467  30.031  23.447  1.00  0.00    -0.069 SA
BRANCH   9  10
ATOM     10  C   UNL A   1      28.254  30.337  22.231  1.00  0.00     0.135 C 
ATOM     11  S   UNL A   1      28.205  31.468  21.019  1.00  0.00    -0.053 S 
BRANCH  10  12
ATOM     12  N   UNL A   1      27.217  29.471  22.390  1.00  0.00    -0.384 N 
ATOM     13  H   UNL A   1      26.296  29.813  22.470  1.00  0.00     0.158 HD
ATOM     14  H   UNL A   1      27.385  28.502  22.425  1.00  0.00     0.158 HD
ENDBRANCH  10  12
ENDBRANCH   9  10
ENDBRANCH   8   9
ENDBRANCH   4   7
ENDBRANCH   2   3
ENDBRANCH   1   2
BRANCH   1  15
ATOM     15  C   UNL A   1      32.718  28.078  26.019  1.00  0.00     0.023 C 
BRANCH  15  16
ATOM     16  C   UNL A   1      33.487  28.479  27.277  1.00  0.00     0.116 C 
BRANCH  16  17
ATOM     17  N   UNL A   1      33.466  29.909  27.531  1.00  0.00    -0.352 N 
ATOM     18  C   UNL A   1      34.460  30.713  28.047  1.00  0.00     0.251 C 
ATOM     19  H   UNL A   1      32.624  30.368  27.302  1.00  0.00     0.163 HD
ATOM     20  O   UNL A   1      34.231  31.889  28.296  1.00  0.00    -0.269 OA
BRANCH  18  21
ATOM     21  C   UNL A   1      35.788  30.131  28.335  1.00  0.00     0.039 A 
ATOM     22  C   UNL A   1      36.758  30.141  27.330  1.00  0.00     0.014 A 
ATOM     23  C   UNL A   1      36.083  29.610  29.598  1.00  0.00     0.014 A 
ATOM     24  C   UNL A   1      38.054  29.705  27.616  1.00  0.00     0.010 A 
ATOM     25  C   UNL A   1      37.388  29.226  29.897  1.00  0.00     0.010 A 
ATOM     26  C   UNL A   1      38.388  29.285  28.914  1.00  0.00    -0.014 A 
BRANCH  26  27
ATOM     27  C   UNL A   1      39.789  28.955  29.279  1.00  0.00     0.031 A 
ATOM     28  C   UNL A   1      40.670  29.979  29.935  1.00  0.00     0.074 A 
ATOM     29  C   UNL A   1      40.293  27.754  28.930  1.00  0.00     0.049 A 
ATOM     30  N   UNL A   1      41.937  29.895  30.247  1.00  0.00    -0.248 NA
ATOM     31  C   UNL A   1      40.050  31.272  30.260  1.00  0.00     0.031 C 
ATOM     32  C   UNL A   1      39.555  26.694  28.240  1.00  0.00     0.029 A 
ATOM     33  N   UNL A   1      41.552  27.232  29.090  1.00  0.00    -0.354 N 
ATOM     34  C   UNL A   1      42.273  31.127  30.793  1.00  0.00     0.074 A 
ATOM     35  C   UNL A   1      41.087  31.954  30.728  1.00  0.00     0.031 C 
ATOM     36  C   UNL A   1      40.372  25.648  28.041  1.00  0.00     0.029 A 
ATOM     37  C   UNL A   1      41.697  25.974  28.557  1.00  0.00     0.049 A 
ATOM     38  H   UNL A   1      42.282  27.714  29.542  1.00  0.00     0.167 HD
ATOM     39  C   UNL A   1      43.457  31.531  31.314  1.00  0.00     0.031 A 
ATOM     40  C   UNL A   1      42.779  25.174  28.477  1.00  0.00     0.031 A 
ATOM     41  C   UNL A   1      44.637  30.709  31.372  1.00  0.00     0.049 A 
ATOM     42  C   UNL A   1      44.083  25.639  29.058  1.00  0.00     0.074 A 
ATOM     43  C   UNL A   1      45.869  31.007  31.931  1.00  0.00     0.029 A 
ATOM     44  N   UNL A   1      44.737  29.429  30.847  1.00  0.00    -0.354 N 
ATOM     45  N   UNL A   1      44.363  26.782  29.637  1.00  0.00    -0.248 NA
ATOM     46  C   UNL A   1      45.215  24.705  28.984  1.00  0.00     0.031 C 
ATOM     47  C   UNL A   1      46.724  29.924  31.704  1.00  0.00     0.029 A 
ATOM     48  C   UNL A   1      46.014  28.933  31.046  1.00  0.00     0.049 A 
ATOM     49  H   UNL A   1      44.006  28.945  30.399  1.00  0.00     0.167 HD
ATOM     50  C   UNL A   1      45.700  26.702  30.006  1.00  0.00     0.074 A 
ATOM     51  C   UNL A   1      46.168  25.391  29.602  1.00  0.00     0.031 C 
ATOM     52  C   UNL A   1      46.469  27.631  30.625  1.00  0.00     0.031 A 
BRANCH  39  53
ATOM     53  C   UNL A   1      43.526  32.936  31.850  1.00  0.00    -0.014 A 
ATOM     54  C   UNL A   1      43.712  34.030  30.985  1.00  0.00     0.010 A 
ATOM     55  C   UNL A   1      43.406  33.168  33.231  1.00  0.00     0.010 A 
ATOM     56  C   UNL A   1      43.838  35.324  31.498  1.00  0.00     0.020 A 
ATOM     57  C   UNL A   1      43.505  34.465  33.747  1.00  0.00     0.020 A 
ATOM     58  C   UNL A   1      43.747  35.531  32.877  1.00  0.00     0.054 A 
BRANCH  58  59
ATOM     59  S   UNL A   1      43.934  37.217  33.520  1.00  0.00     0.124 S 
ATOM     60  O   UNL A   1      45.006  37.046  34.499  1.00  0.00    -0.237 OA
ATOM     61  O   UNL A   1      44.289  37.980  32.327  1.00  0.00    -0.237 OA
ATOM     62  O   UNL A   1      42.620  37.520  34.082  1.00  0.00    -0.744 OA
ENDBRANCH  58  59
ENDBRANCH  39  53
BRANCH  40  63
ATOM     63  C   UNL A   1      42.657  23.847  27.820  1.00  0.00    -0.014 A 
ATOM     64  C   UNL A   1      43.114  23.658  26.504  1.00  0.00     0.010 A 
ATOM     65  C   UNL A   1      42.136  22.748  28.529  1.00  0.00     0.010 A 
ATOM     66  C   UNL A   1      43.053  22.394  25.909  1.00  0.00     0.020 A 
ATOM     67  C   UNL A   1      42.093  21.480  27.946  1.00  0.00     0.020 A 
ATOM     68  C   UNL A   1      42.549  21.311  26.636  1.00  0.00     0.054 A 
BRANCH  68  69
ATOM     69  S   UNL A   1      42.564  19.663  25.877  1.00  0.00     0.124 S 
ATOM     70  O   UNL A   1      41.166  19.492  25.494  1.00  0.00    -0.237 OA
ATOM     71  O   UNL A   1      43.508  19.829  24.775  1.00  0.00    -0.237 OA
ATOM     72  O   UNL A   1      43.029  18.796  26.957  1.00  0.00    -0.744 OA
ENDBRANCH  68  69
ENDBRANCH  40  63
BRANCH  52  73
ATOM     73  C   UNL A   1      47.900  27.263  30.909  1.00  0.00    -0.014 A 
ATOM     74  C   UNL A   1      48.217  26.242  31.822  1.00  0.00     0.010 A 
ATOM     75  C   UNL A   1      48.938  27.906  30.209  1.00  0.00     0.010 A 
ATOM     76  C   UNL A   1      49.549  25.883  32.046  1.00  0.00     0.020 A 
ATOM     77  C   UNL A   1      50.269  27.536  30.416  1.00  0.00     0.020 A 
ATOM     78  C   UNL A   1      50.567  26.533  31.341  1.00  0.00     0.054 A 
BRANCH  78  79
ATOM     79  S   UNL A   1      52.285  26.014  31.609  1.00  0.00     0.124 S 
ATOM     80  O   UNL A   1      52.794  27.081  32.466  1.00  0.00    -0.237 OA
ATOM     81  O   UNL A   1      52.130  24.710  32.251  1.00  0.00    -0.237 OA
ATOM     82  O   UNL A   1      52.847  25.974  30.262  1.00  0.00    -0.744 OA
ENDBRANCH  78  79
ENDBRANCH  52  73
ENDBRANCH  26  27
ENDBRANCH  18  21
ENDBRANCH  16  17
ENDBRANCH  15  16
ENDBRANCH   1  15
TORSDOF 17
ENDMDL
