MODEL 1
REMARK VINA RESULT:     -11.0      0.000      0.000
REMARK SMILES O=C(NCCCCNC(=O)c1ccc(-c2c3nc(c(-c4ccc(S(=O)(=O)[O-])cc4)c4ccc([nH]4)c(-c4ccc(S(=O)(=O)[O-])cc4)c4nc(c(-c5ccc(S(=O)(=O)[O-])cc5)c5ccc2[nH]5)C=C4)C=C3)cc1)C1=Cc2cc(OC(F)(F)F)ccc2O[C@@H]1C(F)(F)F
REMARK SMILES IDX 6 1 5 2 4 3 3 4 1 5 2 6 71 8 72 9 85 10 73 11 84 12 74 13
REMARK SMILES IDX 83 14 75 15 82 16 81 17 86 18 87 19 88 20 89 21 76 22 77 23
REMARK SMILES IDX 78 24 79 25 80 26 7 27 8 28 9 29 10 31 11 32 12 33 70 34
REMARK SMILES IDX 13 35 69 36 14 37 15 38 16 39 63 40 17 41 68 42 62 43 64 44
REMARK SMILES IDX 18 45 67 46 61 47 60 48 19 50 49 51 30 52 48 53 31 54 34 55
REMARK SMILES IDX 47 56 65 57 32 58 33 59 46 61 66 62 35 63 20 64 21 65 29 66
REMARK SMILES IDX 22 67 28 68 23 69 24 70 25 71 26 72 27 73 50 74 51 75 59 76
REMARK SMILES IDX 52 77 58 78 53 79 54 80 55 81 56 82 57 83 36 84 37 85 45 86
REMARK SMILES IDX 38 87 44 88 39 89 40 90 41 91 42 92 43 93
REMARK H PARENT 3 7 8 30 64 49 34 60
REMARK Flexibility Score: inf
ROOT
ATOM      1  C   UNL A   1      35.824  22.789  24.586  1.00  0.00     0.023 C 
ENDROOT
BRANCH   1   2
ATOM      2  C   UNL A   1      35.059  23.339  23.380  1.00  0.00     0.023 C 
BRANCH   2   3
ATOM      3  C   UNL A   1      33.737  22.617  23.105  1.00  0.00     0.116 C 
BRANCH   3   4
ATOM      4  N   UNL A   1      32.677  23.509  22.620  1.00  0.00    -0.352 N 
ATOM      5  O   UNL A   1      31.449  25.421  22.557  1.00  0.00    -0.270 OA
ATOM      6  C   UNL A   1      32.150  24.644  23.190  1.00  0.00     0.251 C 
ATOM      7  H   UNL A   1      32.286  23.257  21.753  1.00  0.00     0.163 HD
BRANCH   6   8
ATOM      8  C   UNL A   1      32.514  24.922  24.589  1.00  0.00     0.067 C 
ATOM      9  C   UNL A   1      33.410  25.896  24.798  1.00  0.00     0.025 C 
ATOM     10  C   UNL A   1      31.611  24.394  25.661  1.00  0.00     0.314 C 
ATOM     11  C   UNL A   1      33.039  26.804  25.888  1.00  0.00     0.021 A 
ATOM     12  O   UNL A   1      31.077  25.458  26.489  1.00  0.00    -0.475 OA
ATOM     13  C   UNL A   1      33.666  28.051  25.934  1.00  0.00     0.058 A 
ATOM     14  C   UNL A   1      31.824  26.608  26.567  1.00  0.00     0.128 A 
ATOM     15  C   UNL A   1      33.016  29.130  26.536  1.00  0.00     0.130 A 
ATOM     16  C   UNL A   1      31.212  27.674  27.223  1.00  0.00     0.051 A 
ATOM     17  C   UNL A   1      31.795  28.942  27.185  1.00  0.00     0.050 A 
BRANCH  10  18
ATOM     18  C   UNL A   1      32.302  23.324  26.522  1.00  0.00     0.429 C 
ATOM     19  F   UNL A   1      31.583  23.062  27.643  1.00  0.00    -0.167 F 
ATOM     20  F   UNL A   1      32.437  22.149  25.864  1.00  0.00    -0.167 F 
ATOM     21  F   UNL A   1      33.539  23.701  26.925  1.00  0.00    -0.167 F 
ENDBRANCH  10  18
BRANCH  15  22
ATOM     22  O   UNL A   1      33.637  30.343  26.429  1.00  0.00    -0.406 OA
BRANCH  22  23
ATOM     23  C   UNL A   1      34.399  30.694  27.584  1.00  0.00     0.573 C 
ATOM     24  F   UNL A   1      35.474  31.439  27.237  1.00  0.00    -0.132 F 
ATOM     25  F   UNL A   1      33.632  31.358  28.468  1.00  0.00    -0.132 F 
ATOM     26  F   UNL A   1      34.838  29.556  28.163  1.00  0.00    -0.132 F 
ENDBRANCH  22  23
ENDBRANCH  15  22
ENDBRANCH   6   8
ENDBRANCH   3   4
ENDBRANCH   2   3
ENDBRANCH   1   2
BRANCH   1  27
ATOM     27  C   UNL A   1      37.115  23.511  24.965  1.00  0.00     0.116 C 
BRANCH  27  28
ATOM     28  N   UNL A   1      38.222  22.636  25.318  1.00  0.00    -0.352 N 
ATOM     29  C   UNL A   1      39.295  22.900  26.149  1.00  0.00     0.251 C 
ATOM     30  H   UNL A   1      38.207  21.739  24.913  1.00  0.00     0.163 HD
ATOM     31  O   UNL A   1      40.155  22.059  26.350  1.00  0.00    -0.269 OA
BRANCH  29  32
ATOM     32  C   UNL A   1      39.418  24.255  26.740  1.00  0.00     0.039 A 
ATOM     33  C   UNL A   1      38.824  24.495  27.982  1.00  0.00     0.014 A 
ATOM     34  C   UNL A   1      40.209  25.230  26.131  1.00  0.00     0.014 A 
ATOM     35  C   UNL A   1      39.119  25.676  28.668  1.00  0.00     0.010 A 
ATOM     36  C   UNL A   1      40.555  26.374  26.846  1.00  0.00     0.010 A 
ATOM     37  C   UNL A   1      40.036  26.595  28.133  1.00  0.00    -0.014 A 
BRANCH  37  38
ATOM     38  C   UNL A   1      40.507  27.764  28.921  1.00  0.00     0.031 A 
ATOM     39  C   UNL A   1      41.843  27.722  29.611  1.00  0.00     0.074 A 
ATOM     40  C   UNL A   1      39.691  28.824  29.092  1.00  0.00     0.049 A 
ATOM     41  N   UNL A   1      42.382  28.602  30.414  1.00  0.00    -0.248 NA
ATOM     42  C   UNL A   1      42.665  26.520  29.396  1.00  0.00     0.031 C 
ATOM     43  C   UNL A   1      38.347  28.965  28.522  1.00  0.00     0.029 A 
ATOM     44  N   UNL A   1      39.865  29.984  29.808  1.00  0.00    -0.354 N 
ATOM     45  C   UNL A   1      43.589  28.048  30.825  1.00  0.00     0.074 A 
ATOM     46  C   UNL A   1      43.687  26.743  30.209  1.00  0.00     0.031 C 
ATOM     47  C   UNL A   1      37.831  30.149  28.893  1.00  0.00     0.029 A 
ATOM     48  C   UNL A   1      38.785  30.837  29.754  1.00  0.00     0.049 A 
ATOM     49  H   UNL A   1      40.686  30.187  30.311  1.00  0.00     0.167 HD
ATOM     50  C   UNL A   1      44.537  28.585  31.630  1.00  0.00     0.031 A 
ATOM     51  C   UNL A   1      38.583  32.034  30.340  1.00  0.00     0.031 A 
ATOM     52  C   UNL A   1      44.453  29.896  32.213  1.00  0.00     0.049 A 
ATOM     53  C   UNL A   1      39.666  32.619  31.205  1.00  0.00     0.074 A 
ATOM     54  C   UNL A   1      45.400  30.561  32.974  1.00  0.00     0.029 A 
ATOM     55  N   UNL A   1      43.363  30.744  32.099  1.00  0.00    -0.354 N 
ATOM     56  N   UNL A   1      40.836  32.114  31.512  1.00  0.00    -0.248 NA
ATOM     57  C   UNL A   1      39.405  33.941  31.793  1.00  0.00     0.031 C 
ATOM     58  C   UNL A   1      44.864  31.796  33.353  1.00  0.00     0.029 A 
ATOM     59  C   UNL A   1      43.603  31.917  32.792  1.00  0.00     0.049 A 
ATOM     60  H   UNL A   1      42.539  30.541  31.599  1.00  0.00     0.167 HD
ATOM     61  C   UNL A   1      41.462  33.067  32.306  1.00  0.00     0.074 A 
ATOM     62  C   UNL A   1      40.547  34.184  32.422  1.00  0.00     0.031 C 
ATOM     63  C   UNL A   1      42.686  33.023  32.888  1.00  0.00     0.031 A 
BRANCH  50  64
ATOM     64  C   UNL A   1      45.750  27.747  31.930  1.00  0.00    -0.014 A 
ATOM     65  C   UNL A   1      45.789  26.900  33.053  1.00  0.00     0.010 A 
ATOM     66  C   UNL A   1      46.850  27.774  31.053  1.00  0.00     0.010 A 
ATOM     67  C   UNL A   1      46.921  26.127  33.315  1.00  0.00     0.020 A 
ATOM     68  C   UNL A   1      47.975  26.982  31.300  1.00  0.00     0.020 A 
ATOM     69  C   UNL A   1      48.010  26.176  32.439  1.00  0.00     0.054 A 
BRANCH  69  70
ATOM     70  S   UNL A   1      49.458  25.143  32.791  1.00  0.00     0.124 S 
ATOM     71  O   UNL A   1      50.318  26.070  33.523  1.00  0.00    -0.237 OA
ATOM     72  O   UNL A   1      48.892  24.054  33.583  1.00  0.00    -0.237 OA
ATOM     73  O   UNL A   1      49.941  24.760  31.466  1.00  0.00    -0.744 OA
ENDBRANCH  69  70
ENDBRANCH  50  64
BRANCH  51  74
ATOM     74  C   UNL A   1      37.308  32.770  30.120  1.00  0.00    -0.014 A 
ATOM     75  C   UNL A   1      36.210  32.564  30.975  1.00  0.00     0.010 A 
ATOM     76  C   UNL A   1      37.179  33.672  29.048  1.00  0.00     0.010 A 
ATOM     77  C   UNL A   1      34.999  33.224  30.746  1.00  0.00     0.020 A 
ATOM     78  C   UNL A   1      35.978  34.353  28.831  1.00  0.00     0.020 A 
ATOM     79  C   UNL A   1      34.889  34.113  29.673  1.00  0.00     0.054 A 
BRANCH  79  80
ATOM     80  S   UNL A   1      33.320  34.986  29.412  1.00  0.00     0.124 S 
ATOM     81  O   UNL A   1      33.775  36.300  28.969  1.00  0.00    -0.237 OA
ATOM     82  O   UNL A   1      32.665  34.165  28.396  1.00  0.00    -0.237 OA
ATOM     83  O   UNL A   1      32.689  34.951  30.729  1.00  0.00    -0.744 OA
ENDBRANCH  79  80
ENDBRANCH  51  74
BRANCH  63  84
ATOM     84  C   UNL A   1      43.125  34.229  33.670  1.00  0.00    -0.014 A 
ATOM     85  C   UNL A   1      43.625  35.373  33.023  1.00  0.00     0.010 A 
ATOM     86  C   UNL A   1      42.970  34.240  35.068  1.00  0.00     0.010 A 
ATOM     87  C   UNL A   1      43.987  36.499  33.766  1.00  0.00     0.020 A 
ATOM     88  C   UNL A   1      43.310  35.373  35.811  1.00  0.00     0.020 A 
ATOM     89  C   UNL A   1      43.827  36.492  35.155  1.00  0.00     0.054 A 
BRANCH  89  90
ATOM     90  S   UNL A   1      44.252  37.986  36.093  1.00  0.00     0.124 S 
ATOM     91  O   UNL A   1      44.010  39.040  35.110  1.00  0.00    -0.237 OA
ATOM     92  O   UNL A   1      43.314  37.942  37.212  1.00  0.00    -0.237 OA
ATOM     93  O   UNL A   1      45.652  37.780  36.454  1.00  0.00    -0.744 OA
ENDBRANCH  89  90
ENDBRANCH  63  84
ENDBRANCH  37  38
ENDBRANCH  29  32
ENDBRANCH  27  28
ENDBRANCH   1  27
TORSDOF 17
ENDMDL
MODEL 2
REMARK VINA RESULT:     -10.8      3.051      9.269
REMARK SMILES O=C(NCCCCNC(=O)c1ccc(-c2c3nc(c(-c4ccc(S(=O)(=O)[O-])cc4)c4ccc([nH]4)c(-c4ccc(S(=O)(=O)[O-])cc4)c4nc(c(-c5ccc(S(=O)(=O)[O-])cc5)c5ccc2[nH]5)C=C4)C=C3)cc1)C1=Cc2cc(OC(F)(F)F)ccc2O[C@@H]1C(F)(F)F
REMARK SMILES IDX 6 1 5 2 4 3 3 4 1 5 2 6 71 8 72 9 85 10 73 11 84 12 74 13
REMARK SMILES IDX 83 14 75 15 82 16 81 17 86 18 87 19 88 20 89 21 76 22 77 23
REMARK SMILES IDX 78 24 79 25 80 26 7 27 8 28 9 29 10 31 11 32 12 33 70 34
REMARK SMILES IDX 13 35 69 36 14 37 15 38 16 39 63 40 17 41 68 42 62 43 64 44
REMARK SMILES IDX 18 45 67 46 61 47 60 48 19 50 49 51 30 52 48 53 31 54 34 55
REMARK SMILES IDX 47 56 65 57 32 58 33 59 46 61 66 62 35 63 20 64 21 65 29 66
REMARK SMILES IDX 22 67 28 68 23 69 24 70 25 71 26 72 27 73 50 74 51 75 59 76
REMARK SMILES IDX 52 77 58 78 53 79 54 80 55 81 56 82 57 83 36 84 37 85 45 86
REMARK SMILES IDX 38 87 44 88 39 89 40 90 41 91 42 92 43 93
REMARK H PARENT 3 7 8 30 64 49 34 60
REMARK Flexibility Score: inf
ROOT
ATOM      1  C   UNL A   1      33.083  29.429  25.407  1.00  0.00     0.023 C 
ENDROOT
BRANCH   1   2
ATOM      2  C   UNL A   1      31.574  29.568  25.193  1.00  0.00     0.023 C 
BRANCH   2   3
ATOM      3  C   UNL A   1      30.952  28.407  24.411  1.00  0.00     0.116 C 
BRANCH   3   4
ATOM      4  N   UNL A   1      30.560  27.277  25.262  1.00  0.00    -0.352 N 
ATOM      5  O   UNL A   1      30.879  25.338  26.406  1.00  0.00    -0.270 OA
ATOM      6  C   UNL A   1      31.194  26.077  25.484  1.00  0.00     0.251 C 
ATOM      7  H   UNL A   1      29.715  27.399  25.751  1.00  0.00     0.163 HD
BRANCH   6   8
ATOM      8  C   UNL A   1      32.318  25.740  24.594  1.00  0.00     0.067 C 
ATOM      9  C   UNL A   1      33.539  25.719  25.144  1.00  0.00     0.025 C 
ATOM     10  C   UNL A   1      31.997  25.088  23.285  1.00  0.00     0.314 C 
ATOM     11  C   UNL A   1      34.336  24.554  24.747  1.00  0.00     0.021 A 
ATOM     12  O   UNL A   1      32.629  23.789  23.159  1.00  0.00    -0.475 OA
ATOM     13  C   UNL A   1      35.435  24.218  25.542  1.00  0.00     0.058 A 
ATOM     14  C   UNL A   1      33.773  23.590  23.892  1.00  0.00     0.128 A 
ATOM     15  C   UNL A   1      35.878  22.896  25.586  1.00  0.00     0.130 A 
ATOM     16  C   UNL A   1      34.264  22.287  23.892  1.00  0.00     0.051 A 
ATOM     17  C   UNL A   1      35.300  21.932  24.759  1.00  0.00     0.050 A 
BRANCH  10  18
ATOM     18  C   UNL A   1      32.352  25.987  22.089  1.00  0.00     0.429 C 
ATOM     19  F   UNL A   1      33.286  26.909  22.434  1.00  0.00    -0.167 F 
ATOM     20  F   UNL A   1      32.868  25.281  21.056  1.00  0.00    -0.167 F 
ATOM     21  F   UNL A   1      31.282  26.668  21.614  1.00  0.00    -0.167 F 
ENDBRANCH  10  18
BRANCH  15  22
ATOM     22  O   UNL A   1      36.874  22.625  26.483  1.00  0.00    -0.406 OA
BRANCH  22  23
ATOM     23  C   UNL A   1      38.185  22.812  25.948  1.00  0.00     0.573 C 
ATOM     24  F   UNL A   1      39.097  22.898  26.943  1.00  0.00    -0.132 F 
ATOM     25  F   UNL A   1      38.497  21.807  25.108  1.00  0.00    -0.132 F 
ATOM     26  F   UNL A   1      38.197  23.972  25.256  1.00  0.00    -0.132 F 
ENDBRANCH  22  23
ENDBRANCH  15  22
ENDBRANCH   6   8
ENDBRANCH   3   4
ENDBRANCH   2   3
ENDBRANCH   1   2
BRANCH   1  27
ATOM     27  C   UNL A   1      33.559  29.278  26.850  1.00  0.00     0.116 C 
BRANCH  27  28
ATOM     28  N   UNL A   1      33.510  30.499  27.640  1.00  0.00    -0.352 N 
ATOM     29  C   UNL A   1      34.504  31.056  28.422  1.00  0.00     0.251 C 
ATOM     30  H   UNL A   1      32.658  30.992  27.615  1.00  0.00     0.163 HD
ATOM     31  O   UNL A   1      34.313  32.094  29.035  1.00  0.00    -0.269 OA
BRANCH  29  32
ATOM     32  C   UNL A   1      35.790  30.331  28.560  1.00  0.00     0.039 A 
ATOM     33  C   UNL A   1      36.717  30.417  27.519  1.00  0.00     0.014 A 
ATOM     34  C   UNL A   1      36.117  29.677  29.749  1.00  0.00     0.014 A 
ATOM     35  C   UNL A   1      38.018  29.947  27.716  1.00  0.00     0.010 A 
ATOM     36  C   UNL A   1      37.431  29.271  29.967  1.00  0.00     0.010 A 
ATOM     37  C   UNL A   1      38.402  29.428  28.963  1.00  0.00    -0.014 A 
BRANCH  37  38
ATOM     38  C   UNL A   1      39.820  29.092  29.257  1.00  0.00     0.031 A 
ATOM     39  C   UNL A   1      40.734  30.129  29.850  1.00  0.00     0.074 A 
ATOM     40  C   UNL A   1      40.306  27.885  28.902  1.00  0.00     0.049 A 
ATOM     41  N   UNL A   1      42.018  30.053  30.090  1.00  0.00    -0.248 NA
ATOM     42  C   UNL A   1      40.135  31.430  30.186  1.00  0.00     0.031 C 
ATOM     43  C   UNL A   1      39.536  26.810  28.267  1.00  0.00     0.029 A 
ATOM     44  N   UNL A   1      41.570  27.359  29.012  1.00  0.00    -0.354 N 
ATOM     45  C   UNL A   1      42.385  31.302  30.575  1.00  0.00     0.074 A 
ATOM     46  C   UNL A   1      41.197  32.127  30.564  1.00  0.00     0.031 C 
ATOM     47  C   UNL A   1      40.338  25.751  28.065  1.00  0.00     0.029 A 
ATOM     48  C   UNL A   1      41.685  26.079  28.519  1.00  0.00     0.049 A 
ATOM     49  H   UNL A   1      42.325  27.852  29.407  1.00  0.00     0.167 HD
ATOM     50  C   UNL A   1      43.599  31.720  31.005  1.00  0.00     0.031 A 
ATOM     51  C   UNL A   1      42.755  25.264  28.433  1.00  0.00     0.031 A 
ATOM     52  C   UNL A   1      44.771  30.888  31.048  1.00  0.00     0.049 A 
ATOM     53  C   UNL A   1      44.085  25.744  28.947  1.00  0.00     0.074 A 
ATOM     54  C   UNL A   1      46.026  31.196  31.546  1.00  0.00     0.029 A 
ATOM     55  N   UNL A   1      44.834  29.585  30.579  1.00  0.00    -0.354 N 
ATOM     56  N   UNL A   1      44.391  26.903  29.480  1.00  0.00    -0.248 NA
ATOM     57  C   UNL A   1      45.211  24.803  28.857  1.00  0.00     0.031 C 
ATOM     58  C   UNL A   1      46.858  30.091  31.340  1.00  0.00     0.029 A 
ATOM     59  C   UNL A   1      46.110  29.081  30.757  1.00  0.00     0.049 A 
ATOM     60  H   UNL A   1      44.082  29.092  30.179  1.00  0.00     0.167 HD
ATOM     61  C   UNL A   1      45.738  26.820  29.814  1.00  0.00     0.074 A 
ATOM     62  C   UNL A   1      46.184  25.494  29.435  1.00  0.00     0.031 C 
ATOM     63  C   UNL A   1      46.534  27.757  30.384  1.00  0.00     0.031 A 
BRANCH  50  64
ATOM     64  C   UNL A   1      43.721  33.149  31.462  1.00  0.00    -0.014 A 
ATOM     65  C   UNL A   1      44.061  34.173  30.561  1.00  0.00     0.010 A 
ATOM     66  C   UNL A   1      43.451  33.476  32.804  1.00  0.00     0.010 A 
ATOM     67  C   UNL A   1      44.167  35.494  31.001  1.00  0.00     0.020 A 
ATOM     68  C   UNL A   1      43.531  34.801  33.242  1.00  0.00     0.020 A 
ATOM     69  C   UNL A   1      43.906  35.799  32.342  1.00  0.00     0.054 A 
BRANCH  69  70
ATOM     70  S   UNL A   1      44.027  37.526  32.881  1.00  0.00     0.124 S 
ATOM     71  O   UNL A   1      42.918  37.624  33.827  1.00  0.00    -0.237 OA
ATOM     72  O   UNL A   1      45.362  37.586  33.471  1.00  0.00    -0.237 OA
ATOM     73  O   UNL A   1      43.861  38.288  31.646  1.00  0.00    -0.744 OA
ENDBRANCH  69  70
ENDBRANCH  50  64
BRANCH  51  74
ATOM     74  C   UNL A   1      42.615  23.902  27.849  1.00  0.00    -0.014 A 
ATOM     75  C   UNL A   1      42.580  23.725  26.454  1.00  0.00     0.010 A 
ATOM     76  C   UNL A   1      42.503  22.775  28.684  1.00  0.00     0.010 A 
ATOM     77  C   UNL A   1      42.408  22.451  25.904  1.00  0.00     0.020 A 
ATOM     78  C   UNL A   1      42.357  21.496  28.137  1.00  0.00     0.020 A 
ATOM     79  C   UNL A   1      42.294  21.344  26.750  1.00  0.00     0.054 A 
BRANCH  79  80
ATOM     80  S   UNL A   1      42.106  19.694  26.019  1.00  0.00     0.124 S 
ATOM     81  O   UNL A   1      43.146  19.696  24.996  1.00  0.00    -0.237 OA
ATOM     82  O   UNL A   1      42.339  18.812  27.159  1.00  0.00    -0.237 OA
ATOM     83  O   UNL A   1      40.733  19.701  25.518  1.00  0.00    -0.744 OA
ENDBRANCH  79  80
ENDBRANCH  51  74
BRANCH  63  84
ATOM     84  C   UNL A   1      47.959  27.373  30.670  1.00  0.00    -0.014 A 
ATOM     85  C   UNL A   1      48.302  26.664  31.835  1.00  0.00     0.010 A 
ATOM     86  C   UNL A   1      48.958  27.669  29.725  1.00  0.00     0.010 A 
ATOM     87  C   UNL A   1      49.625  26.280  32.060  1.00  0.00     0.020 A 
ATOM     88  C   UNL A   1      50.278  27.266  29.937  1.00  0.00     0.020 A 
ATOM     89  C   UNL A   1      50.605  26.583  31.110  1.00  0.00     0.054 A 
BRANCH  89  90
ATOM     90  S   UNL A   1      52.308  26.025  31.398  1.00  0.00     0.124 S 
ATOM     91  O   UNL A   1      52.099  24.684  31.938  1.00  0.00    -0.237 OA
ATOM     92  O   UNL A   1      52.896  26.081  30.062  1.00  0.00    -0.237 OA
ATOM     93  O   UNL A   1      52.835  27.003  32.346  1.00  0.00    -0.744 OA
ENDBRANCH  89  90
ENDBRANCH  63  84
ENDBRANCH  37  38
ENDBRANCH  29  32
ENDBRANCH  27  28
ENDBRANCH   1  27
TORSDOF 17
ENDMDL
MODEL 3
REMARK VINA RESULT:     -10.8      3.326      5.300
REMARK SMILES O=C(NCCCCNC(=O)c1ccc(-c2c3nc(c(-c4ccc(S(=O)(=O)[O-])cc4)c4ccc([nH]4)c(-c4ccc(S(=O)(=O)[O-])cc4)c4nc(c(-c5ccc(S(=O)(=O)[O-])cc5)c5ccc2[nH]5)C=C4)C=C3)cc1)C1=Cc2cc(OC(F)(F)F)ccc2O[C@@H]1C(F)(F)F
REMARK SMILES IDX 6 1 5 2 4 3 3 4 1 5 2 6 71 8 72 9 85 10 73 11 84 12 74 13
REMARK SMILES IDX 83 14 75 15 82 16 81 17 86 18 87 19 88 20 89 21 76 22 77 23
REMARK SMILES IDX 78 24 79 25 80 26 7 27 8 28 9 29 10 31 11 32 12 33 70 34
REMARK SMILES IDX 13 35 69 36 14 37 15 38 16 39 63 40 17 41 68 42 62 43 64 44
REMARK SMILES IDX 18 45 67 46 61 47 60 48 19 50 49 51 30 52 48 53 31 54 34 55
REMARK SMILES IDX 47 56 65 57 32 58 33 59 46 61 66 62 35 63 20 64 21 65 29 66
REMARK SMILES IDX 22 67 28 68 23 69 24 70 25 71 26 72 27 73 50 74 51 75 59 76
REMARK SMILES IDX 52 77 58 78 53 79 54 80 55 81 56 82 57 83 36 84 37 85 45 86
REMARK SMILES IDX 38 87 44 88 39 89 40 90 41 91 42 92 43 93
REMARK H PARENT 3 7 8 30 64 49 34 60
REMARK Flexibility Score: inf
ROOT
ATOM      1  C   UNL A   1      37.666  22.958  25.709  1.00  0.00     0.023 C 
ENDROOT
BRANCH   1   2
ATOM      2  C   UNL A   1      36.413  23.593  25.101  1.00  0.00     0.023 C 
BRANCH   2   3
ATOM      3  C   UNL A   1      35.642  22.662  24.161  1.00  0.00     0.116 C 
BRANCH   3   4
ATOM      4  N   UNL A   1      35.134  23.337  22.961  1.00  0.00    -0.352 N 
ATOM      5  O   UNL A   1      33.568  24.353  21.664  1.00  0.00    -0.270 OA
ATOM      6  C   UNL A   1      33.840  23.562  22.556  1.00  0.00     0.251 C 
ATOM      7  H   UNL A   1      35.828  23.684  22.355  1.00  0.00     0.163 HD
BRANCH   6   8
ATOM      8  C   UNL A   1      32.777  22.851  23.286  1.00  0.00     0.067 C 
ATOM      9  C   UNL A   1      32.459  21.625  22.849  1.00  0.00     0.025 C 
ATOM     10  C   UNL A   1      32.411  23.356  24.648  1.00  0.00     0.314 C 
ATOM     11  C   UNL A   1      32.313  20.642  23.926  1.00  0.00     0.021 A 
ATOM     12  O   UNL A   1      32.604  22.344  25.669  1.00  0.00    -0.475 OA
ATOM     13  C   UNL A   1      32.381  19.289  23.583  1.00  0.00     0.058 A 
ATOM     14  C   UNL A   1      32.537  21.036  25.257  1.00  0.00     0.128 A 
ATOM     15  C   UNL A   1      32.805  18.356  24.530  1.00  0.00     0.130 A 
ATOM     16  C   UNL A   1      32.896  20.090  26.214  1.00  0.00     0.051 A 
ATOM     17  C   UNL A   1      33.056  18.752  25.845  1.00  0.00     0.050 A 
BRANCH  10  18
ATOM     18  C   UNL A   1      30.977  23.911  24.691  1.00  0.00     0.429 C 
ATOM     19  F   UNL A   1      30.976  25.236  24.978  1.00  0.00    -0.167 F 
ATOM     20  F   UNL A   1      30.341  23.771  23.504  1.00  0.00    -0.167 F 
ATOM     21  F   UNL A   1      30.213  23.302  25.629  1.00  0.00    -0.167 F 
ENDBRANCH  10  18
BRANCH  15  22
ATOM     22  O   UNL A   1      32.966  17.074  24.083  1.00  0.00    -0.406 OA
BRANCH  22  23
ATOM     23  C   UNL A   1      34.330  16.719  23.858  1.00  0.00     0.573 C 
ATOM     24  F   UNL A   1      35.135  17.794  24.022  1.00  0.00    -0.132 F 
ATOM     25  F   UNL A   1      34.699  15.724  24.687  1.00  0.00    -0.132 F 
ATOM     26  F   UNL A   1      34.451  16.286  22.585  1.00  0.00    -0.132 F 
ENDBRANCH  22  23
ENDBRANCH  15  22
ENDBRANCH   6   8
ENDBRANCH   3   4
ENDBRANCH   2   3
ENDBRANCH   1   2
BRANCH   1  27
ATOM     27  C   UNL A   1      38.556  23.869  26.551  1.00  0.00     0.116 C 
BRANCH  27  28
ATOM     28  N   UNL A   1      39.977  23.779  26.254  1.00  0.00    -0.352 N 
ATOM     29  C   UNL A   1      40.999  24.603  26.687  1.00  0.00     0.251 C 
ATOM     30  H   UNL A   1      40.246  23.035  25.668  1.00  0.00     0.163 HD
ATOM     31  O   UNL A   1      42.153  24.401  26.348  1.00  0.00    -0.269 OA
BRANCH  29  32
ATOM     32  C   UNL A   1      40.657  25.784  27.516  1.00  0.00     0.039 A 
ATOM     33  C   UNL A   1      39.693  25.635  28.517  1.00  0.00     0.014 A 
ATOM     34  C   UNL A   1      41.363  26.980  27.382  1.00  0.00     0.014 A 
ATOM     35  C   UNL A   1      39.521  26.652  29.461  1.00  0.00     0.010 A 
ATOM     36  C   UNL A   1      41.238  27.961  28.362  1.00  0.00     0.010 A 
ATOM     37  C   UNL A   1      40.336  27.794  29.427  1.00  0.00    -0.014 A 
BRANCH  37  38
ATOM     38  C   UNL A   1      40.301  28.801  30.520  1.00  0.00     0.031 A 
ATOM     39  C   UNL A   1      41.192  28.645  31.721  1.00  0.00     0.074 A 
ATOM     40  C   UNL A   1      39.399  29.804  30.474  1.00  0.00     0.049 A 
ATOM     41  N   UNL A   1      41.238  29.365  32.812  1.00  0.00    -0.248 NA
ATOM     42  C   UNL A   1      42.132  27.511  31.709  1.00  0.00     0.031 C 
ATOM     43  C   UNL A   1      38.438  30.035  29.390  1.00  0.00     0.029 A 
ATOM     44  N   UNL A   1      39.131  30.812  31.368  1.00  0.00    -0.354 N 
ATOM     45  C   UNL A   1      42.185  28.757  33.626  1.00  0.00     0.074 A 
ATOM     46  C   UNL A   1      42.665  27.590  32.919  1.00  0.00     0.031 C 
ATOM     47  C   UNL A   1      37.704  31.124  29.675  1.00  0.00     0.029 A 
ATOM     48  C   UNL A   1      38.113  31.649  30.972  1.00  0.00     0.049 A 
ATOM     49  H   UNL A   1      39.623  30.926  32.213  1.00  0.00     0.167 HD
ATOM     50  C   UNL A   1      42.627  29.143  34.847  1.00  0.00     0.031 A 
ATOM     51  C   UNL A   1      37.563  32.714  31.589  1.00  0.00     0.031 A 
ATOM     52  C   UNL A   1      42.173  30.323  35.533  1.00  0.00     0.049 A 
ATOM     53  C   UNL A   1      38.094  33.139  32.931  1.00  0.00     0.074 A 
ATOM     54  C   UNL A   1      42.621  30.843  36.735  1.00  0.00     0.029 A 
ATOM     55  N   UNL A   1      41.172  31.166  35.079  1.00  0.00    -0.354 N 
ATOM     56  N   UNL A   1      39.050  32.597  33.646  1.00  0.00    -0.248 NA
ATOM     57  C   UNL A   1      37.479  34.326  33.543  1.00  0.00     0.031 C 
ATOM     58  C   UNL A   1      41.861  31.981  37.027  1.00  0.00     0.029 A 
ATOM     59  C   UNL A   1      40.973  32.193  35.985  1.00  0.00     0.049 A 
ATOM     60  H   UNL A   1      40.676  31.052  34.236  1.00  0.00     0.167 HD
ATOM     61  C   UNL A   1      39.170  33.392  34.780  1.00  0.00     0.074 A 
ATOM     62  C   UNL A   1      38.198  34.459  34.650  1.00  0.00     0.031 C 
ATOM     63  C   UNL A   1      40.010  33.252  35.835  1.00  0.00     0.031 A 
BRANCH  50  64
ATOM     64  C   UNL A   1      43.654  28.276  35.522  1.00  0.00    -0.014 A 
ATOM     65  C   UNL A   1      43.274  27.277  36.437  1.00  0.00     0.010 A 
ATOM     66  C   UNL A   1      45.016  28.434  35.204  1.00  0.00     0.010 A 
ATOM     67  C   UNL A   1      44.240  26.478  37.052  1.00  0.00     0.020 A 
ATOM     68  C   UNL A   1      45.983  27.619  35.800  1.00  0.00     0.020 A 
ATOM     69  C   UNL A   1      45.590  26.658  36.733  1.00  0.00     0.054 A 
BRANCH  69  70
ATOM     70  S   UNL A   1      46.822  25.591  37.528  1.00  0.00     0.124 S 
ATOM     71  O   UNL A   1      48.063  26.051  36.909  1.00  0.00    -0.237 OA
ATOM     72  O   UNL A   1      46.668  25.920  38.943  1.00  0.00    -0.237 OA
ATOM     73  O   UNL A   1      46.403  24.242  37.157  1.00  0.00    -0.744 OA
ENDBRANCH  69  70
ENDBRANCH  50  64
BRANCH  51  74
ATOM     74  C   UNL A   1      36.454  33.466  30.940  1.00  0.00    -0.014 A 
ATOM     75  C   UNL A   1      35.220  33.625  31.598  1.00  0.00     0.010 A 
ATOM     76  C   UNL A   1      36.619  34.017  29.656  1.00  0.00     0.010 A 
ATOM     77  C   UNL A   1      34.164  34.296  30.974  1.00  0.00     0.020 A 
ATOM     78  C   UNL A   1      35.573  34.711  29.040  1.00  0.00     0.020 A 
ATOM     79  C   UNL A   1      34.346  34.832  29.696  1.00  0.00     0.054 A 
BRANCH  79  80
ATOM     80  S   UNL A   1      32.976  35.729  28.916  1.00  0.00     0.124 S 
ATOM     81  O   UNL A   1      33.677  36.778  28.184  1.00  0.00    -0.237 OA
ATOM     82  O   UNL A   1      32.346  34.696  28.097  1.00  0.00    -0.237 OA
ATOM     83  O   UNL A   1      32.177  36.182  30.052  1.00  0.00    -0.744 OA
ENDBRANCH  79  80
ENDBRANCH  51  74
BRANCH  63  84
ATOM     84  C   UNL A   1      39.945  34.296  36.915  1.00  0.00    -0.014 A 
ATOM     85  C   UNL A   1      40.698  35.480  36.827  1.00  0.00     0.010 A 
ATOM     86  C   UNL A   1      39.066  34.117  37.998  1.00  0.00     0.010 A 
ATOM     87  C   UNL A   1      40.591  36.456  37.820  1.00  0.00     0.020 A 
ATOM     88  C   UNL A   1      38.939  35.101  38.980  1.00  0.00     0.020 A 
ATOM     89  C   UNL A   1      39.712  36.261  38.890  1.00  0.00     0.054 A 
BRANCH  89  90
ATOM     90  S   UNL A   1      39.548  37.568  40.138  1.00  0.00     0.124 S 
ATOM     91  O   UNL A   1      39.069  36.820  41.298  1.00  0.00    -0.237 OA
ATOM     92  O   UNL A   1      40.909  38.087  40.242  1.00  0.00    -0.237 OA
ATOM     93  O   UNL A   1      38.580  38.489  39.547  1.00  0.00    -0.744 OA
ENDBRANCH  89  90
ENDBRANCH  63  84
ENDBRANCH  37  38
ENDBRANCH  29  32
ENDBRANCH  27  28
ENDBRANCH   1  27
TORSDOF 17
ENDMDL
