MODEL 1
REMARK VINA RESULT:     -10.6      0.000      0.000
REMARK SMILES CC[C@](C)(NC(=O)c1cc(F)ccc1C)C(=O)NCCCCNC(=O)c1ccc(-c2c3nc(c(-c4ccc(S(=O)(=O)[O-])cc4)c4ccc([nH]4)c(-c4ccc(S(=O)(=O)[O-])cc4)c4nc(c(-c5ccc(S(=O)(=O)[O-])cc5)c5ccc2[nH]5)C=C4)C=C3)cc1
REMARK SMILES IDX 21 1 20 2 19 3 18 4 16 5 17 6 3 8 4 9 2 10 1 11 5 12 6 13
REMARK SMILES IDX 7 15 8 16 9 17 14 18 10 19 13 20 15 21 11 22 12 23 22 24
REMARK SMILES IDX 23 25 24 26 25 28 26 29 27 30 85 31 28 32 84 33 29 34 30 35
REMARK SMILES IDX 31 36 78 37 32 38 83 39 77 40 79 41 33 42 82 43 76 44 75 45
REMARK SMILES IDX 34 47 64 48 45 49 63 50 46 51 49 52 62 53 80 54 47 55 48 56
REMARK SMILES IDX 61 58 81 59 50 60 35 61 36 62 44 63 37 64 43 65 38 66 39 67
REMARK SMILES IDX 40 68 41 69 42 70 65 71 66 72 74 73 67 74 73 75 68 76 69 77
REMARK SMILES IDX 70 78 71 79 72 80 51 81 52 82 60 83 53 84 59 85 54 86 55 87
REMARK SMILES IDX 56 88 57 89 58 90
REMARK H PARENT 18 7 5 14 23 27 79 46 49 57
REMARK Flexibility Score: inf
ROOT
ATOM      1  C   UNL A   1      35.803  22.925  24.611  1.00  0.00     0.023 C 
ENDROOT
BRANCH   1   2
ATOM      2  C   UNL A   1      34.498  23.717  24.713  1.00  0.00     0.023 C 
BRANCH   2   3
ATOM      3  C   UNL A   1      34.497  25.188  25.171  1.00  0.00     0.116 C 
BRANCH   3   4
ATOM      4  N   UNL A   1      33.381  25.612  26.015  1.00  0.00    -0.354 N 
ATOM      5  C   UNL A   1      32.637  26.718  26.294  1.00  0.00     0.245 C 
ATOM      6  O   UNL A   1      31.625  26.420  26.959  1.00  0.00    -0.272 OA
ATOM      7  H   UNL A   1      33.064  24.851  26.556  1.00  0.00     0.163 HD
BRANCH   5   8
ATOM      8  C   UNL A   1      32.858  28.275  25.925  1.00  0.00     0.116 C 
ATOM      9  C   UNL A   1      34.282  28.634  26.448  1.00  0.00     0.045 C 
BRANCH   8  10
ATOM     10  C   UNL A   1      31.820  29.176  26.652  1.00  0.00     0.035 C 
ATOM     11  C   UNL A   1      32.153  30.659  26.740  1.00  0.00     0.007 C 
ENDBRANCH   8  10
BRANCH   8  12
ATOM     12  N   UNL A   1      32.877  28.782  24.495  1.00  0.00    -0.338 N 
ATOM     13  C   UNL A   1      32.635  28.097  23.319  1.00  0.00     0.252 C 
ATOM     14  H   UNL A   1      33.094  29.737  24.390  1.00  0.00     0.164 HD
ATOM     15  O   UNL A   1      33.348  28.245  22.334  1.00  0.00    -0.269 OA
BRANCH  13  16
ATOM     16  C   UNL A   1      31.393  27.322  23.239  1.00  0.00     0.045 A 
ATOM     17  C   UNL A   1      31.401  25.937  23.114  1.00  0.00     0.053 A 
ATOM     18  C   UNL A   1      30.192  28.031  23.290  1.00  0.00    -0.038 A 
ATOM     19  C   UNL A   1      30.215  25.254  23.344  1.00  0.00     0.124 A 
ATOM     20  C   UNL A   1      29.045  27.325  23.650  1.00  0.00     0.007 A 
ATOM     21  C   UNL A   1      30.195  29.497  22.947  1.00  0.00     0.045 C 
ATOM     22  F   UNL A   1      30.183  23.921  23.231  1.00  0.00    -0.207 F 
ATOM     23  C   UNL A   1      29.064  25.934  23.719  1.00  0.00     0.039 A 
ENDBRANCH  13  16
ENDBRANCH   8  12
ENDBRANCH   5   8
ENDBRANCH   3   4
ENDBRANCH   2   3
ENDBRANCH   1   2
BRANCH   1  24
ATOM     24  C   UNL A   1      37.026  23.629  25.155  1.00  0.00     0.116 C 
BRANCH  24  25
ATOM     25  N   UNL A   1      38.185  22.770  25.390  1.00  0.00    -0.352 N 
ATOM     26  C   UNL A   1      39.272  23.034  26.195  1.00  0.00     0.251 C 
ATOM     27  H   UNL A   1      38.190  21.905  24.919  1.00  0.00     0.163 HD
ATOM     28  O   UNL A   1      40.185  22.226  26.321  1.00  0.00    -0.269 OA
BRANCH  26  29
ATOM     29  C   UNL A   1      39.334  24.364  26.827  1.00  0.00     0.039 A 
ATOM     30  C   UNL A   1      38.888  24.505  28.141  1.00  0.00     0.014 A 
ATOM     31  C   UNL A   1      40.042  25.382  26.189  1.00  0.00     0.014 A 
ATOM     32  C   UNL A   1      39.232  25.655  28.847  1.00  0.00     0.010 A 
ATOM     33  C   UNL A   1      40.518  26.437  26.944  1.00  0.00     0.010 A 
ATOM     34  C   UNL A   1      40.087  26.607  28.266  1.00  0.00    -0.014 A 
BRANCH  34  35
ATOM     35  C   UNL A   1      40.463  27.849  28.976  1.00  0.00     0.031 A 
ATOM     36  C   UNL A   1      41.832  27.930  29.600  1.00  0.00     0.074 A 
ATOM     37  C   UNL A   1      39.579  28.857  29.109  1.00  0.00     0.049 A 
ATOM     38  N   UNL A   1      42.352  28.879  30.332  1.00  0.00    -0.248 NA
ATOM     39  C   UNL A   1      42.718  26.763  29.421  1.00  0.00     0.031 C 
ATOM     40  C   UNL A   1      38.202  28.860  28.605  1.00  0.00     0.029 A 
ATOM     41  N   UNL A   1      39.712  30.083  29.707  1.00  0.00    -0.354 N 
ATOM     42  C   UNL A   1      43.597  28.403  30.722  1.00  0.00     0.074 A 
ATOM     43  C   UNL A   1      43.719  27.053  30.233  1.00  0.00     0.031 C 
ATOM     44  C   UNL A   1      37.636  30.049  28.875  1.00  0.00     0.029 A 
ATOM     45  C   UNL A   1      38.596  30.878  29.595  1.00  0.00     0.049 A 
ATOM     46  H   UNL A   1      40.531  30.368  30.173  1.00  0.00     0.167 HD
ATOM     47  C   UNL A   1      44.581  29.052  31.385  1.00  0.00     0.031 A 
ATOM     48  C   UNL A   1      38.383  32.139  30.019  1.00  0.00     0.031 A 
ATOM     49  C   UNL A   1      44.474  30.417  31.810  1.00  0.00     0.049 A 
ATOM     50  C   UNL A   1      39.507  32.861  30.715  1.00  0.00     0.074 A 
ATOM     51  C   UNL A   1      45.426  31.204  32.429  1.00  0.00     0.029 A 
ATOM     52  N   UNL A   1      43.342  31.201  31.640  1.00  0.00    -0.354 N 
ATOM     53  N   UNL A   1      40.705  32.419  31.019  1.00  0.00    -0.248 NA
ATOM     54  C   UNL A   1      39.258  34.254  31.109  1.00  0.00     0.031 C 
ATOM     55  C   UNL A   1      44.854  32.458  32.666  1.00  0.00     0.029 A 
ATOM     56  C   UNL A   1      43.567  32.464  32.150  1.00  0.00     0.049 A 
ATOM     57  H   UNL A   1      42.505  30.902  31.218  1.00  0.00     0.167 HD
ATOM     58  C   UNL A   1      41.362  33.488  31.618  1.00  0.00     0.074 A 
ATOM     59  C   UNL A   1      40.433  34.601  31.617  1.00  0.00     0.031 C 
ATOM     60  C   UNL A   1      42.618  33.548  32.125  1.00  0.00     0.031 A 
BRANCH  47  61
ATOM     61  C   UNL A   1      45.849  28.286  31.655  1.00  0.00    -0.014 A 
ATOM     62  C   UNL A   1      46.957  28.389  30.791  1.00  0.00     0.010 A 
ATOM     63  C   UNL A   1      45.932  27.443  32.775  1.00  0.00     0.010 A 
ATOM     64  C   UNL A   1      48.099  27.617  31.009  1.00  0.00     0.020 A 
ATOM     65  C   UNL A   1      47.088  26.695  33.016  1.00  0.00     0.020 A 
ATOM     66  C   UNL A   1      48.156  26.771  32.119  1.00  0.00     0.054 A 
BRANCH  66  67
ATOM     67  S   UNL A   1      49.657  25.790  32.386  1.00  0.00     0.124 S 
ATOM     68  O   UNL A   1      50.665  26.831  32.578  1.00  0.00    -0.237 OA
ATOM     69  O   UNL A   1      49.324  25.012  33.576  1.00  0.00    -0.237 OA
ATOM     70  O   UNL A   1      49.788  25.016  31.155  1.00  0.00    -0.744 OA
ENDBRANCH  66  67
ENDBRANCH  47  61
BRANCH  48  71
ATOM     71  C   UNL A   1      37.078  32.807  29.758  1.00  0.00    -0.014 A 
ATOM     72  C   UNL A   1      36.096  32.878  30.764  1.00  0.00     0.010 A 
ATOM     73  C   UNL A   1      36.814  33.396  28.508  1.00  0.00     0.010 A 
ATOM     74  C   UNL A   1      34.871  33.505  30.519  1.00  0.00     0.020 A 
ATOM     75  C   UNL A   1      35.599  34.046  28.267  1.00  0.00     0.020 A 
ATOM     76  C   UNL A   1      34.630  34.087  29.271  1.00  0.00     0.054 A 
BRANCH  76  77
ATOM     77  S   UNL A   1      33.052  34.939  28.992  1.00  0.00     0.124 S 
ATOM     78  O   UNL A   1      32.457  34.923  30.325  1.00  0.00    -0.237 OA
ATOM     79  O   UNL A   1      33.483  36.248  28.507  1.00  0.00    -0.237 OA
ATOM     80  O   UNL A   1      32.384  34.103  27.997  1.00  0.00    -0.744 OA
ENDBRANCH  76  77
ENDBRANCH  48  71
BRANCH  60  81
ATOM     81  C   UNL A   1      43.069  34.864  32.693  1.00  0.00    -0.014 A 
ATOM     82  C   UNL A   1      43.681  35.832  31.879  1.00  0.00     0.010 A 
ATOM     83  C   UNL A   1      42.805  35.161  34.043  1.00  0.00     0.010 A 
ATOM     84  C   UNL A   1      44.047  37.069  32.414  1.00  0.00     0.020 A 
ATOM     85  C   UNL A   1      43.144  36.406  34.572  1.00  0.00     0.020 A 
ATOM     86  C   UNL A   1      43.774  37.348  33.757  1.00  0.00     0.054 A 
BRANCH  86  87
ATOM     87  S   UNL A   1      44.211  38.980  34.412  1.00  0.00     0.124 S 
ATOM     88  O   UNL A   1      45.510  39.219  33.791  1.00  0.00    -0.237 OA
ATOM     89  O   UNL A   1      43.119  39.822  33.932  1.00  0.00    -0.237 OA
ATOM     90  O   UNL A   1      44.241  38.776  35.859  1.00  0.00    -0.744 OA
ENDBRANCH  86  87
ENDBRANCH  60  81
ENDBRANCH  34  35
ENDBRANCH  26  29
ENDBRANCH  24  25
ENDBRANCH   1  24
TORSDOF 17
ENDMDL
MODEL 2
REMARK VINA RESULT:     -10.5      1.355      2.412
REMARK SMILES CC[C@](C)(NC(=O)c1cc(F)ccc1C)C(=O)NCCCCNC(=O)c1ccc(-c2c3nc(c(-c4ccc(S(=O)(=O)[O-])cc4)c4ccc([nH]4)c(-c4ccc(S(=O)(=O)[O-])cc4)c4nc(c(-c5ccc(S(=O)(=O)[O-])cc5)c5ccc2[nH]5)C=C4)C=C3)cc1
REMARK SMILES IDX 21 1 20 2 19 3 18 4 16 5 17 6 3 8 4 9 2 10 1 11 5 12 6 13
REMARK SMILES IDX 7 15 8 16 9 17 14 18 10 19 13 20 15 21 11 22 12 23 22 24
REMARK SMILES IDX 23 25 24 26 25 28 26 29 27 30 85 31 28 32 84 33 29 34 30 35
REMARK SMILES IDX 31 36 78 37 32 38 83 39 77 40 79 41 33 42 82 43 76 44 75 45
REMARK SMILES IDX 34 47 64 48 45 49 63 50 46 51 49 52 62 53 80 54 47 55 48 56
REMARK SMILES IDX 61 58 81 59 50 60 35 61 36 62 44 63 37 64 43 65 38 66 39 67
REMARK SMILES IDX 40 68 41 69 42 70 65 71 66 72 74 73 67 74 73 75 68 76 69 77
REMARK SMILES IDX 70 78 71 79 72 80 51 81 52 82 60 83 53 84 59 85 54 86 55 87
REMARK SMILES IDX 56 88 57 89 58 90
REMARK H PARENT 18 7 5 14 23 27 79 46 49 57
REMARK Flexibility Score: inf
ROOT
ATOM      1  C   UNL A   1      35.647  23.166  25.126  1.00  0.00     0.023 C 
ENDROOT
BRANCH   1   2
ATOM      2  C   UNL A   1      35.190  23.317  26.578  1.00  0.00     0.023 C 
BRANCH   2   3
ATOM      3  C   UNL A   1      33.783  22.869  27.017  1.00  0.00     0.116 C 
BRANCH   3   4
ATOM      4  N   UNL A   1      32.666  23.716  26.601  1.00  0.00    -0.354 N 
ATOM      5  C   UNL A   1      31.916  23.999  25.500  1.00  0.00     0.245 C 
ATOM      6  O   UNL A   1      30.907  24.665  25.805  1.00  0.00    -0.272 OA
ATOM      7  H   UNL A   1      32.355  24.257  27.364  1.00  0.00     0.163 HD
BRANCH   5   8
ATOM      8  C   UNL A   1      32.126  23.631  23.941  1.00  0.00     0.116 C 
ATOM      9  C   UNL A   1      30.785  24.000  23.238  1.00  0.00     0.045 C 
BRANCH   8  10
ATOM     10  C   UNL A   1      32.383  22.110  23.754  1.00  0.00     0.035 C 
ATOM     11  C   UNL A   1      32.034  21.526  22.392  1.00  0.00     0.007 C 
ENDBRANCH   8  10
BRANCH   8  12
ATOM     12  N   UNL A   1      33.168  24.311  23.074  1.00  0.00    -0.338 N 
ATOM     13  C   UNL A   1      33.200  25.607  22.594  1.00  0.00     0.252 C 
ATOM     14  H   UNL A   1      33.933  23.747  22.814  1.00  0.00     0.164 HD
ATOM     15  O   UNL A   1      33.511  25.853  21.435  1.00  0.00    -0.269 OA
BRANCH  13  16
ATOM     16  C   UNL A   1      33.018  26.686  23.570  1.00  0.00     0.045 A 
ATOM     17  C   UNL A   1      33.786  26.764  24.728  1.00  0.00     0.053 A 
ATOM     18  C   UNL A   1      32.036  27.639  23.296  1.00  0.00    -0.038 A 
ATOM     19  C   UNL A   1      33.770  27.953  25.443  1.00  0.00     0.124 A 
ATOM     20  C   UNL A   1      32.135  28.868  23.946  1.00  0.00     0.007 A 
ATOM     21  C   UNL A   1      30.931  27.292  22.334  1.00  0.00     0.045 C 
ATOM     22  F   UNL A   1      34.494  28.064  26.563  1.00  0.00    -0.207 F 
ATOM     23  C   UNL A   1      33.034  29.042  24.996  1.00  0.00     0.039 A 
ENDBRANCH  13  16
ENDBRANCH   8  12
ENDBRANCH   5   8
ENDBRANCH   3   4
ENDBRANCH   2   3
ENDBRANCH   1   2
BRANCH   1  24
ATOM     24  C   UNL A   1      37.059  23.629  24.845  1.00  0.00     0.116 C 
BRANCH  24  25
ATOM     25  N   UNL A   1      38.109  22.674  25.193  1.00  0.00    -0.352 N 
ATOM     26  C   UNL A   1      39.133  22.849  26.099  1.00  0.00     0.251 C 
ATOM     27  H   UNL A   1      38.082  21.807  24.727  1.00  0.00     0.163 HD
ATOM     28  O   UNL A   1      39.954  21.964  26.315  1.00  0.00    -0.269 OA
BRANCH  26  29
ATOM     29  C   UNL A   1      39.252  24.175  26.731  1.00  0.00     0.039 A 
ATOM     30  C   UNL A   1      38.784  24.343  28.034  1.00  0.00     0.014 A 
ATOM     31  C   UNL A   1      40.029  25.151  26.109  1.00  0.00     0.014 A 
ATOM     32  C   UNL A   1      39.173  25.475  28.747  1.00  0.00     0.010 A 
ATOM     33  C   UNL A   1      40.544  26.181  26.873  1.00  0.00     0.010 A 
ATOM     34  C   UNL A   1      40.092  26.378  28.185  1.00  0.00    -0.014 A 
BRANCH  34  35
ATOM     35  C   UNL A   1      40.518  27.599  28.902  1.00  0.00     0.031 A 
ATOM     36  C   UNL A   1      41.900  27.631  29.503  1.00  0.00     0.074 A 
ATOM     37  C   UNL A   1      39.668  28.632  29.061  1.00  0.00     0.049 A 
ATOM     38  N   UNL A   1      42.460  28.554  30.236  1.00  0.00    -0.248 NA
ATOM     39  C   UNL A   1      42.745  26.439  29.296  1.00  0.00     0.031 C 
ATOM     40  C   UNL A   1      38.284  28.683  28.581  1.00  0.00     0.029 A 
ATOM     41  N   UNL A   1      39.850  29.847  29.670  1.00  0.00    -0.354 N 
ATOM     42  C   UNL A   1      43.697  28.036  30.601  1.00  0.00     0.074 A 
ATOM     43  C   UNL A   1      43.768  26.688  30.095  1.00  0.00     0.031 C 
ATOM     44  C   UNL A   1      37.759  29.886  28.874  1.00  0.00     0.029 A 
ATOM     45  C   UNL A   1      38.756  30.676  29.586  1.00  0.00     0.049 A 
ATOM     46  H   UNL A   1      40.685  30.100  30.126  1.00  0.00     0.167 HD
ATOM     47  C   UNL A   1      44.712  28.646  31.254  1.00  0.00     0.031 A 
ATOM     48  C   UNL A   1      38.591  31.939  30.028  1.00  0.00     0.031 A 
ATOM     49  C   UNL A   1      44.654  30.008  31.696  1.00  0.00     0.049 A 
ATOM     50  C   UNL A   1      39.747  32.618  30.713  1.00  0.00     0.074 A 
ATOM     51  C   UNL A   1      45.640  30.759  32.306  1.00  0.00     0.029 A 
ATOM     52  N   UNL A   1      43.545  30.829  31.553  1.00  0.00    -0.354 N 
ATOM     53  N   UNL A   1      40.936  32.136  30.991  1.00  0.00    -0.248 NA
ATOM     54  C   UNL A   1      39.548  34.013  31.126  1.00  0.00     0.031 C 
ATOM     55  C   UNL A   1      45.112  32.027  32.568  1.00  0.00     0.029 A 
ATOM     56  C   UNL A   1      43.816  32.079  32.073  1.00  0.00     0.049 A 
ATOM     57  H   UNL A   1      42.691  30.561  31.143  1.00  0.00     0.167 HD
ATOM     58  C   UNL A   1      41.636  33.176  31.590  1.00  0.00     0.074 A 
ATOM     59  C   UNL A   1      40.742  34.317  31.618  1.00  0.00     0.031 C 
ATOM     60  C   UNL A   1      42.901  33.192  32.077  1.00  0.00     0.031 A 
BRANCH  47  61
ATOM     61  C   UNL A   1      45.959  27.839  31.493  1.00  0.00    -0.014 A 
ATOM     62  C   UNL A   1      46.154  27.145  32.704  1.00  0.00     0.010 A 
ATOM     63  C   UNL A   1      46.957  27.783  30.506  1.00  0.00     0.010 A 
ATOM     64  C   UNL A   1      47.346  26.462  32.946  1.00  0.00     0.020 A 
ATOM     65  C   UNL A   1      48.138  27.070  30.730  1.00  0.00     0.020 A 
ATOM     66  C   UNL A   1      48.334  26.431  31.958  1.00  0.00     0.054 A 
BRANCH  66  67
ATOM     67  S   UNL A   1      49.868  25.525  32.292  1.00  0.00     0.124 S 
ATOM     68  O   UNL A   1      50.711  26.568  32.874  1.00  0.00    -0.237 OA
ATOM     69  O   UNL A   1      49.430  24.483  33.217  1.00  0.00    -0.237 OA
ATOM     70  O   UNL A   1      50.284  25.052  30.975  1.00  0.00    -0.744 OA
ENDBRANCH  66  67
ENDBRANCH  47  61
BRANCH  48  71
ATOM     71  C   UNL A   1      37.302  32.650  29.797  1.00  0.00    -0.014 A 
ATOM     72  C   UNL A   1      36.252  32.548  30.727  1.00  0.00     0.010 A 
ATOM     73  C   UNL A   1      37.123  33.451  28.655  1.00  0.00     0.010 A 
ATOM     74  C   UNL A   1      35.042  33.215  30.510  1.00  0.00     0.020 A 
ATOM     75  C   UNL A   1      35.924  34.140  28.446  1.00  0.00     0.020 A 
ATOM     76  C   UNL A   1      34.886  34.009  29.370  1.00  0.00     0.054 A 
BRANCH  76  77
ATOM     77  S   UNL A   1      33.326  34.906  29.135  1.00  0.00     0.124 S 
ATOM     78  O   UNL A   1      32.763  34.898  30.481  1.00  0.00    -0.237 OA
ATOM     79  O   UNL A   1      33.781  36.206  28.646  1.00  0.00    -0.237 OA
ATOM     80  O   UNL A   1      32.611  34.095  28.151  1.00  0.00    -0.744 OA
ENDBRANCH  76  77
ENDBRANCH  48  71
BRANCH  60  81
ATOM     81  C   UNL A   1      43.403  34.487  32.651  1.00  0.00    -0.014 A 
ATOM     82  C   UNL A   1      43.291  34.761  34.025  1.00  0.00     0.010 A 
ATOM     83  C   UNL A   1      44.065  35.403  31.813  1.00  0.00     0.010 A 
ATOM     84  C   UNL A   1      43.810  35.947  34.547  1.00  0.00     0.020 A 
ATOM     85  C   UNL A   1      44.609  36.575  32.338  1.00  0.00     0.020 A 
ATOM     86  C   UNL A   1      44.467  36.846  33.701  1.00  0.00     0.054 A 
BRANCH  86  87
ATOM     87  S   UNL A   1      45.178  38.353  34.414  1.00  0.00     0.124 S 
ATOM     88  O   UNL A   1      46.065  38.804  33.346  1.00  0.00    -0.237 OA
ATOM     89  O   UNL A   1      44.000  39.184  34.647  1.00  0.00    -0.237 OA
ATOM     90  O   UNL A   1      45.849  37.880  35.623  1.00  0.00    -0.744 OA
ENDBRANCH  86  87
ENDBRANCH  60  81
ENDBRANCH  34  35
ENDBRANCH  26  29
ENDBRANCH  24  25
ENDBRANCH   1  24
TORSDOF 17
ENDMDL
MODEL 3
REMARK VINA RESULT:     -10.4      2.709      9.321
REMARK SMILES CC[C@](C)(NC(=O)c1cc(F)ccc1C)C(=O)NCCCCNC(=O)c1ccc(-c2c3nc(c(-c4ccc(S(=O)(=O)[O-])cc4)c4ccc([nH]4)c(-c4ccc(S(=O)(=O)[O-])cc4)c4nc(c(-c5ccc(S(=O)(=O)[O-])cc5)c5ccc2[nH]5)C=C4)C=C3)cc1
REMARK SMILES IDX 21 1 20 2 19 3 18 4 16 5 17 6 3 8 4 9 2 10 1 11 5 12 6 13
REMARK SMILES IDX 7 15 8 16 9 17 14 18 10 19 13 20 15 21 11 22 12 23 22 24
REMARK SMILES IDX 23 25 24 26 25 28 26 29 27 30 85 31 28 32 84 33 29 34 30 35
REMARK SMILES IDX 31 36 78 37 32 38 83 39 77 40 79 41 33 42 82 43 76 44 75 45
REMARK SMILES IDX 34 47 64 48 45 49 63 50 46 51 49 52 62 53 80 54 47 55 48 56
REMARK SMILES IDX 61 58 81 59 50 60 35 61 36 62 44 63 37 64 43 65 38 66 39 67
REMARK SMILES IDX 40 68 41 69 42 70 65 71 66 72 74 73 67 74 73 75 68 76 69 77
REMARK SMILES IDX 70 78 71 79 72 80 51 81 52 82 60 83 53 84 59 85 54 86 55 87
REMARK SMILES IDX 56 88 57 89 58 90
REMARK H PARENT 18 7 5 14 23 27 79 46 49 57
REMARK Flexibility Score: inf
ROOT
ATOM      1  C   UNL A   1      33.456  29.283  25.549  1.00  0.00     0.023 C 
ENDROOT
BRANCH   1   2
ATOM      2  C   UNL A   1      32.015  29.485  25.079  1.00  0.00     0.023 C 
BRANCH   2   3
ATOM      3  C   UNL A   1      31.294  28.405  24.250  1.00  0.00     0.116 C 
BRANCH   3   4
ATOM      4  N   UNL A   1      30.645  27.328  24.997  1.00  0.00    -0.354 N 
ATOM      5  C   UNL A   1      30.894  26.067  25.449  1.00  0.00     0.245 C 
ATOM      6  O   UNL A   1      30.020  25.704  26.260  1.00  0.00    -0.272 OA
ATOM      7  H   UNL A   1      29.736  27.603  25.257  1.00  0.00     0.163 HD
BRANCH   5   8
ATOM      8  C   UNL A   1      32.079  25.023  25.108  1.00  0.00     0.116 C 
ATOM      9  C   UNL A   1      33.346  25.576  25.828  1.00  0.00     0.045 C 
BRANCH   8  10
ATOM     10  C   UNL A   1      32.358  24.972  23.580  1.00  0.00     0.035 C 
ATOM     11  C   UNL A   1      33.453  25.892  23.059  1.00  0.00     0.007 C 
ENDBRANCH   8  10
BRANCH   8  12
ATOM     12  N   UNL A   1      32.040  23.571  25.544  1.00  0.00    -0.338 N 
ATOM     13  C   UNL A   1      32.784  22.499  25.089  1.00  0.00     0.252 C 
ATOM     14  H   UNL A   1      31.389  23.362  26.254  1.00  0.00     0.164 HD
ATOM     15  O   UNL A   1      32.267  21.413  24.858  1.00  0.00    -0.269 OA
BRANCH  13  16
ATOM     16  C   UNL A   1      34.241  22.660  25.062  1.00  0.00     0.045 A 
ATOM     17  C   UNL A   1      34.946  22.747  23.865  1.00  0.00     0.053 A 
ATOM     18  C   UNL A   1      34.903  22.718  26.289  1.00  0.00    -0.038 A 
ATOM     19  C   UNL A   1      36.259  23.193  23.912  1.00  0.00     0.124 A 
ATOM     20  C   UNL A   1      36.173  23.292  26.307  1.00  0.00     0.007 A 
ATOM     21  C   UNL A   1      34.225  22.158  27.511  1.00  0.00     0.045 C 
ATOM     22  F   UNL A   1      36.970  23.288  22.782  1.00  0.00    -0.207 F 
ATOM     23  C   UNL A   1      36.840  23.570  25.115  1.00  0.00     0.039 A 
ENDBRANCH  13  16
ENDBRANCH   8  12
ENDBRANCH   5   8
ENDBRANCH   3   4
ENDBRANCH   2   3
ENDBRANCH   1   2
BRANCH   1  24
ATOM     24  C   UNL A   1      33.625  29.087  27.039  1.00  0.00     0.116 C 
BRANCH  24  25
ATOM     25  N   UNL A   1      33.544  30.307  27.841  1.00  0.00    -0.352 N 
ATOM     26  C   UNL A   1      34.561  30.913  28.546  1.00  0.00     0.251 C 
ATOM     27  H   UNL A   1      32.662  30.744  27.882  1.00  0.00     0.163 HD
ATOM     28  O   UNL A   1      34.372  31.947  29.178  1.00  0.00    -0.269 OA
BRANCH  26  29
ATOM     29  C   UNL A   1      35.860  30.220  28.582  1.00  0.00     0.039 A 
ATOM     30  C   UNL A   1      36.708  30.323  27.479  1.00  0.00     0.014 A 
ATOM     31  C   UNL A   1      36.305  29.682  29.789  1.00  0.00     0.014 A 
ATOM     32  C   UNL A   1      38.044  29.953  27.620  1.00  0.00     0.010 A 
ATOM     33  C   UNL A   1      37.660  29.477  29.969  1.00  0.00     0.010 A 
ATOM     34  C   UNL A   1      38.536  29.570  28.880  1.00  0.00    -0.014 A 
BRANCH  34  35
ATOM     35  C   UNL A   1      39.944  29.155  29.069  1.00  0.00     0.031 A 
ATOM     36  C   UNL A   1      40.913  30.154  29.645  1.00  0.00     0.074 A 
ATOM     37  C   UNL A   1      40.355  27.932  28.681  1.00  0.00     0.049 A 
ATOM     38  N   UNL A   1      42.201  30.044  29.829  1.00  0.00    -0.248 NA
ATOM     39  C   UNL A   1      40.369  31.476  30.014  1.00  0.00     0.031 C 
ATOM     40  C   UNL A   1      39.518  26.908  28.049  1.00  0.00     0.029 A 
ATOM     41  N   UNL A   1      41.589  27.340  28.770  1.00  0.00    -0.354 N 
ATOM     42  C   UNL A   1      42.615  31.286  30.295  1.00  0.00     0.074 A 
ATOM     43  C   UNL A   1      41.469  32.160  30.276  1.00  0.00     0.031 C 
ATOM     44  C   UNL A   1      40.253  25.799  27.851  1.00  0.00     0.029 A 
ATOM     45  C   UNL A   1      41.614  26.044  28.312  1.00  0.00     0.049 A 
ATOM     46  H   UNL A   1      42.382  27.801  29.127  1.00  0.00     0.167 HD
ATOM     47  C   UNL A   1      43.832  31.656  30.754  1.00  0.00     0.031 A 
ATOM     48  C   UNL A   1      42.627  25.155  28.282  1.00  0.00     0.031 A 
ATOM     49  C   UNL A   1      44.948  30.759  30.829  1.00  0.00     0.049 A 
ATOM     50  C   UNL A   1      43.963  25.570  28.839  1.00  0.00     0.074 A 
ATOM     51  C   UNL A   1      46.210  30.995  31.337  1.00  0.00     0.029 A 
ATOM     52  N   UNL A   1      44.921  29.441  30.395  1.00  0.00    -0.354 N 
ATOM     53  N   UNL A   1      44.321  26.730  29.340  1.00  0.00    -0.248 NA
ATOM     54  C   UNL A   1      45.024  24.555  28.845  1.00  0.00     0.031 C 
ATOM     55  C   UNL A   1      46.962  29.826  31.176  1.00  0.00     0.029 A 
ATOM     56  C   UNL A   1      46.150  28.850  30.615  1.00  0.00     0.049 A 
ATOM     57  H   UNL A   1      44.143  28.994  29.992  1.00  0.00     0.167 HD
ATOM     58  C   UNL A   1      45.643  26.576  29.743  1.00  0.00     0.074 A 
ATOM     59  C   UNL A   1      46.013  25.207  29.443  1.00  0.00     0.031 C 
ATOM     60  C   UNL A   1      46.479  27.482  30.308  1.00  0.00     0.031 A 
BRANCH  47  61
ATOM     61  C   UNL A   1      43.987  33.077  31.224  1.00  0.00    -0.014 A 
ATOM     62  C   UNL A   1      43.627  33.452  32.533  1.00  0.00     0.010 A 
ATOM     63  C   UNL A   1      44.484  34.054  30.345  1.00  0.00     0.010 A 
ATOM     64  C   UNL A   1      43.704  34.786  32.934  1.00  0.00     0.020 A 
ATOM     65  C   UNL A   1      44.596  35.386  30.755  1.00  0.00     0.020 A 
ATOM     66  C   UNL A   1      44.185  35.747  32.041  1.00  0.00     0.054 A 
BRANCH  66  67
ATOM     67  S   UNL A   1      44.287  37.471  32.592  1.00  0.00     0.124 S 
ATOM     68  O   UNL A   1      43.352  37.483  33.714  1.00  0.00    -0.237 OA
ATOM     69  O   UNL A   1      45.697  37.611  32.948  1.00  0.00    -0.237 OA
ATOM     70  O   UNL A   1      43.865  38.234  31.421  1.00  0.00    -0.744 OA
ENDBRANCH  66  67
ENDBRANCH  47  61
BRANCH  48  71
ATOM     71  C   UNL A   1      42.403  23.782  27.750  1.00  0.00    -0.014 A 
ATOM     72  C   UNL A   1      42.893  23.417  26.483  1.00  0.00     0.010 A 
ATOM     73  C   UNL A   1      41.714  22.823  28.514  1.00  0.00     0.010 A 
ATOM     74  C   UNL A   1      42.683  22.128  25.983  1.00  0.00     0.020 A 
ATOM     75  C   UNL A   1      41.523  21.525  28.029  1.00  0.00     0.020 A 
ATOM     76  C   UNL A   1      41.999  21.190  26.760  1.00  0.00     0.054 A 
BRANCH  76  77
ATOM     77  S   UNL A   1      41.782  19.507  26.112  1.00  0.00     0.124 S 
ATOM     78  O   UNL A   1      42.240  18.689  27.230  1.00  0.00    -0.237 OA
ATOM     79  O   UNL A   1      40.347  19.459  25.838  1.00  0.00    -0.237 OA
ATOM     80  O   UNL A   1      42.636  19.486  24.926  1.00  0.00    -0.744 OA
ENDBRANCH  76  77
ENDBRANCH  48  71
BRANCH  60  81
ATOM     81  C   UNL A   1      47.861  27.015  30.665  1.00  0.00    -0.014 A 
ATOM     82  C   UNL A   1      48.932  27.167  29.768  1.00  0.00     0.010 A 
ATOM     83  C   UNL A   1      48.102  26.488  31.948  1.00  0.00     0.010 A 
ATOM     84  C   UNL A   1      50.219  26.774  30.139  1.00  0.00     0.020 A 
ATOM     85  C   UNL A   1      49.392  26.121  32.330  1.00  0.00     0.020 A 
ATOM     86  C   UNL A   1      50.441  26.255  31.418  1.00  0.00     0.054 A 
BRANCH  86  87
ATOM     87  S   UNL A   1      52.130  25.801  31.892  1.00  0.00     0.124 S 
ATOM     88  O   UNL A   1      51.999  24.371  32.150  1.00  0.00    -0.237 OA
ATOM     89  O   UNL A   1      52.904  26.158  30.706  1.00  0.00    -0.237 OA
ATOM     90  O   UNL A   1      52.392  26.626  33.070  1.00  0.00    -0.744 OA
ENDBRANCH  86  87
ENDBRANCH  60  81
ENDBRANCH  34  35
ENDBRANCH  26  29
ENDBRANCH  24  25
ENDBRANCH   1  24
TORSDOF 17
ENDMDL
