MODEL 1
REMARK VINA RESULT:     -11.7      0.000      0.000
REMARK SMILES CC[C@@H](C(=O)Nc1ccc(OC(C)=O)cc1C(=O)NCCCCNC(=O)c1ccc(-c2c3nc(c(-c4ccc(S(=O)(=O)[O-])cc4)c4ccc([nH]4)c(-c4ccc(S(=O)(=O)[O-])cc4)c4nc(c(-c5ccc(S(=O)(=O)[O-])cc5)c5ccc2[nH]5)C=C4)C=C3)cc1)c1ccccc1
REMARK SMILES IDX 21 1 20 2 19 3 17 4 18 5 16 7 7 8 8 9 9 10 15 11 10 12 6 13
REMARK SMILES IDX 4 14 5 15 3 17 2 18 1 19 87 20 88 21 92 22 89 23 91 24 90 25
REMARK SMILES IDX 11 26 12 27 13 28 14 29 22 30 23 31 24 32 25 33 26 35 27 36
REMARK SMILES IDX 28 37 86 38 29 39 85 40 30 41 31 42 32 43 79 44 33 45 84 46
REMARK SMILES IDX 78 47 80 48 34 49 83 50 77 51 76 52 35 54 65 55 46 56 64 57
REMARK SMILES IDX 47 58 50 59 63 60 81 61 48 62 49 63 62 65 82 66 51 67 36 68
REMARK SMILES IDX 37 69 45 70 38 71 44 72 39 73 40 74 41 75 42 76 43 77 66 78
REMARK SMILES IDX 67 79 75 80 68 81 74 82 69 83 70 84 71 85 72 86 73 87 52 88
REMARK SMILES IDX 53 89 61 90 54 91 60 92 55 93 56 94 57 95 58 96 59 97
REMARK H PARENT 19 6 6 16 24 34 80 53 50 64
REMARK Flexibility Score: inf
ROOT
ATOM      1  C   UNL A   1      35.076  29.388  27.241  1.00  0.00     0.023 C 
ENDROOT
BRANCH   1   2
ATOM      2  C   UNL A   1      33.875  28.502  26.923  1.00  0.00     0.116 C 
BRANCH   2   3
ATOM      3  N   UNL A   1      33.651  28.313  25.507  1.00  0.00    -0.352 N 
ATOM      4  C   UNL A   1      33.590  27.178  24.741  1.00  0.00     0.253 C 
ATOM      5  O   UNL A   1      33.426  27.326  23.527  1.00  0.00    -0.269 OA
ATOM      6  H   UNL A   1      33.519  29.149  25.003  1.00  0.00     0.163 HD
BRANCH   4   7
ATOM      7  C   UNL A   1      33.724  25.779  25.257  1.00  0.00     0.067 A 
ATOM      8  C   UNL A   1      32.827  25.043  26.051  1.00  0.00     0.054 A 
ATOM      9  C   UNL A   1      33.252  23.813  26.605  1.00  0.00     0.031 A 
ATOM     10  C   UNL A   1      34.431  23.198  26.193  1.00  0.00     0.049 A 
ATOM     11  C   UNL A   1      34.920  25.136  24.845  1.00  0.00     0.063 A 
ATOM     12  C   UNL A   1      35.218  23.837  25.251  1.00  0.00     0.131 A 
BRANCH   8  13
ATOM     13  N   UNL A   1      31.520  25.375  26.427  1.00  0.00    -0.325 N 
ATOM     14  C   UNL A   1      30.313  25.533  25.818  1.00  0.00     0.231 C 
ATOM     15  O   UNL A   1      29.423  25.626  26.685  1.00  0.00    -0.274 OA
ATOM     16  H   UNL A   1      31.457  25.539  27.394  1.00  0.00     0.169 HD
BRANCH  14  17
ATOM     17  C   UNL A   1      29.919  25.447  24.302  1.00  0.00     0.108 C 
BRANCH  17  18
ATOM     18  C   UNL A   1      30.960  24.797  23.379  1.00  0.00     0.015 C 
ATOM     19  C   UNL A   1      31.041  23.285  23.504  1.00  0.00     0.005 C 
ENDBRANCH  17  18
BRANCH  17  20
ATOM     20  C   UNL A   1      29.331  26.767  23.701  1.00  0.00    -0.036 A 
ATOM     21  C   UNL A   1      27.954  27.076  23.793  1.00  0.00     0.004 A 
ATOM     22  C   UNL A   1      30.137  27.793  23.173  1.00  0.00     0.004 A 
ATOM     23  C   UNL A   1      27.410  28.269  23.297  1.00  0.00     0.000 A 
ATOM     24  C   UNL A   1      29.600  29.004  22.712  1.00  0.00     0.000 A 
ATOM     25  C   UNL A   1      28.233  29.232  22.744  1.00  0.00     0.000 A 
ENDBRANCH  17  20
ENDBRANCH  14  17
ENDBRANCH   8  13
BRANCH  12  26
ATOM     26  O   UNL A   1      36.364  23.166  24.791  1.00  0.00    -0.427 OA
BRANCH  26  27
ATOM     27  C   UNL A   1      37.428  22.898  25.653  1.00  0.00     0.308 C 
ATOM     28  C   UNL A   1      38.018  24.077  26.372  1.00  0.00     0.139 C 
ATOM     29  O   UNL A   1      37.800  21.748  25.869  1.00  0.00    -0.252 OA
ENDBRANCH  26  27
ENDBRANCH  12  26
ENDBRANCH   4   7
ENDBRANCH   2   3
ENDBRANCH   1   2
BRANCH   1  30
ATOM     30  C   UNL A   1      34.739  30.815  27.688  1.00  0.00     0.023 C 
BRANCH  30  31
ATOM     31  C   UNL A   1      35.675  31.438  28.726  1.00  0.00     0.116 C 
BRANCH  31  32
ATOM     32  N   UNL A   1      35.622  30.784  30.030  1.00  0.00    -0.352 N 
ATOM     33  C   UNL A   1      36.612  30.126  30.724  1.00  0.00     0.251 C 
ATOM     34  H   UNL A   1      34.747  30.817  30.479  1.00  0.00     0.163 HD
ATOM     35  O   UNL A   1      36.352  29.528  31.765  1.00  0.00    -0.269 OA
BRANCH  33  36
ATOM     36  C   UNL A   1      37.993  30.129  30.198  1.00  0.00     0.039 A 
ATOM     37  C   UNL A   1      39.064  30.358  31.062  1.00  0.00     0.014 A 
ATOM     38  C   UNL A   1      38.225  29.843  28.852  1.00  0.00     0.014 A 
ATOM     39  C   UNL A   1      40.370  30.179  30.595  1.00  0.00     0.010 A 
ATOM     40  C   UNL A   1      39.519  29.602  28.404  1.00  0.00     0.010 A 
ATOM     41  C   UNL A   1      40.604  29.737  29.280  1.00  0.00    -0.014 A 
BRANCH  41  42
ATOM     42  C   UNL A   1      41.956  29.303  28.840  1.00  0.00     0.031 A 
ATOM     43  C   UNL A   1      43.091  30.282  28.728  1.00  0.00     0.074 A 
ATOM     44  C   UNL A   1      42.129  28.026  28.439  1.00  0.00     0.049 A 
ATOM     45  N   UNL A   1      44.320  30.073  28.329  1.00  0.00    -0.248 NA
ATOM     46  C   UNL A   1      42.805  31.681  29.085  1.00  0.00     0.031 C 
ATOM     47  C   UNL A   1      41.086  26.995  28.418  1.00  0.00     0.029 A 
ATOM     48  N   UNL A   1      43.242  27.376  27.964  1.00  0.00    -0.354 N 
ATOM     49  C   UNL A   1      44.950  31.310  28.377  1.00  0.00     0.074 A 
ATOM     50  C   UNL A   1      43.956  32.274  28.795  1.00  0.00     0.031 C 
ATOM     51  C   UNL A   1      41.616  25.839  27.991  1.00  0.00     0.029 A 
ATOM     52  C   UNL A   1      43.023  26.050  27.667  1.00  0.00     0.049 A 
ATOM     53  H   UNL A   1      44.114  27.817  27.847  1.00  0.00     0.167 HD
ATOM     54  C   UNL A   1      46.246  31.613  28.117  1.00  0.00     0.031 A 
ATOM     55  C   UNL A   1      43.856  25.107  27.188  1.00  0.00     0.031 A 
ATOM     56  C   UNL A   1      47.234  30.650  27.705  1.00  0.00     0.049 A 
ATOM     57  C   UNL A   1      45.289  25.466  26.910  1.00  0.00     0.074 A 
ATOM     58  C   UNL A   1      48.588  30.846  27.493  1.00  0.00     0.029 A 
ATOM     59  N   UNL A   1      46.977  29.316  27.431  1.00  0.00    -0.354 N 
ATOM     60  N   UNL A   1      45.892  26.621  27.061  1.00  0.00    -0.248 NA
ATOM     61  C   UNL A   1      46.157  24.393  26.405  1.00  0.00     0.031 C 
ATOM     62  C   UNL A   1      49.139  29.643  27.039  1.00  0.00     0.029 A 
ATOM     63  C   UNL A   1      48.140  28.683  27.022  1.00  0.00     0.049 A 
ATOM     64  H   UNL A   1      46.098  28.881  27.513  1.00  0.00     0.167 HD
ATOM     65  C   UNL A   1      47.213  26.409  26.689  1.00  0.00     0.074 A 
ATOM     66  C   UNL A   1      47.327  25.012  26.324  1.00  0.00     0.031 C 
ATOM     67  C   UNL A   1      48.240  27.294  26.652  1.00  0.00     0.031 A 
BRANCH  54  68
ATOM     68  C   UNL A   1      46.673  33.049  28.277  1.00  0.00    -0.014 A 
ATOM     69  C   UNL A   1      47.207  33.513  29.493  1.00  0.00     0.010 A 
ATOM     70  C   UNL A   1      46.590  33.933  27.186  1.00  0.00     0.010 A 
ATOM     71  C   UNL A   1      47.611  34.843  29.627  1.00  0.00     0.020 A 
ATOM     72  C   UNL A   1      47.019  35.257  27.308  1.00  0.00     0.020 A 
ATOM     73  C   UNL A   1      47.511  35.709  28.534  1.00  0.00     0.054 A 
BRANCH  73  74
ATOM     74  S   UNL A   1      48.065  37.425  28.732  1.00  0.00     0.124 S 
ATOM     75  O   UNL A   1      47.201  37.897  29.811  1.00  0.00    -0.237 OA
ATOM     76  O   UNL A   1      49.475  37.269  29.081  1.00  0.00    -0.237 OA
ATOM     77  O   UNL A   1      47.812  38.025  27.424  1.00  0.00    -0.744 OA
ENDBRANCH  73  74
ENDBRANCH  54  68
BRANCH  55  78
ATOM     78  C   UNL A   1      43.357  23.724  26.959  1.00  0.00    -0.014 A 
ATOM     79  C   UNL A   1      43.132  23.256  25.653  1.00  0.00     0.010 A 
ATOM     80  C   UNL A   1      43.126  22.860  28.045  1.00  0.00     0.010 A 
ATOM     81  C   UNL A   1      42.668  21.954  25.437  1.00  0.00     0.020 A 
ATOM     82  C   UNL A   1      42.690  21.549  27.832  1.00  0.00     0.020 A 
ATOM     83  C   UNL A   1      42.453  21.109  26.529  1.00  0.00     0.054 A 
BRANCH  83  84
ATOM     84  S   UNL A   1      41.905  19.406  26.221  1.00  0.00     0.124 S 
ATOM     85  O   UNL A   1      42.625  19.072  24.997  1.00  0.00    -0.237 OA
ATOM     86  O   UNL A   1      42.347  18.709  27.427  1.00  0.00    -0.237 OA
ATOM     87  O   UNL A   1      40.455  19.535  26.083  1.00  0.00    -0.744 OA
ENDBRANCH  83  84
ENDBRANCH  55  78
BRANCH  67  88
ATOM     88  C   UNL A   1      49.584  26.777  26.214  1.00  0.00    -0.014 A 
ATOM     89  C   UNL A   1      50.016  26.915  24.883  1.00  0.00     0.010 A 
ATOM     90  C   UNL A   1      50.450  26.200  27.160  1.00  0.00     0.010 A 
ATOM     91  C   UNL A   1      51.281  26.462  24.500  1.00  0.00     0.020 A 
ATOM     92  C   UNL A   1      51.727  25.771  26.788  1.00  0.00     0.020 A 
ATOM     93  C   UNL A   1      52.130  25.895  25.456  1.00  0.00     0.054 A 
BRANCH  93  94
ATOM     94  S   UNL A   1      53.787  25.364  24.945  1.00  0.00     0.124 S 
ATOM     95  O   UNL A   1      54.613  25.832  26.054  1.00  0.00    -0.237 OA
ATOM     96  O   UNL A   1      53.640  23.913  24.840  1.00  0.00    -0.237 OA
ATOM     97  O   UNL A   1      53.998  26.056  23.675  1.00  0.00    -0.744 OA
ENDBRANCH  93  94
ENDBRANCH  67  88
ENDBRANCH  41  42
ENDBRANCH  33  36
ENDBRANCH  31  32
ENDBRANCH  30  31
ENDBRANCH   1  30
TORSDOF 20
ENDMDL
MODEL 2
REMARK VINA RESULT:     -11.4      1.309      3.738
REMARK SMILES CC[C@@H](C(=O)Nc1ccc(OC(C)=O)cc1C(=O)NCCCCNC(=O)c1ccc(-c2c3nc(c(-c4ccc(S(=O)(=O)[O-])cc4)c4ccc([nH]4)c(-c4ccc(S(=O)(=O)[O-])cc4)c4nc(c(-c5ccc(S(=O)(=O)[O-])cc5)c5ccc2[nH]5)C=C4)C=C3)cc1)c1ccccc1
REMARK SMILES IDX 21 1 20 2 19 3 17 4 18 5 16 7 7 8 8 9 9 10 15 11 10 12 6 13
REMARK SMILES IDX 4 14 5 15 3 17 2 18 1 19 87 20 88 21 92 22 89 23 91 24 90 25
REMARK SMILES IDX 11 26 12 27 13 28 14 29 22 30 23 31 24 32 25 33 26 35 27 36
REMARK SMILES IDX 28 37 86 38 29 39 85 40 30 41 31 42 32 43 79 44 33 45 84 46
REMARK SMILES IDX 78 47 80 48 34 49 83 50 77 51 76 52 35 54 65 55 46 56 64 57
REMARK SMILES IDX 47 58 50 59 63 60 81 61 48 62 49 63 62 65 82 66 51 67 36 68
REMARK SMILES IDX 37 69 45 70 38 71 44 72 39 73 40 74 41 75 42 76 43 77 66 78
REMARK SMILES IDX 67 79 75 80 68 81 74 82 69 83 70 84 71 85 72 86 73 87 52 88
REMARK SMILES IDX 53 89 61 90 54 91 60 92 55 93 56 94 57 95 58 96 59 97
REMARK H PARENT 19 6 6 16 24 34 80 53 50 64
REMARK Flexibility Score: inf
ROOT
ATOM      1  C   UNL A   1      34.916  30.032  26.998  1.00  0.00     0.023 C 
ENDROOT
BRANCH   1   2
ATOM      2  C   UNL A   1      33.677  29.465  26.313  1.00  0.00     0.116 C 
BRANCH   2   3
ATOM      3  N   UNL A   1      32.724  28.877  27.229  1.00  0.00    -0.352 N 
ATOM      4  C   UNL A   1      31.636  28.072  27.014  1.00  0.00     0.253 C 
ATOM      5  O   UNL A   1      30.969  27.752  28.002  1.00  0.00    -0.269 OA
ATOM      6  H   UNL A   1      32.887  29.094  28.176  1.00  0.00     0.163 HD
BRANCH   4   7
ATOM      7  C   UNL A   1      31.185  27.565  25.679  1.00  0.00     0.067 A 
ATOM      8  C   UNL A   1      30.847  26.254  25.303  1.00  0.00     0.054 A 
ATOM      9  C   UNL A   1      30.656  25.962  23.932  1.00  0.00     0.031 A 
ATOM     10  C   UNL A   1      30.554  26.973  22.980  1.00  0.00     0.049 A 
ATOM     11  C   UNL A   1      31.075  28.583  24.697  1.00  0.00     0.063 A 
ATOM     12  C   UNL A   1      30.688  28.287  23.392  1.00  0.00     0.131 A 
BRANCH   8  13
ATOM     13  N   UNL A   1      30.695  25.125  26.116  1.00  0.00    -0.325 N 
ATOM     14  C   UNL A   1      31.420  24.020  26.440  1.00  0.00     0.231 C 
ATOM     15  O   UNL A   1      30.879  23.438  27.399  1.00  0.00    -0.274 OA
ATOM     16  H   UNL A   1      29.828  25.132  26.580  1.00  0.00     0.169 HD
BRANCH  14  17
ATOM     17  C   UNL A   1      32.815  23.529  25.917  1.00  0.00     0.108 C 
BRANCH  17  18
ATOM     18  C   UNL A   1      33.609  24.545  25.083  1.00  0.00     0.015 C 
ATOM     19  C   UNL A   1      34.419  25.528  25.910  1.00  0.00     0.005 C 
ENDBRANCH  17  18
BRANCH  17  20
ATOM     20  C   UNL A   1      32.810  22.102  25.272  1.00  0.00    -0.036 A 
ATOM     21  C   UNL A   1      33.114  20.946  26.027  1.00  0.00     0.004 A 
ATOM     22  C   UNL A   1      32.361  21.858  23.962  1.00  0.00     0.004 A 
ATOM     23  C   UNL A   1      33.078  19.655  25.482  1.00  0.00     0.000 A 
ATOM     24  C   UNL A   1      32.286  20.563  23.426  1.00  0.00     0.000 A 
ATOM     25  C   UNL A   1      32.674  19.463  24.174  1.00  0.00     0.000 A 
ENDBRANCH  17  20
ENDBRANCH  14  17
ENDBRANCH   8  13
BRANCH  12  26
ATOM     26  O   UNL A   1      30.506  29.296  22.430  1.00  0.00    -0.427 OA
BRANCH  26  27
ATOM     27  C   UNL A   1      29.229  29.768  22.124  1.00  0.00     0.308 C 
ATOM     28  C   UNL A   1      28.087  29.131  22.863  1.00  0.00     0.139 C 
ATOM     29  O   UNL A   1      29.064  30.709  21.353  1.00  0.00    -0.252 OA
ENDBRANCH  26  27
ENDBRANCH  12  26
ENDBRANCH   4   7
ENDBRANCH   2   3
ENDBRANCH   1   2
BRANCH   1  30
ATOM     30  C   UNL A   1      34.737  31.410  27.645  1.00  0.00     0.023 C 
BRANCH  30  31
ATOM     31  C   UNL A   1      35.727  31.771  28.754  1.00  0.00     0.116 C 
BRANCH  31  32
ATOM     32  N   UNL A   1      35.609  30.928  29.941  1.00  0.00    -0.352 N 
ATOM     33  C   UNL A   1      36.547  30.117  30.539  1.00  0.00     0.251 C 
ATOM     34  H   UNL A   1      34.727  30.942  30.378  1.00  0.00     0.163 HD
ATOM     35  O   UNL A   1      36.232  29.382  31.471  1.00  0.00    -0.269 OA
BRANCH  33  36
ATOM     36  C   UNL A   1      37.937  30.122  30.039  1.00  0.00     0.039 A 
ATOM     37  C   UNL A   1      38.991  30.366  30.920  1.00  0.00     0.014 A 
ATOM     38  C   UNL A   1      38.196  29.824  28.701  1.00  0.00     0.014 A 
ATOM     39  C   UNL A   1      40.306  30.190  30.479  1.00  0.00     0.010 A 
ATOM     40  C   UNL A   1      39.499  29.585  28.279  1.00  0.00     0.010 A 
ATOM     41  C   UNL A   1      40.567  29.735  29.174  1.00  0.00    -0.014 A 
BRANCH  41  42
ATOM     42  C   UNL A   1      41.929  29.304  28.763  1.00  0.00     0.031 A 
ATOM     43  C   UNL A   1      43.064  30.287  28.676  1.00  0.00     0.074 A 
ATOM     44  C   UNL A   1      42.115  28.028  28.368  1.00  0.00     0.049 A 
ATOM     45  N   UNL A   1      44.302  30.080  28.303  1.00  0.00    -0.248 NA
ATOM     46  C   UNL A   1      42.767  31.685  29.025  1.00  0.00     0.031 C 
ATOM     47  C   UNL A   1      41.075  26.994  28.326  1.00  0.00     0.029 A 
ATOM     48  N   UNL A   1      43.239  27.379  27.919  1.00  0.00    -0.354 N 
ATOM     49  C   UNL A   1      44.928  31.319  28.364  1.00  0.00     0.074 A 
ATOM     50  C   UNL A   1      43.922  32.280  28.760  1.00  0.00     0.031 C 
ATOM     51  C   UNL A   1      41.617  25.838  27.911  1.00  0.00     0.029 A 
ATOM     52  C   UNL A   1      43.030  26.053  27.618  1.00  0.00     0.049 A 
ATOM     53  H   UNL A   1      44.113  27.823  27.820  1.00  0.00     0.167 HD
ATOM     54  C   UNL A   1      46.228  31.624  28.132  1.00  0.00     0.031 A 
ATOM     55  C   UNL A   1      43.876  25.112  27.158  1.00  0.00     0.031 A 
ATOM     56  C   UNL A   1      47.227  30.664  27.742  1.00  0.00     0.049 A 
ATOM     57  C   UNL A   1      45.313  25.474  26.911  1.00  0.00     0.074 A 
ATOM     58  C   UNL A   1      48.585  30.864  27.560  1.00  0.00     0.029 A 
ATOM     59  N   UNL A   1      46.980  29.329  27.464  1.00  0.00    -0.354 N 
ATOM     60  N   UNL A   1      45.910  26.631  27.074  1.00  0.00    -0.248 NA
ATOM     61  C   UNL A   1      46.195  24.403  26.426  1.00  0.00     0.031 C 
ATOM     62  C   UNL A   1      49.149  29.662  27.120  1.00  0.00     0.029 A 
ATOM     63  C   UNL A   1      48.153  28.699  27.082  1.00  0.00     0.049 A 
ATOM     64  H   UNL A   1      46.100  28.892  27.528  1.00  0.00     0.167 HD
ATOM     65  C   UNL A   1      47.239  26.422  26.731  1.00  0.00     0.074 A 
ATOM     66  C   UNL A   1      47.365  25.025  26.370  1.00  0.00     0.031 C 
ATOM     67  C   UNL A   1      48.265  27.309  26.715  1.00  0.00     0.031 A 
BRANCH  54  68
ATOM     68  C   UNL A   1      46.648  33.062  28.300  1.00  0.00    -0.014 A 
ATOM     69  C   UNL A   1      47.172  33.524  29.520  1.00  0.00     0.010 A 
ATOM     70  C   UNL A   1      46.568  33.949  27.211  1.00  0.00     0.010 A 
ATOM     71  C   UNL A   1      47.569  34.856  29.662  1.00  0.00     0.020 A 
ATOM     72  C   UNL A   1      46.991  35.275  27.340  1.00  0.00     0.020 A 
ATOM     73  C   UNL A   1      47.472  35.725  28.571  1.00  0.00     0.054 A 
BRANCH  73  74
ATOM     74  S   UNL A   1      48.018  37.442  28.779  1.00  0.00     0.124 S 
ATOM     75  O   UNL A   1      49.433  37.352  28.427  1.00  0.00    -0.237 OA
ATOM     76  O   UNL A   1      47.179  38.164  27.826  1.00  0.00    -0.237 OA
ATOM     77  O   UNL A   1      47.745  37.725  30.186  1.00  0.00    -0.744 OA
ENDBRANCH  73  74
ENDBRANCH  54  68
BRANCH  55  78
ATOM     78  C   UNL A   1      43.386  23.727  26.920  1.00  0.00    -0.014 A 
ATOM     79  C   UNL A   1      43.203  23.252  25.609  1.00  0.00     0.010 A 
ATOM     80  C   UNL A   1      43.120  22.868  28.002  1.00  0.00     0.010 A 
ATOM     81  C   UNL A   1      42.748  21.949  25.385  1.00  0.00     0.020 A 
ATOM     82  C   UNL A   1      42.691  21.557  27.781  1.00  0.00     0.020 A 
ATOM     83  C   UNL A   1      42.497  21.109  26.473  1.00  0.00     0.054 A 
BRANCH  83  84
ATOM     84  S   UNL A   1      41.961  19.405  26.156  1.00  0.00     0.124 S 
ATOM     85  O   UNL A   1      42.795  19.031  25.019  1.00  0.00    -0.237 OA
ATOM     86  O   UNL A   1      42.272  18.736  27.418  1.00  0.00    -0.237 OA
ATOM     87  O   UNL A   1      40.534  19.544  25.870  1.00  0.00    -0.744 OA
ENDBRANCH  83  84
ENDBRANCH  55  78
BRANCH  67  88
ATOM     88  C   UNL A   1      49.619  26.795  26.307  1.00  0.00    -0.014 A 
ATOM     89  C   UNL A   1      50.364  25.960  27.158  1.00  0.00     0.010 A 
ATOM     90  C   UNL A   1      50.126  27.103  25.032  1.00  0.00     0.010 A 
ATOM     91  C   UNL A   1      51.604  25.461  26.751  1.00  0.00     0.020 A 
ATOM     92  C   UNL A   1      51.353  26.584  24.609  1.00  0.00     0.020 A 
ATOM     93  C   UNL A   1      52.090  25.775  25.477  1.00  0.00     0.054 A 
BRANCH  93  94
ATOM     94  S   UNL A   1      53.677  25.072  24.951  1.00  0.00     0.124 S 
ATOM     95  O   UNL A   1      53.671  25.343  23.517  1.00  0.00    -0.237 OA
ATOM     96  O   UNL A   1      54.643  25.843  25.732  1.00  0.00    -0.237 OA
ATOM     97  O   UNL A   1      53.571  23.662  25.320  1.00  0.00    -0.744 OA
ENDBRANCH  93  94
ENDBRANCH  67  88
ENDBRANCH  41  42
ENDBRANCH  33  36
ENDBRANCH  31  32
ENDBRANCH  30  31
ENDBRANCH   1  30
TORSDOF 20
ENDMDL
MODEL 3
REMARK VINA RESULT:     -11.3      1.705      2.614
REMARK SMILES CC[C@@H](C(=O)Nc1ccc(OC(C)=O)cc1C(=O)NCCCCNC(=O)c1ccc(-c2c3nc(c(-c4ccc(S(=O)(=O)[O-])cc4)c4ccc([nH]4)c(-c4ccc(S(=O)(=O)[O-])cc4)c4nc(c(-c5ccc(S(=O)(=O)[O-])cc5)c5ccc2[nH]5)C=C4)C=C3)cc1)c1ccccc1
REMARK SMILES IDX 21 1 20 2 19 3 17 4 18 5 16 7 7 8 8 9 9 10 15 11 10 12 6 13
REMARK SMILES IDX 4 14 5 15 3 17 2 18 1 19 87 20 88 21 92 22 89 23 91 24 90 25
REMARK SMILES IDX 11 26 12 27 13 28 14 29 22 30 23 31 24 32 25 33 26 35 27 36
REMARK SMILES IDX 28 37 86 38 29 39 85 40 30 41 31 42 32 43 79 44 33 45 84 46
REMARK SMILES IDX 78 47 80 48 34 49 83 50 77 51 76 52 35 54 65 55 46 56 64 57
REMARK SMILES IDX 47 58 50 59 63 60 81 61 48 62 49 63 62 65 82 66 51 67 36 68
REMARK SMILES IDX 37 69 45 70 38 71 44 72 39 73 40 74 41 75 42 76 43 77 66 78
REMARK SMILES IDX 67 79 75 80 68 81 74 82 69 83 70 84 71 85 72 86 73 87 52 88
REMARK SMILES IDX 53 89 61 90 54 91 60 92 55 93 56 94 57 95 58 96 59 97
REMARK H PARENT 19 6 6 16 24 34 80 53 50 64
REMARK Flexibility Score: inf
ROOT
ATOM      1  C   UNL A   1      33.442  27.842  26.440  1.00  0.00     0.023 C 
ENDROOT
BRANCH   1   2
ATOM      2  C   UNL A   1      31.977  27.670  26.829  1.00  0.00     0.116 C 
BRANCH   2   3
ATOM      3  N   UNL A   1      31.622  26.308  27.165  1.00  0.00    -0.352 N 
ATOM      4  C   UNL A   1      31.538  25.176  26.397  1.00  0.00     0.253 C 
ATOM      5  O   UNL A   1      31.160  24.144  26.957  1.00  0.00    -0.269 OA
ATOM      6  H   UNL A   1      31.399  26.171  28.114  1.00  0.00     0.163 HD
BRANCH   4   7
ATOM      7  C   UNL A   1      31.854  25.097  24.936  1.00  0.00     0.067 A 
ATOM      8  C   UNL A   1      31.069  25.501  23.841  1.00  0.00     0.054 A 
ATOM      9  C   UNL A   1      31.472  25.133  22.536  1.00  0.00     0.031 A 
ATOM     10  C   UNL A   1      32.734  24.601  22.287  1.00  0.00     0.049 A 
ATOM     11  C   UNL A   1      33.138  24.557  24.663  1.00  0.00     0.063 A 
ATOM     12  C   UNL A   1      33.588  24.391  23.356  1.00  0.00     0.131 A 
BRANCH   8  13
ATOM     13  N   UNL A   1      29.869  26.220  23.848  1.00  0.00    -0.325 N 
ATOM     14  C   UNL A   1      29.438  27.453  23.467  1.00  0.00     0.231 C 
ATOM     15  O   UNL A   1      28.194  27.488  23.509  1.00  0.00    -0.274 OA
ATOM     16  H   UNL A   1      29.136  25.689  24.233  1.00  0.00     0.169 HD
BRANCH  14  17
ATOM     17  C   UNL A   1      30.231  28.669  22.871  1.00  0.00     0.108 C 
BRANCH  17  18
ATOM     18  C   UNL A   1      31.557  29.005  23.568  1.00  0.00     0.015 C 
ATOM     19  C   UNL A   1      32.792  28.627  22.769  1.00  0.00     0.005 C 
ENDBRANCH  17  18
BRANCH  17  20
ATOM     20  C   UNL A   1      29.366  29.943  22.588  1.00  0.00    -0.036 A 
ATOM     21  C   UNL A   1      29.097  30.896  23.598  1.00  0.00     0.004 A 
ATOM     22  C   UNL A   1      28.934  30.303  21.299  1.00  0.00     0.004 A 
ATOM     23  C   UNL A   1      28.358  32.063  23.360  1.00  0.00     0.000 A 
ATOM     24  C   UNL A   1      28.228  31.490  21.050  1.00  0.00     0.000 A 
ATOM     25  C   UNL A   1      27.912  32.356  22.085  1.00  0.00     0.000 A 
ENDBRANCH  17  20
ENDBRANCH  14  17
ENDBRANCH   8  13
BRANCH  12  26
ATOM     26  O   UNL A   1      34.884  23.925  23.076  1.00  0.00    -0.427 OA
BRANCH  26  27
ATOM     27  C   UNL A   1      35.430  22.860  23.794  1.00  0.00     0.308 C 
ATOM     28  C   UNL A   1      36.853  23.020  24.247  1.00  0.00     0.139 C 
ATOM     29  O   UNL A   1      34.751  21.886  24.107  1.00  0.00    -0.252 OA
ENDBRANCH  26  27
ENDBRANCH  12  26
ENDBRANCH   4   7
ENDBRANCH   2   3
ENDBRANCH   1   2
BRANCH   1  30
ATOM     30  C   UNL A   1      34.098  29.146  26.911  1.00  0.00     0.023 C 
BRANCH  30  31
ATOM     31  C   UNL A   1      35.514  29.025  27.477  1.00  0.00     0.116 C 
BRANCH  31  32
ATOM     32  N   UNL A   1      35.621  29.420  28.878  1.00  0.00    -0.352 N 
ATOM     33  C   UNL A   1      36.696  29.338  29.735  1.00  0.00     0.251 C 
ATOM     34  H   UNL A   1      34.802  29.802  29.269  1.00  0.00     0.163 HD
ATOM     35  O   UNL A   1      36.566  29.611  30.925  1.00  0.00    -0.269 OA
BRANCH  33  36
ATOM     36  C   UNL A   1      38.007  28.899  29.215  1.00  0.00     0.039 A 
ATOM     37  C   UNL A   1      38.438  29.335  27.962  1.00  0.00     0.014 A 
ATOM     38  C   UNL A   1      38.836  28.100  30.004  1.00  0.00     0.014 A 
ATOM     39  C   UNL A   1      39.750  29.065  27.558  1.00  0.00     0.010 A 
ATOM     40  C   UNL A   1      40.159  27.887  29.632  1.00  0.00     0.010 A 
ATOM     41  C   UNL A   1      40.638  28.396  28.418  1.00  0.00    -0.014 A 
BRANCH  41  42
ATOM     42  C   UNL A   1      42.093  28.318  28.118  1.00  0.00     0.031 A 
ATOM     43  C   UNL A   1      42.992  29.509  28.304  1.00  0.00     0.074 A 
ATOM     44  C   UNL A   1      42.584  27.185  27.575  1.00  0.00     0.049 A 
ATOM     45  N   UNL A   1      44.272  29.617  28.057  1.00  0.00    -0.248 NA
ATOM     46  C   UNL A   1      42.370  30.745  28.805  1.00  0.00     0.031 C 
ATOM     47  C   UNL A   1      41.800  25.984  27.265  1.00  0.00     0.029 A 
ATOM     48  N   UNL A   1      43.857  26.856  27.177  1.00  0.00    -0.354 N 
ATOM     49  C   UNL A   1      44.609  30.929  28.363  1.00  0.00     0.074 A 
ATOM     50  C   UNL A   1      43.388  31.594  28.765  1.00  0.00     0.031 C 
ATOM     51  C   UNL A   1      42.612  25.043  26.761  1.00  0.00     0.029 A 
ATOM     52  C   UNL A   1      43.966  25.581  26.672  1.00  0.00     0.049 A 
ATOM     53  H   UNL A   1      44.619  27.475  27.245  1.00  0.00     0.167 HD
ATOM     54  C   UNL A   1      45.828  31.522  28.333  1.00  0.00     0.031 A 
ATOM     55  C   UNL A   1      45.032  24.914  26.190  1.00  0.00     0.031 A 
ATOM     56  C   UNL A   1      47.041  30.857  27.936  1.00  0.00     0.049 A 
ATOM     57  C   UNL A   1      46.374  25.591  26.170  1.00  0.00     0.074 A 
ATOM     58  C   UNL A   1      48.334  31.350  27.948  1.00  0.00     0.029 A 
ATOM     59  N   UNL A   1      47.113  29.562  27.448  1.00  0.00    -0.354 N 
ATOM     60  N   UNL A   1      46.689  26.802  26.562  1.00  0.00    -0.248 NA
ATOM     61  C   UNL A   1      47.505  24.811  25.650  1.00  0.00     0.031 C 
ATOM     62  C   UNL A   1      49.181  30.373  27.415  1.00  0.00     0.029 A 
ATOM     63  C   UNL A   1      48.423  29.249  27.125  1.00  0.00     0.049 A 
ATOM     64  H   UNL A   1      46.346  28.953  27.345  1.00  0.00     0.167 HD
ATOM     65  C   UNL A   1      48.057  26.922  26.355  1.00  0.00     0.074 A 
ATOM     66  C   UNL A   1      48.513  25.655  25.821  1.00  0.00     0.031 C 
ATOM     67  C   UNL A   1      48.864  27.987  26.585  1.00  0.00     0.031 A 
BRANCH  54  68
ATOM     68  C   UNL A   1      45.911  32.968  28.748  1.00  0.00    -0.014 A 
ATOM     69  C   UNL A   1      45.753  34.001  27.806  1.00  0.00     0.010 A 
ATOM     70  C   UNL A   1      46.096  33.301  30.102  1.00  0.00     0.010 A 
ATOM     71  C   UNL A   1      45.820  35.339  28.204  1.00  0.00     0.020 A 
ATOM     72  C   UNL A   1      46.135  34.638  30.508  1.00  0.00     0.020 A 
ATOM     73  C   UNL A   1      46.015  35.649  29.553  1.00  0.00     0.054 A 
BRANCH  73  74
ATOM     74  S   UNL A   1      46.074  37.395  30.042  1.00  0.00     0.124 S 
ATOM     75  O   UNL A   1      44.738  37.855  29.671  1.00  0.00    -0.237 OA
ATOM     76  O   UNL A   1      46.335  37.319  31.477  1.00  0.00    -0.237 OA
ATOM     77  O   UNL A   1      47.166  37.943  29.240  1.00  0.00    -0.744 OA
ENDBRANCH  73  74
ENDBRANCH  54  68
BRANCH  55  78
ATOM     78  C   UNL A   1      44.875  23.516  25.706  1.00  0.00    -0.014 A 
ATOM     79  C   UNL A   1      45.212  23.179  24.383  1.00  0.00     0.010 A 
ATOM     80  C   UNL A   1      44.410  22.508  26.570  1.00  0.00     0.010 A 
ATOM     81  C   UNL A   1      45.071  21.864  23.928  1.00  0.00     0.020 A 
ATOM     82  C   UNL A   1      44.293  21.188  26.128  1.00  0.00     0.020 A 
ATOM     83  C   UNL A   1      44.614  20.877  24.805  1.00  0.00     0.054 A 
BRANCH  83  84
ATOM     84  S   UNL A   1      44.491  19.167  24.209  1.00  0.00     0.124 S 
ATOM     85  O   UNL A   1      45.808  18.635  24.542  1.00  0.00    -0.237 OA
ATOM     86  O   UNL A   1      43.378  18.638  24.994  1.00  0.00    -0.237 OA
ATOM     87  O   UNL A   1      44.218  19.323  22.782  1.00  0.00    -0.744 OA
ENDBRANCH  83  84
ENDBRANCH  55  78
BRANCH  67  88
ATOM     88  C   UNL A   1      50.328  27.827  26.275  1.00  0.00    -0.014 A 
ATOM     89  C   UNL A   1      51.236  27.403  27.261  1.00  0.00     0.010 A 
ATOM     90  C   UNL A   1      50.791  28.044  24.964  1.00  0.00     0.010 A 
ATOM     91  C   UNL A   1      52.586  27.224  26.949  1.00  0.00     0.020 A 
ATOM     92  C   UNL A   1      52.135  27.841  24.640  1.00  0.00     0.020 A 
ATOM     93  C   UNL A   1      53.026  27.442  25.639  1.00  0.00     0.054 A 
BRANCH  93  94
ATOM     94  S   UNL A   1      54.774  27.151  25.246  1.00  0.00     0.124 S 
ATOM     95  O   UNL A   1      55.157  26.176  26.262  1.00  0.00    -0.237 OA
ATOM     96  O   UNL A   1      54.713  26.641  23.877  1.00  0.00    -0.237 OA
ATOM     97  O   UNL A   1      55.385  28.471  25.386  1.00  0.00    -0.744 OA
ENDBRANCH  93  94
ENDBRANCH  67  88
ENDBRANCH  41  42
ENDBRANCH  33  36
ENDBRANCH  31  32
ENDBRANCH  30  31
ENDBRANCH   1  30
TORSDOF 20
ENDMDL
