MODEL 1
REMARK VINA RESULT:     -11.2      0.000      0.000
REMARK SMILES C[C@H](NC(=O)c1ccncc1/C=C/C(=O)NCCCCNC(=O)c1ccc(-c2c3nc(c(-c4ccc(S(=O)(=O)[O-])cc4)c4ccc([nH]4)c(-c4ccc(S(=O)(=O)[O-])cc4)c4nc(c(-c5ccc(S(=O)(=O)[O-])cc5)c5ccc2[nH]5)C=C4)C=C3)cc1)c1ccco1
REMARK SMILES IDX 18 1 17 2 16 3 14 4 15 5 13 7 12 8 11 9 6 10 7 11 8 12 10 13
REMARK SMILES IDX 9 14 4 15 3 16 5 18 2 19 1 20 84 21 85 22 88 23 86 24 87 25
REMARK SMILES IDX 19 26 20 27 21 28 22 29 23 31 24 32 25 33 83 34 26 35 82 36
REMARK SMILES IDX 27 37 28 38 29 39 76 40 30 41 81 42 75 43 77 44 31 45 80 46
REMARK SMILES IDX 74 47 73 48 32 50 62 51 43 52 61 53 44 54 47 55 60 56 78 57
REMARK SMILES IDX 45 58 46 59 59 61 79 62 48 63 33 64 34 65 42 66 35 67 41 68
REMARK SMILES IDX 36 69 37 70 38 71 39 72 40 73 63 74 64 75 72 76 65 77 71 78
REMARK SMILES IDX 66 79 67 80 68 81 69 82 70 83 49 84 50 85 58 86 51 87 57 88
REMARK SMILES IDX 52 89 53 90 54 91 55 92 56 93
REMARK H PARENT 16 6 3 17 21 30 77 49 47 60
REMARK Flexibility Score: inf
ROOT
ATOM      1  C   UNL A   1      35.018  30.172  27.612  1.00  0.00     0.023 C 
ENDROOT
BRANCH   1   2
ATOM      2  C   UNL A   1      33.619  29.887  27.066  1.00  0.00     0.116 C 
BRANCH   2   3
ATOM      3  N   UNL A   1      33.609  29.912  25.614  1.00  0.00    -0.353 N 
ATOM      4  C   UNL A   1      33.212  28.953  24.736  1.00  0.00     0.244 C 
ATOM      5  O   UNL A   1      33.178  29.181  23.530  1.00  0.00    -0.270 OA
ATOM      6  H   UNL A   1      33.939  30.745  25.205  1.00  0.00     0.163 HD
BRANCH   4   7
ATOM      7  C   UNL A   1      32.716  27.654  25.239  1.00  0.00     0.072 C 
ATOM      8  C   UNL A   1      33.483  26.561  25.377  1.00  0.00     0.016 C 
BRANCH   8   9
ATOM      9  C   UNL A   1      32.942  25.306  25.918  1.00  0.00     0.006 A 
ATOM     10  C   UNL A   1      33.578  24.065  25.767  1.00  0.00     0.050 A 
ATOM     11  C   UNL A   1      33.090  22.928  26.415  1.00  0.00     0.034 A 
ATOM     12  C   UNL A   1      31.904  23.044  27.112  1.00  0.00     0.112 A 
ATOM     13  C   UNL A   1      31.747  25.292  26.630  1.00  0.00     0.119 A 
ATOM     14  N   UNL A   1      31.209  24.194  27.216  1.00  0.00    -0.264 NA
BRANCH  10  15
ATOM     15  C   UNL A   1      34.840  23.947  25.027  1.00  0.00     0.252 C 
ATOM     16  N   UNL A   1      34.876  23.621  23.703  1.00  0.00    -0.342 N 
ATOM     17  H   UNL A   1      35.792  23.648  23.343  1.00  0.00     0.164 HD
ATOM     18  O   UNL A   1      35.893  24.153  25.624  1.00  0.00    -0.269 OA
BRANCH  16  19
ATOM     19  C   UNL A   1      33.898  23.240  22.676  1.00  0.00     0.145 C 
ATOM     20  C   UNL A   1      32.960  22.072  22.962  1.00  0.00     0.039 C 
BRANCH  19  21
ATOM     21  C   UNL A   1      33.136  24.487  22.318  1.00  0.00     0.125 A 
ATOM     22  C   UNL A   1      31.814  24.862  22.467  1.00  0.00     0.048 A 
ATOM     23  O   UNL A   1      33.834  25.505  21.729  1.00  0.00    -0.467 OA
ATOM     24  C   UNL A   1      31.705  26.175  21.948  1.00  0.00     0.042 A 
ATOM     25  C   UNL A   1      32.962  26.522  21.516  1.00  0.00     0.195 A 
ENDBRANCH  19  21
ENDBRANCH  16  19
ENDBRANCH  10  15
ENDBRANCH   8   9
ENDBRANCH   4   7
ENDBRANCH   2   3
ENDBRANCH   1   2
BRANCH   1  26
ATOM     26  C   UNL A   1      35.285  31.652  27.908  1.00  0.00     0.023 C 
BRANCH  26  27
ATOM     27  C   UNL A   1      36.179  31.914  29.116  1.00  0.00     0.116 C 
BRANCH  27  28
ATOM     28  N   UNL A   1      35.988  30.951  30.192  1.00  0.00    -0.352 N 
ATOM     29  C   UNL A   1      36.870  29.989  30.630  1.00  0.00     0.251 C 
ATOM     30  H   UNL A   1      35.125  30.994  30.663  1.00  0.00     0.163 HD
ATOM     31  O   UNL A   1      36.539  29.168  31.474  1.00  0.00    -0.269 OA
BRANCH  29  32
ATOM     32  C   UNL A   1      38.218  29.944  30.025  1.00  0.00     0.039 A 
ATOM     33  C   UNL A   1      39.338  30.083  30.848  1.00  0.00     0.014 A 
ATOM     34  C   UNL A   1      38.363  29.687  28.659  1.00  0.00     0.014 A 
ATOM     35  C   UNL A   1      40.612  29.881  30.313  1.00  0.00     0.010 A 
ATOM     36  C   UNL A   1      39.628  29.431  28.143  1.00  0.00     0.010 A 
ATOM     37  C   UNL A   1      40.763  29.512  28.967  1.00  0.00    -0.014 A 
BRANCH  37  38
ATOM     38  C   UNL A   1      42.086  29.181  28.385  1.00  0.00     0.031 A 
ATOM     39  C   UNL A   1      42.373  27.777  27.938  1.00  0.00     0.074 A 
ATOM     40  C   UNL A   1      43.066  30.106  28.381  1.00  0.00     0.049 A 
ATOM     41  N   UNL A   1      43.509  27.242  27.574  1.00  0.00    -0.248 NA
ATOM     42  C   UNL A   1      41.235  26.844  27.934  1.00  0.00     0.031 C 
ATOM     43  C   UNL A   1      42.924  31.493  28.829  1.00  0.00     0.029 A 
ATOM     44  N   UNL A   1      44.385  30.007  28.015  1.00  0.00    -0.354 N 
ATOM     45  C   UNL A   1      43.232  25.901  27.334  1.00  0.00     0.074 A 
ATOM     46  C   UNL A   1      41.828  25.701  27.624  1.00  0.00     0.031 C 
ATOM     47  C   UNL A   1      44.110  32.114  28.715  1.00  0.00     0.029 A 
ATOM     48  C   UNL A   1      45.103  31.160  28.227  1.00  0.00     0.049 A 
ATOM     49  H   UNL A   1      44.779  29.188  27.637  1.00  0.00     0.167 HD
ATOM     50  C   UNL A   1      44.070  24.926  26.906  1.00  0.00     0.031 A 
ATOM     51  C   UNL A   1      46.416  31.418  28.071  1.00  0.00     0.031 A 
ATOM     52  C   UNL A   1      45.460  25.132  26.610  1.00  0.00     0.049 A 
ATOM     53  C   UNL A   1      47.324  30.332  27.571  1.00  0.00     0.074 A 
ATOM     54  C   UNL A   1      46.380  24.222  26.120  1.00  0.00     0.029 A 
ATOM     55  N   UNL A   1      46.134  26.333  26.778  1.00  0.00    -0.354 N 
ATOM     56  N   UNL A   1      47.036  29.082  27.297  1.00  0.00    -0.248 NA
ATOM     57  C   UNL A   1      48.732  30.691  27.349  1.00  0.00     0.031 C 
ATOM     58  C   UNL A   1      47.619  24.867  26.021  1.00  0.00     0.029 A 
ATOM     59  C   UNL A   1      47.460  26.188  26.410  1.00  0.00     0.049 A 
ATOM     60  H   UNL A   1      45.728  27.167  27.109  1.00  0.00     0.167 HD
ATOM     61  C   UNL A   1      48.221  28.510  26.849  1.00  0.00     0.074 A 
ATOM     62  C   UNL A   1      49.228  29.550  26.884  1.00  0.00     0.031 C 
ATOM     63  C   UNL A   1      48.449  27.237  26.444  1.00  0.00     0.031 A 
BRANCH  50  64
ATOM     64  C   UNL A   1      43.488  23.546  26.761  1.00  0.00    -0.014 A 
ATOM     65  C   UNL A   1      43.174  22.767  27.890  1.00  0.00     0.010 A 
ATOM     66  C   UNL A   1      43.276  23.010  25.478  1.00  0.00     0.010 A 
ATOM     67  C   UNL A   1      42.726  21.452  27.740  1.00  0.00     0.020 A 
ATOM     68  C   UNL A   1      42.802  21.704  25.323  1.00  0.00     0.020 A 
ATOM     69  C   UNL A   1      42.559  20.924  26.456  1.00  0.00     0.054 A 
BRANCH  69  70
ATOM     70  S   UNL A   1      42.011  19.204  26.282  1.00  0.00     0.124 S 
ATOM     71  O   UNL A   1      42.900  18.713  25.232  1.00  0.00    -0.237 OA
ATOM     72  O   UNL A   1      42.250  18.651  27.614  1.00  0.00    -0.237 OA
ATOM     73  O   UNL A   1      40.606  19.325  25.905  1.00  0.00    -0.744 OA
ENDBRANCH  69  70
ENDBRANCH  50  64
BRANCH  51  74
ATOM     74  C   UNL A   1      46.932  32.776  28.387  1.00  0.00    -0.014 A 
ATOM     75  C   UNL A   1      46.921  33.785  27.409  1.00  0.00     0.010 A 
ATOM     76  C   UNL A   1      47.369  33.086  29.689  1.00  0.00     0.010 A 
ATOM     77  C   UNL A   1      47.333  35.082  27.728  1.00  0.00     0.020 A 
ATOM     78  C   UNL A   1      47.762  34.387  30.016  1.00  0.00     0.020 A 
ATOM     79  C   UNL A   1      47.743  35.378  29.032  1.00  0.00     0.054 A 
BRANCH  79  80
ATOM     80  S   UNL A   1      48.175  37.091  29.448  1.00  0.00     0.124 S 
ATOM     81  O   UNL A   1      47.518  37.837  28.380  1.00  0.00    -0.237 OA
ATOM     82  O   UNL A   1      47.597  37.249  30.780  1.00  0.00    -0.237 OA
ATOM     83  O   UNL A   1      49.636  37.092  29.409  1.00  0.00    -0.744 OA
ENDBRANCH  79  80
ENDBRANCH  51  74
BRANCH  63  84
ATOM     84  C   UNL A   1      49.833  26.895  25.966  1.00  0.00    -0.014 A 
ATOM     85  C   UNL A   1      50.217  27.114  24.632  1.00  0.00     0.010 A 
ATOM     86  C   UNL A   1      50.788  26.435  26.891  1.00  0.00     0.010 A 
ATOM     87  C   UNL A   1      51.532  26.872  24.229  1.00  0.00     0.020 A 
ATOM     88  C   UNL A   1      52.109  26.210  26.495  1.00  0.00     0.020 A 
ATOM     89  C   UNL A   1      52.472  26.425  25.163  1.00  0.00     0.054 A 
BRANCH  89  90
ATOM     90  S   UNL A   1      54.192  26.194  24.636  1.00  0.00     0.124 S 
ATOM     91  O   UNL A   1      54.891  27.198  25.433  1.00  0.00    -0.237 OA
ATOM     92  O   UNL A   1      54.458  24.805  25.000  1.00  0.00    -0.237 OA
ATOM     93  O   UNL A   1      54.151  26.457  23.199  1.00  0.00    -0.744 OA
ENDBRANCH  89  90
ENDBRANCH  63  84
ENDBRANCH  37  38
ENDBRANCH  29  32
ENDBRANCH  27  28
ENDBRANCH  26  27
ENDBRANCH   1  26
TORSDOF 18
ENDMDL
MODEL 2
REMARK VINA RESULT:     -11.1      5.159      6.800
REMARK SMILES C[C@H](NC(=O)c1ccncc1/C=C/C(=O)NCCCCNC(=O)c1ccc(-c2c3nc(c(-c4ccc(S(=O)(=O)[O-])cc4)c4ccc([nH]4)c(-c4ccc(S(=O)(=O)[O-])cc4)c4nc(c(-c5ccc(S(=O)(=O)[O-])cc5)c5ccc2[nH]5)C=C4)C=C3)cc1)c1ccco1
REMARK SMILES IDX 18 1 17 2 16 3 14 4 15 5 13 7 12 8 11 9 6 10 7 11 8 12 10 13
REMARK SMILES IDX 9 14 4 15 3 16 5 18 2 19 1 20 84 21 85 22 88 23 86 24 87 25
REMARK SMILES IDX 19 26 20 27 21 28 22 29 23 31 24 32 25 33 83 34 26 35 82 36
REMARK SMILES IDX 27 37 28 38 29 39 76 40 30 41 81 42 75 43 77 44 31 45 80 46
REMARK SMILES IDX 74 47 73 48 32 50 62 51 43 52 61 53 44 54 47 55 60 56 78 57
REMARK SMILES IDX 45 58 46 59 59 61 79 62 48 63 33 64 34 65 42 66 35 67 41 68
REMARK SMILES IDX 36 69 37 70 38 71 39 72 40 73 63 74 64 75 72 76 65 77 71 78
REMARK SMILES IDX 66 79 67 80 68 81 69 82 70 83 49 84 50 85 58 86 51 87 57 88
REMARK SMILES IDX 52 89 53 90 54 91 55 92 56 93
REMARK H PARENT 16 6 3 17 21 30 77 49 47 60
REMARK Flexibility Score: inf
ROOT
ATOM      1  C   UNL A   1      31.657  27.841  25.851  1.00  0.00     0.023 C 
ENDROOT
BRANCH   1   2
ATOM      2  C   UNL A   1      31.082  27.263  24.559  1.00  0.00     0.116 C 
BRANCH   2   3
ATOM      3  N   UNL A   1      32.021  27.403  23.459  1.00  0.00    -0.353 N 
ATOM      4  C   UNL A   1      32.647  26.442  22.730  1.00  0.00     0.244 C 
ATOM      5  O   UNL A   1      33.341  26.740  21.762  1.00  0.00    -0.270 OA
ATOM      6  H   UNL A   1      32.236  28.330  23.206  1.00  0.00     0.163 HD
BRANCH   4   7
ATOM      7  C   UNL A   1      32.412  25.014  23.037  1.00  0.00     0.072 C 
ATOM      8  C   UNL A   1      33.348  24.059  22.921  1.00  0.00     0.016 C 
BRANCH   8   9
ATOM      9  C   UNL A   1      33.067  22.661  23.276  1.00  0.00     0.006 A 
ATOM     10  C   UNL A   1      33.420  22.093  24.509  1.00  0.00     0.050 A 
ATOM     11  C   UNL A   1      33.010  20.801  24.845  1.00  0.00     0.034 A 
ATOM     12  C   UNL A   1      32.345  20.067  23.885  1.00  0.00     0.112 A 
ATOM     13  C   UNL A   1      32.411  21.816  22.386  1.00  0.00     0.119 A 
ATOM     14  N   UNL A   1      32.056  20.535  22.655  1.00  0.00    -0.264 NA
BRANCH  10  15
ATOM     15  C   UNL A   1      34.126  22.879  25.529  1.00  0.00     0.252 C 
ATOM     16  N   UNL A   1      35.485  22.995  25.543  1.00  0.00    -0.342 N 
ATOM     17  H   UNL A   1      35.793  23.608  26.250  1.00  0.00     0.164 HD
ATOM     18  O   UNL A   1      33.464  23.451  26.391  1.00  0.00    -0.269 OA
BRANCH  16  19
ATOM     19  C   UNL A   1      36.606  22.439  24.776  1.00  0.00     0.145 C 
ATOM     20  C   UNL A   1      36.793  22.890  23.332  1.00  0.00     0.039 C 
BRANCH  19  21
ATOM     21  C   UNL A   1      37.848  22.672  25.593  1.00  0.00     0.125 A 
ATOM     22  C   UNL A   1      38.336  23.768  26.281  1.00  0.00     0.048 A 
ATOM     23  O   UNL A   1      38.715  21.624  25.736  1.00  0.00    -0.467 OA
ATOM     24  C   UNL A   1      39.556  23.362  26.875  1.00  0.00     0.042 A 
ATOM     25  C   UNL A   1      39.738  22.049  26.517  1.00  0.00     0.195 A 
ENDBRANCH  19  21
ENDBRANCH  16  19
ENDBRANCH  10  15
ENDBRANCH   8   9
ENDBRANCH   4   7
ENDBRANCH   2   3
ENDBRANCH   1   2
BRANCH   1  26
ATOM     26  C   UNL A   1      33.093  27.398  26.151  1.00  0.00     0.023 C 
BRANCH  26  27
ATOM     27  C   UNL A   1      34.146  28.494  26.013  1.00  0.00     0.116 C 
BRANCH  27  28
ATOM     28  N   UNL A   1      33.713  29.778  26.545  1.00  0.00    -0.352 N 
ATOM     29  C   UNL A   1      34.333  30.547  27.504  1.00  0.00     0.251 C 
ATOM     30  H   UNL A   1      32.875  30.140  26.174  1.00  0.00     0.163 HD
ATOM     31  O   UNL A   1      33.800  31.557  27.943  1.00  0.00    -0.269 OA
BRANCH  29  32
ATOM     32  C   UNL A   1      35.642  30.099  28.024  1.00  0.00     0.039 A 
ATOM     33  C   UNL A   1      36.791  30.333  27.265  1.00  0.00     0.014 A 
ATOM     34  C   UNL A   1      35.730  29.522  29.294  1.00  0.00     0.014 A 
ATOM     35  C   UNL A   1      38.045  30.061  27.816  1.00  0.00     0.010 A 
ATOM     36  C   UNL A   1      36.981  29.306  29.860  1.00  0.00     0.010 A 
ATOM     37  C   UNL A   1      38.150  29.586  29.133  1.00  0.00    -0.014 A 
BRANCH  37  38
ATOM     38  C   UNL A   1      39.462  29.389  29.796  1.00  0.00     0.031 A 
ATOM     39  C   UNL A   1      40.375  28.292  29.331  1.00  0.00     0.074 A 
ATOM     40  C   UNL A   1      39.771  30.107  30.893  1.00  0.00     0.049 A 
ATOM     41  N   UNL A   1      41.470  27.840  29.882  1.00  0.00    -0.248 NA
ATOM     42  C   UNL A   1      39.980  27.588  28.100  1.00  0.00     0.031 C 
ATOM     43  C   UNL A   1      38.948  31.173  31.469  1.00  0.00     0.029 A 
ATOM     44  N   UNL A   1      40.850  30.026  31.738  1.00  0.00    -0.354 N 
ATOM     45  C   UNL A   1      41.877  26.774  29.088  1.00  0.00     0.074 A 
ATOM     46  C   UNL A   1      40.893  26.630  28.037  1.00  0.00     0.031 C 
ATOM     47  C   UNL A   1      39.550  31.643  32.575  1.00  0.00     0.029 A 
ATOM     48  C   UNL A   1      40.777  30.886  32.808  1.00  0.00     0.049 A 
ATOM     49  H   UNL A   1      41.604  29.411  31.591  1.00  0.00     0.167 HD
ATOM     50  C   UNL A   1      42.974  25.990  29.220  1.00  0.00     0.031 A 
ATOM     51  C   UNL A   1      41.590  31.034  33.872  1.00  0.00     0.031 A 
ATOM     52  C   UNL A   1      43.954  26.143  30.260  1.00  0.00     0.049 A 
ATOM     53  C   UNL A   1      42.815  30.174  33.988  1.00  0.00     0.074 A 
ATOM     54  C   UNL A   1      45.127  25.435  30.449  1.00  0.00     0.029 A 
ATOM     55  N   UNL A   1      43.874  27.070  31.289  1.00  0.00    -0.354 N 
ATOM     56  N   UNL A   1      43.215  29.205  33.199  1.00  0.00    -0.248 NA
ATOM     57  C   UNL A   1      43.704  30.430  35.129  1.00  0.00     0.031 C 
ATOM     58  C   UNL A   1      45.742  25.913  31.612  1.00  0.00     0.029 A 
ATOM     59  C   UNL A   1      44.972  26.947  32.123  1.00  0.00     0.049 A 
ATOM     60  H   UNL A   1      43.145  27.720  31.408  1.00  0.00     0.167 HD
ATOM     61  C   UNL A   1      44.413  28.750  33.735  1.00  0.00     0.074 A 
ATOM     62  C   UNL A   1      44.677  29.552  34.912  1.00  0.00     0.031 C 
ATOM     63  C   UNL A   1      45.223  27.759  33.288  1.00  0.00     0.031 A 
BRANCH  50  64
ATOM     64  C   UNL A   1      43.142  24.882  28.215  1.00  0.00    -0.014 A 
ATOM     65  C   UNL A   1      42.938  23.538  28.574  1.00  0.00     0.010 A 
ATOM     66  C   UNL A   1      43.535  25.189  26.899  1.00  0.00     0.010 A 
ATOM     67  C   UNL A   1      43.192  22.514  27.657  1.00  0.00     0.020 A 
ATOM     68  C   UNL A   1      43.763  24.169  25.971  1.00  0.00     0.020 A 
ATOM     69  C   UNL A   1      43.619  22.837  26.365  1.00  0.00     0.054 A 
BRANCH  69  70
ATOM     70  S   UNL A   1      43.978  21.493  25.202  1.00  0.00     0.124 S 
ATOM     71  O   UNL A   1      42.854  20.590  25.434  1.00  0.00    -0.237 OA
ATOM     72  O   UNL A   1      43.978  22.174  23.909  1.00  0.00    -0.237 OA
ATOM     73  O   UNL A   1      45.279  20.996  25.640  1.00  0.00    -0.744 OA
ENDBRANCH  69  70
ENDBRANCH  50  64
BRANCH  51  74
ATOM     74  C   UNL A   1      41.260  32.055  34.902  1.00  0.00    -0.014 A 
ATOM     75  C   UNL A   1      41.733  33.372  34.772  1.00  0.00     0.010 A 
ATOM     76  C   UNL A   1      40.412  31.733  35.977  1.00  0.00     0.010 A 
ATOM     77  C   UNL A   1      41.359  34.351  35.696  1.00  0.00     0.020 A 
ATOM     78  C   UNL A   1      40.020  32.714  36.892  1.00  0.00     0.020 A 
ATOM     79  C   UNL A   1      40.498  34.019  36.747  1.00  0.00     0.054 A 
BRANCH  79  80
ATOM     80  S   UNL A   1      39.945  35.328  37.875  1.00  0.00     0.124 S 
ATOM     81  O   UNL A   1      39.784  36.461  36.969  1.00  0.00    -0.237 OA
ATOM     82  O   UNL A   1      38.709  34.774  38.423  1.00  0.00    -0.237 OA
ATOM     83  O   UNL A   1      41.044  35.440  38.832  1.00  0.00    -0.744 OA
ENDBRANCH  79  80
ENDBRANCH  51  74
BRANCH  63  84
ATOM     84  C   UNL A   1      46.494  27.501  34.047  1.00  0.00    -0.014 A 
ATOM     85  C   UNL A   1      47.673  28.208  33.754  1.00  0.00     0.010 A 
ATOM     86  C   UNL A   1      46.481  26.603  35.131  1.00  0.00     0.010 A 
ATOM     87  C   UNL A   1      48.819  28.017  34.528  1.00  0.00     0.020 A 
ATOM     88  C   UNL A   1      47.620  26.424  35.919  1.00  0.00     0.020 A 
ATOM     89  C   UNL A   1      48.786  27.128  35.609  1.00  0.00     0.054 A 
BRANCH  89  90
ATOM     90  S   UNL A   1      50.262  26.956  36.649  1.00  0.00     0.124 S 
ATOM     91  O   UNL A   1      51.067  28.098  36.226  1.00  0.00    -0.237 OA
ATOM     92  O   UNL A   1      49.715  27.038  38.001  1.00  0.00    -0.237 OA
ATOM     93  O   UNL A   1      50.795  25.646  36.279  1.00  0.00    -0.744 OA
ENDBRANCH  89  90
ENDBRANCH  63  84
ENDBRANCH  37  38
ENDBRANCH  29  32
ENDBRANCH  27  28
ENDBRANCH  26  27
ENDBRANCH   1  26
TORSDOF 18
ENDMDL
MODEL 3
REMARK VINA RESULT:     -11.0      2.883      8.894
REMARK SMILES C[C@H](NC(=O)c1ccncc1/C=C/C(=O)NCCCCNC(=O)c1ccc(-c2c3nc(c(-c4ccc(S(=O)(=O)[O-])cc4)c4ccc([nH]4)c(-c4ccc(S(=O)(=O)[O-])cc4)c4nc(c(-c5ccc(S(=O)(=O)[O-])cc5)c5ccc2[nH]5)C=C4)C=C3)cc1)c1ccco1
REMARK SMILES IDX 18 1 17 2 16 3 14 4 15 5 13 7 12 8 11 9 6 10 7 11 8 12 10 13
REMARK SMILES IDX 9 14 4 15 3 16 5 18 2 19 1 20 84 21 85 22 88 23 86 24 87 25
REMARK SMILES IDX 19 26 20 27 21 28 22 29 23 31 24 32 25 33 83 34 26 35 82 36
REMARK SMILES IDX 27 37 28 38 29 39 76 40 30 41 81 42 75 43 77 44 31 45 80 46
REMARK SMILES IDX 74 47 73 48 32 50 62 51 43 52 61 53 44 54 47 55 60 56 78 57
REMARK SMILES IDX 45 58 46 59 59 61 79 62 48 63 33 64 34 65 42 66 35 67 41 68
REMARK SMILES IDX 36 69 37 70 38 71 39 72 40 73 63 74 64 75 72 76 65 77 71 78
REMARK SMILES IDX 66 79 67 80 68 81 69 82 70 83 49 84 50 85 58 86 51 87 57 88
REMARK SMILES IDX 52 89 53 90 54 91 55 92 56 93
REMARK H PARENT 16 6 3 17 21 30 77 49 47 60
REMARK Flexibility Score: inf
ROOT
ATOM      1  C   UNL A   1      33.590  28.528  24.119  1.00  0.00     0.023 C 
ENDROOT
BRANCH   1   2
ATOM      2  C   UNL A   1      32.559  28.445  22.994  1.00  0.00     0.116 C 
BRANCH   2   3
ATOM      3  N   UNL A   1      32.990  27.526  21.956  1.00  0.00    -0.353 N 
ATOM      4  C   UNL A   1      32.990  26.166  21.952  1.00  0.00     0.244 C 
ATOM      5  O   UNL A   1      33.301  25.542  20.940  1.00  0.00    -0.270 OA
ATOM      6  H   UNL A   1      33.332  27.949  21.135  1.00  0.00     0.163 HD
BRANCH   4   7
ATOM      7  C   UNL A   1      32.515  25.425  23.140  1.00  0.00     0.072 C 
ATOM      8  C   UNL A   1      33.328  24.884  24.060  1.00  0.00     0.016 C 
BRANCH   8   9
ATOM      9  C   UNL A   1      32.797  24.189  25.241  1.00  0.00     0.006 A 
ATOM     10  C   UNL A   1      33.197  22.900  25.622  1.00  0.00     0.050 A 
ATOM     11  C   UNL A   1      32.761  22.342  26.825  1.00  0.00     0.034 A 
ATOM     12  C   UNL A   1      31.839  23.052  27.567  1.00  0.00     0.112 A 
ATOM     13  C   UNL A   1      31.852  24.798  26.062  1.00  0.00     0.119 A 
ATOM     14  N   UNL A   1      31.356  24.257  27.203  1.00  0.00    -0.264 NA
BRANCH  10  15
ATOM     15  C   UNL A   1      34.180  22.149  24.831  1.00  0.00     0.252 C 
ATOM     16  N   UNL A   1      33.817  21.122  24.011  1.00  0.00    -0.342 N 
ATOM     17  H   UNL A   1      34.584  20.769  23.504  1.00  0.00     0.164 HD
ATOM     18  O   UNL A   1      35.365  22.464  24.914  1.00  0.00    -0.269 OA
BRANCH  16  19
ATOM     19  C   UNL A   1      32.576  20.406  23.689  1.00  0.00     0.145 C 
ATOM     20  C   UNL A   1      32.072  20.435  22.251  1.00  0.00     0.039 C 
BRANCH  19  21
ATOM     21  C   UNL A   1      32.746  18.997  24.188  1.00  0.00     0.125 A 
ATOM     22  C   UNL A   1      32.593  18.409  25.431  1.00  0.00     0.048 A 
ATOM     23  O   UNL A   1      33.120  18.047  23.279  1.00  0.00    -0.467 OA
ATOM     24  C   UNL A   1      32.881  17.033  25.265  1.00  0.00     0.042 A 
ATOM     25  C   UNL A   1      33.191  16.863  23.938  1.00  0.00     0.195 A 
ENDBRANCH  19  21
ENDBRANCH  16  19
ENDBRANCH  10  15
ENDBRANCH   8   9
ENDBRANCH   4   7
ENDBRANCH   2   3
ENDBRANCH   1   2
BRANCH   1  26
ATOM     26  C   UNL A   1      32.988  28.454  25.527  1.00  0.00     0.023 C 
BRANCH  26  27
ATOM     27  C   UNL A   1      33.983  28.675  26.663  1.00  0.00     0.116 C 
BRANCH  27  28
ATOM     28  N   UNL A   1      33.794  29.944  27.353  1.00  0.00    -0.352 N 
ATOM     29  C   UNL A   1      34.672  30.582  28.200  1.00  0.00     0.251 C 
ATOM     30  H   UNL A   1      32.935  30.399  27.195  1.00  0.00     0.163 HD
ATOM     31  O   UNL A   1      34.342  31.593  28.804  1.00  0.00    -0.269 OA
BRANCH  29  32
ATOM     32  C   UNL A   1      36.013  29.992  28.395  1.00  0.00     0.039 A 
ATOM     33  C   UNL A   1      36.949  30.073  27.360  1.00  0.00     0.014 A 
ATOM     34  C   UNL A   1      36.359  29.435  29.628  1.00  0.00     0.014 A 
ATOM     35  C   UNL A   1      38.264  29.665  27.591  1.00  0.00     0.010 A 
ATOM     36  C   UNL A   1      37.682  29.083  29.872  1.00  0.00     0.010 A 
ATOM     37  C   UNL A   1      38.649  29.207  28.861  1.00  0.00    -0.014 A 
BRANCH  37  38
ATOM     38  C   UNL A   1      40.057  28.869  29.182  1.00  0.00     0.031 A 
ATOM     39  C   UNL A   1      40.980  29.933  29.700  1.00  0.00     0.074 A 
ATOM     40  C   UNL A   1      40.535  27.644  28.885  1.00  0.00     0.049 A 
ATOM     41  N   UNL A   1      42.276  29.892  29.869  1.00  0.00    -0.248 NA
ATOM     42  C   UNL A   1      40.365  31.227  30.038  1.00  0.00     0.031 C 
ATOM     43  C   UNL A   1      39.748  26.537  28.338  1.00  0.00     0.029 A 
ATOM     44  N   UNL A   1      41.807  27.137  28.973  1.00  0.00    -0.354 N 
ATOM     45  C   UNL A   1      42.638  31.164  30.297  1.00  0.00     0.074 A 
ATOM     46  C   UNL A   1      41.430  31.958  30.332  1.00  0.00     0.031 C 
ATOM     47  C   UNL A   1      40.556  25.483  28.135  1.00  0.00     0.029 A 
ATOM     48  C   UNL A   1      41.922  25.852  28.498  1.00  0.00     0.049 A 
ATOM     49  H   UNL A   1      42.566  27.646  29.341  1.00  0.00     0.167 HD
ATOM     50  C   UNL A   1      43.866  31.625  30.636  1.00  0.00     0.031 A 
ATOM     51  C   UNL A   1      43.005  25.066  28.347  1.00  0.00     0.031 A 
ATOM     52  C   UNL A   1      45.062  30.829  30.610  1.00  0.00     0.049 A 
ATOM     53  C   UNL A   1      44.354  25.586  28.753  1.00  0.00     0.074 A 
ATOM     54  C   UNL A   1      46.344  31.188  30.986  1.00  0.00     0.029 A 
ATOM     55  N   UNL A   1      45.123  29.510  30.183  1.00  0.00    -0.354 N 
ATOM     56  N   UNL A   1      44.674  26.774  29.207  1.00  0.00    -0.248 NA
ATOM     57  C   UNL A   1      45.489  24.659  28.636  1.00  0.00     0.031 C 
ATOM     58  C   UNL A   1      47.187  30.094  30.756  1.00  0.00     0.029 A 
ATOM     59  C   UNL A   1      46.422  29.042  30.276  1.00  0.00     0.049 A 
ATOM     60  H   UNL A   1      44.355  28.985  29.862  1.00  0.00     0.167 HD
ATOM     61  C   UNL A   1      46.041  26.732  29.452  1.00  0.00     0.074 A 
ATOM     62  C   UNL A   1      46.488  25.400  29.100  1.00  0.00     0.031 C 
ATOM     63  C   UNL A   1      46.850  27.710  29.928  1.00  0.00     0.031 A 
BRANCH  50  64
ATOM     64  C   UNL A   1      43.960  33.071  31.040  1.00  0.00    -0.014 A 
ATOM     65  C   UNL A   1      44.114  34.087  30.079  1.00  0.00     0.010 A 
ATOM     66  C   UNL A   1      43.920  33.419  32.404  1.00  0.00     0.010 A 
ATOM     67  C   UNL A   1      44.297  35.414  30.474  1.00  0.00     0.020 A 
ATOM     68  C   UNL A   1      44.075  34.749  32.802  1.00  0.00     0.020 A 
ATOM     69  C   UNL A   1      44.292  35.734  31.836  1.00  0.00     0.054 A 
BRANCH  69  70
ATOM     70  S   UNL A   1      44.568  37.457  32.330  1.00  0.00     0.124 S 
ATOM     71  O   UNL A   1      44.658  38.127  31.036  1.00  0.00    -0.237 OA
ATOM     72  O   UNL A   1      43.374  37.766  33.114  1.00  0.00    -0.237 OA
ATOM     73  O   UNL A   1      45.812  37.402  33.093  1.00  0.00    -0.744 OA
ENDBRANCH  69  70
ENDBRANCH  50  64
BRANCH  51  74
ATOM     74  C   UNL A   1      42.837  23.696  27.792  1.00  0.00    -0.014 A 
ATOM     75  C   UNL A   1      42.592  22.610  28.648  1.00  0.00     0.010 A 
ATOM     76  C   UNL A   1      42.850  23.486  26.401  1.00  0.00     0.010 A 
ATOM     77  C   UNL A   1      42.356  21.336  28.122  1.00  0.00     0.020 A 
ATOM     78  C   UNL A   1      42.594  22.218  25.871  1.00  0.00     0.020 A 
ATOM     79  C   UNL A   1      42.350  21.149  26.736  1.00  0.00     0.054 A 
BRANCH  79  80
ATOM     80  S   UNL A   1      41.940  19.510  26.074  1.00  0.00     0.124 S 
ATOM     81  O   UNL A   1      42.242  18.641  27.207  1.00  0.00    -0.237 OA
ATOM     82  O   UNL A   1      40.524  19.648  25.741  1.00  0.00    -0.237 OA
ATOM     83  O   UNL A   1      42.830  19.376  24.923  1.00  0.00    -0.744 OA
ENDBRANCH  79  80
ENDBRANCH  51  74
BRANCH  63  84
ATOM     84  C   UNL A   1      48.300  27.375  30.136  1.00  0.00    -0.014 A 
ATOM     85  C   UNL A   1      49.266  27.688  29.165  1.00  0.00     0.010 A 
ATOM     86  C   UNL A   1      48.712  26.823  31.364  1.00  0.00     0.010 A 
ATOM     87  C   UNL A   1      50.619  27.448  29.414  1.00  0.00     0.020 A 
ATOM     88  C   UNL A   1      50.066  26.600  31.623  1.00  0.00     0.020 A 
ATOM     89  C   UNL A   1      51.012  26.909  30.643  1.00  0.00     0.054 A 
BRANCH  89  90
ATOM     90  S   UNL A   1      52.781  26.681  30.976  1.00  0.00     0.124 S 
ATOM     91  O   UNL A   1      53.296  26.333  29.655  1.00  0.00    -0.237 OA
ATOM     92  O   UNL A   1      53.185  27.989  31.484  1.00  0.00    -0.237 OA
ATOM     93  O   UNL A   1      52.811  25.601  31.961  1.00  0.00    -0.744 OA
ENDBRANCH  89  90
ENDBRANCH  63  84
ENDBRANCH  37  38
ENDBRANCH  29  32
ENDBRANCH  27  28
ENDBRANCH  26  27
ENDBRANCH   1  26
TORSDOF 18
ENDMDL
