MODEL 1
REMARK VINA RESULT:     -13.2      0.000      0.000
REMARK SMILES NS(=O)(=O)c1ccc(-n2nc(C(F)(F)F)cc2-c2ccc(C(=O)NCCCCNC(=O)c3ccc(-c4c5nc(c(-c6ccc(S(=O)(=O)[O-])cc6)c6ccc([nH]6)c(-c6ccc(S(=O)(=O)[O-])cc6)c6nc(c(-c7ccc(S(=O)(=O)[O-])cc7)c7ccc4[nH]7)C=C6)C=C5)cc3)cc2)cc1
REMARK SMILES IDX 26 1 25 2 24 3 22 4 23 5 21 7 18 8 19 9 93 10 20 11 92 12
REMARK SMILES IDX 17 13 9 14 10 15 11 16 16 17 8 18 5 19 6 20 95 21 7 22 94 23
REMARK SMILES IDX 2 24 3 25 4 26 1 27 12 30 13 31 14 32 15 33 27 34 28 35
REMARK SMILES IDX 29 36 30 37 31 39 32 40 33 41 91 42 34 43 90 44 35 45 36 46
REMARK SMILES IDX 37 47 84 48 38 49 89 50 83 51 85 52 39 53 88 54 82 55 81 56
REMARK SMILES IDX 40 58 70 59 51 60 69 61 52 62 55 63 68 64 86 65 53 66 54 67
REMARK SMILES IDX 67 69 87 70 56 71 41 72 42 73 50 74 43 75 49 76 44 77 45 78
REMARK SMILES IDX 46 79 47 80 48 81 71 82 72 83 80 84 73 85 79 86 74 87 75 88
REMARK SMILES IDX 76 89 77 90 78 91 57 92 58 93 66 94 59 95 65 96 60 97 61 98
REMARK SMILES IDX 62 99 63 100 64 101
REMARK H PARENT 24 6 1 28 1 29 29 38 85 57 55 68
REMARK Flexibility Score: inf
ROOT
ATOM      1  C   UNL A   1      31.493  28.016  26.531  1.00  0.00     0.023 C 
ENDROOT
BRANCH   1   2
ATOM      2  C   UNL A   1      31.711  28.004  25.013  1.00  0.00     0.116 C 
BRANCH   2   3
ATOM      3  N   UNL A   1      30.971  26.925  24.387  1.00  0.00    -0.352 N 
ATOM      4  C   UNL A   1      31.276  25.612  24.137  1.00  0.00     0.251 C 
ATOM      5  O   UNL A   1      30.429  24.928  23.561  1.00  0.00    -0.269 OA
ATOM      6  H   UNL A   1      30.072  27.187  24.082  1.00  0.00     0.163 HD
BRANCH   4   7
ATOM      7  C   UNL A   1      32.557  24.969  24.550  1.00  0.00     0.039 A 
ATOM      8  C   UNL A   1      35.023  23.755  25.166  1.00  0.00     0.000 A 
ATOM      9  C   UNL A   1      34.732  24.121  23.849  1.00  0.00     0.011 A 
ATOM     10  C   UNL A   1      34.087  24.002  26.170  1.00  0.00     0.011 A 
ATOM     11  C   UNL A   1      33.503  24.718  23.544  1.00  0.00     0.014 A 
ATOM     12  C   UNL A   1      32.886  24.642  25.867  1.00  0.00     0.014 A 
BRANCH   8  13
ATOM     13  C   UNL A   1      36.313  23.186  25.528  1.00  0.00     0.075 A 
ATOM     14  N   UNL A   1      36.594  21.829  25.597  1.00  0.00    -0.233 N 
ATOM     15  N   UNL A   1      37.828  21.596  26.116  1.00  0.00    -0.163 NA
ATOM     16  C   UNL A   1      38.412  22.811  26.176  1.00  0.00     0.167 A 
ATOM     17  C   UNL A   1      37.481  23.832  25.869  1.00  0.00     0.064 A 
BRANCH  14  18
ATOM     18  C   UNL A   1      35.781  20.749  25.160  1.00  0.00     0.065 A 
ATOM     19  C   UNL A   1      34.168  18.580  24.480  1.00  0.00     0.082 A 
ATOM     20  C   UNL A   1      33.579  19.817  24.744  1.00  0.00     0.024 A 
ATOM     21  C   UNL A   1      35.561  18.433  24.510  1.00  0.00     0.024 A 
ATOM     22  C   UNL A   1      34.388  20.898  25.090  1.00  0.00     0.030 A 
ATOM     23  C   UNL A   1      36.374  19.527  24.827  1.00  0.00     0.030 A 
BRANCH  19  24
ATOM     24  S   UNL A   1      33.181  17.161  24.115  1.00  0.00     0.238 S 
ATOM     25  O   UNL A   1      32.075  17.124  25.052  1.00  0.00    -0.207 OA
ATOM     26  O   UNL A   1      34.055  16.041  23.897  1.00  0.00    -0.207 OA
BRANCH  24  27
ATOM     27  N   UNL A   1      32.485  17.489  22.619  1.00  0.00    -0.225 NA
ATOM     28  H   UNL A   1      32.226  16.614  22.166  1.00  0.00     0.137 HD
ATOM     29  H   UNL A   1      33.155  17.990  22.035  1.00  0.00     0.137 HD
ENDBRANCH  24  27
ENDBRANCH  19  24
ENDBRANCH  14  18
BRANCH  16  30
ATOM     30  C   UNL A   1      39.864  23.018  26.512  1.00  0.00     0.435 C 
ATOM     31  F   UNL A   1      40.143  22.826  27.826  1.00  0.00    -0.164 F 
ATOM     32  F   UNL A   1      40.671  22.179  25.805  1.00  0.00    -0.164 F 
ATOM     33  F   UNL A   1      40.278  24.281  26.208  1.00  0.00    -0.164 F 
ENDBRANCH  16  30
ENDBRANCH   8  13
ENDBRANCH   4   7
ENDBRANCH   2   3
ENDBRANCH   1   2
BRANCH   1  34
ATOM     34  C   UNL A   1      31.990  29.278  27.248  1.00  0.00     0.023 C 
BRANCH  34  35
ATOM     35  C   UNL A   1      33.441  29.646  26.956  1.00  0.00     0.116 C 
BRANCH  35  36
ATOM     36  N   UNL A   1      33.660  31.093  26.921  1.00  0.00    -0.352 N 
ATOM     37  C   UNL A   1      34.570  31.835  27.650  1.00  0.00     0.251 C 
ATOM     38  H   UNL A   1      33.088  31.601  26.301  1.00  0.00     0.163 HD
ATOM     39  O   UNL A   1      34.401  33.035  27.830  1.00  0.00    -0.269 OA
BRANCH  37  40
ATOM     40  C   UNL A   1      35.757  31.153  28.190  1.00  0.00     0.039 A 
ATOM     41  C   UNL A   1      36.037  29.818  27.891  1.00  0.00     0.014 A 
ATOM     42  C   UNL A   1      36.627  31.910  28.969  1.00  0.00     0.014 A 
ATOM     43  C   UNL A   1      37.252  29.277  28.307  1.00  0.00     0.010 A 
ATOM     44  C   UNL A   1      37.879  31.422  29.254  1.00  0.00     0.010 A 
ATOM     45  C   UNL A   1      38.183  30.094  28.969  1.00  0.00    -0.014 A 
BRANCH  45  46
ATOM     46  C   UNL A   1      39.524  29.607  29.281  1.00  0.00     0.031 A 
ATOM     47  C   UNL A   1      39.843  29.489  30.732  1.00  0.00     0.074 A 
ATOM     48  C   UNL A   1      40.339  29.066  28.351  1.00  0.00     0.049 A 
ATOM     49  N   UNL A   1      40.703  30.176  31.408  1.00  0.00    -0.248 NA
ATOM     50  C   UNL A   1      39.036  28.574  31.555  1.00  0.00     0.031 C 
ATOM     51  C   UNL A   1      40.056  28.805  26.934  1.00  0.00     0.029 A 
ATOM     52  N   UNL A   1      41.563  28.497  28.518  1.00  0.00    -0.354 N 
ATOM     53  C   UNL A   1      40.703  29.641  32.694  1.00  0.00     0.074 A 
ATOM     54  C   UNL A   1      39.543  28.789  32.771  1.00  0.00     0.031 C 
ATOM     55  C   UNL A   1      40.948  27.911  26.453  1.00  0.00     0.029 A 
ATOM     56  C   UNL A   1      41.964  27.685  27.464  1.00  0.00     0.049 A 
ATOM     57  H   UNL A   1      42.118  28.648  29.316  1.00  0.00     0.167 HD
ATOM     58  C   UNL A   1      41.783  29.757  33.520  1.00  0.00     0.031 A 
ATOM     59  C   UNL A   1      43.035  26.854  27.438  1.00  0.00     0.031 A 
ATOM     60  C   UNL A   1      42.742  30.706  33.014  1.00  0.00     0.049 A 
ATOM     61  C   UNL A   1      43.974  27.325  28.486  1.00  0.00     0.074 A 
ATOM     62  C   UNL A   1      42.705  32.046  32.685  1.00  0.00     0.029 A 
ATOM     63  N   UNL A   1      43.855  30.196  32.385  1.00  0.00    -0.354 N 
ATOM     64  N   UNL A   1      44.582  28.476  28.431  1.00  0.00    -0.248 NA
ATOM     65  C   UNL A   1      43.883  26.734  29.812  1.00  0.00     0.031 C 
ATOM     66  C   UNL A   1      43.480  32.149  31.491  1.00  0.00     0.029 A 
ATOM     67  C   UNL A   1      44.010  30.888  31.211  1.00  0.00     0.049 A 
ATOM     68  H   UNL A   1      44.432  29.469  32.716  1.00  0.00     0.167 HD
ATOM     69  C   UNL A   1      44.544  28.961  29.730  1.00  0.00     0.074 A 
ATOM     70  C   UNL A   1      44.202  27.801  30.552  1.00  0.00     0.031 C 
ATOM     71  C   UNL A   1      44.516  30.304  29.985  1.00  0.00     0.031 A 
BRANCH  58  72
ATOM     72  C   UNL A   1      42.159  28.745  34.576  1.00  0.00    -0.014 A 
ATOM     73  C   UNL A   1      42.438  29.195  35.884  1.00  0.00     0.010 A 
ATOM     74  C   UNL A   1      42.511  27.415  34.270  1.00  0.00     0.010 A 
ATOM     75  C   UNL A   1      43.102  28.379  36.810  1.00  0.00     0.020 A 
ATOM     76  C   UNL A   1      43.134  26.578  35.200  1.00  0.00     0.020 A 
ATOM     77  C   UNL A   1      43.458  27.079  36.454  1.00  0.00     0.054 A 
BRANCH  77  78
ATOM     78  S   UNL A   1      44.413  26.071  37.615  1.00  0.00     0.124 S 
ATOM     79  O   UNL A   1      43.878  24.737  37.364  1.00  0.00    -0.237 OA
ATOM     80  O   UNL A   1      45.785  26.299  37.167  1.00  0.00    -0.237 OA
ATOM     81  O   UNL A   1      44.086  26.646  38.917  1.00  0.00    -0.744 OA
ENDBRANCH  77  78
ENDBRANCH  58  72
BRANCH  59  82
ATOM     82  C   UNL A   1      43.148  25.525  26.786  1.00  0.00    -0.014 A 
ATOM     83  C   UNL A   1      43.298  25.414  25.392  1.00  0.00     0.010 A 
ATOM     84  C   UNL A   1      43.399  24.377  27.567  1.00  0.00     0.010 A 
ATOM     85  C   UNL A   1      43.758  24.221  24.808  1.00  0.00     0.020 A 
ATOM     86  C   UNL A   1      43.850  23.183  26.990  1.00  0.00     0.020 A 
ATOM     87  C   UNL A   1      44.056  23.120  25.615  1.00  0.00     0.054 A 
BRANCH  87  88
ATOM     88  S   UNL A   1      44.849  21.658  24.880  1.00  0.00     0.124 S 
ATOM     89  O   UNL A   1      45.220  22.141  23.553  1.00  0.00    -0.237 OA
ATOM     90  O   UNL A   1      45.958  21.405  25.796  1.00  0.00    -0.237 OA
ATOM     91  O   UNL A   1      43.791  20.649  24.899  1.00  0.00    -0.744 OA
ENDBRANCH  87  88
ENDBRANCH  59  82
BRANCH  71  92
ATOM     92  C   UNL A   1      44.805  31.262  28.847  1.00  0.00    -0.014 A 
ATOM     93  C   UNL A   1      43.904  31.537  27.799  1.00  0.00     0.010 A 
ATOM     94  C   UNL A   1      45.994  32.009  28.914  1.00  0.00     0.010 A 
ATOM     95  C   UNL A   1      44.210  32.495  26.820  1.00  0.00     0.020 A 
ATOM     96  C   UNL A   1      46.296  32.979  27.955  1.00  0.00     0.020 A 
ATOM     97  C   UNL A   1      45.411  33.206  26.901  1.00  0.00     0.054 A 
BRANCH  97  98
ATOM     98  S   UNL A   1      45.805  34.444  25.635  1.00  0.00     0.124 S 
ATOM     99  O   UNL A   1      47.228  34.220  25.402  1.00  0.00    -0.237 OA
ATOM    100  O   UNL A   1      44.921  34.074  24.531  1.00  0.00    -0.237 OA
ATOM    101  O   UNL A   1      45.477  35.716  26.278  1.00  0.00    -0.744 OA
ENDBRANCH  97  98
ENDBRANCH  71  92
ENDBRANCH  45  46
ENDBRANCH  37  40
ENDBRANCH  35  36
ENDBRANCH  34  35
ENDBRANCH   1  34
TORSDOF 19
ENDMDL
MODEL 2
REMARK VINA RESULT:     -13.1      4.113     10.147
REMARK SMILES NS(=O)(=O)c1ccc(-n2nc(C(F)(F)F)cc2-c2ccc(C(=O)NCCCCNC(=O)c3ccc(-c4c5nc(c(-c6ccc(S(=O)(=O)[O-])cc6)c6ccc([nH]6)c(-c6ccc(S(=O)(=O)[O-])cc6)c6nc(c(-c7ccc(S(=O)(=O)[O-])cc7)c7ccc4[nH]7)C=C6)C=C5)cc3)cc2)cc1
REMARK SMILES IDX 26 1 25 2 24 3 22 4 23 5 21 7 18 8 19 9 93 10 20 11 92 12
REMARK SMILES IDX 17 13 9 14 10 15 11 16 16 17 8 18 5 19 6 20 95 21 7 22 94 23
REMARK SMILES IDX 2 24 3 25 4 26 1 27 12 30 13 31 14 32 15 33 27 34 28 35
REMARK SMILES IDX 29 36 30 37 31 39 32 40 33 41 91 42 34 43 90 44 35 45 36 46
REMARK SMILES IDX 37 47 84 48 38 49 89 50 83 51 85 52 39 53 88 54 82 55 81 56
REMARK SMILES IDX 40 58 70 59 51 60 69 61 52 62 55 63 68 64 86 65 53 66 54 67
REMARK SMILES IDX 67 69 87 70 56 71 41 72 42 73 50 74 43 75 49 76 44 77 45 78
REMARK SMILES IDX 46 79 47 80 48 81 71 82 72 83 80 84 73 85 79 86 74 87 75 88
REMARK SMILES IDX 76 89 77 90 78 91 57 92 58 93 66 94 59 95 65 96 60 97 61 98
REMARK SMILES IDX 62 99 63 100 64 101
REMARK H PARENT 24 6 1 28 1 29 29 38 85 57 55 68
REMARK Flexibility Score: inf
ROOT
ATOM      1  C   UNL A   1      35.076  23.529  24.098  1.00  0.00     0.023 C 
ENDROOT
BRANCH   1   2
ATOM      2  C   UNL A   1      34.627  23.475  25.564  1.00  0.00     0.116 C 
BRANCH   2   3
ATOM      3  N   UNL A   1      33.410  22.700  25.709  1.00  0.00    -0.352 N 
ATOM      4  C   UNL A   1      32.086  23.007  25.531  1.00  0.00     0.251 C 
ATOM      5  O   UNL A   1      31.259  22.123  25.753  1.00  0.00    -0.269 OA
ATOM      6  H   UNL A   1      33.565  21.770  25.993  1.00  0.00     0.163 HD
BRANCH   4   7
ATOM      7  C   UNL A   1      31.603  24.336  25.057  1.00  0.00     0.039 A 
ATOM      8  C   UNL A   1      30.639  26.879  24.320  1.00  0.00     0.000 A 
ATOM      9  C   UNL A   1      30.559  26.458  25.651  1.00  0.00     0.011 A 
ATOM     10  C   UNL A   1      31.206  26.035  23.367  1.00  0.00     0.011 A 
ATOM     11  C   UNL A   1      31.032  25.191  26.013  1.00  0.00     0.014 A 
ATOM     12  C   UNL A   1      31.721  24.795  23.743  1.00  0.00     0.014 A 
BRANCH   8  13
ATOM     13  C   UNL A   1      30.210  28.210  23.920  1.00  0.00     0.075 A 
ATOM     14  N   UNL A   1      30.690  29.398  24.454  1.00  0.00    -0.233 N 
ATOM     15  N   UNL A   1      29.992  30.473  24.004  1.00  0.00    -0.163 NA
ATOM     16  C   UNL A   1      29.207  29.986  23.020  1.00  0.00     0.167 A 
ATOM     17  C   UNL A   1      29.276  28.573  22.974  1.00  0.00     0.064 A 
BRANCH  14  18
ATOM     18  C   UNL A   1      31.796  29.572  25.328  1.00  0.00     0.065 A 
ATOM     19  C   UNL A   1      34.030  30.046  26.927  1.00  0.00     0.082 A 
ATOM     20  C   UNL A   1      32.859  30.768  27.153  1.00  0.00     0.024 A 
ATOM     21  C   UNL A   1      34.077  29.057  25.935  1.00  0.00     0.024 A 
ATOM     22  C   UNL A   1      31.745  30.533  26.349  1.00  0.00     0.030 A 
ATOM     23  C   UNL A   1      32.949  28.800  25.149  1.00  0.00     0.030 A 
BRANCH  19  24
ATOM     24  S   UNL A   1      35.492  30.362  27.868  1.00  0.00     0.238 S 
ATOM     25  O   UNL A   1      35.608  29.337  28.886  1.00  0.00    -0.207 OA
ATOM     26  O   UNL A   1      35.547  31.767  28.167  1.00  0.00    -0.207 OA
BRANCH  24  27
ATOM     27  N   UNL A   1      36.763  30.077  26.803  1.00  0.00    -0.225 NA
ATOM     28  H   UNL A   1      37.053  29.102  26.874  1.00  0.00     0.137 HD
ATOM     29  H   UNL A   1      37.549  30.684  27.040  1.00  0.00     0.137 HD
ENDBRANCH  24  27
ENDBRANCH  19  24
ENDBRANCH  14  18
BRANCH  16  30
ATOM     30  C   UNL A   1      28.394  30.856  22.100  1.00  0.00     0.435 C 
ATOM     31  F   UNL A   1      27.275  31.355  22.685  1.00  0.00    -0.164 F 
ATOM     32  F   UNL A   1      29.112  31.919  21.642  1.00  0.00    -0.164 F 
ATOM     33  F   UNL A   1      27.983  30.176  20.993  1.00  0.00    -0.164 F 
ENDBRANCH  16  30
ENDBRANCH   8  13
ENDBRANCH   4   7
ENDBRANCH   2   3
ENDBRANCH   1   2
BRANCH   1  34
ATOM     34  C   UNL A   1      36.509  23.046  23.841  1.00  0.00     0.023 C 
BRANCH  34  35
ATOM     35  C   UNL A   1      37.486  23.313  24.982  1.00  0.00     0.116 C 
BRANCH  35  36
ATOM     36  N   UNL A   1      38.231  22.117  25.377  1.00  0.00    -0.352 N 
ATOM     37  C   UNL A   1      39.406  22.045  26.100  1.00  0.00     0.251 C 
ATOM     38  H   UNL A   1      37.847  21.256  25.093  1.00  0.00     0.163 HD
ATOM     39  O   UNL A   1      40.126  21.056  26.033  1.00  0.00    -0.269 OA
BRANCH  37  40
ATOM     40  C   UNL A   1      39.765  23.179  26.967  1.00  0.00     0.039 A 
ATOM     41  C   UNL A   1      40.979  23.222  27.655  1.00  0.00     0.014 A 
ATOM     42  C   UNL A   1      38.868  24.241  27.031  1.00  0.00     0.014 A 
ATOM     43  C   UNL A   1      41.325  24.389  28.335  1.00  0.00     0.010 A 
ATOM     44  C   UNL A   1      39.269  25.434  27.579  1.00  0.00     0.010 A 
ATOM     45  C   UNL A   1      40.474  25.504  28.273  1.00  0.00    -0.014 A 
BRANCH  45  46
ATOM     46  C   UNL A   1      40.874  26.789  28.841  1.00  0.00     0.031 A 
ATOM     47  C   UNL A   1      42.031  27.453  28.177  1.00  0.00     0.074 A 
ATOM     48  C   UNL A   1      40.117  27.459  29.737  1.00  0.00     0.049 A 
ATOM     49  N   UNL A   1      43.204  27.671  28.671  1.00  0.00    -0.248 NA
ATOM     50  C   UNL A   1      41.907  27.824  26.758  1.00  0.00     0.031 C 
ATOM     51  C   UNL A   1      38.790  27.103  30.253  1.00  0.00     0.029 A 
ATOM     52  N   UNL A   1      40.322  28.691  30.273  1.00  0.00    -0.354 N 
ATOM     53  C   UNL A   1      43.903  28.394  27.708  1.00  0.00     0.074 A 
ATOM     54  C   UNL A   1      43.125  28.303  26.498  1.00  0.00     0.031 C 
ATOM     55  C   UNL A   1      38.210  28.194  30.798  1.00  0.00     0.029 A 
ATOM     56  C   UNL A   1      39.189  29.265  30.837  1.00  0.00     0.049 A 
ATOM     57  H   UNL A   1      41.199  29.139  30.263  1.00  0.00     0.167 HD
ATOM     58  C   UNL A   1      44.948  29.207  28.038  1.00  0.00     0.031 A 
ATOM     59  C   UNL A   1      39.053  30.542  31.271  1.00  0.00     0.031 A 
ATOM     60  C   UNL A   1      45.384  28.990  29.394  1.00  0.00     0.049 A 
ATOM     61  C   UNL A   1      40.420  31.063  31.517  1.00  0.00     0.074 A 
ATOM     62  C   UNL A   1      45.855  27.903  30.103  1.00  0.00     0.029 A 
ATOM     63  N   UNL A   1      44.972  29.904  30.338  1.00  0.00    -0.354 N 
ATOM     64  N   UNL A   1      41.204  30.594  32.447  1.00  0.00    -0.248 NA
ATOM     65  C   UNL A   1      41.090  31.781  30.444  1.00  0.00     0.031 C 
ATOM     66  C   UNL A   1      45.237  28.010  31.385  1.00  0.00     0.029 A 
ATOM     67  C   UNL A   1      44.495  29.192  31.410  1.00  0.00     0.049 A 
ATOM     68  H   UNL A   1      45.011  30.885  30.258  1.00  0.00     0.167 HD
ATOM     69  C   UNL A   1      42.462  30.553  31.864  1.00  0.00     0.074 A 
ATOM     70  C   UNL A   1      42.350  31.396  30.674  1.00  0.00     0.031 C 
ATOM     71  C   UNL A   1      43.388  29.621  32.241  1.00  0.00     0.031 A 
BRANCH  58  72
ATOM     72  C   UNL A   1      45.327  30.458  27.280  1.00  0.00    -0.014 A 
ATOM     73  C   UNL A   1      46.693  30.755  27.094  1.00  0.00     0.010 A 
ATOM     74  C   UNL A   1      44.405  31.482  26.985  1.00  0.00     0.010 A 
ATOM     75  C   UNL A   1      47.115  32.034  26.704  1.00  0.00     0.020 A 
ATOM     76  C   UNL A   1      44.812  32.747  26.553  1.00  0.00     0.020 A 
ATOM     77  C   UNL A   1      46.169  33.026  26.451  1.00  0.00     0.054 A 
BRANCH  77  78
ATOM     78  S   UNL A   1      46.724  34.703  26.057  1.00  0.00     0.124 S 
ATOM     79  O   UNL A   1      47.722  34.453  25.023  1.00  0.00    -0.237 OA
ATOM     80  O   UNL A   1      45.488  35.339  25.606  1.00  0.00    -0.237 OA
ATOM     81  O   UNL A   1      47.244  35.197  27.329  1.00  0.00    -0.744 OA
ENDBRANCH  77  78
ENDBRANCH  58  72
BRANCH  59  82
ATOM     82  C   UNL A   1      37.855  31.414  31.189  1.00  0.00    -0.014 A 
ATOM     83  C   UNL A   1      36.634  31.022  31.768  1.00  0.00     0.010 A 
ATOM     84  C   UNL A   1      37.990  32.761  30.793  1.00  0.00     0.010 A 
ATOM     85  C   UNL A   1      35.616  31.960  32.013  1.00  0.00     0.020 A 
ATOM     86  C   UNL A   1      36.977  33.699  31.026  1.00  0.00     0.020 A 
ATOM     87  C   UNL A   1      35.806  33.300  31.663  1.00  0.00     0.054 A 
BRANCH  87  88
ATOM     88  S   UNL A   1      34.578  34.541  32.173  1.00  0.00     0.124 S 
ATOM     89  O   UNL A   1      34.007  34.956  30.895  1.00  0.00    -0.237 OA
ATOM     90  O   UNL A   1      33.693  33.772  33.044  1.00  0.00    -0.237 OA
ATOM     91  O   UNL A   1      35.380  35.557  32.853  1.00  0.00    -0.744 OA
ENDBRANCH  87  88
ENDBRANCH  59  82
BRANCH  71  92
ATOM     92  C   UNL A   1      43.128  28.810  33.494  1.00  0.00    -0.014 A 
ATOM     93  C   UNL A   1      43.330  29.293  34.803  1.00  0.00     0.010 A 
ATOM     94  C   UNL A   1      42.534  27.545  33.338  1.00  0.00     0.010 A 
ATOM     95  C   UNL A   1      42.994  28.511  35.919  1.00  0.00     0.020 A 
ATOM     96  C   UNL A   1      42.177  26.770  34.444  1.00  0.00     0.020 A 
ATOM     97  C   UNL A   1      42.425  27.248  35.730  1.00  0.00     0.054 A 
BRANCH  97  98
ATOM     98  S   UNL A   1      41.990  26.238  37.174  1.00  0.00     0.124 S 
ATOM     99  O   UNL A   1      43.058  26.558  38.117  1.00  0.00    -0.237 OA
ATOM    100  O   UNL A   1      40.664  26.736  37.532  1.00  0.00    -0.237 OA
ATOM    101  O   UNL A   1      42.010  24.869  36.660  1.00  0.00    -0.744 OA
ENDBRANCH  97  98
ENDBRANCH  71  92
ENDBRANCH  45  46
ENDBRANCH  37  40
ENDBRANCH  35  36
ENDBRANCH  34  35
ENDBRANCH   1  34
TORSDOF 19
ENDMDL
MODEL 3
REMARK VINA RESULT:     -12.6      2.648      3.529
REMARK SMILES NS(=O)(=O)c1ccc(-n2nc(C(F)(F)F)cc2-c2ccc(C(=O)NCCCCNC(=O)c3ccc(-c4c5nc(c(-c6ccc(S(=O)(=O)[O-])cc6)c6ccc([nH]6)c(-c6ccc(S(=O)(=O)[O-])cc6)c6nc(c(-c7ccc(S(=O)(=O)[O-])cc7)c7ccc4[nH]7)C=C6)C=C5)cc3)cc2)cc1
REMARK SMILES IDX 26 1 25 2 24 3 22 4 23 5 21 7 18 8 19 9 93 10 20 11 92 12
REMARK SMILES IDX 17 13 9 14 10 15 11 16 16 17 8 18 5 19 6 20 95 21 7 22 94 23
REMARK SMILES IDX 2 24 3 25 4 26 1 27 12 30 13 31 14 32 15 33 27 34 28 35
REMARK SMILES IDX 29 36 30 37 31 39 32 40 33 41 91 42 34 43 90 44 35 45 36 46
REMARK SMILES IDX 37 47 84 48 38 49 89 50 83 51 85 52 39 53 88 54 82 55 81 56
REMARK SMILES IDX 40 58 70 59 51 60 69 61 52 62 55 63 68 64 86 65 53 66 54 67
REMARK SMILES IDX 67 69 87 70 56 71 41 72 42 73 50 74 43 75 49 76 44 77 45 78
REMARK SMILES IDX 46 79 47 80 48 81 71 82 72 83 80 84 73 85 79 86 74 87 75 88
REMARK SMILES IDX 76 89 77 90 78 91 57 92 58 93 66 94 59 95 65 96 60 97 61 98
REMARK SMILES IDX 62 99 63 100 64 101
REMARK H PARENT 24 6 1 28 1 29 29 38 85 57 55 68
REMARK Flexibility Score: inf
ROOT
ATOM      1  C   UNL A   1      33.295  27.465  26.027  1.00  0.00     0.023 C 
ENDROOT
BRANCH   1   2
ATOM      2  C   UNL A   1      33.874  27.591  24.612  1.00  0.00     0.116 C 
BRANCH   2   3
ATOM      3  N   UNL A   1      32.831  27.495  23.610  1.00  0.00    -0.352 N 
ATOM      4  C   UNL A   1      32.214  26.427  23.011  1.00  0.00     0.251 C 
ATOM      5  O   UNL A   1      31.354  26.666  22.162  1.00  0.00    -0.269 OA
ATOM      6  H   UNL A   1      32.501  28.368  23.298  1.00  0.00     0.163 HD
BRANCH   4   7
ATOM      7  C   UNL A   1      32.508  25.006  23.352  1.00  0.00     0.039 A 
ATOM      8  C   UNL A   1      33.160  22.313  23.860  1.00  0.00     0.000 A 
ATOM      9  C   UNL A   1      33.727  22.977  22.768  1.00  0.00     0.011 A 
ATOM     10  C   UNL A   1      32.279  22.996  24.697  1.00  0.00     0.011 A 
ATOM     11  C   UNL A   1      33.395  24.313  22.514  1.00  0.00     0.014 A 
ATOM     12  C   UNL A   1      31.992  24.341  24.467  1.00  0.00     0.014 A 
BRANCH   8  13
ATOM     13  C   UNL A   1      33.527  20.942  24.187  1.00  0.00     0.075 A 
ATOM     14  N   UNL A   1      34.768  20.540  24.659  1.00  0.00    -0.233 N 
ATOM     15  N   UNL A   1      34.869  19.186  24.720  1.00  0.00    -0.163 NA
ATOM     16  C   UNL A   1      33.618  18.736  24.489  1.00  0.00     0.167 A 
ATOM     17  C   UNL A   1      32.766  19.797  24.100  1.00  0.00     0.064 A 
BRANCH  14  18
ATOM     18  C   UNL A   1      35.840  21.363  25.094  1.00  0.00     0.065 A 
ATOM     19  C   UNL A   1      37.945  22.883  26.109  1.00  0.00     0.082 A 
ATOM     20  C   UNL A   1      38.223  21.722  25.387  1.00  0.00     0.024 A 
ATOM     21  C   UNL A   1      36.623  23.312  26.289  1.00  0.00     0.024 A 
ATOM     22  C   UNL A   1      37.168  20.962  24.886  1.00  0.00     0.030 A 
ATOM     23  C   UNL A   1      35.567  22.564  25.758  1.00  0.00     0.030 A 
BRANCH  19  24
ATOM     24  S   UNL A   1      39.243  23.839  26.832  1.00  0.00     0.238 S 
ATOM     25  O   UNL A   1      39.544  24.944  25.942  1.00  0.00    -0.207 OA
ATOM     26  O   UNL A   1      40.250  22.941  27.327  1.00  0.00    -0.207 OA
BRANCH  24  27
ATOM     27  N   UNL A   1      38.556  24.543  28.197  1.00  0.00    -0.225 NA
ATOM     28  H   UNL A   1      38.909  25.493  28.303  1.00  0.00     0.137 HD
ATOM     29  H   UNL A   1      38.800  23.994  29.022  1.00  0.00     0.137 HD
ENDBRANCH  24  27
ENDBRANCH  19  24
ENDBRANCH  14  18
BRANCH  16  30
ATOM     30  C   UNL A   1      33.212  17.296  24.649  1.00  0.00     0.435 C 
ATOM     31  F   UNL A   1      34.189  16.520  25.184  1.00  0.00    -0.164 F 
ATOM     32  F   UNL A   1      32.116  17.165  25.449  1.00  0.00    -0.164 F 
ATOM     33  F   UNL A   1      32.875  16.730  23.456  1.00  0.00    -0.164 F 
ENDBRANCH  16  30
ENDBRANCH   8  13
ENDBRANCH   4   7
ENDBRANCH   2   3
ENDBRANCH   1   2
BRANCH   1  34
ATOM     34  C   UNL A   1      32.736  28.766  26.617  1.00  0.00     0.023 C 
BRANCH  34  35
ATOM     35  C   UNL A   1      33.654  29.457  27.620  1.00  0.00     0.116 C 
BRANCH  35  36
ATOM     36  N   UNL A   1      33.950  30.842  27.252  1.00  0.00    -0.352 N 
ATOM     37  C   UNL A   1      35.023  31.619  27.646  1.00  0.00     0.251 C 
ATOM     38  H   UNL A   1      33.304  31.275  26.647  1.00  0.00     0.163 HD
ATOM     39  O   UNL A   1      34.964  32.842  27.601  1.00  0.00    -0.269 OA
BRANCH  37  40
ATOM     40  C   UNL A   1      36.247  30.941  28.104  1.00  0.00     0.039 A 
ATOM     41  C   UNL A   1      36.597  29.669  27.646  1.00  0.00     0.014 A 
ATOM     42  C   UNL A   1      37.077  31.643  28.972  1.00  0.00     0.014 A 
ATOM     43  C   UNL A   1      37.841  29.148  27.998  1.00  0.00     0.010 A 
ATOM     44  C   UNL A   1      38.354  31.193  29.200  1.00  0.00     0.010 A 
ATOM     45  C   UNL A   1      38.728  29.927  28.757  1.00  0.00    -0.014 A 
BRANCH  45  46
ATOM     46  C   UNL A   1      40.094  29.479  29.013  1.00  0.00     0.031 A 
ATOM     47  C   UNL A   1      40.421  29.193  30.438  1.00  0.00     0.074 A 
ATOM     48  C   UNL A   1      40.938  29.107  28.026  1.00  0.00     0.049 A 
ATOM     49  N   UNL A   1      41.241  29.833  31.203  1.00  0.00    -0.248 NA
ATOM     50  C   UNL A   1      39.666  28.136  31.132  1.00  0.00     0.031 C 
ATOM     51  C   UNL A   1      40.669  29.016  26.586  1.00  0.00     0.029 A 
ATOM     52  N   UNL A   1      42.191  28.590  28.126  1.00  0.00    -0.354 N 
ATOM     53  C   UNL A   1      41.272  29.138  32.409  1.00  0.00     0.074 A 
ATOM     54  C   UNL A   1      40.161  28.220  32.369  1.00  0.00     0.031 C 
ATOM     55  C   UNL A   1      41.608  28.242  26.000  1.00  0.00     0.029 A 
ATOM     56  C   UNL A   1      42.636  27.943  26.979  1.00  0.00     0.049 A 
ATOM     57  H   UNL A   1      42.738  28.667  28.941  1.00  0.00     0.167 HD
ATOM     58  C   UNL A   1      42.344  29.206  33.250  1.00  0.00     0.031 A 
ATOM     59  C   UNL A   1      43.752  27.182  26.854  1.00  0.00     0.031 A 
ATOM     60  C   UNL A   1      43.249  30.263  32.877  1.00  0.00     0.049 A 
ATOM     61  C   UNL A   1      44.663  27.566  27.960  1.00  0.00     0.074 A 
ATOM     62  C   UNL A   1      43.137  31.631  32.722  1.00  0.00     0.029 A 
ATOM     63  N   UNL A   1      44.388  29.900  32.194  1.00  0.00    -0.354 N 
ATOM     64  N   UNL A   1      45.207  28.746  28.057  1.00  0.00    -0.248 NA
ATOM     65  C   UNL A   1      44.606  26.806  29.199  1.00  0.00     0.031 C 
ATOM     66  C   UNL A   1      43.905  31.929  31.557  1.00  0.00     0.029 A 
ATOM     67  C   UNL A   1      44.504  30.745  31.120  1.00  0.00     0.049 A 
ATOM     68  H   UNL A   1      45.005  29.170  32.433  1.00  0.00     0.167 HD
ATOM     69  C   UNL A   1      45.143  29.057  29.407  1.00  0.00     0.074 A 
ATOM     70  C   UNL A   1      44.866  27.784  30.071  1.00  0.00     0.031 C 
ATOM     71  C   UNL A   1      45.041  30.353  29.833  1.00  0.00     0.031 A 
BRANCH  58  72
ATOM     72  C   UNL A   1      42.777  28.088  34.170  1.00  0.00    -0.014 A 
ATOM     73  C   UNL A   1      43.005  28.376  35.532  1.00  0.00     0.010 A 
ATOM     74  C   UNL A   1      43.226  26.839  33.698  1.00  0.00     0.010 A 
ATOM     75  C   UNL A   1      43.713  27.489  36.356  1.00  0.00     0.020 A 
ATOM     76  C   UNL A   1      43.893  25.929  34.521  1.00  0.00     0.020 A 
ATOM     77  C   UNL A   1      44.165  26.277  35.838  1.00  0.00     0.054 A 
BRANCH  77  78
ATOM     78  S   UNL A   1      45.173  25.188  36.875  1.00  0.00     0.124 S 
ATOM     79  O   UNL A   1      45.657  24.213  35.904  1.00  0.00    -0.237 OA
ATOM     80  O   UNL A   1      46.176  26.108  37.405  1.00  0.00    -0.237 OA
ATOM     81  O   UNL A   1      44.222  24.679  37.860  1.00  0.00    -0.744 OA
ENDBRANCH  77  78
ENDBRANCH  58  72
BRANCH  59  82
ATOM     82  C   UNL A   1      43.937  25.957  26.038  1.00  0.00    -0.014 A 
ATOM     83  C   UNL A   1      45.188  25.647  25.472  1.00  0.00     0.010 A 
ATOM     84  C   UNL A   1      42.957  24.943  26.056  1.00  0.00     0.010 A 
ATOM     85  C   UNL A   1      45.473  24.350  25.015  1.00  0.00     0.020 A 
ATOM     86  C   UNL A   1      43.231  23.649  25.595  1.00  0.00     0.020 A 
ATOM     87  C   UNL A   1      44.499  23.351  25.104  1.00  0.00     0.054 A 
BRANCH  87  88
ATOM     88  S   UNL A   1      44.940  21.632  24.710  1.00  0.00     0.124 S 
ATOM     89  O   UNL A   1      46.365  21.596  25.027  1.00  0.00    -0.237 OA
ATOM     90  O   UNL A   1      44.073  20.869  25.604  1.00  0.00    -0.237 OA
ATOM     91  O   UNL A   1      44.618  21.512  23.289  1.00  0.00    -0.744 OA
ENDBRANCH  87  88
ENDBRANCH  59  82
BRANCH  71  92
ATOM     92  C   UNL A   1      45.276  31.463  28.830  1.00  0.00    -0.014 A 
ATOM     93  C   UNL A   1      46.504  32.136  28.670  1.00  0.00     0.010 A 
ATOM     94  C   UNL A   1      44.240  31.749  27.923  1.00  0.00     0.010 A 
ATOM     95  C   UNL A   1      46.670  33.103  27.666  1.00  0.00     0.020 A 
ATOM     96  C   UNL A   1      44.405  32.695  26.908  1.00  0.00     0.020 A 
ATOM     97  C   UNL A   1      45.614  33.381  26.794  1.00  0.00     0.054 A 
BRANCH  97  98
ATOM     98  S   UNL A   1      45.831  34.630  25.497  1.00  0.00     0.124 S 
ATOM     99  O   UNL A   1      45.483  35.869  26.187  1.00  0.00    -0.237 OA
ATOM    100  O   UNL A   1      47.240  34.484  25.136  1.00  0.00    -0.237 OA
ATOM    101  O   UNL A   1      44.889  34.219  24.456  1.00  0.00    -0.744 OA
ENDBRANCH  97  98
ENDBRANCH  71  92
ENDBRANCH  45  46
ENDBRANCH  37  40
ENDBRANCH  35  36
ENDBRANCH  34  35
ENDBRANCH   1  34
TORSDOF 19
ENDMDL
