MODEL 1
REMARK VINA RESULT:     -11.7      0.000      0.000
REMARK SMILES C[C@@H]1[C@H](C(=O)NCCCCNC(=O)c2ccc(-c3c4nc(c(-c5ccc(S(=O)(=O)[O-])cc5)c5ccc([nH]5)c(-c5ccc(S(=O)(=O)[O-])cc5)c5nc(c(-c6ccc(S(=O)(=O)[O-])cc6)c6ccc3[nH]6)C=C5)C=C4)cc2)CCN1S(=O)(=O)c1cc(F)cc(F)c1
REMARK SMILES IDX 9 1 8 2 7 3 6 4 4 5 5 6 3 8 1 9 2 10 76 11 74 12 75 13 77 14
REMARK SMILES IDX 78 15 79 16 80 17 81 18 87 19 82 20 85 21 83 22 84 23 86 24
REMARK SMILES IDX 10 25 11 26 12 27 13 29 14 30 15 31 73 32 16 33 72 34 17 35
REMARK SMILES IDX 18 36 19 37 66 38 20 39 71 40 65 41 67 42 21 43 70 44 64 45
REMARK SMILES IDX 63 46 22 48 52 49 33 50 51 51 34 52 37 53 50 54 68 55 35 56
REMARK SMILES IDX 36 57 49 59 69 60 38 61 23 62 24 63 32 64 25 65 31 66 26 67
REMARK SMILES IDX 27 68 28 69 29 70 30 71 53 72 54 73 62 74 55 75 61 76 56 77
REMARK SMILES IDX 57 78 58 79 59 80 60 81 39 82 40 83 48 84 41 85 47 86 42 87
REMARK SMILES IDX 43 88 44 89 45 90 46 91
REMARK H PARENT 6 7 11 28 67 47 37 58
REMARK Flexibility Score: inf
ROOT
ATOM      1  C   UNL A   1      32.369  27.963  27.158  1.00  0.00     0.023 C 
ENDROOT
BRANCH   1   2
ATOM      2  C   UNL A   1      32.244  26.885  26.102  1.00  0.00     0.023 C 
BRANCH   2   3
ATOM      3  C   UNL A   1      31.549  27.270  24.791  1.00  0.00     0.116 C 
BRANCH   3   4
ATOM      4  N   UNL A   1      32.484  27.425  23.685  1.00  0.00    -0.356 N 
ATOM      5  C   UNL A   1      33.056  26.578  22.793  1.00  0.00     0.224 C 
ATOM      6  O   UNL A   1      33.846  27.101  21.995  1.00  0.00    -0.275 OA
ATOM      7  H   UNL A   1      32.767  28.359  23.556  1.00  0.00     0.163 HD
BRANCH   5   8
ATOM      8  C   UNL A   1      32.847  25.064  22.703  1.00  0.00     0.098 C 
ATOM      9  C   UNL A   1      34.569  24.660  24.536  1.00  0.00     0.026 C 
ATOM     10  C   UNL A   1      33.931  24.134  23.282  1.00  0.00     0.082 C 
ATOM     11  N   UNL A   1      33.271  22.781  23.417  1.00  0.00    -0.194 NA
ATOM     12  C   UNL A   1      31.545  24.468  23.183  1.00  0.00     0.032 C 
ATOM     13  C   UNL A   1      31.816  22.975  23.059  1.00  0.00     0.104 C 
BRANCH  11  14
ATOM     14  S   UNL A   1      33.445  21.744  24.757  1.00  0.00     0.243 S 
ATOM     15  O   UNL A   1      34.863  21.661  25.045  1.00  0.00    -0.207 OA
ATOM     16  O   UNL A   1      32.525  22.228  25.766  1.00  0.00    -0.207 OA
BRANCH  14  17
ATOM     17  C   UNL A   1      32.908  20.093  24.389  1.00  0.00     0.088 A 
ATOM     18  C   UNL A   1      33.017  19.171  25.441  1.00  0.00     0.061 A 
ATOM     19  C   UNL A   1      32.505  19.657  23.129  1.00  0.00     0.061 A 
ATOM     20  C   UNL A   1      32.809  17.819  25.199  1.00  0.00     0.127 A 
ATOM     21  C   UNL A   1      32.368  18.288  22.902  1.00  0.00     0.127 A 
ATOM     22  F   UNL A   1      32.920  16.945  26.206  1.00  0.00    -0.207 F 
ATOM     23  C   UNL A   1      32.522  17.360  23.923  1.00  0.00     0.078 A 
ATOM     24  F   UNL A   1      32.120  17.856  21.659  1.00  0.00    -0.207 F 
ENDBRANCH  14  17
ENDBRANCH  11  14
ENDBRANCH   5   8
ENDBRANCH   3   4
ENDBRANCH   2   3
ENDBRANCH   1   2
BRANCH   1  25
ATOM     25  C   UNL A   1      33.679  28.717  27.130  1.00  0.00     0.116 C 
BRANCH  25  26
ATOM     26  N   UNL A   1      33.622  30.044  27.732  1.00  0.00    -0.352 N 
ATOM     27  C   UNL A   1      34.631  30.725  28.385  1.00  0.00     0.251 C 
ATOM     28  H   UNL A   1      32.759  30.512  27.663  1.00  0.00     0.163 HD
ATOM     29  O   UNL A   1      34.432  31.810  28.895  1.00  0.00    -0.269 OA
BRANCH  27  30
ATOM     30  C   UNL A   1      35.948  30.060  28.491  1.00  0.00     0.039 A 
ATOM     31  C   UNL A   1      36.844  30.159  27.426  1.00  0.00     0.014 A 
ATOM     32  C   UNL A   1      36.333  29.478  29.699  1.00  0.00     0.014 A 
ATOM     33  C   UNL A   1      38.165  29.747  27.609  1.00  0.00     0.010 A 
ATOM     34  C   UNL A   1      37.670  29.192  29.917  1.00  0.00     0.010 A 
ATOM     35  C   UNL A   1      38.597  29.306  28.870  1.00  0.00    -0.014 A 
BRANCH  35  36
ATOM     36  C   UNL A   1      40.002  28.904  29.123  1.00  0.00     0.031 A 
ATOM     37  C   UNL A   1      40.946  29.904  29.737  1.00  0.00     0.074 A 
ATOM     38  C   UNL A   1      40.447  27.696  28.727  1.00  0.00     0.049 A 
ATOM     39  N   UNL A   1      42.235  29.814  29.929  1.00  0.00    -0.248 NA
ATOM     40  C   UNL A   1      40.369  31.199  30.140  1.00  0.00     0.031 C 
ATOM     41  C   UNL A   1      39.646  26.663  28.064  1.00  0.00     0.029 A 
ATOM     42  N   UNL A   1      41.695  27.133  28.822  1.00  0.00    -0.354 N 
ATOM     43  C   UNL A   1      42.626  31.050  30.428  1.00  0.00     0.074 A 
ATOM     44  C   UNL A   1      41.453  31.893  30.450  1.00  0.00     0.031 C 
ATOM     45  C   UNL A   1      40.412  25.580  27.850  1.00  0.00     0.029 A 
ATOM     46  C   UNL A   1      41.764  25.852  28.327  1.00  0.00     0.049 A 
ATOM     47  H   UNL A   1      42.469  27.603  29.209  1.00  0.00     0.167 HD
ATOM     48  C   UNL A   1      43.845  31.443  30.863  1.00  0.00     0.031 A 
ATOM     49  C   UNL A   1      42.801  24.995  28.272  1.00  0.00     0.031 A 
ATOM     50  C   UNL A   1      44.993  30.582  30.896  1.00  0.00     0.049 A 
ATOM     51  C   UNL A   1      44.131  25.426  28.826  1.00  0.00     0.074 A 
ATOM     52  C   UNL A   1      46.261  30.852  31.379  1.00  0.00     0.029 A 
ATOM     53  N   UNL A   1      45.003  29.271  30.445  1.00  0.00    -0.354 N 
ATOM     54  N   UNL A   1      44.472  26.584  29.340  1.00  0.00    -0.248 NA
ATOM     55  C   UNL A   1      45.211  24.430  28.809  1.00  0.00     0.031 C 
ATOM     56  C   UNL A   1      47.044  29.707  31.201  1.00  0.00     0.029 A 
ATOM     57  C   UNL A   1      46.253  28.714  30.641  1.00  0.00     0.049 A 
ATOM     58  H   UNL A   1      44.234  28.805  30.043  1.00  0.00     0.167 HD
ATOM     59  C   UNL A   1      45.797  26.447  29.735  1.00  0.00     0.074 A 
ATOM     60  C   UNL A   1      46.193  25.091  29.409  1.00  0.00     0.031 C 
ATOM     61  C   UNL A   1      46.614  27.359  30.318  1.00  0.00     0.031 A 
BRANCH  48  62
ATOM     62  C   UNL A   1      43.977  32.862  31.346  1.00  0.00    -0.014 A 
ATOM     63  C   UNL A   1      43.776  33.187  32.700  1.00  0.00     0.010 A 
ATOM     64  C   UNL A   1      44.288  33.886  30.435  1.00  0.00     0.010 A 
ATOM     65  C   UNL A   1      43.822  34.518  33.124  1.00  0.00     0.020 A 
ATOM     66  C   UNL A   1      44.366  35.215  30.860  1.00  0.00     0.020 A 
ATOM     67  C   UNL A   1      44.108  35.525  32.198  1.00  0.00     0.054 A 
BRANCH  67  68
ATOM     68  S   UNL A   1      44.159  37.244  32.769  1.00  0.00     0.124 S 
ATOM     69  O   UNL A   1      45.481  37.316  33.388  1.00  0.00    -0.237 OA
ATOM     70  O   UNL A   1      44.005  38.002  31.530  1.00  0.00    -0.237 OA
ATOM     71  O   UNL A   1      43.032  37.334  33.695  1.00  0.00    -0.744 OA
ENDBRANCH  67  68
ENDBRANCH  48  62
BRANCH  49  72
ATOM     72  C   UNL A   1      42.607  23.626  27.721  1.00  0.00    -0.014 A 
ATOM     73  C   UNL A   1      43.036  23.321  26.417  1.00  0.00     0.010 A 
ATOM     74  C   UNL A   1      42.017  22.615  28.500  1.00  0.00     0.010 A 
ATOM     75  C   UNL A   1      42.864  22.037  25.895  1.00  0.00     0.020 A 
ATOM     76  C   UNL A   1      41.863  21.322  27.989  1.00  0.00     0.020 A 
ATOM     77  C   UNL A   1      42.278  21.044  26.685  1.00  0.00     0.054 A 
BRANCH  77  78
ATOM     78  S   UNL A   1      42.117  19.367  26.008  1.00  0.00     0.124 S 
ATOM     79  O   UNL A   1      42.660  18.551  27.087  1.00  0.00    -0.237 OA
ATOM     80  O   UNL A   1      40.678  19.251  25.786  1.00  0.00    -0.237 OA
ATOM     81  O   UNL A   1      42.924  19.415  24.789  1.00  0.00    -0.744 OA
ENDBRANCH  77  78
ENDBRANCH  49  72
BRANCH  61  82
ATOM     82  C   UNL A   1      48.001  26.908  30.681  1.00  0.00    -0.014 A 
ATOM     83  C   UNL A   1      49.088  27.143  29.822  1.00  0.00     0.010 A 
ATOM     84  C   UNL A   1      48.224  26.300  31.928  1.00  0.00     0.010 A 
ATOM     85  C   UNL A   1      50.375  26.751  30.196  1.00  0.00     0.020 A 
ATOM     86  C   UNL A   1      49.513  25.927  32.315  1.00  0.00     0.020 A 
ATOM     87  C   UNL A   1      50.579  26.143  31.439  1.00  0.00     0.054 A 
BRANCH  87  88
ATOM     88  S   UNL A   1      52.265  25.687  31.926  1.00  0.00     0.124 S 
ATOM     89  O   UNL A   1      53.023  25.998  30.718  1.00  0.00    -0.237 OA
ATOM     90  O   UNL A   1      52.518  26.561  33.069  1.00  0.00    -0.237 OA
ATOM     91  O   UNL A   1      52.158  24.266  32.249  1.00  0.00    -0.744 OA
ENDBRANCH  87  88
ENDBRANCH  61  82
ENDBRANCH  35  36
ENDBRANCH  27  30
ENDBRANCH  25  26
ENDBRANCH   1  25
TORSDOF 16
ENDMDL
MODEL 2
REMARK VINA RESULT:     -11.6      3.356      4.937
REMARK SMILES C[C@@H]1[C@H](C(=O)NCCCCNC(=O)c2ccc(-c3c4nc(c(-c5ccc(S(=O)(=O)[O-])cc5)c5ccc([nH]5)c(-c5ccc(S(=O)(=O)[O-])cc5)c5nc(c(-c6ccc(S(=O)(=O)[O-])cc6)c6ccc3[nH]6)C=C5)C=C4)cc2)CCN1S(=O)(=O)c1cc(F)cc(F)c1
REMARK SMILES IDX 9 1 8 2 7 3 6 4 4 5 5 6 3 8 1 9 2 10 76 11 74 12 75 13 77 14
REMARK SMILES IDX 78 15 79 16 80 17 81 18 87 19 82 20 85 21 83 22 84 23 86 24
REMARK SMILES IDX 10 25 11 26 12 27 13 29 14 30 15 31 73 32 16 33 72 34 17 35
REMARK SMILES IDX 18 36 19 37 66 38 20 39 71 40 65 41 67 42 21 43 70 44 64 45
REMARK SMILES IDX 63 46 22 48 52 49 33 50 51 51 34 52 37 53 50 54 68 55 35 56
REMARK SMILES IDX 36 57 49 59 69 60 38 61 23 62 24 63 32 64 25 65 31 66 26 67
REMARK SMILES IDX 27 68 28 69 29 70 30 71 53 72 54 73 62 74 55 75 61 76 56 77
REMARK SMILES IDX 57 78 58 79 59 80 60 81 39 82 40 83 48 84 41 85 47 86 42 87
REMARK SMILES IDX 43 88 44 89 45 90 46 91
REMARK H PARENT 6 7 11 28 67 47 37 58
REMARK Flexibility Score: inf
ROOT
ATOM      1  C   UNL A   1      32.996  27.754  26.915  1.00  0.00     0.023 C 
ENDROOT
BRANCH   1   2
ATOM      2  C   UNL A   1      33.023  26.510  26.052  1.00  0.00     0.023 C 
BRANCH   2   3
ATOM      3  C   UNL A   1      34.300  26.249  25.244  1.00  0.00     0.116 C 
BRANCH   3   4
ATOM      4  N   UNL A   1      34.078  25.351  24.120  1.00  0.00    -0.356 N 
ATOM      5  C   UNL A   1      33.446  25.457  22.924  1.00  0.00     0.224 C 
ATOM      6  O   UNL A   1      33.451  24.432  22.229  1.00  0.00    -0.275 OA
ATOM      7  H   UNL A   1      34.479  24.463  24.259  1.00  0.00     0.163 HD
BRANCH   5   8
ATOM      8  C   UNL A   1      32.714  26.686  22.380  1.00  0.00     0.098 C 
ATOM      9  C   UNL A   1      30.611  26.082  23.683  1.00  0.00     0.026 C 
ATOM     10  C   UNL A   1      31.174  26.717  22.444  1.00  0.00     0.082 C 
ATOM     11  N   UNL A   1      30.792  28.164  22.233  1.00  0.00    -0.194 NA
ATOM     12  C   UNL A   1      33.137  28.061  22.840  1.00  0.00     0.032 C 
ATOM     13  C   UNL A   1      32.082  28.949  22.194  1.00  0.00     0.104 C 
BRANCH  11  14
ATOM     14  S   UNL A   1      29.592  28.989  23.116  1.00  0.00     0.243 S 
ATOM     15  O   UNL A   1      28.419  28.139  23.133  1.00  0.00    -0.207 OA
ATOM     16  O   UNL A   1      30.213  29.397  24.361  1.00  0.00    -0.207 OA
BRANCH  14  17
ATOM     17  C   UNL A   1      29.107  30.500  22.320  1.00  0.00     0.088 A 
ATOM     18  C   UNL A   1      29.210  31.659  23.104  1.00  0.00     0.061 A 
ATOM     19  C   UNL A   1      28.549  30.576  21.047  1.00  0.00     0.061 A 
ATOM     20  C   UNL A   1      28.674  32.855  22.642  1.00  0.00     0.127 A 
ATOM     21  C   UNL A   1      27.962  31.773  20.638  1.00  0.00     0.127 A 
ATOM     22  F   UNL A   1      28.770  33.955  23.398  1.00  0.00    -0.207 F 
ATOM     23  C   UNL A   1      28.012  32.915  21.426  1.00  0.00     0.078 A 
ATOM     24  F   UNL A   1      27.299  31.811  19.475  1.00  0.00    -0.207 F 
ENDBRANCH  14  17
ENDBRANCH  11  14
ENDBRANCH   5   8
ENDBRANCH   3   4
ENDBRANCH   2   3
ENDBRANCH   1   2
BRANCH   1  25
ATOM     25  C   UNL A   1      33.851  28.890  26.403  1.00  0.00     0.116 C 
BRANCH  25  26
ATOM     26  N   UNL A   1      33.709  30.134  27.150  1.00  0.00    -0.352 N 
ATOM     27  C   UNL A   1      34.623  30.722  28.003  1.00  0.00     0.251 C 
ATOM     28  H   UNL A   1      32.857  30.613  27.032  1.00  0.00     0.163 HD
ATOM     29  O   UNL A   1      34.353  31.738  28.613  1.00  0.00    -0.269 OA
BRANCH  27  30
ATOM     30  C   UNL A   1      35.922  30.041  28.190  1.00  0.00     0.039 A 
ATOM     31  C   UNL A   1      36.892  30.145  27.194  1.00  0.00     0.014 A 
ATOM     32  C   UNL A   1      36.213  29.435  29.413  1.00  0.00     0.014 A 
ATOM     33  C   UNL A   1      38.192  29.715  27.462  1.00  0.00     0.010 A 
ATOM     34  C   UNL A   1      37.528  29.128  29.720  1.00  0.00     0.010 A 
ATOM     35  C   UNL A   1      38.529  29.248  28.743  1.00  0.00    -0.014 A 
BRANCH  35  36
ATOM     36  C   UNL A   1      39.908  28.825  29.088  1.00  0.00     0.031 A 
ATOM     37  C   UNL A   1      40.816  29.803  29.785  1.00  0.00     0.074 A 
ATOM     38  C   UNL A   1      40.367  27.618  28.704  1.00  0.00     0.049 A 
ATOM     39  N   UNL A   1      42.087  29.694  30.066  1.00  0.00    -0.248 NA
ATOM     40  C   UNL A   1      40.226  31.099  30.169  1.00  0.00     0.031 C 
ATOM     41  C   UNL A   1      39.604  26.607  27.968  1.00  0.00     0.029 A 
ATOM     42  N   UNL A   1      41.599  27.039  28.878  1.00  0.00    -0.354 N 
ATOM     43  C   UNL A   1      42.455  30.918  30.614  1.00  0.00     0.074 A 
ATOM     44  C   UNL A   1      41.292  31.774  30.567  1.00  0.00     0.031 C 
ATOM     45  C   UNL A   1      40.371  25.518  27.791  1.00  0.00     0.029 A 
ATOM     46  C   UNL A   1      41.689  25.766  28.367  1.00  0.00     0.049 A 
ATOM     47  H   UNL A   1      42.348  27.493  29.327  1.00  0.00     0.167 HD
ATOM     48  C   UNL A   1      43.645  31.289  31.140  1.00  0.00     0.031 A 
ATOM     49  C   UNL A   1      42.717  24.897  28.371  1.00  0.00     0.031 A 
ATOM     50  C   UNL A   1      44.778  30.414  31.240  1.00  0.00     0.049 A 
ATOM     51  C   UNL A   1      44.009  25.303  29.025  1.00  0.00     0.074 A 
ATOM     52  C   UNL A   1      46.010  30.660  31.817  1.00  0.00     0.029 A 
ATOM     53  N   UNL A   1      44.806  29.110  30.768  1.00  0.00    -0.354 N 
ATOM     54  N   UNL A   1      44.326  26.448  29.582  1.00  0.00    -0.248 NA
ATOM     55  C   UNL A   1      45.077  24.295  29.068  1.00  0.00     0.031 C 
ATOM     56  C   UNL A   1      46.792  29.509  31.675  1.00  0.00     0.029 A 
ATOM     57  C   UNL A   1      46.033  28.535  31.043  1.00  0.00     0.049 A 
ATOM     58  H   UNL A   1      44.062  28.660  30.305  1.00  0.00     0.167 HD
ATOM     59  C   UNL A   1      45.617  26.288  30.068  1.00  0.00     0.074 A 
ATOM     60  C   UNL A   1      46.021  24.934  29.747  1.00  0.00     0.031 C 
ATOM     61  C   UNL A   1      46.401  27.181  30.723  1.00  0.00     0.031 A 
BRANCH  48  62
ATOM     62  C   UNL A   1      43.757  32.698  31.657  1.00  0.00    -0.014 A 
ATOM     63  C   UNL A   1      43.471  33.002  33.000  1.00  0.00     0.010 A 
ATOM     64  C   UNL A   1      44.136  33.734  30.785  1.00  0.00     0.010 A 
ATOM     65  C   UNL A   1      43.501  34.324  33.449  1.00  0.00     0.020 A 
ATOM     66  C   UNL A   1      44.197  35.055  31.238  1.00  0.00     0.020 A 
ATOM     67  C   UNL A   1      43.856  35.345  32.562  1.00  0.00     0.054 A 
BRANCH  67  68
ATOM     68  S   UNL A   1      43.884  37.053  33.166  1.00  0.00     0.124 S 
ATOM     69  O   UNL A   1      43.884  37.812  31.916  1.00  0.00    -0.237 OA
ATOM     70  O   UNL A   1      42.656  37.140  33.951  1.00  0.00    -0.237 OA
ATOM     71  O   UNL A   1      45.121  37.126  33.939  1.00  0.00    -0.744 OA
ENDBRANCH  67  68
ENDBRANCH  48  62
BRANCH  49  72
ATOM     72  C   UNL A   1      42.549  23.540  27.784  1.00  0.00    -0.014 A 
ATOM     73  C   UNL A   1      43.139  23.226  26.547  1.00  0.00     0.010 A 
ATOM     74  C   UNL A   1      41.820  22.548  28.465  1.00  0.00     0.010 A 
ATOM     75  C   UNL A   1      42.991  21.952  25.993  1.00  0.00     0.020 A 
ATOM     76  C   UNL A   1      41.688  21.265  27.924  1.00  0.00     0.020 A 
ATOM     77  C   UNL A   1      42.266  20.978  26.685  1.00  0.00     0.054 A 
BRANCH  77  78
ATOM     78  S   UNL A   1      42.135  19.313  25.974  1.00  0.00     0.124 S 
ATOM     79  O   UNL A   1      40.698  19.187  25.760  1.00  0.00    -0.237 OA
ATOM     80  O   UNL A   1      42.949  19.419  24.766  1.00  0.00    -0.237 OA
ATOM     81  O   UNL A   1      42.694  18.454  27.017  1.00  0.00    -0.744 OA
ENDBRANCH  77  78
ENDBRANCH  49  72
BRANCH  61  82
ATOM     82  C   UNL A   1      47.753  26.708  31.175  1.00  0.00    -0.014 A 
ATOM     83  C   UNL A   1      48.907  26.977  30.419  1.00  0.00     0.010 A 
ATOM     84  C   UNL A   1      47.874  26.042  32.407  1.00  0.00     0.010 A 
ATOM     85  C   UNL A   1      50.159  26.562  30.877  1.00  0.00     0.020 A 
ATOM     86  C   UNL A   1      49.127  25.645  32.879  1.00  0.00     0.020 A 
ATOM     87  C   UNL A   1      50.261  25.897  32.103  1.00  0.00     0.054 A 
BRANCH  87  88
ATOM     88  S   UNL A   1      51.902  25.411  32.704  1.00  0.00     0.124 S 
ATOM     89  O   UNL A   1      52.777  26.287  31.930  1.00  0.00    -0.237 OA
ATOM     90  O   UNL A   1      51.822  25.704  34.132  1.00  0.00    -0.237 OA
ATOM     91  O   UNL A   1      51.984  23.991  32.370  1.00  0.00    -0.744 OA
ENDBRANCH  87  88
ENDBRANCH  61  82
ENDBRANCH  35  36
ENDBRANCH  27  30
ENDBRANCH  25  26
ENDBRANCH   1  25
TORSDOF 16
ENDMDL
MODEL 3
REMARK VINA RESULT:     -11.5      1.681      2.363
REMARK SMILES C[C@@H]1[C@H](C(=O)NCCCCNC(=O)c2ccc(-c3c4nc(c(-c5ccc(S(=O)(=O)[O-])cc5)c5ccc([nH]5)c(-c5ccc(S(=O)(=O)[O-])cc5)c5nc(c(-c6ccc(S(=O)(=O)[O-])cc6)c6ccc3[nH]6)C=C5)C=C4)cc2)CCN1S(=O)(=O)c1cc(F)cc(F)c1
REMARK SMILES IDX 9 1 8 2 7 3 6 4 4 5 5 6 3 8 1 9 2 10 76 11 74 12 75 13 77 14
REMARK SMILES IDX 78 15 79 16 80 17 81 18 87 19 82 20 85 21 83 22 84 23 86 24
REMARK SMILES IDX 10 25 11 26 12 27 13 29 14 30 15 31 73 32 16 33 72 34 17 35
REMARK SMILES IDX 18 36 19 37 66 38 20 39 71 40 65 41 67 42 21 43 70 44 64 45
REMARK SMILES IDX 63 46 22 48 52 49 33 50 51 51 34 52 37 53 50 54 68 55 35 56
REMARK SMILES IDX 36 57 49 59 69 60 38 61 23 62 24 63 32 64 25 65 31 66 26 67
REMARK SMILES IDX 27 68 28 69 29 70 30 71 53 72 54 73 62 74 55 75 61 76 56 77
REMARK SMILES IDX 57 78 58 79 59 80 60 81 39 82 40 83 48 84 41 85 47 86 42 87
REMARK SMILES IDX 43 88 44 89 45 90 46 91
REMARK H PARENT 6 7 11 28 67 47 37 58
REMARK Flexibility Score: inf
ROOT
ATOM      1  C   UNL A   1      32.817  29.091  25.799  1.00  0.00     0.023 C 
ENDROOT
BRANCH   1   2
ATOM      2  C   UNL A   1      33.331  28.859  24.394  1.00  0.00     0.023 C 
BRANCH   2   3
ATOM      3  C   UNL A   1      32.287  28.580  23.306  1.00  0.00     0.116 C 
BRANCH   3   4
ATOM      4  N   UNL A   1      31.072  27.976  23.837  1.00  0.00    -0.356 N 
ATOM      5  C   UNL A   1      30.614  26.705  23.959  1.00  0.00     0.224 C 
ATOM      6  O   UNL A   1      29.484  26.594  24.454  1.00  0.00    -0.275 OA
ATOM      7  H   UNL A   1      30.438  28.643  24.185  1.00  0.00     0.163 HD
BRANCH   5   8
ATOM      8  C   UNL A   1      31.331  25.426  23.523  1.00  0.00     0.098 C 
ATOM      9  C   UNL A   1      32.710  25.399  25.664  1.00  0.00     0.026 C 
ATOM     10  C   UNL A   1      32.666  25.060  24.201  1.00  0.00     0.082 C 
ATOM     11  N   UNL A   1      32.897  23.602  23.875  1.00  0.00    -0.194 NA
ATOM     12  C   UNL A   1      30.563  24.126  23.478  1.00  0.00     0.032 C 
ATOM     13  C   UNL A   1      31.661  23.121  23.153  1.00  0.00     0.104 C 
BRANCH  11  14
ATOM     14  S   UNL A   1      33.460  22.436  24.981  1.00  0.00     0.243 S 
ATOM     15  O   UNL A   1      32.994  22.839  26.293  1.00  0.00    -0.207 OA
ATOM     16  O   UNL A   1      33.081  21.147  24.439  1.00  0.00    -0.207 OA
BRANCH  14  17
ATOM     17  C   UNL A   1      35.233  22.404  25.064  1.00  0.00     0.088 A 
ATOM     18  C   UNL A   1      35.831  21.167  24.784  1.00  0.00     0.061 A 
ATOM     19  C   UNL A   1      36.022  23.473  25.483  1.00  0.00     0.061 A 
ATOM     20  C   UNL A   1      37.191  20.990  25.012  1.00  0.00     0.127 A 
ATOM     21  C   UNL A   1      37.369  23.247  25.765  1.00  0.00     0.127 A 
ATOM     22  F   UNL A   1      37.754  19.805  24.747  1.00  0.00    -0.207 F 
ATOM     23  C   UNL A   1      37.963  22.012  25.540  1.00  0.00     0.078 A 
ATOM     24  F   UNL A   1      38.097  24.233  26.303  1.00  0.00    -0.207 F 
ENDBRANCH  14  17
ENDBRANCH  11  14
ENDBRANCH   5   8
ENDBRANCH   3   4
ENDBRANCH   2   3
ENDBRANCH   1   2
BRANCH   1  25
ATOM     25  C   UNL A   1      33.898  29.225  26.847  1.00  0.00     0.116 C 
BRANCH  25  26
ATOM     26  N   UNL A   1      33.762  30.397  27.704  1.00  0.00    -0.352 N 
ATOM     27  C   UNL A   1      34.700  30.931  28.567  1.00  0.00     0.251 C 
ATOM     28  H   UNL A   1      32.897  30.865  27.661  1.00  0.00     0.163 HD
ATOM     29  O   UNL A   1      34.436  31.885  29.272  1.00  0.00    -0.269 OA
BRANCH  27  30
ATOM     30  C   UNL A   1      36.018  30.266  28.642  1.00  0.00     0.039 A 
ATOM     31  C   UNL A   1      36.902  30.389  27.570  1.00  0.00     0.014 A 
ATOM     32  C   UNL A   1      36.418  29.658  29.833  1.00  0.00     0.014 A 
ATOM     33  C   UNL A   1      38.225  29.975  27.728  1.00  0.00     0.010 A 
ATOM     34  C   UNL A   1      37.757  29.368  30.029  1.00  0.00     0.010 A 
ATOM     35  C   UNL A   1      38.672  29.506  28.974  1.00  0.00    -0.014 A 
BRANCH  35  36
ATOM     36  C   UNL A   1      40.080  29.100  29.202  1.00  0.00     0.031 A 
ATOM     37  C   UNL A   1      41.041  30.102  29.785  1.00  0.00     0.074 A 
ATOM     38  C   UNL A   1      40.512  27.886  28.809  1.00  0.00     0.049 A 
ATOM     39  N   UNL A   1      42.334  30.008  29.951  1.00  0.00    -0.248 NA
ATOM     40  C   UNL A   1      40.479  31.404  30.188  1.00  0.00     0.031 C 
ATOM     41  C   UNL A   1      39.692  26.851  28.173  1.00  0.00     0.029 A 
ATOM     42  N   UNL A   1      41.759  27.318  28.884  1.00  0.00    -0.354 N 
ATOM     43  C   UNL A   1      42.741  31.247  30.430  1.00  0.00     0.074 A 
ATOM     44  C   UNL A   1      41.572  32.096  30.468  1.00  0.00     0.031 C 
ATOM     45  C   UNL A   1      40.449  25.762  27.955  1.00  0.00     0.029 A 
ATOM     46  C   UNL A   1      41.811  26.032  28.400  1.00  0.00     0.049 A 
ATOM     47  H   UNL A   1      42.543  27.788  29.250  1.00  0.00     0.167 HD
ATOM     48  C   UNL A   1      43.971  31.639  30.835  1.00  0.00     0.031 A 
ATOM     49  C   UNL A   1      42.843  25.169  28.333  1.00  0.00     0.031 A 
ATOM     50  C   UNL A   1      45.115  30.773  30.853  1.00  0.00     0.049 A 
ATOM     51  C   UNL A   1      44.186  25.600  28.854  1.00  0.00     0.074 A 
ATOM     52  C   UNL A   1      46.393  31.041  31.307  1.00  0.00     0.029 A 
ATOM     53  N   UNL A   1      45.110  29.457  30.415  1.00  0.00    -0.354 N 
ATOM     54  N   UNL A   1      44.543  26.761  29.349  1.00  0.00    -0.248 NA
ATOM     55  C   UNL A   1      45.262  24.599  28.826  1.00  0.00     0.031 C 
ATOM     56  C   UNL A   1      47.168  29.891  31.124  1.00  0.00     0.029 A 
ATOM     57  C   UNL A   1      46.361  28.896  30.591  1.00  0.00     0.049 A 
ATOM     58  H   UNL A   1      44.330  28.991  30.034  1.00  0.00     0.167 HD
ATOM     59  C   UNL A   1      45.876  26.622  29.719  1.00  0.00     0.074 A 
ATOM     60  C   UNL A   1      46.259  25.261  29.398  1.00  0.00     0.031 C 
ATOM     61  C   UNL A   1      46.709  27.536  30.274  1.00  0.00     0.031 A 
BRANCH  48  62
ATOM     62  C   UNL A   1      44.119  33.062  31.301  1.00  0.00    -0.014 A 
ATOM     63  C   UNL A   1      44.067  33.385  32.669  1.00  0.00     0.010 A 
ATOM     64  C   UNL A   1      44.294  34.092  30.360  1.00  0.00     0.010 A 
ATOM     65  C   UNL A   1      44.126  34.717  33.086  1.00  0.00     0.020 A 
ATOM     66  C   UNL A   1      44.385  35.424  30.775  1.00  0.00     0.020 A 
ATOM     67  C   UNL A   1      44.275  35.730  32.134  1.00  0.00     0.054 A 
BRANCH  67  68
ATOM     68  S   UNL A   1      44.345  37.451  32.696  1.00  0.00     0.124 S 
ATOM     69  O   UNL A   1      43.155  37.539  33.541  1.00  0.00    -0.237 OA
ATOM     70  O   UNL A   1      45.621  37.509  33.404  1.00  0.00    -0.237 OA
ATOM     71  O   UNL A   1      44.288  38.222  31.457  1.00  0.00    -0.744 OA
ENDBRANCH  67  68
ENDBRANCH  48  62
BRANCH  49  72
ATOM     72  C   UNL A   1      42.632  23.796  27.801  1.00  0.00    -0.014 A 
ATOM     73  C   UNL A   1      42.287  22.746  28.671  1.00  0.00     0.010 A 
ATOM     74  C   UNL A   1      42.751  23.531  26.425  1.00  0.00     0.010 A 
ATOM     75  C   UNL A   1      42.080  21.455  28.179  1.00  0.00     0.020 A 
ATOM     76  C   UNL A   1      42.524  22.245  25.925  1.00  0.00     0.020 A 
ATOM     77  C   UNL A   1      42.200  21.212  26.808  1.00  0.00     0.054 A 
BRANCH  77  78
ATOM     78  S   UNL A   1      41.871  19.540  26.183  1.00  0.00     0.124 S 
ATOM     79  O   UNL A   1      42.625  19.528  24.935  1.00  0.00    -0.237 OA
ATOM     80  O   UNL A   1      42.397  18.692  27.250  1.00  0.00    -0.237 OA
ATOM     81  O   UNL A   1      40.416  19.512  26.038  1.00  0.00    -0.744 OA
ENDBRANCH  77  78
ENDBRANCH  49  72
BRANCH  61  82
ATOM     82  C   UNL A   1      48.101  27.082  30.613  1.00  0.00    -0.014 A 
ATOM     83  C   UNL A   1      49.154  27.223  29.693  1.00  0.00     0.010 A 
ATOM     84  C   UNL A   1      48.366  26.569  31.894  1.00  0.00     0.010 A 
ATOM     85  C   UNL A   1      50.447  26.831  30.042  1.00  0.00     0.020 A 
ATOM     86  C   UNL A   1      49.663  26.197  32.255  1.00  0.00     0.020 A 
ATOM     87  C   UNL A   1      50.694  26.319  31.320  1.00  0.00     0.054 A 
BRANCH  87  88
ATOM     88  S   UNL A   1      52.391  25.862  31.770  1.00  0.00     0.124 S 
ATOM     89  O   UNL A   1      52.694  26.828  32.822  1.00  0.00    -0.237 OA
ATOM     90  O   UNL A   1      52.245  24.477  32.210  1.00  0.00    -0.237 OA
ATOM     91  O   UNL A   1      53.136  26.039  30.526  1.00  0.00    -0.744 OA
ENDBRANCH  87  88
ENDBRANCH  61  82
ENDBRANCH  35  36
ENDBRANCH  27  30
ENDBRANCH  25  26
ENDBRANCH   1  25
TORSDOF 16
ENDMDL
