MODEL 1
REMARK VINA RESULT:     -10.2      0.000      0.000
REMARK SMILES C[N@@H+](CC(=O)NCCCCNC(=O)c1ccc(-c2c3nc(c(-c4ccc(S(=O)(=O)[O-])cc4)c4ccc([nH]4)c(-c4ccc(S(=O)(=O)[O-])cc4)c4nc(c(-c5ccc(S(=O)(=O)[O-])cc5)c5ccc2[nH]5)C=C4)C=C3)cc1)Cc1csc(-c2ccco2)n1
REMARK SMILES IDX 8 1 7 2 6 3 4 4 5 5 3 7 2 8 1 9 74 11 75 12 76 13 84 14
REMARK SMILES IDX 77 15 78 16 79 17 80 18 83 19 81 20 82 21 9 22 10 23 11 24
REMARK SMILES IDX 12 25 13 27 14 28 15 29 73 30 16 31 72 32 17 33 18 34 19 35
REMARK SMILES IDX 66 36 20 37 71 38 65 39 67 40 21 41 70 42 64 43 63 44 22 46
REMARK SMILES IDX 52 47 33 48 51 49 34 50 37 51 50 52 68 53 35 54 36 55 49 57
REMARK SMILES IDX 69 58 38 59 23 60 24 61 32 62 25 63 31 64 26 65 27 66 28 67
REMARK SMILES IDX 29 68 30 69 53 70 54 71 62 72 55 73 61 74 56 75 57 76 58 77
REMARK SMILES IDX 59 78 60 79 39 80 40 81 48 82 41 83 47 84 42 85 43 86 44 87
REMARK SMILES IDX 45 88 46 89
REMARK H PARENT 6 6 2 10 11 26 67 45 37 56
REMARK Flexibility Score: inf
ROOT
ATOM      1  C   UNL A   1      31.549  27.160  26.381  1.00  0.00     0.023 C 
ENDROOT
BRANCH   1   2
ATOM      2  C   UNL A   1      32.086  25.737  26.509  1.00  0.00     0.116 C 
BRANCH   2   3
ATOM      3  N   UNL A   1      31.058  24.773  26.837  1.00  0.00    -0.351 N 
ATOM      4  C   UNL A   1      31.047  23.420  26.664  1.00  0.00     0.275 C 
ATOM      5  O   UNL A   1      30.108  22.782  27.151  1.00  0.00    -0.269 OA
ATOM      6  H   UNL A   1      30.246  25.150  27.247  1.00  0.00     0.163 HD
BRANCH   4   7
ATOM      7  C   UNL A   1      32.200  22.697  25.966  1.00  0.00     0.363 C 
BRANCH   7   8
ATOM      8  N   UNL A   1      31.917  22.184  24.631  1.00  0.00    -0.325 N 
ATOM      9  C   UNL A   1      32.844  21.282  24.000  1.00  0.00     0.333 C 
ATOM     10  H   UNL A   1      31.273  21.537  25.087  1.00  0.00     0.348 HD
BRANCH   8  11
ATOM     11  C   UNL A   1      30.935  22.824  23.767  1.00  0.00     0.320 C 
BRANCH  11  12
ATOM     12  C   UNL A   1      31.308  24.196  23.281  1.00  0.00     0.106 A 
ATOM     13  C   UNL A   1      32.498  24.501  22.640  1.00  0.00     0.097 A 
ATOM     14  N   UNL A   1      30.462  25.292  23.469  1.00  0.00    -0.232 NA
ATOM     15  S   UNL A   1      32.519  26.137  22.156  1.00  0.00    -0.119 S 
ATOM     16  C   UNL A   1      30.967  26.350  22.857  1.00  0.00     0.159 A 
BRANCH  16  17
ATOM     17  C   UNL A   1      30.286  27.609  22.739  1.00  0.00     0.162 A 
ATOM     18  C   UNL A   1      29.098  28.021  23.326  1.00  0.00     0.053 A 
ATOM     19  O   UNL A   1      30.743  28.630  21.936  1.00  0.00    -0.462 OA
ATOM     20  C   UNL A   1      28.830  29.335  22.862  1.00  0.00     0.043 A 
ATOM     21  C   UNL A   1      29.859  29.655  22.013  1.00  0.00     0.196 A 
ENDBRANCH  16  17
ENDBRANCH  11  12
ENDBRANCH   8  11
ENDBRANCH   7   8
ENDBRANCH   4   7
ENDBRANCH   2   3
ENDBRANCH   1   2
BRANCH   1  22
ATOM     22  C   UNL A   1      32.066  28.136  27.427  1.00  0.00     0.023 C 
BRANCH  22  23
ATOM     23  C   UNL A   1      33.393  28.798  27.108  1.00  0.00     0.116 C 
BRANCH  23  24
ATOM     24  N   UNL A   1      33.419  30.209  27.461  1.00  0.00    -0.352 N 
ATOM     25  C   UNL A   1      34.410  30.937  28.082  1.00  0.00     0.251 C 
ATOM     26  H   UNL A   1      32.612  30.718  27.221  1.00  0.00     0.163 HD
ATOM     27  O   UNL A   1      34.194  32.088  28.440  1.00  0.00    -0.269 OA
BRANCH  25  28
ATOM     28  C   UNL A   1      35.723  30.306  28.348  1.00  0.00     0.039 A 
ATOM     29  C   UNL A   1      36.703  30.329  27.353  1.00  0.00     0.014 A 
ATOM     30  C   UNL A   1      35.999  29.732  29.590  1.00  0.00     0.014 A 
ATOM     31  C   UNL A   1      37.991  29.865  27.640  1.00  0.00     0.010 A 
ATOM     32  C   UNL A   1      37.302  29.363  29.905  1.00  0.00     0.010 A 
ATOM     33  C   UNL A   1      38.314  29.429  28.935  1.00  0.00    -0.014 A 
BRANCH  33  34
ATOM     34  C   UNL A   1      39.698  29.042  29.312  1.00  0.00     0.031 A 
ATOM     35  C   UNL A   1      40.591  30.035  30.004  1.00  0.00     0.074 A 
ATOM     36  C   UNL A   1      40.179  27.836  28.950  1.00  0.00     0.049 A 
ATOM     37  N   UNL A   1      41.860  29.932  30.309  1.00  0.00    -0.248 NA
ATOM     38  C   UNL A   1      39.986  31.325  30.376  1.00  0.00     0.031 C 
ATOM     39  C   UNL A   1      39.424  26.794  28.249  1.00  0.00     0.029 A 
ATOM     40  N   UNL A   1      41.426  27.285  29.113  1.00  0.00    -0.354 N 
ATOM     41  C   UNL A   1      42.207  31.147  30.888  1.00  0.00     0.074 A 
ATOM     42  C   UNL A   1      41.033  31.990  30.839  1.00  0.00     0.031 C 
ATOM     43  C   UNL A   1      40.213  25.721  28.072  1.00  0.00     0.029 A 
ATOM     44  C   UNL A   1      41.541  26.016  28.598  1.00  0.00     0.049 A 
ATOM     45  H   UNL A   1      42.168  27.756  29.557  1.00  0.00     0.167 HD
ATOM     46  C   UNL A   1      43.390  31.522  31.430  1.00  0.00     0.031 A 
ATOM     47  C   UNL A   1      42.600  25.184  28.547  1.00  0.00     0.031 A 
ATOM     48  C   UNL A   1      44.553  30.679  31.484  1.00  0.00     0.049 A 
ATOM     49  C   UNL A   1      43.916  25.635  29.119  1.00  0.00     0.074 A 
ATOM     50  C   UNL A   1      45.782  30.944  32.058  1.00  0.00     0.029 A 
ATOM     51  N   UNL A   1      44.630  29.405  30.941  1.00  0.00    -0.354 N 
ATOM     52  N   UNL A   1      44.210  26.767  29.713  1.00  0.00    -0.248 NA
ATOM     53  C   UNL A   1      45.043  24.697  29.015  1.00  0.00     0.031 C 
ATOM     54  C   UNL A   1      46.621  29.851  31.817  1.00  0.00     0.029 A 
ATOM     55  C   UNL A   1      45.896  28.882  31.141  1.00  0.00     0.049 A 
ATOM     56  H   UNL A   1      43.893  28.940  30.482  1.00  0.00     0.167 HD
ATOM     57  C   UNL A   1      45.550  26.670  30.071  1.00  0.00     0.074 A 
ATOM     58  C   UNL A   1      46.006  25.364  29.639  1.00  0.00     0.031 C 
ATOM     59  C   UNL A   1      46.333  27.581  30.701  1.00  0.00     0.031 A 
BRANCH  46  60
ATOM     60  C   UNL A   1      43.477  32.914  32.000  1.00  0.00    -0.014 A 
ATOM     61  C   UNL A   1      43.892  33.998  31.204  1.00  0.00     0.010 A 
ATOM     62  C   UNL A   1      43.133  33.145  33.344  1.00  0.00     0.010 A 
ATOM     63  C   UNL A   1      44.018  35.275  31.757  1.00  0.00     0.020 A 
ATOM     64  C   UNL A   1      43.228  34.427  33.893  1.00  0.00     0.020 A 
ATOM     65  C   UNL A   1      43.694  35.479  33.102  1.00  0.00     0.054 A 
BRANCH  65  66
ATOM     66  S   UNL A   1      43.874  37.145  33.796  1.00  0.00     0.124 S 
ATOM     67  O   UNL A   1      43.943  37.966  32.589  1.00  0.00    -0.237 OA
ATOM     68  O   UNL A   1      42.657  37.297  34.588  1.00  0.00    -0.237 OA
ATOM     69  O   UNL A   1      45.112  37.068  34.568  1.00  0.00    -0.744 OA
ENDBRANCH  65  66
ENDBRANCH  46  60
BRANCH  47  70
ATOM     70  C   UNL A   1      42.452  23.830  27.946  1.00  0.00    -0.014 A 
ATOM     71  C   UNL A   1      42.673  23.639  26.570  1.00  0.00     0.010 A 
ATOM     72  C   UNL A   1      42.117  22.721  28.744  1.00  0.00     0.010 A 
ATOM     73  C   UNL A   1      42.556  22.368  26.002  1.00  0.00     0.020 A 
ATOM     74  C   UNL A   1      42.024  21.442  28.184  1.00  0.00     0.020 A 
ATOM     75  C   UNL A   1      42.237  21.275  26.814  1.00  0.00     0.054 A 
BRANCH  75  76
ATOM     76  S   UNL A   1      42.157  19.625  26.065  1.00  0.00     0.124 S 
ATOM     77  O   UNL A   1      43.077  19.756  24.941  1.00  0.00    -0.237 OA
ATOM     78  O   UNL A   1      42.607  18.763  27.155  1.00  0.00    -0.237 OA
ATOM     79  O   UNL A   1      40.747  19.480  25.710  1.00  0.00    -0.744 OA
ENDBRANCH  75  76
ENDBRANCH  47  70
BRANCH  59  80
ATOM     80  C   UNL A   1      47.760  27.196  30.981  1.00  0.00    -0.014 A 
ATOM     81  C   UNL A   1      48.110  26.534  32.171  1.00  0.00     0.010 A 
ATOM     82  C   UNL A   1      48.746  27.424  30.005  1.00  0.00     0.010 A 
ATOM     83  C   UNL A   1      49.427  26.119  32.386  1.00  0.00     0.020 A 
ATOM     84  C   UNL A   1      50.058  26.987  30.205  1.00  0.00     0.020 A 
ATOM     85  C   UNL A   1      50.391  26.343  31.398  1.00  0.00     0.054 A 
BRANCH  85  86
ATOM     86  S   UNL A   1      52.076  25.728  31.670  1.00  0.00     0.124 S 
ATOM     87  O   UNL A   1      51.842  24.314  31.952  1.00  0.00    -0.237 OA
ATOM     88  O   UNL A   1      52.731  26.014  30.395  1.00  0.00    -0.237 OA
ATOM     89  O   UNL A   1      52.555  26.518  32.801  1.00  0.00    -0.744 OA
ENDBRANCH  85  86
ENDBRANCH  59  80
ENDBRANCH  33  34
ENDBRANCH  25  28
ENDBRANCH  23  24
ENDBRANCH  22  23
ENDBRANCH   1  22
TORSDOF 18
ENDMDL
MODEL 2
REMARK VINA RESULT:     -10.2      1.627      3.415
REMARK SMILES C[N@@H+](CC(=O)NCCCCNC(=O)c1ccc(-c2c3nc(c(-c4ccc(S(=O)(=O)[O-])cc4)c4ccc([nH]4)c(-c4ccc(S(=O)(=O)[O-])cc4)c4nc(c(-c5ccc(S(=O)(=O)[O-])cc5)c5ccc2[nH]5)C=C4)C=C3)cc1)Cc1csc(-c2ccco2)n1
REMARK SMILES IDX 8 1 7 2 6 3 4 4 5 5 3 7 2 8 1 9 74 11 75 12 76 13 84 14
REMARK SMILES IDX 77 15 78 16 79 17 80 18 83 19 81 20 82 21 9 22 10 23 11 24
REMARK SMILES IDX 12 25 13 27 14 28 15 29 73 30 16 31 72 32 17 33 18 34 19 35
REMARK SMILES IDX 66 36 20 37 71 38 65 39 67 40 21 41 70 42 64 43 63 44 22 46
REMARK SMILES IDX 52 47 33 48 51 49 34 50 37 51 50 52 68 53 35 54 36 55 49 57
REMARK SMILES IDX 69 58 38 59 23 60 24 61 32 62 25 63 31 64 26 65 27 66 28 67
REMARK SMILES IDX 29 68 30 69 53 70 54 71 62 72 55 73 61 74 56 75 57 76 58 77
REMARK SMILES IDX 59 78 60 79 39 80 40 81 48 82 41 83 47 84 42 85 43 86 44 87
REMARK SMILES IDX 45 88 46 89
REMARK H PARENT 6 6 2 10 11 26 67 45 37 56
REMARK Flexibility Score: inf
ROOT
ATOM      1  C   UNL A   1      31.895  26.714  26.254  1.00  0.00     0.023 C 
ENDROOT
BRANCH   1   2
ATOM      2  C   UNL A   1      30.479  26.173  26.072  1.00  0.00     0.116 C 
BRANCH   2   3
ATOM      3  N   UNL A   1      30.358  24.777  26.433  1.00  0.00    -0.351 N 
ATOM      4  C   UNL A   1      30.570  23.662  25.677  1.00  0.00     0.275 C 
ATOM      5  O   UNL A   1      30.539  22.564  26.243  1.00  0.00    -0.269 OA
ATOM      6  H   UNL A   1      30.082  24.607  27.363  1.00  0.00     0.163 HD
BRANCH   4   7
ATOM      7  C   UNL A   1      30.923  23.761  24.192  1.00  0.00     0.363 C 
BRANCH   7   8
ATOM      8  N   UNL A   1      32.344  23.862  23.879  1.00  0.00    -0.325 N 
ATOM      9  C   UNL A   1      32.781  23.793  22.510  1.00  0.00     0.333 C 
ATOM     10  H   UNL A   1      32.236  24.867  24.015  1.00  0.00     0.348 HD
BRANCH   8  11
ATOM     11  C   UNL A   1      33.360  23.657  24.902  1.00  0.00     0.320 C 
BRANCH  11  12
ATOM     12  C   UNL A   1      34.035  22.315  24.875  1.00  0.00     0.106 A 
ATOM     13  C   UNL A   1      35.400  22.125  25.012  1.00  0.00     0.097 A 
ATOM     14  N   UNL A   1      33.308  21.137  24.681  1.00  0.00    -0.232 NA
ATOM     15  S   UNL A   1      35.777  20.460  25.024  1.00  0.00    -0.119 S 
ATOM     16  C   UNL A   1      34.113  20.096  24.809  1.00  0.00     0.159 A 
BRANCH  16  17
ATOM     17  C   UNL A   1      33.666  18.731  24.801  1.00  0.00     0.162 A 
ATOM     18  C   UNL A   1      33.988  17.709  23.921  1.00  0.00     0.053 A 
ATOM     19  O   UNL A   1      32.761  18.240  25.715  1.00  0.00    -0.462 OA
ATOM     20  C   UNL A   1      33.254  16.561  24.318  1.00  0.00     0.043 A 
ATOM     21  C   UNL A   1      32.517  16.941  25.411  1.00  0.00     0.196 A 
ENDBRANCH  16  17
ENDBRANCH  11  12
ENDBRANCH   8  11
ENDBRANCH   7   8
ENDBRANCH   4   7
ENDBRANCH   2   3
ENDBRANCH   1   2
BRANCH   1  22
ATOM     22  C   UNL A   1      31.995  27.979  27.093  1.00  0.00     0.023 C 
BRANCH  22  23
ATOM     23  C   UNL A   1      33.385  28.569  27.228  1.00  0.00     0.116 C 
BRANCH  23  24
ATOM     24  N   UNL A   1      33.368  29.989  27.542  1.00  0.00    -0.352 N 
ATOM     25  C   UNL A   1      34.345  30.770  28.120  1.00  0.00     0.251 C 
ATOM     26  H   UNL A   1      32.538  30.462  27.307  1.00  0.00     0.163 HD
ATOM     27  O   UNL A   1      34.096  31.921  28.452  1.00  0.00    -0.269 OA
BRANCH  25  28
ATOM     28  C   UNL A   1      35.686  30.193  28.373  1.00  0.00     0.039 A 
ATOM     29  C   UNL A   1      36.651  30.247  27.364  1.00  0.00     0.014 A 
ATOM     30  C   UNL A   1      36.002  29.640  29.615  1.00  0.00     0.014 A 
ATOM     31  C   UNL A   1      37.960  29.837  27.636  1.00  0.00     0.010 A 
ATOM     32  C   UNL A   1      37.322  29.326  29.914  1.00  0.00     0.010 A 
ATOM     33  C   UNL A   1      38.318  29.425  28.930  1.00  0.00    -0.014 A 
BRANCH  33  34
ATOM     34  C   UNL A   1      39.721  29.096  29.290  1.00  0.00     0.031 A 
ATOM     35  C   UNL A   1      40.588  30.135  29.948  1.00  0.00     0.074 A 
ATOM     36  C   UNL A   1      40.241  27.902  28.943  1.00  0.00     0.049 A 
ATOM     37  N   UNL A   1      41.864  30.085  30.233  1.00  0.00    -0.248 NA
ATOM     38  C   UNL A   1      39.942  31.409  30.306  1.00  0.00     0.031 C 
ATOM     39  C   UNL A   1      39.513  26.819  28.275  1.00  0.00     0.029 A 
ATOM     40  N   UNL A   1      41.510  27.401  29.096  1.00  0.00    -0.354 N 
ATOM     41  C   UNL A   1      42.176  31.323  30.783  1.00  0.00     0.074 A 
ATOM     42  C   UNL A   1      40.971  32.121  30.739  1.00  0.00     0.031 C 
ATOM     43  C   UNL A   1      40.338  25.773  28.105  1.00  0.00     0.029 A 
ATOM     44  C   UNL A   1      41.663  26.126  28.603  1.00  0.00     0.049 A 
ATOM     45  H   UNL A   1      42.241  27.907  29.517  1.00  0.00     0.167 HD
ATOM     46  C   UNL A   1      43.353  31.751  31.298  1.00  0.00     0.031 A 
ATOM     47  C   UNL A   1      42.751  25.333  28.549  1.00  0.00     0.031 A 
ATOM     48  C   UNL A   1      44.547  30.952  31.348  1.00  0.00     0.049 A 
ATOM     49  C   UNL A   1      44.059  25.843  29.090  1.00  0.00     0.074 A 
ATOM     50  C   UNL A   1      45.775  31.274  31.896  1.00  0.00     0.029 A 
ATOM     51  N   UNL A   1      44.663  29.672  30.828  1.00  0.00    -0.354 N 
ATOM     52  N   UNL A   1      44.320  26.997  29.657  1.00  0.00    -0.248 NA
ATOM     53  C   UNL A   1      45.217  24.945  28.984  1.00  0.00     0.031 C 
ATOM     54  C   UNL A   1      46.650  30.207  31.661  1.00  0.00     0.029 A 
ATOM     55  C   UNL A   1      45.950  29.199  31.016  1.00  0.00     0.049 A 
ATOM     56  H   UNL A   1      43.936  29.172  30.390  1.00  0.00     0.167 HD
ATOM     57  C   UNL A   1      45.669  26.956  29.994  1.00  0.00     0.074 A 
ATOM     58  C   UNL A   1      46.165  25.659  29.579  1.00  0.00     0.031 C 
ATOM     59  C   UNL A   1      46.428  27.907  30.593  1.00  0.00     0.031 A 
BRANCH  46  60
ATOM     60  C   UNL A   1      43.397  33.156  31.840  1.00  0.00    -0.014 A 
ATOM     61  C   UNL A   1      43.773  34.237  31.020  1.00  0.00     0.010 A 
ATOM     62  C   UNL A   1      43.053  33.402  33.181  1.00  0.00     0.010 A 
ATOM     63  C   UNL A   1      43.861  35.528  31.548  1.00  0.00     0.020 A 
ATOM     64  C   UNL A   1      43.110  34.697  33.704  1.00  0.00     0.020 A 
ATOM     65  C   UNL A   1      43.537  35.748  32.890  1.00  0.00     0.054 A 
BRANCH  65  66
ATOM     66  S   UNL A   1      43.667  37.433  33.549  1.00  0.00     0.124 S 
ATOM     67  O   UNL A   1      43.802  38.223  32.328  1.00  0.00    -0.237 OA
ATOM     68  O   UNL A   1      42.404  37.596  34.265  1.00  0.00    -0.237 OA
ATOM     69  O   UNL A   1      44.857  37.384  34.394  1.00  0.00    -0.744 OA
ENDBRANCH  65  66
ENDBRANCH  46  60
BRANCH  47  70
ATOM     70  C   UNL A   1      42.643  23.963  27.976  1.00  0.00    -0.014 A 
ATOM     71  C   UNL A   1      42.295  22.877  28.799  1.00  0.00     0.010 A 
ATOM     72  C   UNL A   1      42.859  23.738  26.604  1.00  0.00     0.010 A 
ATOM     73  C   UNL A   1      42.171  21.593  28.264  1.00  0.00     0.020 A 
ATOM     74  C   UNL A   1      42.712  22.458  26.060  1.00  0.00     0.020 A 
ATOM     75  C   UNL A   1      42.376  21.391  26.896  1.00  0.00     0.054 A 
BRANCH  75  76
ATOM     76  S   UNL A   1      42.144  19.726  26.214  1.00  0.00     0.124 S 
ATOM     77  O   UNL A   1      40.706  19.696  25.969  1.00  0.00    -0.237 OA
ATOM     78  O   UNL A   1      42.989  19.754  25.022  1.00  0.00    -0.237 OA
ATOM     79  O   UNL A   1      42.618  18.851  27.282  1.00  0.00    -0.744 OA
ENDBRANCH  75  76
ENDBRANCH  47  70
BRANCH  59  80
ATOM     80  C   UNL A   1      47.872  27.580  30.856  1.00  0.00    -0.014 A 
ATOM     81  C   UNL A   1      48.280  27.052  32.093  1.00  0.00     0.010 A 
ATOM     82  C   UNL A   1      48.817  27.725  29.825  1.00  0.00     0.010 A 
ATOM     83  C   UNL A   1      49.613  26.685  32.299  1.00  0.00     0.020 A 
ATOM     84  C   UNL A   1      50.145  27.336  30.017  1.00  0.00     0.020 A 
ATOM     85  C   UNL A   1      50.536  26.825  31.257  1.00  0.00     0.054 A 
BRANCH  85  86
ATOM     86  S   UNL A   1      52.243  26.273  31.525  1.00  0.00     0.124 S 
ATOM     87  O   UNL A   1      52.872  26.598  30.248  1.00  0.00    -0.237 OA
ATOM     88  O   UNL A   1      52.668  27.088  32.661  1.00  0.00    -0.237 OA
ATOM     89  O   UNL A   1      52.105  24.846  31.806  1.00  0.00    -0.744 OA
ENDBRANCH  85  86
ENDBRANCH  59  80
ENDBRANCH  33  34
ENDBRANCH  25  28
ENDBRANCH  23  24
ENDBRANCH  22  23
ENDBRANCH   1  22
TORSDOF 18
ENDMDL
MODEL 3
REMARK VINA RESULT:     -10.1      1.444      3.298
REMARK SMILES C[N@@H+](CC(=O)NCCCCNC(=O)c1ccc(-c2c3nc(c(-c4ccc(S(=O)(=O)[O-])cc4)c4ccc([nH]4)c(-c4ccc(S(=O)(=O)[O-])cc4)c4nc(c(-c5ccc(S(=O)(=O)[O-])cc5)c5ccc2[nH]5)C=C4)C=C3)cc1)Cc1csc(-c2ccco2)n1
REMARK SMILES IDX 8 1 7 2 6 3 4 4 5 5 3 7 2 8 1 9 74 11 75 12 76 13 84 14
REMARK SMILES IDX 77 15 78 16 79 17 80 18 83 19 81 20 82 21 9 22 10 23 11 24
REMARK SMILES IDX 12 25 13 27 14 28 15 29 73 30 16 31 72 32 17 33 18 34 19 35
REMARK SMILES IDX 66 36 20 37 71 38 65 39 67 40 21 41 70 42 64 43 63 44 22 46
REMARK SMILES IDX 52 47 33 48 51 49 34 50 37 51 50 52 68 53 35 54 36 55 49 57
REMARK SMILES IDX 69 58 38 59 23 60 24 61 32 62 25 63 31 64 26 65 27 66 28 67
REMARK SMILES IDX 29 68 30 69 53 70 54 71 62 72 55 73 61 74 56 75 57 76 58 77
REMARK SMILES IDX 59 78 60 79 39 80 40 81 48 82 41 83 47 84 42 85 43 86 44 87
REMARK SMILES IDX 45 88 46 89
REMARK H PARENT 6 6 2 10 11 26 67 45 37 56
REMARK Flexibility Score: inf
ROOT
ATOM      1  C   UNL A   1      31.878  26.920  26.919  1.00  0.00     0.023 C 
ENDROOT
BRANCH   1   2
ATOM      2  C   UNL A   1      31.688  26.149  25.616  1.00  0.00     0.116 C 
BRANCH   2   3
ATOM      3  N   UNL A   1      31.164  26.970  24.546  1.00  0.00    -0.351 N 
ATOM      4  C   UNL A   1      30.902  26.644  23.247  1.00  0.00     0.275 C 
ATOM      5  O   UNL A   1      30.323  27.479  22.546  1.00  0.00    -0.269 OA
ATOM      6  H   UNL A   1      30.968  27.903  24.791  1.00  0.00     0.163 HD
BRANCH   4   7
ATOM      7  C   UNL A   1      31.231  25.256  22.692  1.00  0.00     0.363 C 
BRANCH   7   8
ATOM      8  N   UNL A   1      32.615  25.045  22.285  1.00  0.00    -0.325 N 
ATOM      9  C   UNL A   1      33.404  26.159  21.829  1.00  0.00     0.333 C 
ATOM     10  H   UNL A   1      32.837  25.025  23.280  1.00  0.00     0.348 HD
BRANCH   8  11
ATOM     11  C   UNL A   1      33.117  23.715  21.969  1.00  0.00     0.320 C 
BRANCH  11  12
ATOM     12  C   UNL A   1      33.775  22.991  23.109  1.00  0.00     0.106 A 
ATOM     13  C   UNL A   1      33.249  21.872  23.732  1.00  0.00     0.097 A 
ATOM     14  N   UNL A   1      34.990  23.428  23.645  1.00  0.00    -0.232 NA
ATOM     15  S   UNL A   1      34.326  21.280  24.916  1.00  0.00    -0.119 S 
ATOM     16  C   UNL A   1      35.406  22.564  24.555  1.00  0.00     0.159 A 
BRANCH  16  17
ATOM     17  C   UNL A   1      36.684  22.639  25.207  1.00  0.00     0.162 A 
ATOM     18  C   UNL A   1      37.278  23.716  25.850  1.00  0.00     0.053 A 
ATOM     19  O   UNL A   1      37.565  21.581  25.243  1.00  0.00    -0.462 OA
ATOM     20  C   UNL A   1      38.558  23.293  26.291  1.00  0.00     0.043 A 
ATOM     21  C   UNL A   1      38.686  21.987  25.889  1.00  0.00     0.196 A 
ENDBRANCH  16  17
ENDBRANCH  11  12
ENDBRANCH   8  11
ENDBRANCH   7   8
ENDBRANCH   4   7
ENDBRANCH   2   3
ENDBRANCH   1   2
BRANCH   1  22
ATOM     22  C   UNL A   1      32.254  28.385  26.748  1.00  0.00     0.023 C 
BRANCH  22  23
ATOM     23  C   UNL A   1      33.600  28.788  27.318  1.00  0.00     0.116 C 
BRANCH  23  24
ATOM     24  N   UNL A   1      33.645  30.184  27.725  1.00  0.00    -0.352 N 
ATOM     25  C   UNL A   1      34.655  30.880  28.351  1.00  0.00     0.251 C 
ATOM     26  H   UNL A   1      32.837  30.707  27.523  1.00  0.00     0.163 HD
ATOM     27  O   UNL A   1      34.457  32.018  28.759  1.00  0.00    -0.269 OA
BRANCH  25  28
ATOM     28  C   UNL A   1      35.969  30.230  28.563  1.00  0.00     0.039 A 
ATOM     29  C   UNL A   1      36.902  30.226  27.523  1.00  0.00     0.014 A 
ATOM     30  C   UNL A   1      36.293  29.664  29.797  1.00  0.00     0.014 A 
ATOM     31  C   UNL A   1      38.194  29.744  27.754  1.00  0.00     0.010 A 
ATOM     32  C   UNL A   1      37.603  29.276  30.054  1.00  0.00     0.010 A 
ATOM     33  C   UNL A   1      38.570  29.315  29.038  1.00  0.00    -0.014 A 
BRANCH  33  34
ATOM     34  C   UNL A   1      39.963  28.909  29.354  1.00  0.00     0.031 A 
ATOM     35  C   UNL A   1      40.899  29.889  30.008  1.00  0.00     0.074 A 
ATOM     36  C   UNL A   1      40.412  27.697  28.970  1.00  0.00     0.049 A 
ATOM     37  N   UNL A   1      42.178  29.768  30.258  1.00  0.00    -0.248 NA
ATOM     38  C   UNL A   1      40.328  31.186  30.407  1.00  0.00     0.031 C 
ATOM     39  C   UNL A   1      39.613  26.666  28.302  1.00  0.00     0.029 A 
ATOM     40  N   UNL A   1      41.657  27.129  29.079  1.00  0.00    -0.354 N 
ATOM     41  C   UNL A   1      42.566  30.977  30.822  1.00  0.00     0.074 A 
ATOM     42  C   UNL A   1      41.403  31.836  30.826  1.00  0.00     0.031 C 
ATOM     43  C   UNL A   1      40.379  25.583  28.090  1.00  0.00     0.029 A 
ATOM     44  C   UNL A   1      41.733  25.859  28.558  1.00  0.00     0.049 A 
ATOM     45  H   UNL A   1      42.424  27.589  29.491  1.00  0.00     0.167 HD
ATOM     46  C   UNL A   1      43.777  31.335  31.313  1.00  0.00     0.031 A 
ATOM     47  C   UNL A   1      42.777  25.013  28.460  1.00  0.00     0.031 A 
ATOM     48  C   UNL A   1      44.930  30.476  31.316  1.00  0.00     0.049 A 
ATOM     49  C   UNL A   1      44.123  25.445  28.975  1.00  0.00     0.074 A 
ATOM     50  C   UNL A   1      46.186  30.724  31.837  1.00  0.00     0.029 A 
ATOM     51  N   UNL A   1      44.966  29.202  30.769  1.00  0.00    -0.354 N 
ATOM     52  N   UNL A   1      44.457  26.572  29.557  1.00  0.00    -0.248 NA
ATOM     53  C   UNL A   1      45.230  24.492  28.821  1.00  0.00     0.031 C 
ATOM     54  C   UNL A   1      46.999  29.619  31.559  1.00  0.00     0.029 A 
ATOM     55  C   UNL A   1      46.232  28.661  30.913  1.00  0.00     0.049 A 
ATOM     56  H   UNL A   1      44.203  28.748  30.342  1.00  0.00     0.167 HD
ATOM     57  C   UNL A   1      45.810  26.456  29.857  1.00  0.00     0.074 A 
ATOM     58  C   UNL A   1      46.229  25.145  29.404  1.00  0.00     0.031 C 
ATOM     59  C   UNL A   1      46.632  27.355  30.453  1.00  0.00     0.031 A 
BRANCH  46  60
ATOM     60  C   UNL A   1      43.907  32.725  31.881  1.00  0.00    -0.014 A 
ATOM     61  C   UNL A   1      43.644  32.979  33.241  1.00  0.00     0.010 A 
ATOM     62  C   UNL A   1      44.303  33.788  31.051  1.00  0.00     0.010 A 
ATOM     63  C   UNL A   1      43.717  34.280  33.744  1.00  0.00     0.020 A 
ATOM     64  C   UNL A   1      44.407  35.087  31.558  1.00  0.00     0.020 A 
ATOM     65  C   UNL A   1      44.090  35.328  32.896  1.00  0.00     0.054 A 
BRANCH  65  66
ATOM     66  S   UNL A   1      44.170  37.008  33.576  1.00  0.00     0.124 S 
ATOM     67  O   UNL A   1      42.756  37.319  33.773  1.00  0.00    -0.237 OA
ATOM     68  O   UNL A   1      44.948  36.824  34.798  1.00  0.00    -0.237 OA
ATOM     69  O   UNL A   1      44.836  37.775  32.526  1.00  0.00    -0.744 OA
ENDBRANCH  65  66
ENDBRANCH  46  60
BRANCH  47  70
ATOM     70  C   UNL A   1      42.584  23.662  27.864  1.00  0.00    -0.014 A 
ATOM     71  C   UNL A   1      42.629  23.492  26.469  1.00  0.00     0.010 A 
ATOM     72  C   UNL A   1      42.384  22.536  28.684  1.00  0.00     0.010 A 
ATOM     73  C   UNL A   1      42.470  22.224  25.903  1.00  0.00     0.020 A 
ATOM     74  C   UNL A   1      42.249  21.262  28.123  1.00  0.00     0.020 A 
ATOM     75  C   UNL A   1      42.286  21.115  26.735  1.00  0.00     0.054 A 
BRANCH  75  76
ATOM     76  S   UNL A   1      42.149  19.471  25.979  1.00  0.00     0.124 S 
ATOM     77  O   UNL A   1      43.070  19.576  24.853  1.00  0.00    -0.237 OA
ATOM     78  O   UNL A   1      42.573  18.591  27.065  1.00  0.00    -0.237 OA
ATOM     79  O   UNL A   1      40.734  19.375  25.628  1.00  0.00    -0.744 OA
ENDBRANCH  75  76
ENDBRANCH  47  70
BRANCH  59  80
ATOM     80  C   UNL A   1      48.064  26.950  30.671  1.00  0.00    -0.014 A 
ATOM     81  C   UNL A   1      49.039  27.181  29.685  1.00  0.00     0.010 A 
ATOM     82  C   UNL A   1      48.453  26.409  31.910  1.00  0.00     0.010 A 
ATOM     83  C   UNL A   1      50.378  26.865  29.930  1.00  0.00     0.020 A 
ATOM     84  C   UNL A   1      49.794  26.117  32.169  1.00  0.00     0.020 A 
ATOM     85  C   UNL A   1      50.747  26.340  31.173  1.00  0.00     0.054 A 
BRANCH  85  86
ATOM     86  S   UNL A   1      52.503  26.009  31.493  1.00  0.00     0.124 S 
ATOM     87  O   UNL A   1      52.824  27.017  32.499  1.00  0.00    -0.237 OA
ATOM     88  O   UNL A   1      52.486  24.628  31.968  1.00  0.00    -0.237 OA
ATOM     89  O   UNL A   1      53.134  26.205  30.190  1.00  0.00    -0.744 OA
ENDBRANCH  85  86
ENDBRANCH  59  80
ENDBRANCH  33  34
ENDBRANCH  25  28
ENDBRANCH  23  24
ENDBRANCH  22  23
ENDBRANCH   1  22
TORSDOF 18
ENDMDL
