MODEL 1
REMARK VINA RESULT:     -12.5      0.000      0.000
REMARK SMILES Cc1cn2c(=O)cc(CSc3ccccc3C(=O)NCCCCNC(=O)c3ccc(-c4c5nc(c(-c6ccc(S(=O)(=O)[O-])cc6)c6ccc([nH]6)c(-c6ccc(S(=O)(=O)[O-])cc6)c6nc(c(-c7ccc(S(=O)(=O)[O-])cc7)c7ccc4[nH]7)C=C6)C=C5)cc3)nc2s1
REMARK SMILES IDX 21 1 20 2 19 3 17 4 18 5 16 7 11 8 12 9 13 10 15 11 14 12
REMARK SMILES IDX 10 13 9 14 8 15 1 16 2 17 3 18 89 19 4 20 88 21 5 22 87 23
REMARK SMILES IDX 6 24 7 25 22 26 23 27 24 28 25 29 26 31 27 32 28 33 86 34
REMARK SMILES IDX 29 35 85 36 30 37 31 38 32 39 79 40 33 41 84 42 78 43 80 44
REMARK SMILES IDX 34 45 83 46 77 47 76 48 35 50 65 51 46 52 64 53 47 54 50 55
REMARK SMILES IDX 63 56 81 57 48 58 49 59 62 61 82 62 51 63 36 64 37 65 45 66
REMARK SMILES IDX 38 67 44 68 39 69 40 70 41 71 42 72 43 73 66 74 67 75 75 76
REMARK SMILES IDX 68 77 74 78 69 79 70 80 71 81 72 82 73 83 52 84 53 85 61 86
REMARK SMILES IDX 54 87 60 88 55 89 56 90 57 91 58 92 59 93
REMARK H PARENT 19 6 24 30 80 49 50 60
REMARK Flexibility Score: inf
ROOT
ATOM      1  C   UNL A   1      35.158  29.619  27.659  1.00  0.00     0.023 C 
ENDROOT
BRANCH   1   2
ATOM      2  C   UNL A   1      34.405  28.604  26.784  1.00  0.00     0.116 C 
BRANCH   2   3
ATOM      3  N   UNL A   1      33.151  28.250  27.426  1.00  0.00    -0.352 N 
ATOM      4  C   UNL A   1      31.845  28.057  27.069  1.00  0.00     0.252 C 
ATOM      5  O   UNL A   1      31.087  27.955  28.046  1.00  0.00    -0.269 OA
ATOM      6  H   UNL A   1      33.278  28.111  28.393  1.00  0.00     0.163 HD
BRANCH   4   7
ATOM      7  C   UNL A   1      31.215  27.906  25.711  1.00  0.00     0.053 A 
ATOM      8  C   UNL A   1      30.633  26.802  25.063  1.00  0.00     0.020 A 
ATOM      9  C   UNL A   1      30.156  26.948  23.731  1.00  0.00     0.016 A 
ATOM     10  C   UNL A   1      30.290  28.136  23.016  1.00  0.00     0.001 A 
ATOM     11  C   UNL A   1      31.330  29.103  24.946  1.00  0.00     0.015 A 
ATOM     12  C   UNL A   1      30.891  29.219  23.624  1.00  0.00     0.001 A 
BRANCH   8  13
ATOM     13  S   UNL A   1      30.403  25.137  25.651  1.00  0.00    -0.119 SA
BRANCH  13  14
ATOM     14  C   UNL A   1      30.805  24.173  24.171  1.00  0.00     0.131 C 
BRANCH  14  15
ATOM     15  C   UNL A   1      31.878  23.157  24.380  1.00  0.00     0.059 A 
ATOM     16  C   UNL A   1      37.580  21.072  24.923  1.00  0.00     0.058 C 
ATOM     17  C   UNL A   1      36.172  21.443  24.645  1.00  0.00     0.022 A 
ATOM     18  C   UNL A   1      35.074  20.751  24.979  1.00  0.00     0.111 A 
ATOM     19  S   UNL A   1      35.765  22.978  23.918  1.00  0.00    -0.102 S 
ATOM     20  N   UNL A   1      33.900  21.424  24.738  1.00  0.00    -0.258 N 
ATOM     21  C   UNL A   1      34.068  22.682  24.212  1.00  0.00     0.197 A 
ATOM     22  C   UNL A   1      32.644  20.944  25.014  1.00  0.00     0.258 A 
ATOM     23  N   UNL A   1      33.141  23.541  23.994  1.00  0.00    -0.224 NA
ATOM     24  O   UNL A   1      32.376  19.806  25.385  1.00  0.00    -0.269 OA
ATOM     25  C   UNL A   1      31.567  21.936  24.840  1.00  0.00     0.097 A 
ENDBRANCH  14  15
ENDBRANCH  13  14
ENDBRANCH   8  13
ENDBRANCH   4   7
ENDBRANCH   2   3
ENDBRANCH   1   2
BRANCH   1  26
ATOM     26  C   UNL A   1      34.725  31.082  27.620  1.00  0.00     0.023 C 
BRANCH  26  27
ATOM     27  C   UNL A   1      35.706  31.999  28.323  1.00  0.00     0.116 C 
BRANCH  27  28
ATOM     28  N   UNL A   1      35.152  32.597  29.541  1.00  0.00    -0.352 N 
ATOM     29  C   UNL A   1      35.306  32.130  30.829  1.00  0.00     0.251 C 
ATOM     30  H   UNL A   1      34.615  33.416  29.429  1.00  0.00     0.163 HD
ATOM     31  O   UNL A   1      34.545  32.465  31.733  1.00  0.00    -0.269 OA
BRANCH  29  32
ATOM     32  C   UNL A   1      36.433  31.224  31.082  1.00  0.00     0.039 A 
ATOM     33  C   UNL A   1      36.256  29.842  31.128  1.00  0.00     0.014 A 
ATOM     34  C   UNL A   1      37.704  31.805  31.138  1.00  0.00     0.014 A 
ATOM     35  C   UNL A   1      37.388  29.035  31.144  1.00  0.00     0.010 A 
ATOM     36  C   UNL A   1      38.815  31.006  31.027  1.00  0.00     0.010 A 
ATOM     37  C   UNL A   1      38.662  29.625  31.062  1.00  0.00    -0.014 A 
BRANCH  37  38
ATOM     38  C   UNL A   1      39.842  28.804  30.830  1.00  0.00     0.031 A 
ATOM     39  C   UNL A   1      40.650  28.573  32.055  1.00  0.00     0.074 A 
ATOM     40  C   UNL A   1      40.090  28.163  29.669  1.00  0.00     0.049 A 
ATOM     41  N   UNL A   1      41.723  29.205  32.396  1.00  0.00    -0.248 NA
ATOM     42  C   UNL A   1      40.118  27.694  33.110  1.00  0.00     0.031 C 
ATOM     43  C   UNL A   1      39.238  28.073  28.479  1.00  0.00     0.029 A 
ATOM     44  N   UNL A   1      41.147  27.374  29.335  1.00  0.00    -0.354 N 
ATOM     45  C   UNL A   1      42.153  28.599  33.567  1.00  0.00     0.074 A 
ATOM     46  C   UNL A   1      41.028  27.856  34.075  1.00  0.00     0.031 C 
ATOM     47  C   UNL A   1      39.708  27.111  27.650  1.00  0.00     0.029 A 
ATOM     48  C   UNL A   1      40.981  26.641  28.163  1.00  0.00     0.049 A 
ATOM     49  H   UNL A   1      41.965  27.326  29.879  1.00  0.00     0.167 HD
ATOM     50  C   UNL A   1      43.482  28.488  33.850  1.00  0.00     0.031 A 
ATOM     51  C   UNL A   1      41.844  25.727  27.644  1.00  0.00     0.031 A 
ATOM     52  C   UNL A   1      44.284  29.296  32.968  1.00  0.00     0.049 A 
ATOM     53  C   UNL A   1      43.176  26.066  28.202  1.00  0.00     0.074 A 
ATOM     54  C   UNL A   1      44.366  30.642  32.674  1.00  0.00     0.029 A 
ATOM     55  N   UNL A   1      44.861  28.631  31.912  1.00  0.00    -0.354 N 
ATOM     56  N   UNL A   1      43.804  27.178  27.937  1.00  0.00    -0.248 NA
ATOM     57  C   UNL A   1      43.611  25.369  29.400  1.00  0.00     0.031 C 
ATOM     58  C   UNL A   1      44.591  30.700  31.266  1.00  0.00     0.029 A 
ATOM     59  C   UNL A   1      44.717  29.396  30.784  1.00  0.00     0.049 A 
ATOM     60  H   UNL A   1      45.302  27.752  31.959  1.00  0.00     0.167 HD
ATOM     61  C   UNL A   1      44.386  27.545  29.141  1.00  0.00     0.074 A 
ATOM     62  C   UNL A   1      44.324  26.342  29.971  1.00  0.00     0.031 C 
ATOM     63  C   UNL A   1      44.608  28.856  29.443  1.00  0.00     0.031 A 
BRANCH  50  64
ATOM     64  C   UNL A   1      44.062  27.305  34.580  1.00  0.00    -0.014 A 
ATOM     65  C   UNL A   1      45.311  27.431  35.217  1.00  0.00     0.010 A 
ATOM     66  C   UNL A   1      43.546  26.001  34.421  1.00  0.00     0.010 A 
ATOM     67  C   UNL A   1      46.008  26.301  35.666  1.00  0.00     0.020 A 
ATOM     68  C   UNL A   1      44.212  24.875  34.901  1.00  0.00     0.020 A 
ATOM     69  C   UNL A   1      45.448  25.031  35.510  1.00  0.00     0.054 A 
BRANCH  69  70
ATOM     70  S   UNL A   1      46.381  23.577  36.051  1.00  0.00     0.124 S 
ATOM     71  O   UNL A   1      47.443  23.506  35.053  1.00  0.00    -0.237 OA
ATOM     72  O   UNL A   1      46.796  23.969  37.395  1.00  0.00    -0.237 OA
ATOM     73  O   UNL A   1      45.396  22.500  35.996  1.00  0.00    -0.744 OA
ENDBRANCH  69  70
ENDBRANCH  50  64
BRANCH  51  74
ATOM     74  C   UNL A   1      41.548  24.391  27.053  1.00  0.00    -0.014 A 
ATOM     75  C   UNL A   1      42.372  23.871  26.030  1.00  0.00     0.010 A 
ATOM     76  C   UNL A   1      40.671  23.493  27.695  1.00  0.00     0.010 A 
ATOM     77  C   UNL A   1      42.402  22.496  25.743  1.00  0.00     0.020 A 
ATOM     78  C   UNL A   1      40.688  22.120  27.404  1.00  0.00     0.020 A 
ATOM     79  C   UNL A   1      41.583  21.622  26.459  1.00  0.00     0.054 A 
BRANCH  79  80
ATOM     80  S   UNL A   1      41.773  19.828  26.224  1.00  0.00     0.124 S 
ATOM     81  O   UNL A   1      42.863  19.750  25.256  1.00  0.00    -0.237 OA
ATOM     82  O   UNL A   1      42.093  19.370  27.574  1.00  0.00    -0.237 OA
ATOM     83  O   UNL A   1      40.468  19.406  25.722  1.00  0.00    -0.744 OA
ENDBRANCH  79  80
ENDBRANCH  51  74
BRANCH  63  84
ATOM     84  C   UNL A   1      44.575  29.870  28.325  1.00  0.00    -0.014 A 
ATOM     85  C   UNL A   1      43.402  30.422  27.772  1.00  0.00     0.010 A 
ATOM     86  C   UNL A   1      45.816  30.414  27.949  1.00  0.00     0.010 A 
ATOM     87  C   UNL A   1      43.478  31.499  26.871  1.00  0.00     0.020 A 
ATOM     88  C   UNL A   1      45.897  31.491  27.068  1.00  0.00     0.020 A 
ATOM     89  C   UNL A   1      44.729  32.036  26.537  1.00  0.00     0.054 A 
BRANCH  89  90
ATOM     90  S   UNL A   1      44.830  33.472  25.429  1.00  0.00     0.124 S 
ATOM     91  O   UNL A   1      43.990  34.459  26.100  1.00  0.00    -0.237 OA
ATOM     92  O   UNL A   1      46.261  33.766  25.419  1.00  0.00    -0.237 OA
ATOM     93  O   UNL A   1      44.299  32.973  24.161  1.00  0.00    -0.744 OA
ENDBRANCH  89  90
ENDBRANCH  63  84
ENDBRANCH  37  38
ENDBRANCH  29  32
ENDBRANCH  27  28
ENDBRANCH  26  27
ENDBRANCH   1  26
TORSDOF 17
ENDMDL
MODEL 2
REMARK VINA RESULT:     -12.5      1.277      1.783
REMARK SMILES Cc1cn2c(=O)cc(CSc3ccccc3C(=O)NCCCCNC(=O)c3ccc(-c4c5nc(c(-c6ccc(S(=O)(=O)[O-])cc6)c6ccc([nH]6)c(-c6ccc(S(=O)(=O)[O-])cc6)c6nc(c(-c7ccc(S(=O)(=O)[O-])cc7)c7ccc4[nH]7)C=C6)C=C5)cc3)nc2s1
REMARK SMILES IDX 21 1 20 2 19 3 17 4 18 5 16 7 11 8 12 9 13 10 15 11 14 12
REMARK SMILES IDX 10 13 9 14 8 15 1 16 2 17 3 18 89 19 4 20 88 21 5 22 87 23
REMARK SMILES IDX 6 24 7 25 22 26 23 27 24 28 25 29 26 31 27 32 28 33 86 34
REMARK SMILES IDX 29 35 85 36 30 37 31 38 32 39 79 40 33 41 84 42 78 43 80 44
REMARK SMILES IDX 34 45 83 46 77 47 76 48 35 50 65 51 46 52 64 53 47 54 50 55
REMARK SMILES IDX 63 56 81 57 48 58 49 59 62 61 82 62 51 63 36 64 37 65 45 66
REMARK SMILES IDX 38 67 44 68 39 69 40 70 41 71 42 72 43 73 66 74 67 75 75 76
REMARK SMILES IDX 68 77 74 78 69 79 70 80 71 81 72 82 73 83 52 84 53 85 61 86
REMARK SMILES IDX 54 87 60 88 55 89 56 90 57 91 58 92 59 93
REMARK H PARENT 19 6 24 30 80 49 50 60
REMARK Flexibility Score: inf
ROOT
ATOM      1  C   UNL A   1      33.253  31.303  27.613  1.00  0.00     0.023 C 
ENDROOT
BRANCH   1   2
ATOM      2  C   UNL A   1      32.195  30.446  26.898  1.00  0.00     0.116 C 
BRANCH   2   3
ATOM      3  N   UNL A   1      32.663  30.120  25.561  1.00  0.00    -0.352 N 
ATOM      4  C   UNL A   1      32.422  29.175  24.602  1.00  0.00     0.252 C 
ATOM      5  O   UNL A   1      33.245  29.208  23.674  1.00  0.00    -0.269 OA
ATOM      6  H   UNL A   1      33.348  30.762  25.262  1.00  0.00     0.163 HD
BRANCH   4   7
ATOM      7  C   UNL A   1      31.316  28.163  24.483  1.00  0.00     0.053 A 
ATOM      8  C   UNL A   1      31.160  26.874  25.025  1.00  0.00     0.020 A 
ATOM      9  C   UNL A   1      30.006  26.113  24.689  1.00  0.00     0.016 A 
ATOM     10  C   UNL A   1      29.041  26.574  23.796  1.00  0.00     0.001 A 
ATOM     11  C   UNL A   1      30.305  28.597  23.577  1.00  0.00     0.015 A 
ATOM     12  C   UNL A   1      29.197  27.821  23.227  1.00  0.00     0.001 A 
BRANCH   8  13
ATOM     13  S   UNL A   1      32.242  25.962  26.105  1.00  0.00    -0.119 SA
BRANCH  13  14
ATOM     14  C   UNL A   1      33.672  25.680  25.028  1.00  0.00     0.131 C 
BRANCH  14  15
ATOM     15  C   UNL A   1      34.229  24.298  25.108  1.00  0.00     0.059 A 
ATOM     16  C   UNL A   1      34.325  18.250  24.357  1.00  0.00     0.058 C 
ATOM     17  C   UNL A   1      34.333  19.683  24.735  1.00  0.00     0.022 A 
ATOM     18  C   UNL A   1      35.400  20.426  25.060  1.00  0.00     0.111 A 
ATOM     19  S   UNL A   1      32.877  20.646  24.671  1.00  0.00    -0.102 S 
ATOM     20  N   UNL A   1      35.121  21.765  25.201  1.00  0.00    -0.258 N 
ATOM     21  C   UNL A   1      33.807  22.095  24.972  1.00  0.00     0.197 A 
ATOM     22  C   UNL A   1      36.042  22.735  25.506  1.00  0.00     0.258 A 
ATOM     23  N   UNL A   1      33.319  23.281  24.942  1.00  0.00    -0.224 NA
ATOM     24  O   UNL A   1      37.210  22.541  25.827  1.00  0.00    -0.269 OA
ATOM     25  C   UNL A   1      35.524  24.112  25.408  1.00  0.00     0.097 A 
ENDBRANCH  14  15
ENDBRANCH  13  14
ENDBRANCH   8  13
ENDBRANCH   4   7
ENDBRANCH   2   3
ENDBRANCH   1   2
BRANCH   1  26
ATOM     26  C   UNL A   1      34.712  30.859  27.560  1.00  0.00     0.023 C 
BRANCH  26  27
ATOM     27  C   UNL A   1      35.655  31.886  28.155  1.00  0.00     0.116 C 
BRANCH  27  28
ATOM     28  N   UNL A   1      35.123  32.508  29.371  1.00  0.00    -0.352 N 
ATOM     29  C   UNL A   1      35.337  32.090  30.667  1.00  0.00     0.251 C 
ATOM     30  H   UNL A   1      34.556  33.304  29.251  1.00  0.00     0.163 HD
ATOM     31  O   UNL A   1      34.596  32.431  31.587  1.00  0.00    -0.269 OA
BRANCH  29  32
ATOM     32  C   UNL A   1      36.502  31.230  30.911  1.00  0.00     0.039 A 
ATOM     33  C   UNL A   1      36.372  29.846  31.014  1.00  0.00     0.014 A 
ATOM     34  C   UNL A   1      37.754  31.852  30.896  1.00  0.00     0.014 A 
ATOM     35  C   UNL A   1      37.530  29.076  31.016  1.00  0.00     0.010 A 
ATOM     36  C   UNL A   1      38.885  31.085  30.772  1.00  0.00     0.010 A 
ATOM     37  C   UNL A   1      38.780  29.702  30.864  1.00  0.00    -0.014 A 
BRANCH  37  38
ATOM     38  C   UNL A   1      39.977  28.911  30.617  1.00  0.00     0.031 A 
ATOM     39  C   UNL A   1      40.807  28.703  31.832  1.00  0.00     0.074 A 
ATOM     40  C   UNL A   1      40.225  28.273  29.454  1.00  0.00     0.049 A 
ATOM     41  N   UNL A   1      41.869  29.362  32.156  1.00  0.00    -0.248 NA
ATOM     42  C   UNL A   1      40.312  27.813  32.896  1.00  0.00     0.031 C 
ATOM     43  C   UNL A   1      39.358  28.159  28.277  1.00  0.00     0.029 A 
ATOM     44  N   UNL A   1      41.296  27.511  29.107  1.00  0.00    -0.354 N 
ATOM     45  C   UNL A   1      42.330  28.771  33.323  1.00  0.00     0.074 A 
ATOM     46  C   UNL A   1      41.230  28.001  33.848  1.00  0.00     0.031 C 
ATOM     47  C   UNL A   1      39.841  27.207  27.444  1.00  0.00     0.029 A 
ATOM     48  C   UNL A   1      41.133  26.770  27.939  1.00  0.00     0.049 A 
ATOM     49  H   UNL A   1      42.123  27.484  29.640  1.00  0.00     0.167 HD
ATOM     50  C   UNL A   1      43.665  28.694  33.588  1.00  0.00     0.031 A 
ATOM     51  C   UNL A   1      42.011  25.878  27.410  1.00  0.00     0.031 A 
ATOM     52  C   UNL A   1      44.434  29.520  32.693  1.00  0.00     0.049 A 
ATOM     53  C   UNL A   1      43.341  26.251  27.949  1.00  0.00     0.074 A 
ATOM     54  C   UNL A   1      44.478  30.866  32.395  1.00  0.00     0.029 A 
ATOM     55  N   UNL A   1      45.013  28.866  31.630  1.00  0.00    -0.354 N 
ATOM     56  N   UNL A   1      43.938  27.378  27.674  1.00  0.00    -0.248 NA
ATOM     57  C   UNL A   1      43.811  25.568  29.142  1.00  0.00     0.031 C 
ATOM     58  C   UNL A   1      44.682  30.926  30.984  1.00  0.00     0.029 A 
ATOM     59  C   UNL A   1      44.835  29.624  30.503  1.00  0.00     0.049 A 
ATOM     60  H   UNL A   1      45.477  27.999  31.672  1.00  0.00     0.167 HD
ATOM     61  C   UNL A   1      44.527  27.762  28.868  1.00  0.00     0.074 A 
ATOM     62  C   UNL A   1      44.507  26.560  29.702  1.00  0.00     0.031 C 
ATOM     63  C   UNL A   1      44.720  29.079  29.164  1.00  0.00     0.031 A 
BRANCH  50  64
ATOM     64  C   UNL A   1      44.284  27.528  34.312  1.00  0.00    -0.014 A 
ATOM     65  C   UNL A   1      44.106  26.226  33.807  1.00  0.00     0.010 A 
ATOM     66  C   UNL A   1      44.798  27.648  35.621  1.00  0.00     0.010 A 
ATOM     67  C   UNL A   1      44.424  25.102  34.581  1.00  0.00     0.020 A 
ATOM     68  C   UNL A   1      45.156  26.538  36.384  1.00  0.00     0.020 A 
ATOM     69  C   UNL A   1      44.953  25.268  35.863  1.00  0.00     0.054 A 
BRANCH  69  70
ATOM     70  S   UNL A   1      45.315  23.809  36.871  1.00  0.00     0.124 S 
ATOM     71  O   UNL A   1      44.715  24.166  38.153  1.00  0.00    -0.237 OA
ATOM     72  O   UNL A   1      44.638  22.752  36.124  1.00  0.00    -0.237 OA
ATOM     73  O   UNL A   1      46.773  23.738  36.860  1.00  0.00    -0.744 OA
ENDBRANCH  69  70
ENDBRANCH  50  64
BRANCH  51  74
ATOM     74  C   UNL A   1      41.740  24.533  26.827  1.00  0.00    -0.014 A 
ATOM     75  C   UNL A   1      42.673  23.944  25.943  1.00  0.00     0.010 A 
ATOM     76  C   UNL A   1      40.747  23.694  27.369  1.00  0.00     0.010 A 
ATOM     77  C   UNL A   1      42.682  22.559  25.706  1.00  0.00     0.020 A 
ATOM     78  C   UNL A   1      40.743  22.311  27.127  1.00  0.00     0.020 A 
ATOM     79  C   UNL A   1      41.736  21.744  26.330  1.00  0.00     0.054 A 
BRANCH  79  80
ATOM     80  S   UNL A   1      41.879  19.937  26.180  1.00  0.00     0.124 S 
ATOM     81  O   UNL A   1      42.962  19.784  25.213  1.00  0.00    -0.237 OA
ATOM     82  O   UNL A   1      42.193  19.535  27.548  1.00  0.00    -0.237 OA
ATOM     83  O   UNL A   1      40.561  19.526  25.702  1.00  0.00    -0.744 OA
ENDBRANCH  79  80
ENDBRANCH  51  74
BRANCH  63  84
ATOM     84  C   UNL A   1      44.646  30.089  28.045  1.00  0.00    -0.014 A 
ATOM     85  C   UNL A   1      43.452  30.616  27.513  1.00  0.00     0.010 A 
ATOM     86  C   UNL A   1      45.869  30.656  27.644  1.00  0.00     0.010 A 
ATOM     87  C   UNL A   1      43.491  31.692  26.608  1.00  0.00     0.020 A 
ATOM     88  C   UNL A   1      45.912  31.733  26.760  1.00  0.00     0.020 A 
ATOM     89  C   UNL A   1      44.724  32.253  26.249  1.00  0.00     0.054 A 
BRANCH  89  90
ATOM     90  S   UNL A   1      44.776  33.687  25.136  1.00  0.00     0.124 S 
ATOM     91  O   UNL A   1      44.395  33.113  23.849  1.00  0.00    -0.237 OA
ATOM     92  O   UNL A   1      43.799  34.592  25.736  1.00  0.00    -0.237 OA
ATOM     93  O   UNL A   1      46.163  34.143  25.219  1.00  0.00    -0.744 OA
ENDBRANCH  89  90
ENDBRANCH  63  84
ENDBRANCH  37  38
ENDBRANCH  29  32
ENDBRANCH  27  28
ENDBRANCH  26  27
ENDBRANCH   1  26
TORSDOF 17
ENDMDL
MODEL 3
REMARK VINA RESULT:     -12.1      2.069      2.974
REMARK SMILES Cc1cn2c(=O)cc(CSc3ccccc3C(=O)NCCCCNC(=O)c3ccc(-c4c5nc(c(-c6ccc(S(=O)(=O)[O-])cc6)c6ccc([nH]6)c(-c6ccc(S(=O)(=O)[O-])cc6)c6nc(c(-c7ccc(S(=O)(=O)[O-])cc7)c7ccc4[nH]7)C=C6)C=C5)cc3)nc2s1
REMARK SMILES IDX 21 1 20 2 19 3 17 4 18 5 16 7 11 8 12 9 13 10 15 11 14 12
REMARK SMILES IDX 10 13 9 14 8 15 1 16 2 17 3 18 89 19 4 20 88 21 5 22 87 23
REMARK SMILES IDX 6 24 7 25 22 26 23 27 24 28 25 29 26 31 27 32 28 33 86 34
REMARK SMILES IDX 29 35 85 36 30 37 31 38 32 39 79 40 33 41 84 42 78 43 80 44
REMARK SMILES IDX 34 45 83 46 77 47 76 48 35 50 65 51 46 52 64 53 47 54 50 55
REMARK SMILES IDX 63 56 81 57 48 58 49 59 62 61 82 62 51 63 36 64 37 65 45 66
REMARK SMILES IDX 38 67 44 68 39 69 40 70 41 71 42 72 43 73 66 74 67 75 75 76
REMARK SMILES IDX 68 77 74 78 69 79 70 80 71 81 72 82 73 83 52 84 53 85 61 86
REMARK SMILES IDX 54 87 60 88 55 89 56 90 57 91 58 92 59 93
REMARK H PARENT 19 6 24 30 80 49 50 60
REMARK Flexibility Score: inf
ROOT
ATOM      1  C   UNL A   1      32.504  28.570  26.077  1.00  0.00     0.023 C 
ENDROOT
BRANCH   1   2
ATOM      2  C   UNL A   1      31.519  28.287  27.223  1.00  0.00     0.116 C 
BRANCH   2   3
ATOM      3  N   UNL A   1      31.057  26.913  27.134  1.00  0.00    -0.352 N 
ATOM      4  C   UNL A   1      30.981  25.925  26.191  1.00  0.00     0.252 C 
ATOM      5  O   UNL A   1      30.303  24.954  26.561  1.00  0.00    -0.269 OA
ATOM      6  H   UNL A   1      30.696  26.606  27.997  1.00  0.00     0.163 HD
BRANCH   4   7
ATOM      7  C   UNL A   1      31.616  25.821  24.831  1.00  0.00     0.053 A 
ATOM      8  C   UNL A   1      32.889  25.386  24.419  1.00  0.00     0.020 A 
ATOM      9  C   UNL A   1      33.234  25.450  23.041  1.00  0.00     0.016 A 
ATOM     10  C   UNL A   1      32.377  25.980  22.080  1.00  0.00     0.001 A 
ATOM     11  C   UNL A   1      30.768  26.352  23.816  1.00  0.00     0.015 A 
ATOM     12  C   UNL A   1      31.138  26.444  22.471  1.00  0.00     0.001 A 
BRANCH   8  13
ATOM     13  S   UNL A   1      34.239  24.755  25.394  1.00  0.00    -0.119 SA
BRANCH  13  14
ATOM     14  C   UNL A   1      34.975  23.553  24.255  1.00  0.00     0.131 C 
BRANCH  14  15
ATOM     15  C   UNL A   1      36.217  22.908  24.773  1.00  0.00     0.059 A 
ATOM     16  C   UNL A   1      41.279  22.401  28.129  1.00  0.00     0.058 C 
ATOM     17  C   UNL A   1      40.168  22.494  27.154  1.00  0.00     0.022 A 
ATOM     18  C   UNL A   1      39.594  21.484  26.485  1.00  0.00     0.111 A 
ATOM     19  S   UNL A   1      39.353  24.009  26.849  1.00  0.00    -0.102 S 
ATOM     20  N   UNL A   1      38.475  21.853  25.776  1.00  0.00    -0.258 N 
ATOM     21  C   UNL A   1      38.146  23.182  25.894  1.00  0.00     0.197 A 
ATOM     22  C   UNL A   1      37.698  21.003  25.031  1.00  0.00     0.258 A 
ATOM     23  N   UNL A   1      37.098  23.746  25.414  1.00  0.00    -0.224 NA
ATOM     24  O   UNL A   1      37.955  19.830  24.777  1.00  0.00    -0.269 OA
ATOM     25  C   UNL A   1      36.451  21.609  24.529  1.00  0.00     0.097 A 
ENDBRANCH  14  15
ENDBRANCH  13  14
ENDBRANCH   8  13
ENDBRANCH   4   7
ENDBRANCH   2   3
ENDBRANCH   1   2
BRANCH   1  26
ATOM     26  C   UNL A   1      33.841  29.230  26.406  1.00  0.00     0.023 C 
BRANCH  26  27
ATOM     27  C   UNL A   1      33.741  30.200  27.566  1.00  0.00     0.116 C 
BRANCH  27  28
ATOM     28  N   UNL A   1      34.213  31.545  27.223  1.00  0.00    -0.352 N 
ATOM     29  C   UNL A   1      35.366  32.150  27.675  1.00  0.00     0.251 C 
ATOM     30  H   UNL A   1      33.650  32.069  26.608  1.00  0.00     0.163 HD
ATOM     31  O   UNL A   1      35.516  33.369  27.632  1.00  0.00    -0.269 OA
BRANCH  29  32
ATOM     32  C   UNL A   1      36.423  31.274  28.195  1.00  0.00     0.039 A 
ATOM     33  C   UNL A   1      36.586  29.973  27.719  1.00  0.00     0.014 A 
ATOM     34  C   UNL A   1      37.335  31.851  29.084  1.00  0.00     0.014 A 
ATOM     35  C   UNL A   1      37.734  29.280  28.083  1.00  0.00     0.010 A 
ATOM     36  C   UNL A   1      38.523  31.213  29.338  1.00  0.00     0.010 A 
ATOM     37  C   UNL A   1      38.711  29.918  28.867  1.00  0.00    -0.014 A 
BRANCH  37  38
ATOM     38  C   UNL A   1      40.021  29.310  29.055  1.00  0.00     0.031 A 
ATOM     39  C   UNL A   1      40.309  28.955  30.469  1.00  0.00     0.074 A 
ATOM     40  C   UNL A   1      40.824  28.934  28.038  1.00  0.00     0.049 A 
ATOM     41  N   UNL A   1      41.018  29.640  31.302  1.00  0.00    -0.248 NA
ATOM     42  C   UNL A   1      39.582  27.833  31.089  1.00  0.00     0.031 C 
ATOM     43  C   UNL A   1      40.543  28.964  26.599  1.00  0.00     0.029 A 
ATOM     44  N   UNL A   1      42.056  28.361  28.086  1.00  0.00    -0.354 N 
ATOM     45  C   UNL A   1      41.059  28.884  32.463  1.00  0.00     0.074 A 
ATOM     46  C   UNL A   1      39.989  27.924  32.359  1.00  0.00     0.031 C 
ATOM     47  C   UNL A   1      41.476  28.242  25.935  1.00  0.00     0.029 A 
ATOM     48  C   UNL A   1      42.509  27.847  26.874  1.00  0.00     0.049 A 
ATOM     49  H   UNL A   1      42.587  28.314  28.914  1.00  0.00     0.167 HD
ATOM     50  C   UNL A   1      42.163  28.888  33.262  1.00  0.00     0.031 A 
ATOM     51  C   UNL A   1      43.664  27.162  26.660  1.00  0.00     0.031 A 
ATOM     52  C   UNL A   1      43.077  29.942  32.903  1.00  0.00     0.049 A 
ATOM     53  C   UNL A   1      44.577  27.554  27.762  1.00  0.00     0.074 A 
ATOM     54  C   UNL A   1      43.009  31.318  32.834  1.00  0.00     0.029 A 
ATOM     55  N   UNL A   1      44.139  29.564  32.115  1.00  0.00    -0.354 N 
ATOM     56  N   UNL A   1      45.033  28.765  27.921  1.00  0.00    -0.248 NA
ATOM     57  C   UNL A   1      44.630  26.703  28.939  1.00  0.00     0.031 C 
ATOM     58  C   UNL A   1      43.755  31.668  31.669  1.00  0.00     0.029 A 
ATOM     59  C   UNL A   1      44.308  30.504  31.132  1.00  0.00     0.049 A 
ATOM     60  H   UNL A   1      44.686  28.754  32.237  1.00  0.00     0.167 HD
ATOM     61  C   UNL A   1      45.012  28.968  29.292  1.00  0.00     0.074 A 
ATOM     62  C   UNL A   1      44.859  27.633  29.869  1.00  0.00     0.031 C 
ATOM     63  C   UNL A   1      44.841  30.217  29.814  1.00  0.00     0.031 A 
BRANCH  50  64
ATOM     64  C   UNL A   1      42.623  27.671  34.021  1.00  0.00    -0.014 A 
ATOM     65  C   UNL A   1      42.546  27.662  35.426  1.00  0.00     0.010 A 
ATOM     66  C   UNL A   1      43.385  26.652  33.410  1.00  0.00     0.010 A 
ATOM     67  C   UNL A   1      43.205  26.681  36.179  1.00  0.00     0.020 A 
ATOM     68  C   UNL A   1      44.011  25.648  34.146  1.00  0.00     0.020 A 
ATOM     69  C   UNL A   1      43.928  25.677  35.531  1.00  0.00     0.054 A 
BRANCH  69  70
ATOM     70  S   UNL A   1      44.815  24.443  36.516  1.00  0.00     0.124 S 
ATOM     71  O   UNL A   1      44.334  23.191  35.940  1.00  0.00    -0.237 OA
ATOM     72  O   UNL A   1      46.208  24.779  36.236  1.00  0.00    -0.237 OA
ATOM     73  O   UNL A   1      44.373  24.715  37.881  1.00  0.00    -0.744 OA
ENDBRANCH  69  70
ENDBRANCH  50  64
BRANCH  51  74
ATOM     74  C   UNL A   1      43.886  25.935  25.844  1.00  0.00    -0.014 A 
ATOM     75  C   UNL A   1      45.200  25.527  25.523  1.00  0.00     0.010 A 
ATOM     76  C   UNL A   1      42.854  24.995  25.653  1.00  0.00     0.010 A 
ATOM     77  C   UNL A   1      45.483  24.204  25.139  1.00  0.00     0.020 A 
ATOM     78  C   UNL A   1      43.128  23.676  25.259  1.00  0.00     0.020 A 
ATOM     79  C   UNL A   1      44.445  23.275  25.045  1.00  0.00     0.054 A 
BRANCH  79  80
ATOM     80  S   UNL A   1      44.842  21.526  24.747  1.00  0.00     0.124 S 
ATOM     81  O   UNL A   1      46.196  21.412  25.281  1.00  0.00    -0.237 OA
ATOM     82  O   UNL A   1      43.803  20.838  25.511  1.00  0.00    -0.237 OA
ATOM     83  O   UNL A   1      44.735  21.389  23.297  1.00  0.00    -0.744 OA
ENDBRANCH  79  80
ENDBRANCH  51  74
BRANCH  63  84
ATOM     84  C   UNL A   1      45.058  31.411  28.916  1.00  0.00    -0.014 A 
ATOM     85  C   UNL A   1      46.243  32.171  28.859  1.00  0.00     0.010 A 
ATOM     86  C   UNL A   1      44.058  31.650  27.957  1.00  0.00     0.010 A 
ATOM     87  C   UNL A   1      46.419  33.141  27.855  1.00  0.00     0.020 A 
ATOM     88  C   UNL A   1      44.233  32.600  26.951  1.00  0.00     0.020 A 
ATOM     89  C   UNL A   1      45.414  33.337  26.898  1.00  0.00     0.054 A 
BRANCH  89  90
ATOM     90  S   UNL A   1      45.664  34.538  25.558  1.00  0.00     0.124 S 
ATOM     91  O   UNL A   1      45.208  35.790  26.156  1.00  0.00    -0.237 OA
ATOM     92  O   UNL A   1      47.100  34.445  25.311  1.00  0.00    -0.237 OA
ATOM     93  O   UNL A   1      44.822  34.032  24.475  1.00  0.00    -0.744 OA
ENDBRANCH  89  90
ENDBRANCH  63  84
ENDBRANCH  37  38
ENDBRANCH  29  32
ENDBRANCH  27  28
ENDBRANCH  26  27
ENDBRANCH   1  26
TORSDOF 17
ENDMDL
