MODEL 1
REMARK VINA RESULT:     -14.7      0.000      0.000
REMARK SMILES Cc1ccc(-c2cc(C(=O)NCCCCNC(=O)c3ccc(-c4c5nc(c(-c6ccc(S(=O)(=O)[O-])cc6)c6ccc([nH]6)c(-c6ccc(S(=O)(=O)[O-])cc6)c6nc(c(-c7ccc(S(=O)(=O)[O-])cc7)c7ccc4[nH]7)C=C6)C=C5)cc3)c3c(-c4cccc([N+](=O)[O-])c4)[nH]nc3n2)cc1
REMARK SMILES IDX 14 1 13 2 12 3 11 4 9 5 10 6 8 8 6 9 7 10 93 11 92 12 79 13
REMARK SMILES IDX 91 14 80 15 90 16 5 18 1 19 2 20 3 21 95 22 4 23 94 24 81 25
REMARK SMILES IDX 82 26 89 27 83 28 85 29 84 30 86 31 87 32 88 33 15 34 16 35
REMARK SMILES IDX 17 36 18 38 19 39 20 40 78 41 21 42 77 43 22 44 23 45 24 46
REMARK SMILES IDX 71 47 25 48 76 49 70 50 72 51 26 52 75 53 69 54 68 55 27 57
REMARK SMILES IDX 57 58 38 59 56 60 39 61 42 62 55 63 73 64 40 65 41 66 54 68
REMARK SMILES IDX 74 69 43 70 28 71 29 72 37 73 30 74 36 75 31 76 32 77 33 78
REMARK SMILES IDX 34 79 35 80 58 81 59 82 67 83 60 84 66 85 61 86 62 87 63 88
REMARK SMILES IDX 64 89 65 90 44 91 45 92 53 93 46 94 52 95 47 96 48 97 49 98
REMARK SMILES IDX 50 99 51 100
REMARK H PARENT 11 7 90 17 16 37 72 56 42 67
REMARK Flexibility Score: inf
ROOT
ATOM      1  C   UNL A   1      33.504  29.352  25.907  1.00  0.00     0.023 C 
ENDROOT
BRANCH   1   2
ATOM      2  C   UNL A   1      32.066  28.852  26.099  1.00  0.00     0.023 C 
BRANCH   2   3
ATOM      3  C   UNL A   1      31.903  27.754  27.162  1.00  0.00     0.116 C 
BRANCH   3   4
ATOM      4  N   UNL A   1      31.060  26.649  26.716  1.00  0.00    -0.352 N 
ATOM      5  C   UNL A   1      31.146  25.626  25.806  1.00  0.00     0.252 C 
ATOM      6  O   UNL A   1      30.207  24.837  25.851  1.00  0.00    -0.269 OA
ATOM      7  H   UNL A   1      30.199  26.635  27.195  1.00  0.00     0.163 HD
BRANCH   5   8
ATOM      8  C   UNL A   1      32.263  25.417  24.847  1.00  0.00     0.055 A 
ATOM      9  C   UNL A   1      34.471  24.412  24.269  1.00  0.00     0.074 A 
ATOM     10  C   UNL A   1      33.453  24.769  25.190  1.00  0.00     0.043 A 
ATOM     11  N   UNL A   1      34.495  24.730  22.953  1.00  0.00    -0.226 NA
ATOM     12  C   UNL A   1      33.393  25.421  22.570  1.00  0.00     0.182 A 
ATOM     13  C   UNL A   1      32.311  25.761  23.474  1.00  0.00     0.059 A 
ATOM     14  N   UNL A   1      33.170  25.858  21.331  1.00  0.00    -0.154 NA
ATOM     15  C   UNL A   1      31.423  26.472  22.677  1.00  0.00     0.076 A 
ATOM     16  N   UNL A   1      31.981  26.459  21.420  1.00  0.00    -0.275 N 
ATOM     17  H   UNL A   1      31.535  26.864  20.642  1.00  0.00     0.190 HD
BRANCH   9  18
ATOM     18  C   UNL A   1      35.568  23.575  24.779  1.00  0.00     0.000 A 
ATOM     19  C   UNL A   1      39.231  21.532  25.812  1.00  0.00     0.044 C 
ATOM     20  C   UNL A   1      37.927  22.208  25.508  1.00  0.00    -0.051 A 
ATOM     21  C   UNL A   1      37.034  21.649  24.584  1.00  0.00     0.004 A 
ATOM     22  C   UNL A   1      37.610  23.429  26.107  1.00  0.00     0.004 A 
ATOM     23  C   UNL A   1      35.861  22.323  24.226  1.00  0.00     0.010 A 
ATOM     24  C   UNL A   1      36.441  24.098  25.751  1.00  0.00     0.010 A 
ENDBRANCH   9  18
BRANCH  15  25
ATOM     25  C   UNL A   1      30.174  27.187  22.900  1.00  0.00     0.007 A 
ATOM     26  C   UNL A   1      29.077  26.536  23.480  1.00  0.00     0.011 A 
ATOM     27  C   UNL A   1      30.080  28.546  22.574  1.00  0.00     0.096 A 
ATOM     28  C   UNL A   1      27.910  27.243  23.781  1.00  0.00     0.008 A 
ATOM     29  C   UNL A   1      28.921  29.257  22.913  1.00  0.00     0.270 A 
ATOM     30  C   UNL A   1      27.832  28.609  23.512  1.00  0.00     0.085 A 
BRANCH  29  31
ATOM     31  N   UNL A   1      28.863  30.701  22.665  1.00  0.00     0.062 N 
ATOM     32  O   UNL A   1      28.107  31.380  23.374  1.00  0.00    -0.258 OA
ATOM     33  O   UNL A   1      29.546  31.158  21.735  1.00  0.00    -0.258 OA
ENDBRANCH  29  31
ENDBRANCH  15  25
ENDBRANCH   5   8
ENDBRANCH   3   4
ENDBRANCH   2   3
ENDBRANCH   1   2
BRANCH   1  34
ATOM     34  C   UNL A   1      34.258  29.560  27.213  1.00  0.00     0.116 C 
BRANCH  34  35
ATOM     35  N   UNL A   1      35.028  30.786  27.301  1.00  0.00    -0.352 N 
ATOM     36  C   UNL A   1      36.237  30.947  27.967  1.00  0.00     0.251 C 
ATOM     37  H   UNL A   1      34.661  31.577  26.844  1.00  0.00     0.163 HD
ATOM     38  O   UNL A   1      36.632  32.017  28.380  1.00  0.00    -0.269 OA
BRANCH  36  39
ATOM     39  C   UNL A   1      37.119  29.755  27.992  1.00  0.00     0.039 A 
ATOM     40  C   UNL A   1      37.165  29.036  29.194  1.00  0.00     0.014 A 
ATOM     41  C   UNL A   1      38.083  29.569  27.005  1.00  0.00     0.014 A 
ATOM     42  C   UNL A   1      38.283  28.261  29.486  1.00  0.00     0.010 A 
ATOM     43  C   UNL A   1      39.230  28.873  27.336  1.00  0.00     0.010 A 
ATOM     44  C   UNL A   1      39.354  28.265  28.596  1.00  0.00    -0.014 A 
BRANCH  44  45
ATOM     45  C   UNL A   1      40.671  27.721  28.906  1.00  0.00     0.031 A 
ATOM     46  C   UNL A   1      40.978  26.310  28.570  1.00  0.00     0.074 A 
ATOM     47  C   UNL A   1      41.643  28.517  29.410  1.00  0.00     0.049 A 
ATOM     48  N   UNL A   1      41.981  25.644  29.038  1.00  0.00    -0.248 NA
ATOM     49  C   UNL A   1      40.096  25.499  27.733  1.00  0.00     0.031 C 
ATOM     50  C   UNL A   1      43.076  28.238  29.429  1.00  0.00     0.029 A 
ATOM     51  N   UNL A   1      41.509  29.643  30.227  1.00  0.00    -0.354 N 
ATOM     52  C   UNL A   1      42.057  24.466  28.332  1.00  0.00     0.074 A 
ATOM     53  C   UNL A   1      40.794  24.365  27.644  1.00  0.00     0.031 C 
ATOM     54  C   UNL A   1      43.637  28.940  30.427  1.00  0.00     0.029 A 
ATOM     55  C   UNL A   1      42.554  29.566  31.164  1.00  0.00     0.049 A 
ATOM     56  H   UNL A   1      40.823  30.347  30.160  1.00  0.00     0.167 HD
ATOM     57  C   UNL A   1      43.240  23.789  28.285  1.00  0.00     0.031 A 
ATOM     58  C   UNL A   1      42.377  29.480  32.516  1.00  0.00     0.031 A 
ATOM     59  C   UNL A   1      44.185  24.295  29.281  1.00  0.00     0.049 A 
ATOM     60  C   UNL A   1      43.046  28.269  33.130  1.00  0.00     0.074 A 
ATOM     61  C   UNL A   1      45.323  25.080  29.209  1.00  0.00     0.029 A 
ATOM     62  N   UNL A   1      43.849  24.213  30.629  1.00  0.00    -0.354 N 
ATOM     63  N   UNL A   1      43.467  27.243  32.443  1.00  0.00    -0.248 NA
ATOM     64  C   UNL A   1      43.255  28.098  34.564  1.00  0.00     0.031 C 
ATOM     65  C   UNL A   1      45.610  25.553  30.519  1.00  0.00     0.029 A 
ATOM     66  C   UNL A   1      44.673  25.018  31.388  1.00  0.00     0.049 A 
ATOM     67  H   UNL A   1      43.123  23.654  30.991  1.00  0.00     0.167 HD
ATOM     68  C   UNL A   1      43.987  26.298  33.290  1.00  0.00     0.074 A 
ATOM     69  C   UNL A   1      43.844  26.888  34.610  1.00  0.00     0.031 C 
ATOM     70  C   UNL A   1      44.482  25.110  32.832  1.00  0.00     0.031 A 
BRANCH  57  71
ATOM     71  C   UNL A   1      43.630  22.835  27.166  1.00  0.00    -0.014 A 
ATOM     72  C   UNL A   1      42.809  21.724  26.874  1.00  0.00     0.010 A 
ATOM     73  C   UNL A   1      44.840  22.898  26.448  1.00  0.00     0.010 A 
ATOM     74  C   UNL A   1      43.203  20.716  25.972  1.00  0.00     0.020 A 
ATOM     75  C   UNL A   1      45.244  21.910  25.540  1.00  0.00     0.020 A 
ATOM     76  C   UNL A   1      44.431  20.809  25.321  1.00  0.00     0.054 A 
BRANCH  76  77
ATOM     77  S   UNL A   1      44.976  19.482  24.216  1.00  0.00     0.124 S 
ATOM     78  O   UNL A   1      46.427  19.521  24.374  1.00  0.00    -0.237 OA
ATOM     79  O   UNL A   1      44.310  18.309  24.775  1.00  0.00    -0.237 OA
ATOM     80  O   UNL A   1      44.487  19.900  22.903  1.00  0.00    -0.744 OA
ENDBRANCH  76  77
ENDBRANCH  57  71
BRANCH  58  81
ATOM     81  C   UNL A   1      41.129  30.116  33.015  1.00  0.00    -0.014 A 
ATOM     82  C   UNL A   1      41.143  31.520  33.172  1.00  0.00     0.010 A 
ATOM     83  C   UNL A   1      39.895  29.456  32.878  1.00  0.00     0.010 A 
ATOM     84  C   UNL A   1      39.975  32.262  32.991  1.00  0.00     0.020 A 
ATOM     85  C   UNL A   1      38.721  30.202  32.705  1.00  0.00     0.020 A 
ATOM     86  C   UNL A   1      38.787  31.598  32.684  1.00  0.00     0.054 A 
BRANCH  86  87
ATOM     87  S   UNL A   1      37.403  32.590  32.046  1.00  0.00     0.124 S 
ATOM     88  O   UNL A   1      36.443  31.567  31.645  1.00  0.00    -0.237 OA
ATOM     89  O   UNL A   1      37.033  33.375  33.224  1.00  0.00    -0.237 OA
ATOM     90  O   UNL A   1      38.011  33.348  30.958  1.00  0.00    -0.744 OA
ENDBRANCH  86  87
ENDBRANCH  58  81
BRANCH  70  91
ATOM     91  C   UNL A   1      44.902  23.930  33.682  1.00  0.00    -0.014 A 
ATOM     92  C   UNL A   1      44.052  22.875  34.052  1.00  0.00     0.010 A 
ATOM     93  C   UNL A   1      46.267  23.799  34.037  1.00  0.00     0.010 A 
ATOM     94  C   UNL A   1      44.525  21.780  34.793  1.00  0.00     0.020 A 
ATOM     95  C   UNL A   1      46.759  22.691  34.736  1.00  0.00     0.020 A 
ATOM     96  C   UNL A   1      45.875  21.697  35.133  1.00  0.00     0.054 A 
BRANCH  96  97
ATOM     97  S   UNL A   1      46.490  20.245  36.025  1.00  0.00     0.124 S 
ATOM     98  O   UNL A   1      45.769  20.343  37.291  1.00  0.00    -0.237 OA
ATOM     99  O   UNL A   1      46.091  19.135  35.162  1.00  0.00    -0.237 OA
ATOM    100  O   UNL A   1      47.931  20.477  36.102  1.00  0.00    -0.744 OA
ENDBRANCH  96  97
ENDBRANCH  70  91
ENDBRANCH  44  45
ENDBRANCH  36  39
ENDBRANCH  34  35
ENDBRANCH   1  34
TORSDOF 17
ENDMDL
MODEL 2
REMARK VINA RESULT:     -14.2      4.448     10.775
REMARK SMILES Cc1ccc(-c2cc(C(=O)NCCCCNC(=O)c3ccc(-c4c5nc(c(-c6ccc(S(=O)(=O)[O-])cc6)c6ccc([nH]6)c(-c6ccc(S(=O)(=O)[O-])cc6)c6nc(c(-c7ccc(S(=O)(=O)[O-])cc7)c7ccc4[nH]7)C=C6)C=C5)cc3)c3c(-c4cccc([N+](=O)[O-])c4)[nH]nc3n2)cc1
REMARK SMILES IDX 14 1 13 2 12 3 11 4 9 5 10 6 8 8 6 9 7 10 93 11 92 12 79 13
REMARK SMILES IDX 91 14 80 15 90 16 5 18 1 19 2 20 3 21 95 22 4 23 94 24 81 25
REMARK SMILES IDX 82 26 89 27 83 28 85 29 84 30 86 31 87 32 88 33 15 34 16 35
REMARK SMILES IDX 17 36 18 38 19 39 20 40 78 41 21 42 77 43 22 44 23 45 24 46
REMARK SMILES IDX 71 47 25 48 76 49 70 50 72 51 26 52 75 53 69 54 68 55 27 57
REMARK SMILES IDX 57 58 38 59 56 60 39 61 42 62 55 63 73 64 40 65 41 66 54 68
REMARK SMILES IDX 74 69 43 70 28 71 29 72 37 73 30 74 36 75 31 76 32 77 33 78
REMARK SMILES IDX 34 79 35 80 58 81 59 82 67 83 60 84 66 85 61 86 62 87 63 88
REMARK SMILES IDX 64 89 65 90 44 91 45 92 53 93 46 94 52 95 47 96 48 97 49 98
REMARK SMILES IDX 50 99 51 100
REMARK H PARENT 11 7 90 17 16 37 72 56 42 67
REMARK Flexibility Score: inf
ROOT
ATOM      1  C   UNL A   1      37.441  21.024  25.026  1.00  0.00     0.023 C 
ENDROOT
BRANCH   1   2
ATOM      2  C   UNL A   1      36.091  21.447  24.432  1.00  0.00     0.023 C 
BRANCH   2   3
ATOM      3  C   UNL A   1      35.634  22.863  24.817  1.00  0.00     0.116 C 
BRANCH   3   4
ATOM      4  N   UNL A   1      35.034  23.590  23.703  1.00  0.00    -0.352 N 
ATOM      5  C   UNL A   1      34.096  24.578  23.540  1.00  0.00     0.252 C 
ATOM      6  O   UNL A   1      33.985  24.975  22.383  1.00  0.00    -0.269 OA
ATOM      7  H   UNL A   1      35.398  23.292  22.838  1.00  0.00     0.163 HD
BRANCH   5   8
ATOM      8  C   UNL A   1      33.279  25.179  24.626  1.00  0.00     0.055 A 
ATOM      9  C   UNL A   1      32.719  27.099  26.117  1.00  0.00     0.074 A 
ATOM     10  C   UNL A   1      33.560  26.425  25.195  1.00  0.00     0.043 A 
ATOM     11  N   UNL A   1      31.583  26.603  26.661  1.00  0.00    -0.226 NA
ATOM     12  C   UNL A   1      31.289  25.363  26.198  1.00  0.00     0.182 A 
ATOM     13  C   UNL A   1      32.100  24.664  25.219  1.00  0.00     0.059 A 
ATOM     14  N   UNL A   1      30.228  24.650  26.575  1.00  0.00    -0.154 NA
ATOM     15  C   UNL A   1      31.451  23.447  25.058  1.00  0.00     0.076 A 
ATOM     16  N   UNL A   1      30.339  23.525  25.864  1.00  0.00    -0.275 N 
ATOM     17  H   UNL A   1      29.672  22.802  25.912  1.00  0.00     0.190 HD
BRANCH   9  18
ATOM     18  C   UNL A   1      33.087  28.479  26.469  1.00  0.00     0.000 A 
ATOM     19  C   UNL A   1      34.020  32.316  28.219  1.00  0.00     0.044 C 
ATOM     20  C   UNL A   1      33.725  31.007  27.549  1.00  0.00    -0.051 A 
ATOM     21  C   UNL A   1      32.478  30.780  26.951  1.00  0.00     0.004 A 
ATOM     22  C   UNL A   1      34.673  29.982  27.557  1.00  0.00     0.004 A 
ATOM     23  C   UNL A   1      32.162  29.529  26.410  1.00  0.00     0.010 A 
ATOM     24  C   UNL A   1      34.358  28.737  27.016  1.00  0.00     0.010 A 
ENDBRANCH   9  18
BRANCH  15  25
ATOM     25  C   UNL A   1      31.715  22.222  24.317  1.00  0.00     0.007 A 
ATOM     26  C   UNL A   1      31.630  22.207  22.917  1.00  0.00     0.011 A 
ATOM     27  C   UNL A   1      32.097  21.060  25.000  1.00  0.00     0.096 A 
ATOM     28  C   UNL A   1      31.974  21.059  22.198  1.00  0.00     0.008 A 
ATOM     29  C   UNL A   1      32.475  19.926  24.271  1.00  0.00     0.270 A 
ATOM     30  C   UNL A   1      32.412  19.918  22.871  1.00  0.00     0.085 A 
BRANCH  29  31
ATOM     31  N   UNL A   1      32.974  18.745  24.983  1.00  0.00     0.062 N 
ATOM     32  O   UNL A   1      33.764  17.999  24.386  1.00  0.00    -0.258 OA
ATOM     33  O   UNL A   1      32.549  18.537  26.130  1.00  0.00    -0.258 OA
ENDBRANCH  29  31
ENDBRANCH  15  25
ENDBRANCH   5   8
ENDBRANCH   3   4
ENDBRANCH   2   3
ENDBRANCH   1   2
BRANCH   1  34
ATOM     34  C   UNL A   1      38.250  22.183  25.592  1.00  0.00     0.116 C 
BRANCH  34  35
ATOM     35  N   UNL A   1      39.521  21.822  26.191  1.00  0.00    -0.352 N 
ATOM     36  C   UNL A   1      40.578  22.687  26.451  1.00  0.00     0.251 C 
ATOM     37  H   UNL A   1      39.646  20.877  26.438  1.00  0.00     0.163 HD
ATOM     38  O   UNL A   1      41.731  22.321  26.544  1.00  0.00    -0.269 OA
BRANCH  36  39
ATOM     39  C   UNL A   1      40.197  24.079  26.794  1.00  0.00     0.039 A 
ATOM     40  C   UNL A   1      40.842  25.097  26.078  1.00  0.00     0.014 A 
ATOM     41  C   UNL A   1      39.505  24.353  27.970  1.00  0.00     0.014 A 
ATOM     42  C   UNL A   1      40.949  26.366  26.640  1.00  0.00     0.010 A 
ATOM     43  C   UNL A   1      39.691  25.587  28.565  1.00  0.00     0.010 A 
ATOM     44  C   UNL A   1      40.458  26.574  27.926  1.00  0.00    -0.014 A 
BRANCH  44  45
ATOM     45  C   UNL A   1      40.744  27.763  28.722  1.00  0.00     0.031 A 
ATOM     46  C   UNL A   1      39.764  28.875  28.754  1.00  0.00     0.074 A 
ATOM     47  C   UNL A   1      41.847  27.819  29.504  1.00  0.00     0.049 A 
ATOM     48  N   UNL A   1      40.020  30.068  29.180  1.00  0.00    -0.248 NA
ATOM     49  C   UNL A   1      38.417  28.742  28.204  1.00  0.00     0.031 C 
ATOM     50  C   UNL A   1      42.087  28.742  30.610  1.00  0.00     0.029 A 
ATOM     51  N   UNL A   1      43.086  27.203  29.305  1.00  0.00    -0.354 N 
ATOM     52  C   UNL A   1      38.822  30.739  29.262  1.00  0.00     0.074 A 
ATOM     53  C   UNL A   1      37.891  29.929  28.517  1.00  0.00     0.031 C 
ATOM     54  C   UNL A   1      43.412  28.866  30.785  1.00  0.00     0.029 A 
ATOM     55  C   UNL A   1      44.052  28.145  29.700  1.00  0.00     0.049 A 
ATOM     56  H   UNL A   1      43.249  26.295  28.961  1.00  0.00     0.167 HD
ATOM     57  C   UNL A   1      38.717  31.824  30.083  1.00  0.00     0.031 A 
ATOM     58  C   UNL A   1      45.010  28.664  28.875  1.00  0.00     0.031 A 
ATOM     59  C   UNL A   1      40.033  32.287  30.525  1.00  0.00     0.049 A 
ATOM     60  C   UNL A   1      44.981  30.176  28.803  1.00  0.00     0.074 A 
ATOM     61  C   UNL A   1      40.726  32.203  31.721  1.00  0.00     0.029 A 
ATOM     62  N   UNL A   1      40.948  32.724  29.571  1.00  0.00    -0.354 N 
ATOM     63  N   UNL A   1      43.977  30.905  29.205  1.00  0.00    -0.248 NA
ATOM     64  C   UNL A   1      46.058  30.981  28.236  1.00  0.00     0.031 C 
ATOM     65  C   UNL A   1      42.092  32.497  31.455  1.00  0.00     0.029 A 
ATOM     66  C   UNL A   1      42.216  32.802  30.110  1.00  0.00     0.049 A 
ATOM     67  H   UNL A   1      40.720  32.949  28.640  1.00  0.00     0.167 HD
ATOM     68  C   UNL A   1      44.241  32.230  28.969  1.00  0.00     0.074 A 
ATOM     69  C   UNL A   1      45.565  32.226  28.373  1.00  0.00     0.031 C 
ATOM     70  C   UNL A   1      43.342  33.212  29.277  1.00  0.00     0.031 A 
BRANCH  57  71
ATOM     71  C   UNL A   1      37.410  32.310  30.687  1.00  0.00    -0.014 A 
ATOM     72  C   UNL A   1      36.821  33.504  30.218  1.00  0.00     0.010 A 
ATOM     73  C   UNL A   1      36.771  31.716  31.794  1.00  0.00     0.010 A 
ATOM     74  C   UNL A   1      35.710  34.094  30.851  1.00  0.00     0.020 A 
ATOM     75  C   UNL A   1      35.658  32.282  32.431  1.00  0.00     0.020 A 
ATOM     76  C   UNL A   1      35.144  33.483  31.969  1.00  0.00     0.054 A 
BRANCH  76  77
ATOM     77  S   UNL A   1      33.761  34.272  32.831  1.00  0.00     0.124 S 
ATOM     78  O   UNL A   1      33.030  33.124  33.361  1.00  0.00    -0.237 OA
ATOM     79  O   UNL A   1      34.437  35.104  33.823  1.00  0.00    -0.237 OA
ATOM     80  O   UNL A   1      33.069  35.010  31.776  1.00  0.00    -0.744 OA
ENDBRANCH  76  77
ENDBRANCH  57  71
BRANCH  58  81
ATOM     81  C   UNL A   1      45.426  27.760  27.770  1.00  0.00    -0.014 A 
ATOM     82  C   UNL A   1      44.821  27.964  26.511  1.00  0.00     0.010 A 
ATOM     83  C   UNL A   1      46.660  27.088  27.835  1.00  0.00     0.010 A 
ATOM     84  C   UNL A   1      45.524  27.688  25.337  1.00  0.00     0.020 A 
ATOM     85  C   UNL A   1      47.361  26.802  26.655  1.00  0.00     0.020 A 
ATOM     86  C   UNL A   1      46.819  27.178  25.423  1.00  0.00     0.054 A 
BRANCH  86  87
ATOM     87  S   UNL A   1      47.850  27.227  23.924  1.00  0.00     0.124 S 
ATOM     88  O   UNL A   1      47.048  28.045  23.020  1.00  0.00    -0.237 OA
ATOM     89  O   UNL A   1      49.072  27.856  24.427  1.00  0.00    -0.237 OA
ATOM     90  O   UNL A   1      47.976  25.820  23.562  1.00  0.00    -0.744 OA
ENDBRANCH  86  87
ENDBRANCH  58  81
BRANCH  70  91
ATOM     91  C   UNL A   1      43.448  34.672  28.892  1.00  0.00    -0.014 A 
ATOM     92  C   UNL A   1      43.785  35.707  29.779  1.00  0.00     0.010 A 
ATOM     93  C   UNL A   1      43.324  35.024  27.525  1.00  0.00     0.010 A 
ATOM     94  C   UNL A   1      43.925  37.032  29.339  1.00  0.00     0.020 A 
ATOM     95  C   UNL A   1      43.506  36.334  27.067  1.00  0.00     0.020 A 
ATOM     96  C   UNL A   1      43.781  37.338  27.985  1.00  0.00     0.054 A 
BRANCH  96  97
ATOM     97  S   UNL A   1      44.036  39.039  27.416  1.00  0.00     0.124 S 
ATOM     98  O   UNL A   1      42.788  39.308  26.707  1.00  0.00    -0.237 OA
ATOM     99  O   UNL A   1      44.220  39.779  28.663  1.00  0.00    -0.237 OA
ATOM    100  O   UNL A   1      45.228  38.942  26.577  1.00  0.00    -0.744 OA
ENDBRANCH  96  97
ENDBRANCH  70  91
ENDBRANCH  44  45
ENDBRANCH  36  39
ENDBRANCH  34  35
ENDBRANCH   1  34
TORSDOF 17
ENDMDL
MODEL 3
REMARK VINA RESULT:     -14.2      1.548      2.131
REMARK SMILES Cc1ccc(-c2cc(C(=O)NCCCCNC(=O)c3ccc(-c4c5nc(c(-c6ccc(S(=O)(=O)[O-])cc6)c6ccc([nH]6)c(-c6ccc(S(=O)(=O)[O-])cc6)c6nc(c(-c7ccc(S(=O)(=O)[O-])cc7)c7ccc4[nH]7)C=C6)C=C5)cc3)c3c(-c4cccc([N+](=O)[O-])c4)[nH]nc3n2)cc1
REMARK SMILES IDX 14 1 13 2 12 3 11 4 9 5 10 6 8 8 6 9 7 10 93 11 92 12 79 13
REMARK SMILES IDX 91 14 80 15 90 16 5 18 1 19 2 20 3 21 95 22 4 23 94 24 81 25
REMARK SMILES IDX 82 26 89 27 83 28 85 29 84 30 86 31 87 32 88 33 15 34 16 35
REMARK SMILES IDX 17 36 18 38 19 39 20 40 78 41 21 42 77 43 22 44 23 45 24 46
REMARK SMILES IDX 71 47 25 48 76 49 70 50 72 51 26 52 75 53 69 54 68 55 27 57
REMARK SMILES IDX 57 58 38 59 56 60 39 61 42 62 55 63 73 64 40 65 41 66 54 68
REMARK SMILES IDX 74 69 43 70 28 71 29 72 37 73 30 74 36 75 31 76 32 77 33 78
REMARK SMILES IDX 34 79 35 80 58 81 59 82 67 83 60 84 66 85 61 86 62 87 63 88
REMARK SMILES IDX 64 89 65 90 44 91 45 92 53 93 46 94 52 95 47 96 48 97 49 98
REMARK SMILES IDX 50 99 51 100
REMARK H PARENT 11 7 90 17 16 37 72 56 42 67
REMARK Flexibility Score: inf
ROOT
ATOM      1  C   UNL A   1      32.191  30.654  26.711  1.00  0.00     0.023 C 
ENDROOT
BRANCH   1   2
ATOM      2  C   UNL A   1      31.804  29.494  25.785  1.00  0.00     0.023 C 
BRANCH   2   3
ATOM      3  C   UNL A   1      32.834  28.354  25.718  1.00  0.00     0.116 C 
BRANCH   3   4
ATOM      4  N   UNL A   1      32.331  27.099  26.267  1.00  0.00    -0.352 N 
ATOM      5  C   UNL A   1      32.550  25.759  26.069  1.00  0.00     0.252 C 
ATOM      6  O   UNL A   1      31.963  25.034  26.868  1.00  0.00    -0.269 OA
ATOM      7  H   UNL A   1      31.654  27.255  26.965  1.00  0.00     0.163 HD
BRANCH   5   8
ATOM      8  C   UNL A   1      33.429  25.174  25.024  1.00  0.00     0.055 A 
ATOM      9  C   UNL A   1      35.519  23.986  24.357  1.00  0.00     0.074 A 
ATOM     10  C   UNL A   1      34.714  24.690  25.289  1.00  0.00     0.043 A 
ATOM     11  N   UNL A   1      35.215  23.766  23.056  1.00  0.00    -0.226 NA
ATOM     12  C   UNL A   1      34.004  24.273  22.717  1.00  0.00     0.182 A 
ATOM     13  C   UNL A   1      33.134  24.957  23.655  1.00  0.00     0.059 A 
ATOM     14  N   UNL A   1      33.470  24.197  21.498  1.00  0.00    -0.154 NA
ATOM     15  C   UNL A   1      32.034  25.317  22.888  1.00  0.00     0.076 A 
ATOM     16  N   UNL A   1      32.288  24.807  21.637  1.00  0.00    -0.275 N 
ATOM     17  H   UNL A   1      31.645  24.885  20.896  1.00  0.00     0.190 HD
BRANCH   9  18
ATOM     18  C   UNL A   1      36.765  23.394  24.866  1.00  0.00     0.000 A 
ATOM     19  C   UNL A   1      39.977  21.317  26.873  1.00  0.00     0.044 C 
ATOM     20  C   UNL A   1      38.908  22.055  26.123  1.00  0.00    -0.051 A 
ATOM     21  C   UNL A   1      38.645  23.403  26.403  1.00  0.00     0.004 A 
ATOM     22  C   UNL A   1      38.129  21.393  25.172  1.00  0.00     0.004 A 
ATOM     23  C   UNL A   1      37.587  24.070  25.776  1.00  0.00     0.010 A 
ATOM     24  C   UNL A   1      37.077  22.059  24.547  1.00  0.00     0.010 A 
ENDBRANCH   9  18
BRANCH  15  25
ATOM     25  C   UNL A   1      30.818  26.084  23.116  1.00  0.00     0.007 A 
ATOM     26  C   UNL A   1      29.771  25.544  23.876  1.00  0.00     0.011 A 
ATOM     27  C   UNL A   1      30.708  27.385  22.610  1.00  0.00     0.096 A 
ATOM     28  C   UNL A   1      28.642  26.312  24.175  1.00  0.00     0.008 A 
ATOM     29  C   UNL A   1      29.591  28.162  22.946  1.00  0.00     0.270 A 
ATOM     30  C   UNL A   1      28.554  27.629  23.723  1.00  0.00     0.085 A 
BRANCH  29  31
ATOM     31  N   UNL A   1      29.525  29.558  22.502  1.00  0.00     0.062 N 
ATOM     32  O   UNL A   1      29.547  29.780  21.283  1.00  0.00    -0.258 OA
ATOM     33  O   UNL A   1      29.488  30.442  23.371  1.00  0.00    -0.258 OA
ENDBRANCH  29  31
ENDBRANCH  15  25
ENDBRANCH   5   8
ENDBRANCH   3   4
ENDBRANCH   2   3
ENDBRANCH   1   2
BRANCH   1  34
ATOM     34  C   UNL A   1      33.617  30.569  27.236  1.00  0.00     0.116 C 
BRANCH  34  35
ATOM     35  N   UNL A   1      34.106  31.758  27.909  1.00  0.00    -0.352 N 
ATOM     36  C   UNL A   1      35.043  31.790  28.935  1.00  0.00     0.251 C 
ATOM     37  H   UNL A   1      33.740  32.623  27.611  1.00  0.00     0.163 HD
ATOM     38  O   UNL A   1      35.117  32.694  29.741  1.00  0.00    -0.269 OA
BRANCH  36  39
ATOM     39  C   UNL A   1      36.083  30.734  28.886  1.00  0.00     0.039 A 
ATOM     40  C   UNL A   1      36.152  29.874  29.989  1.00  0.00     0.014 A 
ATOM     41  C   UNL A   1      37.126  30.811  27.967  1.00  0.00     0.014 A 
ATOM     42  C   UNL A   1      37.348  29.222  30.276  1.00  0.00     0.010 A 
ATOM     43  C   UNL A   1      38.337  30.237  28.304  1.00  0.00     0.010 A 
ATOM     44  C   UNL A   1      38.463  29.488  29.485  1.00  0.00    -0.014 A 
BRANCH  44  45
ATOM     45  C   UNL A   1      39.822  29.088  29.835  1.00  0.00     0.031 A 
ATOM     46  C   UNL A   1      40.371  27.819  29.301  1.00  0.00     0.074 A 
ATOM     47  C   UNL A   1      40.614  29.908  30.563  1.00  0.00     0.049 A 
ATOM     48  N   UNL A   1      41.427  27.227  29.752  1.00  0.00    -0.248 NA
ATOM     49  C   UNL A   1      39.695  27.057  28.254  1.00  0.00     0.031 C 
ATOM     50  C   UNL A   1      42.068  29.835  30.684  1.00  0.00     0.029 A 
ATOM     51  N   UNL A   1      40.243  30.837  31.539  1.00  0.00    -0.354 N 
ATOM     52  C   UNL A   1      41.742  26.220  28.870  1.00  0.00     0.074 A 
ATOM     53  C   UNL A   1      40.567  26.067  28.048  1.00  0.00     0.031 C 
ATOM     54  C   UNL A   1      42.433  30.416  31.838  1.00  0.00     0.029 A 
ATOM     55  C   UNL A   1      41.211  30.740  32.553  1.00  0.00     0.049 A 
ATOM     56  H   UNL A   1      39.463  31.438  31.520  1.00  0.00     0.167 HD
ATOM     57  C   UNL A   1      43.016  25.735  28.833  1.00  0.00     0.031 A 
ATOM     58  C   UNL A   1      40.946  30.386  33.846  1.00  0.00     0.031 A 
ATOM     59  C   UNL A   1      43.790  26.181  29.993  1.00  0.00     0.049 A 
ATOM     60  C   UNL A   1      41.748  29.190  34.314  1.00  0.00     0.074 A 
ATOM     61  C   UNL A   1      44.793  27.118  30.172  1.00  0.00     0.029 A 
ATOM     62  N   UNL A   1      43.368  25.809  31.266  1.00  0.00    -0.354 N 
ATOM     63  N   UNL A   1      42.376  28.376  33.513  1.00  0.00    -0.248 NA
ATOM     64  C   UNL A   1      41.870  28.794  35.714  1.00  0.00     0.031 C 
ATOM     65  C   UNL A   1      44.900  27.381  31.566  1.00  0.00     0.029 A 
ATOM     66  C   UNL A   1      43.995  26.572  32.231  1.00  0.00     0.049 A 
ATOM     67  H   UNL A   1      42.713  25.097  31.453  1.00  0.00     0.167 HD
ATOM     68  C   UNL A   1      42.971  27.376  34.239  1.00  0.00     0.074 A 
ATOM     69  C   UNL A   1      42.635  27.691  35.616  1.00  0.00     0.031 C 
ATOM     70  C   UNL A   1      43.681  26.372  33.642  1.00  0.00     0.031 A 
BRANCH  57  71
ATOM     71  C   UNL A   1      43.636  25.065  27.618  1.00  0.00    -0.014 A 
ATOM     72  C   UNL A   1      43.001  23.948  27.032  1.00  0.00     0.010 A 
ATOM     73  C   UNL A   1      44.893  25.398  27.076  1.00  0.00     0.010 A 
ATOM     74  C   UNL A   1      43.610  23.183  26.018  1.00  0.00     0.020 A 
ATOM     75  C   UNL A   1      45.511  24.654  26.060  1.00  0.00     0.020 A 
ATOM     76  C   UNL A   1      44.874  23.534  25.550  1.00  0.00     0.054 A 
BRANCH  76  77
ATOM     77  S   UNL A   1      45.694  22.514  24.298  1.00  0.00     0.124 S 
ATOM     78  O   UNL A   1      44.565  21.996  23.531  1.00  0.00    -0.237 OA
ATOM     79  O   UNL A   1      46.540  23.481  23.604  1.00  0.00    -0.237 OA
ATOM     80  O   UNL A   1      46.416  21.514  25.083  1.00  0.00    -0.744 OA
ENDBRANCH  76  77
ENDBRANCH  57  71
BRANCH  58  81
ATOM     81  C   UNL A   1      39.579  30.739  34.313  1.00  0.00    -0.014 A 
ATOM     82  C   UNL A   1      39.470  31.807  35.230  1.00  0.00     0.010 A 
ATOM     83  C   UNL A   1      38.456  30.379  33.547  1.00  0.00     0.010 A 
ATOM     84  C   UNL A   1      38.337  32.621  35.235  1.00  0.00     0.020 A 
ATOM     85  C   UNL A   1      37.314  31.192  33.559  1.00  0.00     0.020 A 
ATOM     86  C   UNL A   1      37.299  32.349  34.344  1.00  0.00     0.054 A 
BRANCH  86  87
ATOM     87  S   UNL A   1      36.050  33.644  34.076  1.00  0.00     0.124 S 
ATOM     88  O   UNL A   1      36.864  34.783  33.666  1.00  0.00    -0.237 OA
ATOM     89  O   UNL A   1      35.225  33.047  33.025  1.00  0.00    -0.237 OA
ATOM     90  O   UNL A   1      35.408  33.761  35.381  1.00  0.00    -0.744 OA
ENDBRANCH  86  87
ENDBRANCH  58  81
BRANCH  70  91
ATOM     91  C   UNL A   1      44.213  25.129  34.322  1.00  0.00    -0.014 A 
ATOM     92  C   UNL A   1      43.418  24.049  34.740  1.00  0.00     0.010 A 
ATOM     93  C   UNL A   1      45.615  24.968  34.443  1.00  0.00     0.010 A 
ATOM     94  C   UNL A   1      43.987  22.899  35.310  1.00  0.00     0.020 A 
ATOM     95  C   UNL A   1      46.196  23.809  34.967  1.00  0.00     0.020 A 
ATOM     96  C   UNL A   1      45.373  22.787  35.422  1.00  0.00     0.054 A 
BRANCH  96  97
ATOM     97  S   UNL A   1      46.100  21.270  36.091  1.00  0.00     0.124 S 
ATOM     98  O   UNL A   1      45.381  20.238  35.349  1.00  0.00    -0.237 OA
ATOM     99  O   UNL A   1      47.517  21.409  35.758  1.00  0.00    -0.237 OA
ATOM    100  O   UNL A   1      45.795  21.346  37.518  1.00  0.00    -0.744 OA
ENDBRANCH  96  97
ENDBRANCH  70  91
ENDBRANCH  44  45
ENDBRANCH  36  39
ENDBRANCH  34  35
ENDBRANCH   1  34
TORSDOF 17
ENDMDL
