MODEL 1
REMARK VINA RESULT:     -11.0      0.000      0.000
REMARK SMILES CC[NH2+][C@@]1(C(=O)NCCCCNC(=O)c2ccc(-c3c4nc(c(-c5ccc(S(=O)(=O)[O-])cc5)c5ccc([nH]5)c(-c5ccc(S(=O)(=O)[O-])cc5)c5nc(c(-c6ccc(S(=O)(=O)[O-])cc6)c6ccc3[nH]6)C=C5)C=C4)cc2)CCC[C@@H](Sc2ncc(C)cn2)C1
REMARK SMILES IDX 10 1 9 2 8 3 7 4 5 5 6 6 4 8 75 9 87 10 76 11 78 12 77 13
REMARK SMILES IDX 3 14 2 17 1 18 79 19 80 20 81 21 86 22 82 23 85 24 83 25
REMARK SMILES IDX 84 26 11 27 12 28 13 29 14 31 15 32 16 33 74 34 17 35 73 36
REMARK SMILES IDX 18 37 19 38 20 39 67 40 21 41 72 42 66 43 68 44 22 45 71 46
REMARK SMILES IDX 65 47 64 48 23 50 53 51 34 52 52 53 35 54 38 55 51 56 69 57
REMARK SMILES IDX 36 58 37 59 50 61 70 62 39 63 24 64 25 65 33 66 26 67 32 68
REMARK SMILES IDX 27 69 28 70 29 71 30 72 31 73 54 74 55 75 63 76 56 77 62 78
REMARK SMILES IDX 57 79 58 80 59 81 60 82 61 83 40 84 41 85 49 86 42 87 48 88
REMARK SMILES IDX 43 89 44 90 45 91 46 92 47 93
REMARK H PARENT 7 7 3 15 3 16 12 30 68 49 38 60
REMARK Flexibility Score: inf
ROOT
ATOM      1  C   UNL A   1      38.082  21.832  25.614  1.00  0.00     0.023 C 
ENDROOT
BRANCH   1   2
ATOM      2  C   UNL A   1      37.618  20.597  24.853  1.00  0.00     0.023 C 
BRANCH   2   3
ATOM      3  C   UNL A   1      36.130  20.263  25.000  1.00  0.00     0.116 C 
BRANCH   3   4
ATOM      4  N   UNL A   1      35.511  21.033  26.052  1.00  0.00    -0.351 N 
ATOM      5  C   UNL A   1      34.264  21.474  26.316  1.00  0.00     0.281 C 
ATOM      6  O   UNL A   1      34.205  22.188  27.338  1.00  0.00    -0.268 OA
ATOM      7  H   UNL A   1      36.156  21.303  26.746  1.00  0.00     0.163 HD
BRANCH   5   8
ATOM      8  C   UNL A   1      32.918  21.240  25.475  1.00  0.00     0.176 C 
ATOM      9  C   UNL A   1      33.084  21.264  23.936  1.00  0.00     0.079 C 
ATOM     10  C   UNL A   1      31.809  22.184  25.999  1.00  0.00     0.094 C 
ATOM     11  C   UNL A   1      32.713  22.535  23.164  1.00  0.00     0.008 C 
ATOM     12  C   UNL A   1      31.758  23.527  25.280  1.00  0.00     0.061 C 
ATOM     13  C   UNL A   1      31.581  23.353  23.774  1.00  0.00     0.015 C 
BRANCH   8  14
ATOM     14  N   UNL A   1      32.637  19.777  25.766  1.00  0.00    -0.334 N 
ATOM     15  H   UNL A   1      33.333  19.465  26.444  1.00  0.00     0.347 HD
ATOM     16  H   UNL A   1      31.666  19.768  26.080  1.00  0.00     0.347 HD
BRANCH  14  17
ATOM     17  C   UNL A   1      32.661  18.829  24.662  1.00  0.00     0.257 C 
ATOM     18  C   UNL A   1      32.649  17.410  25.214  1.00  0.00     0.071 C 
ENDBRANCH  14  17
ENDBRANCH   8  14
BRANCH  12  19
ATOM     19  S   UNL A   1      30.575  24.694  26.060  1.00  0.00    -0.083 SA
BRANCH  19  20
ATOM     20  C   UNL A   1      31.613  26.097  26.323  1.00  0.00     0.187 A 
ATOM     21  N   UNL A   1      32.864  26.058  25.840  1.00  0.00    -0.231 NA
ATOM     22  N   UNL A   1      31.092  27.109  27.035  1.00  0.00    -0.231 NA
ATOM     23  C   UNL A   1      33.640  27.122  26.112  1.00  0.00     0.119 A 
ATOM     24  C   UNL A   1      31.909  28.149  27.275  1.00  0.00     0.119 A 
ATOM     25  C   UNL A   1      33.217  28.210  26.844  1.00  0.00    -0.014 A 
ATOM     26  C   UNL A   1      34.091  29.379  27.135  1.00  0.00     0.048 C 
ENDBRANCH  19  20
ENDBRANCH  12  19
ENDBRANCH   5   8
ENDBRANCH   3   4
ENDBRANCH   2   3
ENDBRANCH   1   2
BRANCH   1  27
ATOM     27  C   UNL A   1      39.354  21.643  26.433  1.00  0.00     0.116 C 
BRANCH  27  28
ATOM     28  N   UNL A   1      40.036  20.373  26.212  1.00  0.00    -0.352 N 
ATOM     29  C   UNL A   1      41.396  20.143  26.191  1.00  0.00     0.251 C 
ATOM     30  H   UNL A   1      39.459  19.589  26.060  1.00  0.00     0.163 HD
ATOM     31  O   UNL A   1      41.848  19.030  25.961  1.00  0.00    -0.269 OA
BRANCH  29  32
ATOM     32  C   UNL A   1      42.293  21.297  26.396  1.00  0.00     0.039 A 
ATOM     33  C   UNL A   1      42.669  22.060  25.288  1.00  0.00     0.014 A 
ATOM     34  C   UNL A   1      42.615  21.705  27.691  1.00  0.00     0.014 A 
ATOM     35  C   UNL A   1      43.280  23.297  25.488  1.00  0.00     0.010 A 
ATOM     36  C   UNL A   1      43.153  22.972  27.889  1.00  0.00     0.010 A 
ATOM     37  C   UNL A   1      43.469  23.789  26.791  1.00  0.00    -0.014 A 
BRANCH  37  38
ATOM     38  C   UNL A   1      43.954  25.169  27.038  1.00  0.00     0.031 A 
ATOM     39  C   UNL A   1      45.403  25.505  26.824  1.00  0.00     0.074 A 
ATOM     40  C   UNL A   1      43.115  26.088  27.560  1.00  0.00     0.049 A 
ATOM     41  N   UNL A   1      46.040  26.611  27.100  1.00  0.00    -0.248 NA
ATOM     42  C   UNL A   1      46.254  24.442  26.263  1.00  0.00     0.031 C 
ATOM     43  C   UNL A   1      41.702  25.867  27.882  1.00  0.00     0.029 A 
ATOM     44  N   UNL A   1      43.337  27.390  27.932  1.00  0.00    -0.354 N 
ATOM     45  C   UNL A   1      47.371  26.366  26.787  1.00  0.00     0.074 A 
ATOM     46  C   UNL A   1      47.454  24.996  26.329  1.00  0.00     0.031 C 
ATOM     47  C   UNL A   1      41.181  26.999  28.383  1.00  0.00     0.029 A 
ATOM     48  C   UNL A   1      42.227  28.015  28.450  1.00  0.00     0.049 A 
ATOM     49  H   UNL A   1      44.210  27.836  27.837  1.00  0.00     0.167 HD
ATOM     50  C   UNL A   1      48.428  27.211  26.857  1.00  0.00     0.031 A 
ATOM     51  C   UNL A   1      42.068  29.263  28.932  1.00  0.00     0.031 A 
ATOM     52  C   UNL A   1      48.336  28.585  27.266  1.00  0.00     0.049 A 
ATOM     53  C   UNL A   1      43.242  30.201  28.941  1.00  0.00     0.074 A 
ATOM     54  C   UNL A   1      49.331  29.545  27.283  1.00  0.00     0.029 A 
ATOM     55  N   UNL A   1      47.178  29.197  27.720  1.00  0.00    -0.354 N 
ATOM     56  N   UNL A   1      44.478  29.972  28.566  1.00  0.00    -0.248 NA
ATOM     57  C   UNL A   1      42.998  31.566  29.427  1.00  0.00     0.031 C 
ATOM     58  C   UNL A   1      48.781  30.734  27.775  1.00  0.00     0.029 A 
ATOM     59  C   UNL A   1      47.437  30.520  28.033  1.00  0.00     0.049 A 
ATOM     60  H   UNL A   1      46.303  28.756  27.809  1.00  0.00     0.167 HD
ATOM     61  C   UNL A   1      45.156  31.171  28.756  1.00  0.00     0.074 A 
ATOM     62  C   UNL A   1      44.191  32.124  29.264  1.00  0.00     0.031 C 
ATOM     63  C   UNL A   1      46.461  31.454  28.531  1.00  0.00     0.031 A 
BRANCH  50  64
ATOM     64  C   UNL A   1      49.774  26.662  26.477  1.00  0.00    -0.014 A 
ATOM     65  C   UNL A   1      50.242  26.746  25.153  1.00  0.00     0.010 A 
ATOM     66  C   UNL A   1      50.591  26.075  27.459  1.00  0.00     0.010 A 
ATOM     67  C   UNL A   1      51.485  26.209  24.809  1.00  0.00     0.020 A 
ATOM     68  C   UNL A   1      51.846  25.559  27.122  1.00  0.00     0.020 A 
ATOM     69  C   UNL A   1      52.275  25.612  25.793  1.00  0.00     0.054 A 
BRANCH  69  70
ATOM     70  S   UNL A   1      53.890  24.933  25.326  1.00  0.00     0.124 S 
ATOM     71  O   UNL A   1      53.552  23.547  25.009  1.00  0.00    -0.237 OA
ATOM     72  O   UNL A   1      54.272  25.762  24.185  1.00  0.00    -0.237 OA
ATOM     73  O   UNL A   1      54.703  25.118  26.525  1.00  0.00    -0.744 OA
ENDBRANCH  69  70
ENDBRANCH  50  64
BRANCH  51  74
ATOM     74  C   UNL A   1      40.739  29.705  29.431  1.00  0.00    -0.014 A 
ATOM     75  C   UNL A   1      39.713  30.022  28.525  1.00  0.00     0.010 A 
ATOM     76  C   UNL A   1      40.489  29.799  30.812  1.00  0.00     0.010 A 
ATOM     77  C   UNL A   1      38.464  30.444  28.989  1.00  0.00     0.020 A 
ATOM     78  C   UNL A   1      39.235  30.202  31.280  1.00  0.00     0.020 A 
ATOM     79  C   UNL A   1      38.233  30.533  30.365  1.00  0.00     0.054 A 
BRANCH  79  80
ATOM     80  S   UNL A   1      36.590  31.034  30.952  1.00  0.00     0.124 S 
ATOM     81  O   UNL A   1      36.257  29.956  31.878  1.00  0.00    -0.237 OA
ATOM     82  O   UNL A   1      36.852  32.335  31.563  1.00  0.00    -0.237 OA
ATOM     83  O   UNL A   1      35.794  31.080  29.728  1.00  0.00    -0.744 OA
ENDBRANCH  79  80
ENDBRANCH  51  74
BRANCH  63  84
ATOM     84  C   UNL A   1      46.921  32.858  28.809  1.00  0.00    -0.014 A 
ATOM     85  C   UNL A   1      46.786  33.866  27.838  1.00  0.00     0.010 A 
ATOM     86  C   UNL A   1      47.430  33.184  30.078  1.00  0.00     0.010 A 
ATOM     87  C   UNL A   1      47.169  35.178  28.128  1.00  0.00     0.020 A 
ATOM     88  C   UNL A   1      47.795  34.498  30.377  1.00  0.00     0.020 A 
ATOM     89  C   UNL A   1      47.672  35.485  29.397  1.00  0.00     0.054 A 
BRANCH  89  90
ATOM     90  S   UNL A   1      48.106  37.206  29.774  1.00  0.00     0.124 S 
ATOM     91  O   UNL A   1      49.432  37.322  29.176  1.00  0.00    -0.237 OA
ATOM     92  O   UNL A   1      47.047  37.961  29.107  1.00  0.00    -0.237 OA
ATOM     93  O   UNL A   1      48.071  37.257  31.234  1.00  0.00    -0.744 OA
ENDBRANCH  89  90
ENDBRANCH  63  84
ENDBRANCH  37  38
ENDBRANCH  29  32
ENDBRANCH  27  28
ENDBRANCH   1  27
TORSDOF 18
ENDMDL
MODEL 2
REMARK VINA RESULT:     -10.9      3.803      5.788
REMARK SMILES CC[NH2+][C@@]1(C(=O)NCCCCNC(=O)c2ccc(-c3c4nc(c(-c5ccc(S(=O)(=O)[O-])cc5)c5ccc([nH]5)c(-c5ccc(S(=O)(=O)[O-])cc5)c5nc(c(-c6ccc(S(=O)(=O)[O-])cc6)c6ccc3[nH]6)C=C5)C=C4)cc2)CCC[C@@H](Sc2ncc(C)cn2)C1
REMARK SMILES IDX 10 1 9 2 8 3 7 4 5 5 6 6 4 8 75 9 87 10 76 11 78 12 77 13
REMARK SMILES IDX 3 14 2 17 1 18 79 19 80 20 81 21 86 22 82 23 85 24 83 25
REMARK SMILES IDX 84 26 11 27 12 28 13 29 14 31 15 32 16 33 74 34 17 35 73 36
REMARK SMILES IDX 18 37 19 38 20 39 67 40 21 41 72 42 66 43 68 44 22 45 71 46
REMARK SMILES IDX 65 47 64 48 23 50 53 51 34 52 52 53 35 54 38 55 51 56 69 57
REMARK SMILES IDX 36 58 37 59 50 61 70 62 39 63 24 64 25 65 33 66 26 67 32 68
REMARK SMILES IDX 27 69 28 70 29 71 30 72 31 73 54 74 55 75 63 76 56 77 62 78
REMARK SMILES IDX 57 79 58 80 59 81 60 82 61 83 40 84 41 85 49 86 42 87 48 88
REMARK SMILES IDX 43 89 44 90 45 91 46 92 47 93
REMARK H PARENT 7 7 3 15 3 16 12 30 68 49 38 60
REMARK Flexibility Score: inf
ROOT
ATOM      1  C   UNL A   1      36.807  23.351  24.068  1.00  0.00     0.023 C 
ENDROOT
BRANCH   1   2
ATOM      2  C   UNL A   1      35.372  23.220  23.575  1.00  0.00     0.023 C 
BRANCH   2   3
ATOM      3  C   UNL A   1      34.481  24.439  23.835  1.00  0.00     0.116 C 
BRANCH   3   4
ATOM      4  N   UNL A   1      33.813  24.880  22.634  1.00  0.00    -0.351 N 
ATOM      5  C   UNL A   1      32.743  25.651  22.355  1.00  0.00     0.281 C 
ATOM      6  O   UNL A   1      32.481  25.701  21.136  1.00  0.00    -0.268 OA
ATOM      7  H   UNL A   1      34.243  24.531  21.819  1.00  0.00     0.163 HD
BRANCH   5   8
ATOM      8  C   UNL A   1      31.779  26.434  23.370  1.00  0.00     0.176 C 
ATOM      9  C   UNL A   1      32.440  27.599  24.149  1.00  0.00     0.079 C 
ATOM     10  C   UNL A   1      31.041  25.417  24.273  1.00  0.00     0.094 C 
ATOM     11  C   UNL A   1      32.892  27.368  25.595  1.00  0.00     0.008 C 
ATOM     12  C   UNL A   1      31.779  25.102  25.570  1.00  0.00     0.061 C 
ATOM     13  C   UNL A   1      32.056  26.365  26.381  1.00  0.00     0.015 C 
BRANCH   8  14
ATOM     14  N   UNL A   1      30.851  27.151  22.406  1.00  0.00    -0.334 N 
ATOM     15  H   UNL A   1      31.342  27.225  21.515  1.00  0.00     0.347 HD
ATOM     16  H   UNL A   1      30.003  26.584  22.409  1.00  0.00     0.347 HD
BRANCH  14  17
ATOM     17  C   UNL A   1      30.385  28.487  22.749  1.00  0.00     0.257 C 
ATOM     18  C   UNL A   1      28.886  28.448  23.009  1.00  0.00     0.071 C 
ENDBRANCH  14  17
ENDBRANCH   8  14
BRANCH  12  19
ATOM     19  S   UNL A   1      30.984  23.744  26.515  1.00  0.00    -0.083 SA
BRANCH  19  20
ATOM     20  C   UNL A   1      31.979  22.369  26.027  1.00  0.00     0.187 A 
ATOM     21  N   UNL A   1      33.119  22.144  26.698  1.00  0.00    -0.231 NA
ATOM     22  N   UNL A   1      31.547  21.653  24.977  1.00  0.00    -0.231 NA
ATOM     23  C   UNL A   1      33.876  21.123  26.259  1.00  0.00     0.119 A 
ATOM     24  C   UNL A   1      32.339  20.641  24.582  1.00  0.00     0.119 A 
ATOM     25  C   UNL A   1      33.540  20.330  25.183  1.00  0.00    -0.014 A 
ATOM     26  C   UNL A   1      34.390  19.204  24.711  1.00  0.00     0.048 C 
ENDBRANCH  19  20
ENDBRANCH  12  19
ENDBRANCH   5   8
ENDBRANCH   3   4
ENDBRANCH   2   3
ENDBRANCH   1   2
BRANCH   1  27
ATOM     27  C   UNL A   1      37.014  23.019  25.541  1.00  0.00     0.116 C 
BRANCH  27  28
ATOM     28  N   UNL A   1      38.199  22.217  25.823  1.00  0.00    -0.352 N 
ATOM     29  C   UNL A   1      39.353  22.618  26.463  1.00  0.00     0.251 C 
ATOM     30  H   UNL A   1      38.172  21.280  25.522  1.00  0.00     0.163 HD
ATOM     31  O   UNL A   1      40.295  21.854  26.611  1.00  0.00    -0.269 OA
BRANCH  29  32
ATOM     32  C   UNL A   1      39.438  24.022  26.912  1.00  0.00     0.039 A 
ATOM     33  C   UNL A   1      38.967  24.348  28.186  1.00  0.00     0.014 A 
ATOM     34  C   UNL A   1      40.127  24.958  26.139  1.00  0.00     0.014 A 
ATOM     35  C   UNL A   1      39.285  25.592  28.731  1.00  0.00     0.010 A 
ATOM     36  C   UNL A   1      40.507  26.165  26.715  1.00  0.00     0.010 A 
ATOM     37  C   UNL A   1      40.109  26.484  28.023  1.00  0.00    -0.014 A 
BRANCH  37  38
ATOM     38  C   UNL A   1      40.608  27.737  28.642  1.00  0.00     0.031 A 
ATOM     39  C   UNL A   1      41.998  27.791  29.211  1.00  0.00     0.074 A 
ATOM     40  C   UNL A   1      39.773  28.785  28.793  1.00  0.00     0.049 A 
ATOM     41  N   UNL A   1      42.570  28.744  29.897  1.00  0.00    -0.248 NA
ATOM     42  C   UNL A   1      42.841  26.599  29.015  1.00  0.00     0.031 C 
ATOM     43  C   UNL A   1      38.377  28.834  28.350  1.00  0.00     0.029 A 
ATOM     44  N   UNL A   1      39.974  30.009  29.382  1.00  0.00    -0.354 N 
ATOM     45  C   UNL A   1      43.822  28.255  30.249  1.00  0.00     0.074 A 
ATOM     46  C   UNL A   1      43.913  26.908  29.728  1.00  0.00     0.031 C 
ATOM     47  C   UNL A   1      37.855  30.031  28.664  1.00  0.00     0.029 A 
ATOM     48  C   UNL A   1      38.865  30.822  29.360  1.00  0.00     0.049 A 
ATOM     49  H   UNL A   1      40.831  30.280  29.783  1.00  0.00     0.167 HD
ATOM     50  C   UNL A   1      44.813  28.876  30.932  1.00  0.00     0.031 A 
ATOM     51  C   UNL A   1      38.678  32.063  29.851  1.00  0.00     0.031 A 
ATOM     52  C   UNL A   1      44.739  30.229  31.407  1.00  0.00     0.049 A 
ATOM     53  C   UNL A   1      39.814  32.755  30.549  1.00  0.00     0.074 A 
ATOM     54  C   UNL A   1      45.723  30.977  32.028  1.00  0.00     0.029 A 
ATOM     55  N   UNL A   1      43.620  31.041  31.306  1.00  0.00    -0.354 N 
ATOM     56  N   UNL A   1      41.018  32.302  30.805  1.00  0.00    -0.248 NA
ATOM     57  C   UNL A   1      39.572  34.127  31.015  1.00  0.00     0.031 C 
ATOM     58  C   UNL A   1      45.190  32.236  32.328  1.00  0.00     0.029 A 
ATOM     59  C   UNL A   1      43.885  32.279  31.863  1.00  0.00     0.049 A 
ATOM     60  H   UNL A   1      42.765  30.776  30.899  1.00  0.00     0.167 HD
ATOM     61  C   UNL A   1      41.682  33.340  31.447  1.00  0.00     0.074 A 
ATOM     62  C   UNL A   1      40.753  34.448  31.528  1.00  0.00     0.031 C 
ATOM     63  C   UNL A   1      42.949  33.371  31.929  1.00  0.00     0.031 A 
BRANCH  50  64
ATOM     64  C   UNL A   1      46.065  28.087  31.198  1.00  0.00    -0.014 A 
ATOM     65  C   UNL A   1      47.144  28.118  30.297  1.00  0.00     0.010 A 
ATOM     66  C   UNL A   1      46.171  27.323  32.374  1.00  0.00     0.010 A 
ATOM     67  C   UNL A   1      48.291  27.361  30.544  1.00  0.00     0.020 A 
ATOM     68  C   UNL A   1      47.328  26.583  32.635  1.00  0.00     0.020 A 
ATOM     69  C   UNL A   1      48.372  26.591  31.708  1.00  0.00     0.054 A 
BRANCH  69  70
ATOM     70  S   UNL A   1      49.876  25.625  32.014  1.00  0.00     0.124 S 
ATOM     71  O   UNL A   1      50.804  26.655  32.478  1.00  0.00    -0.237 OA
ATOM     72  O   UNL A   1      49.445  24.667  33.029  1.00  0.00    -0.237 OA
ATOM     73  O   UNL A   1      50.187  25.047  30.710  1.00  0.00    -0.744 OA
ENDBRANCH  69  70
ENDBRANCH  50  64
BRANCH  51  74
ATOM     74  C   UNL A   1      37.365  32.740  29.683  1.00  0.00    -0.014 A 
ATOM     75  C   UNL A   1      36.403  32.683  30.705  1.00  0.00     0.010 A 
ATOM     76  C   UNL A   1      37.075  33.453  28.506  1.00  0.00     0.010 A 
ATOM     77  C   UNL A   1      35.165  33.312  30.549  1.00  0.00     0.020 A 
ATOM     78  C   UNL A   1      35.845  34.100  28.354  1.00  0.00     0.020 A 
ATOM     79  C   UNL A   1      34.892  34.016  29.372  1.00  0.00     0.054 A 
BRANCH  79  80
ATOM     80  S   UNL A   1      33.300  34.871  29.206  1.00  0.00     0.124 S 
ATOM     81  O   UNL A   1      33.709  36.181  28.711  1.00  0.00    -0.237 OA
ATOM     82  O   UNL A   1      32.584  34.028  28.251  1.00  0.00    -0.237 OA
ATOM     83  O   UNL A   1      32.763  34.851  30.564  1.00  0.00    -0.744 OA
ENDBRANCH  79  80
ENDBRANCH  51  74
BRANCH  63  84
ATOM     84  C   UNL A   1      43.414  34.650  32.565  1.00  0.00    -0.014 A 
ATOM     85  C   UNL A   1      43.957  35.687  31.786  1.00  0.00     0.010 A 
ATOM     86  C   UNL A   1      43.243  34.841  33.947  1.00  0.00     0.010 A 
ATOM     87  C   UNL A   1      44.337  36.891  32.384  1.00  0.00     0.020 A 
ATOM     88  C   UNL A   1      43.603  36.051  34.545  1.00  0.00     0.020 A 
ATOM     89  C   UNL A   1      44.158  37.065  33.760  1.00  0.00     0.054 A 
BRANCH  89  90
ATOM     90  S   UNL A   1      44.601  38.658  34.508  1.00  0.00     0.124 S 
ATOM     91  O   UNL A   1      43.898  39.603  33.645  1.00  0.00    -0.237 OA
ATOM     92  O   UNL A   1      44.075  38.536  35.866  1.00  0.00    -0.237 OA
ATOM     93  O   UNL A   1      46.058  38.689  34.412  1.00  0.00    -0.744 OA
ENDBRANCH  89  90
ENDBRANCH  63  84
ENDBRANCH  37  38
ENDBRANCH  29  32
ENDBRANCH  27  28
ENDBRANCH   1  27
TORSDOF 18
ENDMDL
MODEL 3
REMARK VINA RESULT:     -10.7      6.193      8.065
REMARK SMILES CC[NH2+][C@@]1(C(=O)NCCCCNC(=O)c2ccc(-c3c4nc(c(-c5ccc(S(=O)(=O)[O-])cc5)c5ccc([nH]5)c(-c5ccc(S(=O)(=O)[O-])cc5)c5nc(c(-c6ccc(S(=O)(=O)[O-])cc6)c6ccc3[nH]6)C=C5)C=C4)cc2)CCC[C@@H](Sc2ncc(C)cn2)C1
REMARK SMILES IDX 10 1 9 2 8 3 7 4 5 5 6 6 4 8 75 9 87 10 76 11 78 12 77 13
REMARK SMILES IDX 3 14 2 17 1 18 79 19 80 20 81 21 86 22 82 23 85 24 83 25
REMARK SMILES IDX 84 26 11 27 12 28 13 29 14 31 15 32 16 33 74 34 17 35 73 36
REMARK SMILES IDX 18 37 19 38 20 39 67 40 21 41 72 42 66 43 68 44 22 45 71 46
REMARK SMILES IDX 65 47 64 48 23 50 53 51 34 52 52 53 35 54 38 55 51 56 69 57
REMARK SMILES IDX 36 58 37 59 50 61 70 62 39 63 24 64 25 65 33 66 26 67 32 68
REMARK SMILES IDX 27 69 28 70 29 71 30 72 31 73 54 74 55 75 63 76 56 77 62 78
REMARK SMILES IDX 57 79 58 80 59 81 60 82 61 83 40 84 41 85 49 86 42 87 48 88
REMARK SMILES IDX 43 89 44 90 45 91 46 92 47 93
REMARK H PARENT 7 7 3 15 3 16 12 30 68 49 38 60
REMARK Flexibility Score: inf
ROOT
ATOM      1  C   UNL A   1      37.533  23.390  25.435  1.00  0.00     0.023 C 
ENDROOT
BRANCH   1   2
ATOM      2  C   UNL A   1      37.762  21.899  25.219  1.00  0.00     0.023 C 
BRANCH   2   3
ATOM      3  C   UNL A   1      36.489  21.061  25.059  1.00  0.00     0.116 C 
BRANCH   3   4
ATOM      4  N   UNL A   1      35.606  21.210  26.190  1.00  0.00    -0.351 N 
ATOM      5  C   UNL A   1      34.380  21.735  26.393  1.00  0.00     0.281 C 
ATOM      6  O   UNL A   1      34.027  21.706  27.589  1.00  0.00    -0.268 OA
ATOM      7  H   UNL A   1      35.992  20.837  27.016  1.00  0.00     0.163 HD
BRANCH   5   8
ATOM      8  C   UNL A   1      33.392  22.413  25.327  1.00  0.00     0.176 C 
ATOM      9  C   UNL A   1      33.976  22.602  23.905  1.00  0.00     0.079 C 
ATOM     10  C   UNL A   1      32.784  23.702  25.930  1.00  0.00     0.094 C 
ATOM     11  C   UNL A   1      34.504  23.980  23.492  1.00  0.00     0.008 C 
ATOM     12  C   UNL A   1      33.597  24.958  25.636  1.00  0.00     0.061 C 
ATOM     13  C   UNL A   1      33.793  25.164  24.136  1.00  0.00     0.015 C 
BRANCH   8  14
ATOM     14  N   UNL A   1      32.366  21.311  25.131  1.00  0.00    -0.334 N 
ATOM     15  H   UNL A   1      32.281  20.817  26.020  1.00  0.00     0.347 HD
ATOM     16  H   UNL A   1      31.533  21.801  24.805  1.00  0.00     0.347 HD
BRANCH  14  17
ATOM     17  C   UNL A   1      32.608  20.306  24.106  1.00  0.00     0.257 C 
ATOM     18  C   UNL A   1      32.858  18.958  24.768  1.00  0.00     0.071 C 
ENDBRANCH  14  17
ENDBRANCH   8  14
BRANCH  12  19
ATOM     19  S   UNL A   1      32.965  26.427  26.536  1.00  0.00    -0.083 SA
BRANCH  19  20
ATOM     20  C   UNL A   1      32.107  27.269  25.242  1.00  0.00     0.187 A 
ATOM     21  N   UNL A   1      30.841  26.908  24.984  1.00  0.00    -0.231 NA
ATOM     22  N   UNL A   1      32.799  28.199  24.564  1.00  0.00    -0.231 NA
ATOM     23  C   UNL A   1      30.243  27.533  23.954  1.00  0.00     0.119 A 
ATOM     24  C   UNL A   1      32.153  28.796  23.548  1.00  0.00     0.119 A 
ATOM     25  C   UNL A   1      30.859  28.493  23.180  1.00  0.00    -0.014 A 
ATOM     26  C   UNL A   1      30.181  29.174  22.044  1.00  0.00     0.048 C 
ENDBRANCH  19  20
ENDBRANCH  12  19
ENDBRANCH   5   8
ENDBRANCH   3   4
ENDBRANCH   2   3
ENDBRANCH   1   2
BRANCH   1  27
ATOM     27  C   UNL A   1      38.421  24.031  26.494  1.00  0.00     0.116 C 
BRANCH  27  28
ATOM     28  N   UNL A   1      39.849  23.786  26.320  1.00  0.00    -0.352 N 
ATOM     29  C   UNL A   1      40.896  24.541  26.805  1.00  0.00     0.251 C 
ATOM     30  H   UNL A   1      40.092  22.988  25.797  1.00  0.00     0.163 HD
ATOM     31  O   UNL A   1      42.057  24.246  26.562  1.00  0.00    -0.269 OA
BRANCH  29  32
ATOM     32  C   UNL A   1      40.569  25.756  27.578  1.00  0.00     0.039 A 
ATOM     33  C   UNL A   1      39.566  25.684  28.547  1.00  0.00     0.014 A 
ATOM     34  C   UNL A   1      41.364  26.895  27.450  1.00  0.00     0.014 A 
ATOM     35  C   UNL A   1      39.432  26.724  29.467  1.00  0.00     0.010 A 
ATOM     36  C   UNL A   1      41.279  27.893  28.415  1.00  0.00     0.010 A 
ATOM     37  C   UNL A   1      40.328  27.806  29.445  1.00  0.00    -0.014 A 
BRANCH  37  38
ATOM     38  C   UNL A   1      40.325  28.838  30.510  1.00  0.00     0.031 A 
ATOM     39  C   UNL A   1      41.241  28.699  31.693  1.00  0.00     0.074 A 
ATOM     40  C   UNL A   1      39.419  29.837  30.469  1.00  0.00     0.049 A 
ATOM     41  N   UNL A   1      41.298  29.423  32.779  1.00  0.00    -0.248 NA
ATOM     42  C   UNL A   1      42.190  27.574  31.667  1.00  0.00     0.031 C 
ATOM     43  C   UNL A   1      38.424  30.043  29.411  1.00  0.00     0.029 A 
ATOM     44  N   UNL A   1      39.175  30.859  31.353  1.00  0.00    -0.354 N 
ATOM     45  C   UNL A   1      42.258  28.820  33.582  1.00  0.00     0.074 A 
ATOM     46  C   UNL A   1      42.733  27.652  32.872  1.00  0.00     0.031 C 
ATOM     47  C   UNL A   1      37.694  31.134  29.698  1.00  0.00     0.029 A 
ATOM     48  C   UNL A   1      38.142  31.685  30.973  1.00  0.00     0.049 A 
ATOM     49  H   UNL A   1      39.691  30.989  32.181  1.00  0.00     0.167 HD
ATOM     50  C   UNL A   1      42.714  29.210  34.796  1.00  0.00     0.031 A 
ATOM     51  C   UNL A   1      37.610  32.760  31.586  1.00  0.00     0.031 A 
ATOM     52  C   UNL A   1      42.275  30.395  35.480  1.00  0.00     0.049 A 
ATOM     53  C   UNL A   1      38.177  33.211  32.902  1.00  0.00     0.074 A 
ATOM     54  C   UNL A   1      42.743  30.925  36.669  1.00  0.00     0.029 A 
ATOM     55  N   UNL A   1      41.274  31.240  35.029  1.00  0.00    -0.354 N 
ATOM     56  N   UNL A   1      39.139  32.669  33.610  1.00  0.00    -0.248 NA
ATOM     57  C   UNL A   1      37.595  34.421  33.497  1.00  0.00     0.031 C 
ATOM     58  C   UNL A   1      42.003  32.078  36.953  1.00  0.00     0.029 A 
ATOM     59  C   UNL A   1      41.099  32.282  35.923  1.00  0.00     0.049 A 
ATOM     60  H   UNL A   1      40.761  31.118  34.198  1.00  0.00     0.167 HD
ATOM     61  C   UNL A   1      39.289  33.483  34.726  1.00  0.00     0.074 A 
ATOM     62  C   UNL A   1      38.330  34.560  34.593  1.00  0.00     0.031 C 
ATOM     63  C   UNL A   1      40.143  33.348  35.769  1.00  0.00     0.031 A 
BRANCH  50  64
ATOM     64  C   UNL A   1      43.748  28.340  35.456  1.00  0.00    -0.014 A 
ATOM     65  C   UNL A   1      45.094  28.383  35.051  1.00  0.00     0.010 A 
ATOM     66  C   UNL A   1      43.372  27.487  36.508  1.00  0.00     0.010 A 
ATOM     67  C   UNL A   1      46.039  27.551  35.656  1.00  0.00     0.020 A 
ATOM     68  C   UNL A   1      44.321  26.671  37.131  1.00  0.00     0.020 A 
ATOM     69  C   UNL A   1      45.645  26.694  36.686  1.00  0.00     0.054 A 
BRANCH  69  70
ATOM     70  S   UNL A   1      46.891  25.632  37.465  1.00  0.00     0.124 S 
ATOM     71  O   UNL A   1      47.324  26.456  38.592  1.00  0.00    -0.237 OA
ATOM     72  O   UNL A   1      46.125  24.439  37.818  1.00  0.00    -0.237 OA
ATOM     73  O   UNL A   1      47.887  25.440  36.414  1.00  0.00    -0.744 OA
ENDBRANCH  69  70
ENDBRANCH  50  64
BRANCH  51  74
ATOM     74  C   UNL A   1      36.487  33.499  30.949  1.00  0.00    -0.014 A 
ATOM     75  C   UNL A   1      35.340  33.821  31.694  1.00  0.00     0.010 A 
ATOM     76  C   UNL A   1      36.564  33.893  29.602  1.00  0.00     0.010 A 
ATOM     77  C   UNL A   1      34.279  34.509  31.099  1.00  0.00     0.020 A 
ATOM     78  C   UNL A   1      35.513  34.598  29.008  1.00  0.00     0.020 A 
ATOM     79  C   UNL A   1      34.371  34.892  29.758  1.00  0.00     0.054 A 
BRANCH  79  80
ATOM     80  S   UNL A   1      33.007  35.830  29.013  1.00  0.00     0.124 S 
ATOM     81  O   UNL A   1      33.718  36.891  28.308  1.00  0.00    -0.237 OA
ATOM     82  O   UNL A   1      32.358  34.831  28.167  1.00  0.00    -0.237 OA
ATOM     83  O   UNL A   1      32.222  36.259  30.169  1.00  0.00    -0.744 OA
ENDBRANCH  79  80
ENDBRANCH  51  74
BRANCH  63  84
ATOM     84  C   UNL A   1      40.099  34.402  36.839  1.00  0.00    -0.014 A 
ATOM     85  C   UNL A   1      40.910  35.549  36.755  1.00  0.00     0.010 A 
ATOM     86  C   UNL A   1      39.188  34.276  37.902  1.00  0.00     0.010 A 
ATOM     87  C   UNL A   1      40.820  36.546  37.729  1.00  0.00     0.020 A 
ATOM     88  C   UNL A   1      39.083  35.280  38.867  1.00  0.00     0.020 A 
ATOM     89  C   UNL A   1      39.907  36.404  38.780  1.00  0.00     0.054 A 
BRANCH  89  90
ATOM     90  S   UNL A   1      39.762  37.739  40.001  1.00  0.00     0.124 S 
ATOM     91  O   UNL A   1      40.962  38.525  39.734  1.00  0.00    -0.237 OA
ATOM     92  O   UNL A   1      38.499  38.377  39.636  1.00  0.00    -0.237 OA
ATOM     93  O   UNL A   1      39.748  37.034  41.280  1.00  0.00    -0.744 OA
ENDBRANCH  89  90
ENDBRANCH  63  84
ENDBRANCH  37  38
ENDBRANCH  29  32
ENDBRANCH  27  28
ENDBRANCH   1  27
TORSDOF 18
ENDMDL
