MODEL 1
REMARK VINA RESULT:     -11.7      0.000      0.000
REMARK SMILES CC[NH+]1CCN(c2ccc(NC(=O)C3CCCC3)c(C(=O)NCCCCNC(=O)c3ccc(-c4c5nc(c(-c6ccc(S(=O)(=O)[O-])cc6)c6ccc([nH]6)c(-c6ccc(S(=O)(=O)[O-])cc6)c6nc(c(-c7ccc(S(=O)(=O)[O-])cc7)c7ccc4[nH]7)C=C6)C=C5)cc3)c2)CC1
REMARK SMILES IDX 25 1 24 2 23 3 22 4 20 5 21 6 19 8 7 9 8 10 90 11 9 12 10 13
REMARK SMILES IDX 6 14 3 15 4 16 92 17 5 19 91 20 2 21 1 22 11 23 12 24 13 26
REMARK SMILES IDX 14 27 15 28 18 29 16 30 17 31 26 32 27 33 28 34 29 36 30 37
REMARK SMILES IDX 31 38 89 39 32 40 88 41 33 42 34 43 35 44 82 45 36 46 87 47
REMARK SMILES IDX 81 48 83 49 37 50 86 51 80 52 79 53 38 55 68 56 49 57 67 58
REMARK SMILES IDX 50 59 53 60 66 61 84 62 51 63 52 64 65 66 85 67 54 68 39 69
REMARK SMILES IDX 40 70 48 71 41 72 47 73 42 74 43 75 44 76 45 77 46 78 69 79
REMARK SMILES IDX 70 80 78 81 71 82 77 83 72 84 73 85 74 86 75 87 76 88 55 89
REMARK SMILES IDX 56 90 64 91 57 92 63 93 58 94 59 95 60 96 61 97 62 98
REMARK H PARENT 22 7 3 18 11 25 27 35 83 54 53 65
REMARK Flexibility Score: inf
ROOT
ATOM      1  C   UNL A   1      35.738  22.965  24.763  1.00  0.00     0.023 C 
ENDROOT
BRANCH   1   2
ATOM      2  C   UNL A   1      34.616  23.818  25.329  1.00  0.00     0.023 C 
BRANCH   2   3
ATOM      3  C   UNL A   1      34.037  23.395  26.671  1.00  0.00     0.116 C 
BRANCH   3   4
ATOM      4  N   UNL A   1      32.689  23.870  26.981  1.00  0.00    -0.352 N 
ATOM      5  C   UNL A   1      31.464  23.575  26.395  1.00  0.00     0.253 C 
ATOM      6  O   UNL A   1      30.436  24.077  26.846  1.00  0.00    -0.269 OA
ATOM      7  H   UNL A   1      32.641  24.505  27.733  1.00  0.00     0.163 HD
BRANCH   5   8
ATOM      8  C   UNL A   1      31.387  22.750  25.154  1.00  0.00     0.065 A 
ATOM      9  C   UNL A   1      32.251  20.711  24.155  1.00  0.00     0.038 A 
ATOM     10  C   UNL A   1      32.252  21.388  22.935  1.00  0.00     0.028 A 
ATOM     11  C   UNL A   1      31.689  21.387  25.235  1.00  0.00     0.042 A 
ATOM     12  C   UNL A   1      31.712  22.670  22.807  1.00  0.00     0.029 A 
ATOM     13  C   UNL A   1      31.187  23.338  23.897  1.00  0.00     0.054 A 
BRANCH   9  14
ATOM     14  N   UNL A   1      32.925  19.518  24.333  1.00  0.00    -0.360 N 
ATOM     15  N   UNL A   1      34.533  17.054  24.146  1.00  0.00    -0.332 N 
ATOM     16  C   UNL A   1      33.297  17.243  23.380  1.00  0.00     0.283 C 
ATOM     17  C   UNL A   1      35.134  18.353  24.479  1.00  0.00     0.283 C 
ATOM     18  H   UNL A   1      35.199  16.579  23.536  1.00  0.00     0.348 HD
ATOM     19  C   UNL A   1      32.283  18.252  23.950  1.00  0.00     0.178 C 
ATOM     20  C   UNL A   1      34.191  19.424  25.077  1.00  0.00     0.178 C 
BRANCH  15  21
ATOM     21  C   UNL A   1      34.447  16.089  25.238  1.00  0.00     0.258 C 
ATOM     22  C   UNL A   1      33.254  15.146  25.299  1.00  0.00     0.071 C 
ENDBRANCH  15  21
ENDBRANCH   9  14
BRANCH  13  23
ATOM     23  N   UNL A   1      30.490  24.552  23.772  1.00  0.00    -0.325 N 
ATOM     24  C   UNL A   1      30.867  25.857  23.680  1.00  0.00     0.227 C 
ATOM     25  H   UNL A   1      29.513  24.432  23.745  1.00  0.00     0.169 HD
ATOM     26  O   UNL A   1      29.948  26.691  23.647  1.00  0.00    -0.274 OA
BRANCH  24  27
ATOM     27  C   UNL A   1      32.301  26.401  23.599  1.00  0.00     0.079 C 
ATOM     28  C   UNL A   1      32.722  26.806  22.188  1.00  0.00     0.013 C 
ATOM     29  C   UNL A   1      32.798  27.499  24.550  1.00  0.00     0.013 C 
ATOM     30  C   UNL A   1      33.876  27.777  22.393  1.00  0.00     0.001 C 
ATOM     31  C   UNL A   1      33.546  28.514  23.681  1.00  0.00     0.001 C 
ENDBRANCH  24  27
ENDBRANCH  13  23
ENDBRANCH   5   8
ENDBRANCH   3   4
ENDBRANCH   2   3
ENDBRANCH   1   2
BRANCH   1  32
ATOM     32  C   UNL A   1      37.139  23.562  24.828  1.00  0.00     0.116 C 
BRANCH  32  33
ATOM     33  N   UNL A   1      38.166  22.640  25.295  1.00  0.00    -0.352 N 
ATOM     34  C   UNL A   1      39.209  22.862  26.167  1.00  0.00     0.251 C 
ATOM     35  H   UNL A   1      38.105  21.725  24.936  1.00  0.00     0.163 HD
ATOM     36  O   UNL A   1      40.007  21.961  26.412  1.00  0.00    -0.269 OA
BRANCH  34  37
ATOM     37  C   UNL A   1      39.396  24.203  26.766  1.00  0.00     0.039 A 
ATOM     38  C   UNL A   1      38.886  24.446  28.044  1.00  0.00     0.014 A 
ATOM     39  C   UNL A   1      40.121  25.192  26.099  1.00  0.00     0.014 A 
ATOM     40  C   UNL A   1      39.194  25.644  28.695  1.00  0.00     0.010 A 
ATOM     41  C   UNL A   1      40.497  26.347  26.781  1.00  0.00     0.010 A 
ATOM     42  C   UNL A   1      40.048  26.579  28.090  1.00  0.00    -0.014 A 
BRANCH  42  43
ATOM     43  C   UNL A   1      40.511  27.793  28.813  1.00  0.00     0.031 A 
ATOM     44  C   UNL A   1      41.860  27.809  29.480  1.00  0.00     0.074 A 
ATOM     45  C   UNL A   1      39.680  28.847  28.951  1.00  0.00     0.049 A 
ATOM     46  N   UNL A   1      42.396  28.735  30.233  1.00  0.00    -0.248 NA
ATOM     47  C   UNL A   1      42.704  26.617  29.300  1.00  0.00     0.031 C 
ATOM     48  C   UNL A   1      38.325  28.937  28.401  1.00  0.00     0.029 A 
ATOM     49  N   UNL A   1      39.847  30.040  29.611  1.00  0.00    -0.354 N 
ATOM     50  C   UNL A   1      43.625  28.227  30.639  1.00  0.00     0.074 A 
ATOM     51  C   UNL A   1      43.735  26.896  30.084  1.00  0.00     0.031 C 
ATOM     52  C   UNL A   1      37.794  30.127  28.728  1.00  0.00     0.029 A 
ATOM     53  C   UNL A   1      38.751  30.867  29.545  1.00  0.00     0.049 A 
ATOM     54  H   UNL A   1      40.675  30.279  30.088  1.00  0.00     0.167 HD
ATOM     55  C   UNL A   1      44.583  28.820  31.391  1.00  0.00     0.031 A 
ATOM     56  C   UNL A   1      38.531  32.081  30.088  1.00  0.00     0.031 A 
ATOM     57  C   UNL A   1      44.480  30.152  31.925  1.00  0.00     0.049 A 
ATOM     58  C   UNL A   1      39.612  32.724  30.912  1.00  0.00     0.074 A 
ATOM     59  C   UNL A   1      45.428  30.869  32.635  1.00  0.00     0.029 A 
ATOM     60  N   UNL A   1      43.364  30.966  31.813  1.00  0.00    -0.354 N 
ATOM     61  N   UNL A   1      40.799  32.257  31.219  1.00  0.00    -0.248 NA
ATOM     62  C   UNL A   1      39.329  34.060  31.454  1.00  0.00     0.031 C 
ATOM     63  C   UNL A   1      44.867  32.098  32.994  1.00  0.00     0.029 A 
ATOM     64  C   UNL A   1      43.589  32.168  32.462  1.00  0.00     0.049 A 
ATOM     65  H   UNL A   1      42.535  30.725  31.341  1.00  0.00     0.167 HD
ATOM     66  C   UNL A   1      41.410  33.250  31.977  1.00  0.00     0.074 A 
ATOM     67  C   UNL A   1      40.471  34.349  32.065  1.00  0.00     0.031 C 
ATOM     68  C   UNL A   1      42.640  33.250  32.548  1.00  0.00     0.031 A 
BRANCH  55  69
ATOM     69  C   UNL A   1      45.826  28.023  31.684  1.00  0.00    -0.014 A 
ATOM     70  C   UNL A   1      45.920  27.219  32.834  1.00  0.00     0.010 A 
ATOM     71  C   UNL A   1      46.907  28.058  30.784  1.00  0.00     0.010 A 
ATOM     72  C   UNL A   1      47.089  26.505  33.105  1.00  0.00     0.020 A 
ATOM     73  C   UNL A   1      48.069  27.323  31.037  1.00  0.00     0.020 A 
ATOM     74  C   UNL A   1      48.160  26.567  32.207  1.00  0.00     0.054 A 
BRANCH  74  75
ATOM     75  S   UNL A   1      49.663  25.622  32.579  1.00  0.00     0.124 S 
ATOM     76  O   UNL A   1      50.572  26.672  33.033  1.00  0.00    -0.237 OA
ATOM     77  O   UNL A   1      49.212  24.693  33.611  1.00  0.00    -0.237 OA
ATOM     78  O   UNL A   1      50.011  25.007  31.300  1.00  0.00    -0.744 OA
ENDBRANCH  74  75
ENDBRANCH  55  69
BRANCH  56  79
ATOM     79  C   UNL A   1      37.233  32.770  29.859  1.00  0.00    -0.014 A 
ATOM     80  C   UNL A   1      36.206  32.694  30.817  1.00  0.00     0.010 A 
ATOM     81  C   UNL A   1      37.023  33.528  28.692  1.00  0.00     0.010 A 
ATOM     82  C   UNL A   1      34.992  33.354  30.608  1.00  0.00     0.020 A 
ATOM     83  C   UNL A   1      35.819  34.210  28.491  1.00  0.00     0.020 A 
ATOM     84  C   UNL A   1      34.807  34.111  29.448  1.00  0.00     0.054 A 
BRANCH  84  85
ATOM     85  S   UNL A   1      33.248  35.015  29.231  1.00  0.00     0.124 S 
ATOM     86  O   UNL A   1      32.699  35.001  30.583  1.00  0.00    -0.237 OA
ATOM     87  O   UNL A   1      33.702  36.316  28.745  1.00  0.00    -0.237 OA
ATOM     88  O   UNL A   1      32.522  34.211  28.250  1.00  0.00    -0.744 OA
ENDBRANCH  84  85
ENDBRANCH  56  79
BRANCH  68  89
ATOM     89  C   UNL A   1      43.050  34.483  33.308  1.00  0.00    -0.014 A 
ATOM     90  C   UNL A   1      42.835  34.587  34.692  1.00  0.00     0.010 A 
ATOM     91  C   UNL A   1      43.712  35.526  32.634  1.00  0.00     0.010 A 
ATOM     92  C   UNL A   1      43.252  35.727  35.388  1.00  0.00     0.020 A 
ATOM     93  C   UNL A   1      44.153  36.654  33.330  1.00  0.00     0.020 A 
ATOM     94  C   UNL A   1      43.909  36.752  34.701  1.00  0.00     0.054 A 
BRANCH  94  95
ATOM     95  S   UNL A   1      44.483  38.198  35.633  1.00  0.00     0.124 S 
ATOM     96  O   UNL A   1      45.934  38.031  35.591  1.00  0.00    -0.237 OA
ATOM     97  O   UNL A   1      43.956  39.315  34.852  1.00  0.00    -0.237 OA
ATOM     98  O   UNL A   1      43.874  38.026  36.950  1.00  0.00    -0.744 OA
ENDBRANCH  94  95
ENDBRANCH  68  89
ENDBRANCH  42  43
ENDBRANCH  34  37
ENDBRANCH  32  33
ENDBRANCH   1  32
TORSDOF 18
ENDMDL
MODEL 2
REMARK VINA RESULT:     -10.9      2.844      3.423
REMARK SMILES CC[NH+]1CCN(c2ccc(NC(=O)C3CCCC3)c(C(=O)NCCCCNC(=O)c3ccc(-c4c5nc(c(-c6ccc(S(=O)(=O)[O-])cc6)c6ccc([nH]6)c(-c6ccc(S(=O)(=O)[O-])cc6)c6nc(c(-c7ccc(S(=O)(=O)[O-])cc7)c7ccc4[nH]7)C=C6)C=C5)cc3)c2)CC1
REMARK SMILES IDX 25 1 24 2 23 3 22 4 20 5 21 6 19 8 7 9 8 10 90 11 9 12 10 13
REMARK SMILES IDX 6 14 3 15 4 16 92 17 5 19 91 20 2 21 1 22 11 23 12 24 13 26
REMARK SMILES IDX 14 27 15 28 18 29 16 30 17 31 26 32 27 33 28 34 29 36 30 37
REMARK SMILES IDX 31 38 89 39 32 40 88 41 33 42 34 43 35 44 82 45 36 46 87 47
REMARK SMILES IDX 81 48 83 49 37 50 86 51 80 52 79 53 38 55 68 56 49 57 67 58
REMARK SMILES IDX 50 59 53 60 66 61 84 62 51 63 52 64 65 66 85 67 54 68 39 69
REMARK SMILES IDX 40 70 48 71 41 72 47 73 42 74 43 75 44 76 45 77 46 78 69 79
REMARK SMILES IDX 70 80 78 81 71 82 77 83 72 84 73 85 74 86 75 87 76 88 55 89
REMARK SMILES IDX 56 90 64 91 57 92 63 93 58 94 59 95 60 96 61 97 62 98
REMARK H PARENT 22 7 3 18 11 25 27 35 83 54 53 65
REMARK Flexibility Score: inf
ROOT
ATOM      1  C   UNL A   1      37.412  23.669  25.914  1.00  0.00     0.023 C 
ENDROOT
BRANCH   1   2
ATOM      2  C   UNL A   1      36.100  24.381  26.195  1.00  0.00     0.023 C 
BRANCH   2   3
ATOM      3  C   UNL A   1      34.820  23.623  25.875  1.00  0.00     0.116 C 
BRANCH   3   4
ATOM      4  N   UNL A   1      33.606  24.069  26.559  1.00  0.00    -0.352 N 
ATOM      5  C   UNL A   1      32.279  23.696  26.387  1.00  0.00     0.253 C 
ATOM      6  O   UNL A   1      31.410  24.188  27.105  1.00  0.00    -0.269 OA
ATOM      7  H   UNL A   1      33.755  24.746  27.258  1.00  0.00     0.163 HD
BRANCH   5   8
ATOM      8  C   UNL A   1      31.873  22.796  25.267  1.00  0.00     0.065 A 
ATOM      9  C   UNL A   1      32.386  20.645  24.261  1.00  0.00     0.038 A 
ATOM     10  C   UNL A   1      32.127  21.238  23.024  1.00  0.00     0.028 A 
ATOM     11  C   UNL A   1      32.126  21.425  25.385  1.00  0.00     0.042 A 
ATOM     12  C   UNL A   1      31.629  22.538  22.923  1.00  0.00     0.029 A 
ATOM     13  C   UNL A   1      31.408  23.309  24.049  1.00  0.00     0.054 A 
BRANCH   9  14
ATOM     14  N   UNL A   1      33.030  19.428  24.372  1.00  0.00    -0.360 N 
ATOM     15  N   UNL A   1      34.533  16.914  24.030  1.00  0.00    -0.332 N 
ATOM     16  C   UNL A   1      33.248  17.155  23.366  1.00  0.00     0.283 C 
ATOM     17  C   UNL A   1      35.203  18.187  24.329  1.00  0.00     0.283 C 
ATOM     18  H   UNL A   1      35.133  16.426  23.363  1.00  0.00     0.348 HD
ATOM     19  C   UNL A   1      32.317  18.190  24.025  1.00  0.00     0.178 C 
ATOM     20  C   UNL A   1      34.347  19.281  25.013  1.00  0.00     0.178 C 
BRANCH  15  21
ATOM     21  C   UNL A   1      34.499  15.937  25.113  1.00  0.00     0.258 C 
ATOM     22  C   UNL A   1      33.209  15.175  25.382  1.00  0.00     0.071 C 
ENDBRANCH  15  21
ENDBRANCH   9  14
BRANCH  13  23
ATOM     23  N   UNL A   1      30.754  24.552  23.994  1.00  0.00    -0.325 N 
ATOM     24  C   UNL A   1      31.174  25.838  23.830  1.00  0.00     0.227 C 
ATOM     25  H   UNL A   1      29.777  24.477  24.096  1.00  0.00     0.169 HD
ATOM     26  O   UNL A   1      30.296  26.712  23.901  1.00  0.00    -0.274 OA
BRANCH  24  27
ATOM     27  C   UNL A   1      32.607  26.314  23.553  1.00  0.00     0.079 C 
ATOM     28  C   UNL A   1      32.787  26.941  22.173  1.00  0.00     0.013 C 
ATOM     29  C   UNL A   1      33.366  27.198  24.552  1.00  0.00     0.013 C 
ATOM     30  C   UNL A   1      34.037  27.800  22.299  1.00  0.00     0.001 C 
ATOM     31  C   UNL A   1      34.020  28.312  23.730  1.00  0.00     0.001 C 
ENDBRANCH  24  27
ENDBRANCH  13  23
ENDBRANCH   5   8
ENDBRANCH   3   4
ENDBRANCH   2   3
ENDBRANCH   1   2
BRANCH   1  32
ATOM     32  C   UNL A   1      38.609  24.103  26.752  1.00  0.00     0.116 C 
BRANCH  32  33
ATOM     33  N   UNL A   1      39.852  24.237  26.003  1.00  0.00    -0.352 N 
ATOM     34  C   UNL A   1      40.974  24.979  26.297  1.00  0.00     0.251 C 
ATOM     35  H   UNL A   1      39.895  23.723  25.165  1.00  0.00     0.163 HD
ATOM     36  O   UNL A   1      41.920  24.998  25.514  1.00  0.00    -0.269 OA
BRANCH  34  37
ATOM     37  C   UNL A   1      41.017  25.793  27.533  1.00  0.00     0.039 A 
ATOM     38  C   UNL A   1      42.050  26.719  27.693  1.00  0.00     0.014 A 
ATOM     39  C   UNL A   1      40.015  25.686  28.498  1.00  0.00     0.014 A 
ATOM     40  C   UNL A   1      42.020  27.611  28.769  1.00  0.00     0.010 A 
ATOM     41  C   UNL A   1      39.939  26.629  29.519  1.00  0.00     0.010 A 
ATOM     42  C   UNL A   1      40.934  27.610  29.658  1.00  0.00    -0.014 A 
BRANCH  42  43
ATOM     43  C   UNL A   1      40.799  28.639  30.723  1.00  0.00     0.031 A 
ATOM     44  C   UNL A   1      41.645  28.559  31.964  1.00  0.00     0.074 A 
ATOM     45  C   UNL A   1      39.849  29.590  30.617  1.00  0.00     0.049 A 
ATOM     46  N   UNL A   1      41.606  29.305  33.038  1.00  0.00    -0.248 NA
ATOM     47  C   UNL A   1      42.649  27.484  32.016  1.00  0.00     0.031 C 
ATOM     48  C   UNL A   1      38.924  29.745  29.491  1.00  0.00     0.029 A 
ATOM     49  N   UNL A   1      39.491  30.600  31.477  1.00  0.00    -0.354 N 
ATOM     50  C   UNL A   1      42.555  28.772  33.903  1.00  0.00     0.074 A 
ATOM     51  C   UNL A   1      43.124  27.617  33.246  1.00  0.00     0.031 C 
ATOM     52  C   UNL A   1      38.122  30.798  29.720  1.00  0.00     0.029 A 
ATOM     53  C   UNL A   1      38.444  31.368  31.024  1.00  0.00     0.049 A 
ATOM     54  H   UNL A   1      39.942  30.758  32.338  1.00  0.00     0.167 HD
ATOM     55  C   UNL A   1      42.932  29.215  35.127  1.00  0.00     0.031 A 
ATOM     56  C   UNL A   1      37.805  32.407  31.596  1.00  0.00     0.031 A 
ATOM     57  C   UNL A   1      42.380  30.376  35.771  1.00  0.00     0.049 A 
ATOM     58  C   UNL A   1      38.247  32.887  32.951  1.00  0.00     0.074 A 
ATOM     59  C   UNL A   1      42.749  30.948  36.976  1.00  0.00     0.029 A 
ATOM     60  N   UNL A   1      41.339  31.142  35.267  1.00  0.00    -0.354 N 
ATOM     61  N   UNL A   1      39.201  32.416  33.719  1.00  0.00    -0.248 NA
ATOM     62  C   UNL A   1      37.533  34.043  33.512  1.00  0.00     0.031 C 
ATOM     63  C   UNL A   1      41.899  32.031  37.224  1.00  0.00     0.029 A 
ATOM     64  C   UNL A   1      41.036  32.165  36.148  1.00  0.00     0.049 A 
ATOM     65  H   UNL A   1      40.884  30.981  34.410  1.00  0.00     0.167 HD
ATOM     66  C   UNL A   1      39.212  33.229  34.847  1.00  0.00     0.074 A 
ATOM     67  C   UNL A   1      38.185  34.232  34.653  1.00  0.00     0.031 C 
ATOM     68  C   UNL A   1      40.004  33.151  35.945  1.00  0.00     0.031 A 
BRANCH  55  69
ATOM     69  C   UNL A   1      43.994  28.429  35.850  1.00  0.00    -0.014 A 
ATOM     70  C   UNL A   1      43.653  27.387  36.731  1.00  0.00     0.010 A 
ATOM     71  C   UNL A   1      45.352  28.721  35.628  1.00  0.00     0.010 A 
ATOM     72  C   UNL A   1      44.648  26.684  37.414  1.00  0.00     0.020 A 
ATOM     73  C   UNL A   1      46.352  28.001  36.288  1.00  0.00     0.020 A 
ATOM     74  C   UNL A   1      45.992  27.000  37.193  1.00  0.00     0.054 A 
BRANCH  74  75
ATOM     75  S   UNL A   1      47.265  26.065  38.087  1.00  0.00     0.124 S 
ATOM     76  O   UNL A   1      48.475  26.812  37.754  1.00  0.00    -0.237 OA
ATOM     77  O   UNL A   1      46.824  26.170  39.475  1.00  0.00    -0.237 OA
ATOM     78  O   UNL A   1      47.180  24.726  37.509  1.00  0.00    -0.744 OA
ENDBRANCH  74  75
ENDBRANCH  55  69
BRANCH  56  79
ATOM     79  C   UNL A   1      36.683  33.071  30.879  1.00  0.00    -0.014 A 
ATOM     80  C   UNL A   1      35.355  32.886  31.306  1.00  0.00     0.010 A 
ATOM     81  C   UNL A   1      36.936  33.911  29.779  1.00  0.00     0.010 A 
ATOM     82  C   UNL A   1      34.302  33.521  30.642  1.00  0.00     0.020 A 
ATOM     83  C   UNL A   1      35.887  34.568  29.128  1.00  0.00     0.020 A 
ATOM     84  C   UNL A   1      34.575  34.361  29.559  1.00  0.00     0.054 A 
BRANCH  84  85
ATOM     85  S   UNL A   1      33.198  35.229  28.755  1.00  0.00     0.124 S 
ATOM     86  O   UNL A   1      32.463  35.756  29.900  1.00  0.00    -0.237 OA
ATOM     87  O   UNL A   1      33.886  36.221  27.933  1.00  0.00    -0.237 OA
ATOM     88  O   UNL A   1      32.520  34.173  28.006  1.00  0.00    -0.744 OA
ENDBRANCH  84  85
ENDBRANCH  56  79
BRANCH  68  89
ATOM     89  C   UNL A   1      39.803  34.188  37.018  1.00  0.00    -0.014 A 
ATOM     90  C   UNL A   1      39.098  33.885  38.195  1.00  0.00     0.010 A 
ATOM     91  C   UNL A   1      40.378  35.463  36.868  1.00  0.00     0.010 A 
ATOM     92  C   UNL A   1      38.949  34.850  39.196  1.00  0.00     0.020 A 
ATOM     93  C   UNL A   1      40.254  36.421  37.877  1.00  0.00     0.020 A 
ATOM     94  C   UNL A   1      39.529  36.112  39.030  1.00  0.00     0.054 A 
BRANCH  94  95
ATOM     95  S   UNL A   1      39.364  37.331  40.363  1.00  0.00     0.124 S 
ATOM     96  O   UNL A   1      38.788  38.475  39.660  1.00  0.00    -0.237 OA
ATOM     97  O   UNL A   1      38.472  36.659  41.305  1.00  0.00    -0.237 OA
ATOM     98  O   UNL A   1      40.734  37.515  40.836  1.00  0.00    -0.744 OA
ENDBRANCH  94  95
ENDBRANCH  68  89
ENDBRANCH  42  43
ENDBRANCH  34  37
ENDBRANCH  32  33
ENDBRANCH   1  32
TORSDOF 18
ENDMDL
MODEL 3
REMARK VINA RESULT:     -10.9      3.240      5.751
REMARK SMILES CC[NH+]1CCN(c2ccc(NC(=O)C3CCCC3)c(C(=O)NCCCCNC(=O)c3ccc(-c4c5nc(c(-c6ccc(S(=O)(=O)[O-])cc6)c6ccc([nH]6)c(-c6ccc(S(=O)(=O)[O-])cc6)c6nc(c(-c7ccc(S(=O)(=O)[O-])cc7)c7ccc4[nH]7)C=C6)C=C5)cc3)c2)CC1
REMARK SMILES IDX 25 1 24 2 23 3 22 4 20 5 21 6 19 8 7 9 8 10 90 11 9 12 10 13
REMARK SMILES IDX 6 14 3 15 4 16 92 17 5 19 91 20 2 21 1 22 11 23 12 24 13 26
REMARK SMILES IDX 14 27 15 28 18 29 16 30 17 31 26 32 27 33 28 34 29 36 30 37
REMARK SMILES IDX 31 38 89 39 32 40 88 41 33 42 34 43 35 44 82 45 36 46 87 47
REMARK SMILES IDX 81 48 83 49 37 50 86 51 80 52 79 53 38 55 68 56 49 57 67 58
REMARK SMILES IDX 50 59 53 60 66 61 84 62 51 63 52 64 65 66 85 67 54 68 39 69
REMARK SMILES IDX 40 70 48 71 41 72 47 73 42 74 43 75 44 76 45 77 46 78 69 79
REMARK SMILES IDX 70 80 78 81 71 82 77 83 72 84 73 85 74 86 75 87 76 88 55 89
REMARK SMILES IDX 56 90 64 91 57 92 63 93 58 94 59 95 60 96 61 97 62 98
REMARK H PARENT 22 7 3 18 11 25 27 35 83 54 53 65
REMARK Flexibility Score: inf
ROOT
ATOM      1  C   UNL A   1      39.572  22.924  26.838  1.00  0.00     0.023 C 
ENDROOT
BRANCH   1   2
ATOM      2  C   UNL A   1      38.638  24.101  26.619  1.00  0.00     0.023 C 
BRANCH   2   3
ATOM      3  C   UNL A   1      37.357  23.830  25.844  1.00  0.00     0.116 C 
BRANCH   3   4
ATOM      4  N   UNL A   1      37.504  23.518  24.423  1.00  0.00    -0.352 N 
ATOM      5  C   UNL A   1      36.560  23.147  23.472  1.00  0.00     0.253 C 
ATOM      6  O   UNL A   1      36.909  22.958  22.309  1.00  0.00    -0.269 OA
ATOM      7  H   UNL A   1      38.426  23.582  24.082  1.00  0.00     0.163 HD
BRANCH   5   8
ATOM      8  C   UNL A   1      35.149  22.860  23.864  1.00  0.00     0.065 A 
ATOM      9  C   UNL A   1      33.001  23.942  24.209  1.00  0.00     0.038 A 
ATOM     10  C   UNL A   1      32.798  23.053  25.265  1.00  0.00     0.028 A 
ATOM     11  C   UNL A   1      34.145  23.736  23.440  1.00  0.00     0.042 A 
ATOM     12  C   UNL A   1      33.690  22.012  25.529  1.00  0.00     0.029 A 
ATOM     13  C   UNL A   1      34.836  21.842  24.776  1.00  0.00     0.054 A 
BRANCH   9  14
ATOM     14  N   UNL A   1      32.221  25.070  24.036  1.00  0.00    -0.360 N 
ATOM     15  N   UNL A   1      30.242  27.127  23.296  1.00  0.00    -0.332 N 
ATOM     16  C   UNL A   1      31.215  26.593  22.336  1.00  0.00     0.283 C 
ATOM     17  C   UNL A   1      29.989  26.152  24.366  1.00  0.00     0.283 C 
ATOM     18  H   UNL A   1      29.358  27.242  22.800  1.00  0.00     0.348 HD
ATOM     19  C   UNL A   1      32.503  25.991  22.926  1.00  0.00     0.178 C 
ATOM     20  C   UNL A   1      31.230  25.510  25.032  1.00  0.00     0.178 C 
BRANCH  15  21
ATOM     21  C   UNL A   1      30.483  28.501  23.725  1.00  0.00     0.258 C 
ATOM     22  C   UNL A   1      29.467  29.576  23.366  1.00  0.00     0.071 C 
ENDBRANCH  15  21
ENDBRANCH   9  14
BRANCH  13  23
ATOM     23  N   UNL A   1      35.664  20.714  24.907  1.00  0.00    -0.325 N 
ATOM     24  C   UNL A   1      35.458  19.371  24.814  1.00  0.00     0.227 C 
ATOM     25  H   UNL A   1      36.599  20.946  25.111  1.00  0.00     0.169 HD
ATOM     26  O   UNL A   1      36.436  18.649  25.063  1.00  0.00    -0.274 OA
BRANCH  24  27
ATOM     27  C   UNL A   1      34.154  18.661  24.422  1.00  0.00     0.079 C 
ATOM     28  C   UNL A   1      34.370  17.269  23.831  1.00  0.00     0.013 C 
ATOM     29  C   UNL A   1      32.972  18.558  25.396  1.00  0.00     0.013 C 
ATOM     30  C   UNL A   1      33.038  16.557  24.024  1.00  0.00     0.001 C 
ATOM     31  C   UNL A   1      32.481  17.109  25.326  1.00  0.00     0.001 C 
ENDBRANCH  24  27
ENDBRANCH  13  23
ENDBRANCH   5   8
ENDBRANCH   3   4
ENDBRANCH   2   3
ENDBRANCH   1   2
BRANCH   1  32
ATOM     32  C   UNL A   1      41.051  23.257  27.003  1.00  0.00     0.116 C 
BRANCH  32  33
ATOM     33  N   UNL A   1      41.608  24.072  25.932  1.00  0.00    -0.352 N 
ATOM     34  C   UNL A   1      42.079  25.366  25.973  1.00  0.00     0.251 C 
ATOM     35  H   UNL A   1      41.655  23.635  25.051  1.00  0.00     0.163 HD
ATOM     36  O   UNL A   1      42.478  25.907  24.945  1.00  0.00    -0.269 OA
BRANCH  34  37
ATOM     37  C   UNL A   1      42.054  26.121  27.246  1.00  0.00     0.039 A 
ATOM     38  C   UNL A   1      42.852  27.260  27.369  1.00  0.00     0.014 A 
ATOM     39  C   UNL A   1      41.206  25.742  28.288  1.00  0.00     0.014 A 
ATOM     40  C   UNL A   1      42.721  28.079  28.494  1.00  0.00     0.010 A 
ATOM     41  C   UNL A   1      41.015  26.602  29.366  1.00  0.00     0.010 A 
ATOM     42  C   UNL A   1      41.760  27.786  29.475  1.00  0.00    -0.014 A 
BRANCH  42  43
ATOM     43  C   UNL A   1      41.496  28.712  30.607  1.00  0.00     0.031 A 
ATOM     44  C   UNL A   1      42.302  28.610  31.873  1.00  0.00     0.074 A 
ATOM     45  C   UNL A   1      40.468  29.583  30.532  1.00  0.00     0.049 A 
ATOM     46  N   UNL A   1      42.157  29.263  32.997  1.00  0.00    -0.248 NA
ATOM     47  C   UNL A   1      43.396  27.625  31.887  1.00  0.00     0.031 C 
ATOM     48  C   UNL A   1      39.574  29.744  29.383  1.00  0.00     0.029 A 
ATOM     49  N   UNL A   1      39.991  30.487  31.449  1.00  0.00    -0.354 N 
ATOM     50  C   UNL A   1      43.119  28.749  33.859  1.00  0.00     0.074 A 
ATOM     51  C   UNL A   1      43.813  27.703  33.142  1.00  0.00     0.031 C 
ATOM     52  C   UNL A   1      38.673  30.702  29.656  1.00  0.00     0.029 A 
ATOM     53  C   UNL A   1      38.896  31.194  31.012  1.00  0.00     0.049 A 
ATOM     54  H   UNL A   1      40.396  30.616  32.338  1.00  0.00     0.167 HD
ATOM     55  C   UNL A   1      43.412  29.126  35.127  1.00  0.00     0.031 A 
ATOM     56  C   UNL A   1      38.146  32.126  31.632  1.00  0.00     0.031 A 
ATOM     57  C   UNL A   1      42.735  30.181  35.833  1.00  0.00     0.049 A 
ATOM     58  C   UNL A   1      38.494  32.535  33.036  1.00  0.00     0.074 A 
ATOM     59  C   UNL A   1      43.008  30.687  37.092  1.00  0.00     0.029 A 
ATOM     60  N   UNL A   1      41.648  30.890  35.344  1.00  0.00    -0.354 N 
ATOM     61  N   UNL A   1      39.459  32.090  33.806  1.00  0.00    -0.248 NA
ATOM     62  C   UNL A   1      37.661  33.577  33.651  1.00  0.00     0.031 C 
ATOM     63  C   UNL A   1      42.056  31.669  37.384  1.00  0.00     0.029 A 
ATOM     64  C   UNL A   1      41.222  31.811  36.286  1.00  0.00     0.049 A 
ATOM     65  H   UNL A   1      41.240  30.757  34.458  1.00  0.00     0.167 HD
ATOM     66  C   UNL A   1      39.358  32.811  34.991  1.00  0.00     0.074 A 
ATOM     67  C   UNL A   1      38.251  33.732  34.829  1.00  0.00     0.031 C 
ATOM     68  C   UNL A   1      40.114  32.716  36.113  1.00  0.00     0.031 A 
BRANCH  55  69
ATOM     69  C   UNL A   1      44.513  28.382  35.834  1.00  0.00    -0.014 A 
ATOM     70  C   UNL A   1      44.238  27.247  36.619  1.00  0.00     0.010 A 
ATOM     71  C   UNL A   1      45.847  28.807  35.693  1.00  0.00     0.010 A 
ATOM     72  C   UNL A   1      45.267  26.583  37.289  1.00  0.00     0.020 A 
ATOM     73  C   UNL A   1      46.884  28.128  36.339  1.00  0.00     0.020 A 
ATOM     74  C   UNL A   1      46.584  27.031  37.150  1.00  0.00     0.054 A 
BRANCH  74  75
ATOM     75  S   UNL A   1      47.903  26.144  38.024  1.00  0.00     0.124 S 
ATOM     76  O   UNL A   1      47.140  25.252  38.892  1.00  0.00    -0.237 OA
ATOM     77  O   UNL A   1      48.627  25.493  36.936  1.00  0.00    -0.237 OA
ATOM     78  O   UNL A   1      48.637  27.204  38.711  1.00  0.00    -0.744 OA
ENDBRANCH  74  75
ENDBRANCH  55  69
BRANCH  56  79
ATOM     79  C   UNL A   1      36.994  32.743  30.920  1.00  0.00    -0.014 A 
ATOM     80  C   UNL A   1      37.182  33.879  30.112  1.00  0.00     0.010 A 
ATOM     81  C   UNL A   1      35.707  32.185  31.026  1.00  0.00     0.010 A 
ATOM     82  C   UNL A   1      36.103  34.450  29.430  1.00  0.00     0.020 A 
ATOM     83  C   UNL A   1      34.630  32.739  30.326  1.00  0.00     0.020 A 
ATOM     84  C   UNL A   1      34.834  33.874  29.539  1.00  0.00     0.054 A 
BRANCH  84  85
ATOM     85  S   UNL A   1      33.463  34.592  28.592  1.00  0.00     0.124 S 
ATOM     86  O   UNL A   1      34.117  35.700  27.903  1.00  0.00    -0.237 OA
ATOM     87  O   UNL A   1      33.046  33.477  27.745  1.00  0.00    -0.237 OA
ATOM     88  O   UNL A   1      32.500  34.975  29.622  1.00  0.00    -0.744 OA
ENDBRANCH  84  85
ENDBRANCH  56  79
BRANCH  68  89
ATOM     89  C   UNL A   1      39.783  33.644  37.251  1.00  0.00    -0.014 A 
ATOM     90  C   UNL A   1      38.883  33.262  38.260  1.00  0.00     0.010 A 
ATOM     91  C   UNL A   1      40.426  34.893  37.339  1.00  0.00     0.010 A 
ATOM     92  C   UNL A   1      38.612  34.123  39.328  1.00  0.00     0.020 A 
ATOM     93  C   UNL A   1      40.178  35.745  38.418  1.00  0.00     0.020 A 
ATOM     94  C   UNL A   1      39.262  35.359  39.399  1.00  0.00     0.054 A 
BRANCH  94  95
ATOM     95  S   UNL A   1      38.931  36.439  40.818  1.00  0.00     0.124 S 
ATOM     96  O   UNL A   1      38.444  37.654  40.169  1.00  0.00    -0.237 OA
ATOM     97  O   UNL A   1      37.931  35.685  41.570  1.00  0.00    -0.237 OA
ATOM     98  O   UNL A   1      40.232  36.560  41.472  1.00  0.00    -0.744 OA
ENDBRANCH  94  95
ENDBRANCH  68  89
ENDBRANCH  42  43
ENDBRANCH  34  37
ENDBRANCH  32  33
ENDBRANCH   1  32
TORSDOF 18
ENDMDL
