MODEL 1
REMARK VINA RESULT:     -11.9      0.000      0.000
REMARK SMILES C[C@H](NC(=O)[C@@H]1CCCN(S(=O)(=O)c2ccc(Cl)cc2)C1)C(=O)NCCCCNC(=O)c1ccc(-c2c3nc(c(-c4ccc(S(=O)(=O)[O-])cc4)c4ccc([nH]4)c(-c4ccc(S(=O)(=O)[O-])cc4)c4nc(c(-c5ccc(S(=O)(=O)[O-])cc5)c5ccc2[nH]5)C=C4)C=C3)cc1
REMARK SMILES IDX 26 1 25 2 24 3 22 4 23 5 2 7 1 8 3 9 4 10 5 12 6 13 7 14
REMARK SMILES IDX 21 15 8 16 10 17 9 18 11 19 12 20 13 21 14 22 15 23 20 24
REMARK SMILES IDX 16 25 19 26 17 27 18 28 27 29 28 30 29 31 30 32 31 34 32 35
REMARK SMILES IDX 33 36 91 37 34 38 90 39 35 40 36 41 37 42 84 43 38 44 89 45
REMARK SMILES IDX 83 46 85 47 39 48 88 49 82 50 81 51 40 53 70 54 51 55 69 56
REMARK SMILES IDX 52 57 55 58 68 59 86 60 53 61 54 62 67 64 87 65 56 66 41 67
REMARK SMILES IDX 42 68 50 69 43 70 49 71 44 72 45 73 46 74 47 75 48 76 71 77
REMARK SMILES IDX 72 78 80 79 73 80 79 81 74 82 75 83 76 84 77 85 78 86 57 87
REMARK SMILES IDX 58 88 66 89 59 90 65 91 60 92 61 93 62 94 63 95 64 96
REMARK H PARENT 24 6 3 11 29 33 85 52 55 63
REMARK Flexibility Score: inf
ROOT
ATOM      1  C   UNL A   1      34.816  30.899  27.636  1.00  0.00     0.023 C 
ENDROOT
BRANCH   1   2
ATOM      2  C   UNL A   1      33.490  30.687  26.924  1.00  0.00     0.116 C 
BRANCH   2   3
ATOM      3  N   UNL A   1      32.653  29.757  27.657  1.00  0.00    -0.354 N 
ATOM      4  C   UNL A   1      32.151  28.556  27.268  1.00  0.00     0.242 C 
ATOM      5  O   UNL A   1      31.439  27.933  28.058  1.00  0.00    -0.273 OA
ATOM      6  H   UNL A   1      32.413  30.037  28.569  1.00  0.00     0.163 HD
BRANCH   4   7
ATOM      7  C   UNL A   1      32.487  27.986  25.889  1.00  0.00     0.168 C 
ATOM      8  C   UNL A   1      33.990  27.945  25.654  1.00  0.00     0.041 C 
BRANCH   7   9
ATOM      9  N   UNL A   1      31.753  28.624  24.810  1.00  0.00    -0.344 N 
ATOM     10  C   UNL A   1      30.826  28.114  23.962  1.00  0.00     0.225 C 
ATOM     11  H   UNL A   1      31.961  29.576  24.673  1.00  0.00     0.164 HD
ATOM     12  O   UNL A   1      30.384  28.889  23.105  1.00  0.00    -0.275 OA
BRANCH  10  13
ATOM     13  C   UNL A   1      30.347  26.656  23.969  1.00  0.00     0.094 C 
ATOM     14  C   UNL A   1      29.958  26.017  25.306  1.00  0.00     0.016 C 
ATOM     15  C   UNL A   1      31.171  25.770  23.042  1.00  0.00     0.116 C 
ATOM     16  C   UNL A   1      30.904  24.949  25.865  1.00  0.00     0.018 C 
ATOM     17  N   UNL A   1      32.254  25.039  23.765  1.00  0.00    -0.197 NA
ATOM     18  C   UNL A   1      31.690  24.158  24.827  1.00  0.00     0.102 C 
BRANCH  17  19
ATOM     19  S   UNL A   1      33.348  24.223  22.687  1.00  0.00     0.243 S 
ATOM     20  O   UNL A   1      32.753  22.955  22.313  1.00  0.00    -0.207 OA
ATOM     21  O   UNL A   1      33.777  25.171  21.684  1.00  0.00    -0.207 OA
BRANCH  19  22
ATOM     22  C   UNL A   1      34.783  23.862  23.692  1.00  0.00     0.082 A 
ATOM     23  C   UNL A   1      35.783  23.007  23.224  1.00  0.00     0.023 A 
ATOM     24  C   UNL A   1      34.932  24.505  24.931  1.00  0.00     0.023 A 
ATOM     25  C   UNL A   1      36.909  22.754  24.018  1.00  0.00     0.022 A 
ATOM     26  C   UNL A   1      36.068  24.268  25.710  1.00  0.00     0.022 A 
ATOM     27  C   UNL A   1      37.047  23.388  25.254  1.00  0.00     0.041 A 
ATOM     28  Cl  UNL A   1      38.444  23.093  26.213  1.00  0.00    -0.084 Cl
ENDBRANCH  19  22
ENDBRANCH  17  19
ENDBRANCH  10  13
ENDBRANCH   7   9
ENDBRANCH   4   7
ENDBRANCH   2   3
ENDBRANCH   1   2
BRANCH   1  29
ATOM     29  C   UNL A   1      35.100  32.358  27.994  1.00  0.00     0.023 C 
BRANCH  29  30
ATOM     30  C   UNL A   1      36.085  32.549  29.141  1.00  0.00     0.116 C 
BRANCH  30  31
ATOM     31  N   UNL A   1      35.767  31.712  30.291  1.00  0.00    -0.352 N 
ATOM     32  C   UNL A   1      36.525  30.714  30.852  1.00  0.00     0.251 C 
ATOM     33  H   UNL A   1      34.898  31.885  30.720  1.00  0.00     0.163 HD
ATOM     34  O   UNL A   1      36.059  29.988  31.722  1.00  0.00    -0.269 OA
BRANCH  32  35
ATOM     35  C   UNL A   1      37.898  30.521  30.357  1.00  0.00     0.039 A 
ATOM     36  C   UNL A   1      38.953  30.522  31.269  1.00  0.00     0.014 A 
ATOM     37  C   UNL A   1      38.115  30.244  29.004  1.00  0.00     0.014 A 
ATOM     38  C   UNL A   1      40.231  30.181  30.829  1.00  0.00     0.010 A 
ATOM     39  C   UNL A   1      39.372  29.826  28.587  1.00  0.00     0.010 A 
ATOM     40  C   UNL A   1      40.442  29.793  29.495  1.00  0.00    -0.014 A 
BRANCH  40  41
ATOM     41  C   UNL A   1      41.779  29.359  29.024  1.00  0.00     0.031 A 
ATOM     42  C   UNL A   1      42.899  30.359  28.932  1.00  0.00     0.074 A 
ATOM     43  C   UNL A   1      41.967  28.086  28.623  1.00  0.00     0.049 A 
ATOM     44  N   UNL A   1      44.120  30.190  28.495  1.00  0.00    -0.248 NA
ATOM     45  C   UNL A   1      42.599  31.736  29.361  1.00  0.00     0.031 C 
ATOM     46  C   UNL A   1      40.944  27.037  28.619  1.00  0.00     0.029 A 
ATOM     47  N   UNL A   1      43.086  27.458  28.136  1.00  0.00    -0.354 N 
ATOM     48  C   UNL A   1      44.725  31.437  28.582  1.00  0.00     0.074 A 
ATOM     49  C   UNL A   1      43.723  32.366  29.055  1.00  0.00     0.031 C 
ATOM     50  C   UNL A   1      41.489  25.890  28.181  1.00  0.00     0.029 A 
ATOM     51  C   UNL A   1      42.887  26.131  27.835  1.00  0.00     0.049 A 
ATOM     52  H   UNL A   1      43.949  27.914  28.014  1.00  0.00     0.167 HD
ATOM     53  C   UNL A   1      46.010  31.776  28.315  1.00  0.00     0.031 A 
ATOM     54  C   UNL A   1      43.734  25.211  27.333  1.00  0.00     0.031 A 
ATOM     55  C   UNL A   1      47.006  30.846  27.858  1.00  0.00     0.049 A 
ATOM     56  C   UNL A   1      45.155  25.612  27.043  1.00  0.00     0.074 A 
ATOM     57  C   UNL A   1      48.347  31.076  27.609  1.00  0.00     0.029 A 
ATOM     58  N   UNL A   1      46.770  29.508  27.583  1.00  0.00    -0.354 N 
ATOM     59  N   UNL A   1      45.729  26.783  27.195  1.00  0.00    -0.248 NA
ATOM     60  C   UNL A   1      46.048  24.566  26.527  1.00  0.00     0.031 C 
ATOM     61  C   UNL A   1      48.911  29.887  27.135  1.00  0.00     0.029 A 
ATOM     62  C   UNL A   1      47.936  28.903  27.146  1.00  0.00     0.049 A 
ATOM     63  H   UNL A   1      45.900  29.054  27.681  1.00  0.00     0.167 HD
ATOM     64  C   UNL A   1      47.055  26.606  26.819  1.00  0.00     0.074 A 
ATOM     65  C   UNL A   1      47.203  25.213  26.449  1.00  0.00     0.031 C 
ATOM     66  C   UNL A   1      48.061  27.514  26.783  1.00  0.00     0.031 A 
BRANCH  53  67
ATOM     67  C   UNL A   1      46.404  33.215  28.516  1.00  0.00    -0.014 A 
ATOM     68  C   UNL A   1      46.304  34.147  27.466  1.00  0.00     0.010 A 
ATOM     69  C   UNL A   1      46.848  33.652  29.776  1.00  0.00     0.010 A 
ATOM     70  C   UNL A   1      46.680  35.479  27.662  1.00  0.00     0.020 A 
ATOM     71  C   UNL A   1      47.196  34.990  29.986  1.00  0.00     0.020 A 
ATOM     72  C   UNL A   1      47.126  35.890  28.921  1.00  0.00     0.054 A 
BRANCH  72  73
ATOM     73  S   UNL A   1      47.582  37.630  29.153  1.00  0.00     0.124 S 
ATOM     74  O   UNL A   1      48.707  37.525  30.080  1.00  0.00    -0.237 OA
ATOM     75  O   UNL A   1      47.924  38.055  27.798  1.00  0.00    -0.237 OA
ATOM     76  O   UNL A   1      46.374  38.235  29.707  1.00  0.00    -0.744 OA
ENDBRANCH  72  73
ENDBRANCH  53  67
BRANCH  54  77
ATOM     77  C   UNL A   1      43.265  23.820  27.087  1.00  0.00    -0.014 A 
ATOM     78  C   UNL A   1      43.098  22.922  28.157  1.00  0.00     0.010 A 
ATOM     79  C   UNL A   1      42.974  23.387  25.781  1.00  0.00     0.010 A 
ATOM     80  C   UNL A   1      42.671  21.612  27.922  1.00  0.00     0.020 A 
ATOM     81  C   UNL A   1      42.518  22.087  25.545  1.00  0.00     0.020 A 
ATOM     82  C   UNL A   1      42.382  21.202  26.617  1.00  0.00     0.054 A 
BRANCH  82  83
ATOM     83  S   UNL A   1      41.784  19.511  26.340  1.00  0.00     0.124 S 
ATOM     84  O   UNL A   1      42.509  19.128  25.134  1.00  0.00    -0.237 OA
ATOM     85  O   UNL A   1      42.190  18.830  27.567  1.00  0.00    -0.237 OA
ATOM     86  O   UNL A   1      40.342  19.682  26.180  1.00  0.00    -0.744 OA
ENDBRANCH  82  83
ENDBRANCH  54  77
BRANCH  66  87
ATOM     87  C   UNL A   1      49.423  27.025  26.363  1.00  0.00    -0.014 A 
ATOM     88  C   UNL A   1      50.376  26.617  27.312  1.00  0.00     0.010 A 
ATOM     89  C   UNL A   1      49.726  26.918  24.994  1.00  0.00     0.010 A 
ATOM     90  C   UNL A   1      51.621  26.139  26.899  1.00  0.00     0.020 A 
ATOM     91  C   UNL A   1      50.960  26.413  24.575  1.00  0.00     0.020 A 
ATOM     92  C   UNL A   1      51.905  26.040  25.533  1.00  0.00     0.054 A 
BRANCH  92  93
ATOM     93  S   UNL A   1      53.512  25.372  25.021  1.00  0.00     0.124 S 
ATOM     94  O   UNL A   1      53.441  23.999  25.513  1.00  0.00    -0.237 OA
ATOM     95  O   UNL A   1      53.473  25.523  23.569  1.00  0.00    -0.237 OA
ATOM     96  O   UNL A   1      54.477  26.229  25.705  1.00  0.00    -0.744 OA
ENDBRANCH  92  93
ENDBRANCH  66  87
ENDBRANCH  40  41
ENDBRANCH  32  35
ENDBRANCH  30  31
ENDBRANCH  29  30
ENDBRANCH   1  29
TORSDOF 18
ENDMDL
MODEL 2
REMARK VINA RESULT:     -11.8      6.161     11.796
REMARK SMILES C[C@H](NC(=O)[C@@H]1CCCN(S(=O)(=O)c2ccc(Cl)cc2)C1)C(=O)NCCCCNC(=O)c1ccc(-c2c3nc(c(-c4ccc(S(=O)(=O)[O-])cc4)c4ccc([nH]4)c(-c4ccc(S(=O)(=O)[O-])cc4)c4nc(c(-c5ccc(S(=O)(=O)[O-])cc5)c5ccc2[nH]5)C=C4)C=C3)cc1
REMARK SMILES IDX 26 1 25 2 24 3 22 4 23 5 2 7 1 8 3 9 4 10 5 12 6 13 7 14
REMARK SMILES IDX 21 15 8 16 10 17 9 18 11 19 12 20 13 21 14 22 15 23 20 24
REMARK SMILES IDX 16 25 19 26 17 27 18 28 27 29 28 30 29 31 30 32 31 34 32 35
REMARK SMILES IDX 33 36 91 37 34 38 90 39 35 40 36 41 37 42 84 43 38 44 89 45
REMARK SMILES IDX 83 46 85 47 39 48 88 49 82 50 81 51 40 53 70 54 51 55 69 56
REMARK SMILES IDX 52 57 55 58 68 59 86 60 53 61 54 62 67 64 87 65 56 66 41 67
REMARK SMILES IDX 42 68 50 69 43 70 49 71 44 72 45 73 46 74 47 75 48 76 71 77
REMARK SMILES IDX 72 78 80 79 73 80 79 81 74 82 75 83 76 84 77 85 78 86 57 87
REMARK SMILES IDX 58 88 66 89 59 90 65 91 60 92 61 93 62 94 63 95 64 96
REMARK H PARENT 24 6 3 11 29 33 85 52 55 63
REMARK Flexibility Score: inf
ROOT
ATOM      1  C   UNL A   1      39.263  21.731  25.904  1.00  0.00     0.023 C 
ENDROOT
BRANCH   1   2
ATOM      2  C   UNL A   1      38.001  22.579  25.925  1.00  0.00     0.116 C 
BRANCH   2   3
ATOM      3  N   UNL A   1      37.610  22.956  24.581  1.00  0.00    -0.354 N 
ATOM      4  C   UNL A   1      36.455  22.699  23.914  1.00  0.00     0.242 C 
ATOM      5  O   UNL A   1      36.341  23.106  22.756  1.00  0.00    -0.273 OA
ATOM      6  H   UNL A   1      38.280  23.472  24.077  1.00  0.00     0.163 HD
BRANCH   4   7
ATOM      7  C   UNL A   1      35.315  21.944  24.601  1.00  0.00     0.168 C 
ATOM      8  C   UNL A   1      35.685  20.491  24.860  1.00  0.00     0.041 C 
BRANCH   7   9
ATOM      9  N   UNL A   1      34.036  22.102  23.929  1.00  0.00    -0.344 N 
ATOM     10  C   UNL A   1      33.013  22.952  24.187  1.00  0.00     0.225 C 
ATOM     11  H   UNL A   1      33.890  21.496  23.167  1.00  0.00     0.164 HD
ATOM     12  O   UNL A   1      32.015  22.842  23.464  1.00  0.00    -0.275 OA
BRANCH  10  13
ATOM     13  C   UNL A   1      32.999  23.979  25.328  1.00  0.00     0.094 C 
ATOM     14  C   UNL A   1      31.928  23.854  26.415  1.00  0.00     0.016 C 
ATOM     15  C   UNL A   1      33.258  25.398  24.834  1.00  0.00     0.116 C 
ATOM     16  C   UNL A   1      30.818  24.910  26.422  1.00  0.00     0.018 C 
ATOM     17  N   UNL A   1      31.996  26.164  24.611  1.00  0.00    -0.197 NA
ATOM     18  C   UNL A   1      31.207  26.275  25.871  1.00  0.00     0.102 C 
BRANCH  17  19
ATOM     19  S   UNL A   1      32.268  27.688  23.819  1.00  0.00     0.243 S 
ATOM     20  O   UNL A   1      33.380  27.530  22.902  1.00  0.00    -0.207 OA
ATOM     21  O   UNL A   1      30.991  28.190  23.364  1.00  0.00    -0.207 OA
BRANCH  19  22
ATOM     22  C   UNL A   1      32.808  28.784  25.126  1.00  0.00     0.082 A 
ATOM     23  C   UNL A   1      31.981  29.815  25.578  1.00  0.00     0.023 A 
ATOM     24  C   UNL A   1      34.046  28.554  25.746  1.00  0.00     0.023 A 
ATOM     25  C   UNL A   1      32.414  30.648  26.617  1.00  0.00     0.022 A 
ATOM     26  C   UNL A   1      34.465  29.374  26.798  1.00  0.00     0.022 A 
ATOM     27  C   UNL A   1      33.651  30.421  27.223  1.00  0.00     0.041 A 
ATOM     28  Cl  UNL A   1      34.166  31.433  28.515  1.00  0.00    -0.084 Cl
ENDBRANCH  19  22
ENDBRANCH  17  19
ENDBRANCH  10  13
ENDBRANCH   7   9
ENDBRANCH   4   7
ENDBRANCH   2   3
ENDBRANCH   1   2
BRANCH   1  29
ATOM     29  C   UNL A   1      40.160  21.926  27.126  1.00  0.00     0.023 C 
BRANCH  29  30
ATOM     30  C   UNL A   1      40.470  23.381  27.459  1.00  0.00     0.116 C 
BRANCH  30  31
ATOM     31  N   UNL A   1      40.852  24.151  26.282  1.00  0.00    -0.352 N 
ATOM     32  C   UNL A   1      41.075  25.503  26.186  1.00  0.00     0.251 C 
ATOM     33  H   UNL A   1      40.965  23.637  25.451  1.00  0.00     0.163 HD
ATOM     34  O   UNL A   1      41.237  26.035  25.094  1.00  0.00    -0.269 OA
BRANCH  32  35
ATOM     35  C   UNL A   1      41.081  26.297  27.426  1.00  0.00     0.039 A 
ATOM     36  C   UNL A   1      42.023  27.315  27.574  1.00  0.00     0.014 A 
ATOM     37  C   UNL A   1      40.089  26.087  28.389  1.00  0.00     0.014 A 
ATOM     38  C   UNL A   1      41.931  28.172  28.670  1.00  0.00     0.010 A 
ATOM     39  C   UNL A   1      39.953  26.992  29.434  1.00  0.00     0.010 A 
ATOM     40  C   UNL A   1      40.874  28.040  29.586  1.00  0.00    -0.014 A 
BRANCH  40  41
ATOM     41  C   UNL A   1      40.718  28.983  30.719  1.00  0.00     0.031 A 
ATOM     42  C   UNL A   1      41.588  28.837  31.938  1.00  0.00     0.074 A 
ATOM     43  C   UNL A   1      39.757  29.928  30.677  1.00  0.00     0.049 A 
ATOM     44  N   UNL A   1      41.569  29.524  33.050  1.00  0.00    -0.248 NA
ATOM     45  C   UNL A   1      42.591  27.759  31.913  1.00  0.00     0.031 C 
ATOM     46  C   UNL A   1      38.820  30.137  29.570  1.00  0.00     0.029 A 
ATOM     47  N   UNL A   1      39.407  30.888  31.591  1.00  0.00    -0.354 N 
ATOM     48  C   UNL A   1      42.543  28.953  33.860  1.00  0.00     0.074 A 
ATOM     49  C   UNL A   1      43.092  27.828  33.137  1.00  0.00     0.031 C 
ATOM     50  C   UNL A   1      38.022  31.178  29.858  1.00  0.00     0.029 A 
ATOM     51  C   UNL A   1      38.363  31.685  31.184  1.00  0.00     0.049 A 
ATOM     52  H   UNL A   1      39.861  30.998  32.458  1.00  0.00     0.167 HD
ATOM     53  C   UNL A   1      42.961  29.346  35.087  1.00  0.00     0.031 A 
ATOM     54  C   UNL A   1      37.745  32.706  31.809  1.00  0.00     0.031 A 
ATOM     55  C   UNL A   1      42.421  30.475  35.795  1.00  0.00     0.049 A 
ATOM     56  C   UNL A   1      38.226  33.123  33.172  1.00  0.00     0.074 A 
ATOM     57  C   UNL A   1      42.810  30.988  37.019  1.00  0.00     0.029 A 
ATOM     58  N   UNL A   1      41.377  31.266  35.340  1.00  0.00    -0.354 N 
ATOM     59  N   UNL A   1      39.195  32.612  33.896  1.00  0.00    -0.248 NA
ATOM     60  C   UNL A   1      37.542  34.262  33.799  1.00  0.00     0.031 C 
ATOM     61  C   UNL A   1      41.967  32.061  37.328  1.00  0.00     0.029 A 
ATOM     62  C   UNL A   1      41.094  32.252  36.269  1.00  0.00     0.049 A 
ATOM     63  H   UNL A   1      40.905  31.144  34.484  1.00  0.00     0.167 HD
ATOM     64  C   UNL A   1      39.253  33.385  35.050  1.00  0.00     0.074 A 
ATOM     65  C   UNL A   1      38.234  34.407  34.920  1.00  0.00     0.031 C 
ATOM     66  C   UNL A   1      40.075  33.261  36.121  1.00  0.00     0.031 A 
BRANCH  53  67
ATOM     67  C   UNL A   1      44.059  28.545  35.735  1.00  0.00    -0.014 A 
ATOM     68  C   UNL A   1      43.762  27.451  36.569  1.00  0.00     0.010 A 
ATOM     69  C   UNL A   1      45.404  28.866  35.483  1.00  0.00     0.010 A 
ATOM     70  C   UNL A   1      44.789  26.720  37.172  1.00  0.00     0.020 A 
ATOM     71  C   UNL A   1      46.436  28.118  36.059  1.00  0.00     0.020 A 
ATOM     72  C   UNL A   1      46.119  27.061  36.914  1.00  0.00     0.054 A 
BRANCH  72  73
ATOM     73  S   UNL A   1      47.432  26.077  37.689  1.00  0.00     0.124 S 
ATOM     74  O   UNL A   1      47.153  24.741  37.167  1.00  0.00    -0.237 OA
ATOM     75  O   UNL A   1      48.647  26.708  37.180  1.00  0.00    -0.237 OA
ATOM     76  O   UNL A   1      47.196  26.248  39.120  1.00  0.00    -0.744 OA
ENDBRANCH  72  73
ENDBRANCH  53  67
BRANCH  54  77
ATOM     77  C   UNL A   1      36.616  33.414  31.146  1.00  0.00    -0.014 A 
ATOM     78  C   UNL A   1      36.722  33.833  29.807  1.00  0.00     0.010 A 
ATOM     79  C   UNL A   1      35.423  33.666  31.847  1.00  0.00     0.010 A 
ATOM     80  C   UNL A   1      35.665  34.510  29.191  1.00  0.00     0.020 A 
ATOM     81  C   UNL A   1      34.353  34.316  31.226  1.00  0.00     0.020 A 
ATOM     82  C   UNL A   1      34.486  34.746  29.904  1.00  0.00     0.054 A 
BRANCH  82  83
ATOM     83  S   UNL A   1      33.110  35.585  29.070  1.00  0.00     0.124 S 
ATOM     84  O   UNL A   1      32.280  35.999  30.196  1.00  0.00    -0.237 OA
ATOM     85  O   UNL A   1      33.787  36.663  28.352  1.00  0.00    -0.237 OA
ATOM     86  O   UNL A   1      32.540  34.542  28.219  1.00  0.00    -0.744 OA
ENDBRANCH  82  83
ENDBRANCH  54  77
BRANCH  66  87
ATOM     87  C   UNL A   1      39.935  34.276  37.225  1.00  0.00    -0.014 A 
ATOM     88  C   UNL A   1      40.634  35.495  37.188  1.00  0.00     0.010 A 
ATOM     89  C   UNL A   1      39.042  34.027  38.283  1.00  0.00     0.010 A 
ATOM     90  C   UNL A   1      40.466  36.434  38.208  1.00  0.00     0.020 A 
ATOM     91  C   UNL A   1      38.849  34.976  39.289  1.00  0.00     0.020 A 
ATOM     92  C   UNL A   1      39.574  36.169  39.252  1.00  0.00     0.054 A 
BRANCH  92  93
ATOM     93  S   UNL A   1      39.338  37.425  40.539  1.00  0.00     0.124 S 
ATOM     94  O   UNL A   1      40.647  38.072  40.575  1.00  0.00    -0.237 OA
ATOM     95  O   UNL A   1      38.250  38.236  40.000  1.00  0.00    -0.237 OA
ATOM     96  O   UNL A   1      38.997  36.645  41.726  1.00  0.00    -0.744 OA
ENDBRANCH  92  93
ENDBRANCH  66  87
ENDBRANCH  40  41
ENDBRANCH  32  35
ENDBRANCH  30  31
ENDBRANCH  29  30
ENDBRANCH   1  29
TORSDOF 18
ENDMDL
MODEL 3
REMARK VINA RESULT:     -11.5      3.997      9.848
REMARK SMILES C[C@H](NC(=O)[C@@H]1CCCN(S(=O)(=O)c2ccc(Cl)cc2)C1)C(=O)NCCCCNC(=O)c1ccc(-c2c3nc(c(-c4ccc(S(=O)(=O)[O-])cc4)c4ccc([nH]4)c(-c4ccc(S(=O)(=O)[O-])cc4)c4nc(c(-c5ccc(S(=O)(=O)[O-])cc5)c5ccc2[nH]5)C=C4)C=C3)cc1
REMARK SMILES IDX 26 1 25 2 24 3 22 4 23 5 2 7 1 8 3 9 4 10 5 12 6 13 7 14
REMARK SMILES IDX 21 15 8 16 10 17 9 18 11 19 12 20 13 21 14 22 15 23 20 24
REMARK SMILES IDX 16 25 19 26 17 27 18 28 27 29 28 30 29 31 30 32 31 34 32 35
REMARK SMILES IDX 33 36 91 37 34 38 90 39 35 40 36 41 37 42 84 43 38 44 89 45
REMARK SMILES IDX 83 46 85 47 39 48 88 49 82 50 81 51 40 53 70 54 51 55 69 56
REMARK SMILES IDX 52 57 55 58 68 59 86 60 53 61 54 62 67 64 87 65 56 66 41 67
REMARK SMILES IDX 42 68 50 69 43 70 49 71 44 72 45 73 46 74 47 75 48 76 71 77
REMARK SMILES IDX 72 78 80 79 73 80 79 81 74 82 75 83 76 84 77 85 78 86 57 87
REMARK SMILES IDX 58 88 66 89 59 90 65 91 60 92 61 93 62 94 63 95 64 96
REMARK H PARENT 24 6 3 11 29 33 85 52 55 63
REMARK Flexibility Score: inf
ROOT
ATOM      1  C   UNL A   1      36.538  21.584  24.123  1.00  0.00     0.023 C 
ENDROOT
BRANCH   1   2
ATOM      2  C   UNL A   1      35.249  20.960  24.634  1.00  0.00     0.116 C 
BRANCH   2   3
ATOM      3  N   UNL A   1      35.147  21.093  26.074  1.00  0.00    -0.354 N 
ATOM      4  C   UNL A   1      34.398  21.954  26.811  1.00  0.00     0.242 C 
ATOM      5  O   UNL A   1      34.480  21.902  28.039  1.00  0.00    -0.273 OA
ATOM      6  H   UNL A   1      35.703  20.469  26.594  1.00  0.00     0.163 HD
BRANCH   4   7
ATOM      7  C   UNL A   1      33.457  22.945  26.124  1.00  0.00     0.168 C 
ATOM      8  C   UNL A   1      33.880  24.384  26.379  1.00  0.00     0.041 C 
BRANCH   7   9
ATOM      9  N   UNL A   1      32.055  22.698  26.412  1.00  0.00    -0.344 N 
ATOM     10  C   UNL A   1      30.977  22.720  25.591  1.00  0.00     0.225 C 
ATOM     11  H   UNL A   1      31.856  22.479  27.351  1.00  0.00     0.164 HD
ATOM     12  O   UNL A   1      29.880  22.501  26.121  1.00  0.00    -0.275 OA
BRANCH  10  13
ATOM     13  C   UNL A   1      31.028  23.047  24.092  1.00  0.00     0.094 C 
ATOM     14  C   UNL A   1      32.286  22.674  23.302  1.00  0.00     0.016 C 
ATOM     15  C   UNL A   1      30.450  24.422  23.779  1.00  0.00     0.116 C 
ATOM     16  C   UNL A   1      33.187  23.826  22.846  1.00  0.00     0.018 C 
ATOM     17  N   UNL A   1      31.504  25.475  23.677  1.00  0.00    -0.197 NA
ATOM     18  C   UNL A   1      32.481  25.153  22.598  1.00  0.00     0.102 C 
BRANCH  17  19
ATOM     19  S   UNL A   1      30.841  27.079  23.565  1.00  0.00     0.243 S 
ATOM     20  O   UNL A   1      31.082  27.577  22.225  1.00  0.00    -0.207 OA
ATOM     21  O   UNL A   1      29.508  27.052  24.123  1.00  0.00    -0.207 OA
BRANCH  19  22
ATOM     22  C   UNL A   1      31.840  28.056  24.683  1.00  0.00     0.082 A 
ATOM     23  C   UNL A   1      33.075  27.584  25.133  1.00  0.00     0.023 A 
ATOM     24  C   UNL A   1      31.403  29.339  25.048  1.00  0.00     0.023 A 
ATOM     25  C   UNL A   1      33.850  28.374  25.990  1.00  0.00     0.022 A 
ATOM     26  C   UNL A   1      32.191  30.134  25.886  1.00  0.00     0.022 A 
ATOM     27  C   UNL A   1      33.406  29.645  26.360  1.00  0.00     0.041 A 
ATOM     28  Cl  UNL A   1      34.375  30.620  27.393  1.00  0.00    -0.084 Cl
ENDBRANCH  19  22
ENDBRANCH  17  19
ENDBRANCH  10  13
ENDBRANCH   7   9
ENDBRANCH   4   7
ENDBRANCH   2   3
ENDBRANCH   1   2
BRANCH   1  29
ATOM     29  C   UNL A   1      36.564  23.110  24.209  1.00  0.00     0.023 C 
BRANCH  29  30
ATOM     30  C   UNL A   1      37.396  23.665  25.359  1.00  0.00     0.116 C 
BRANCH  30  31
ATOM     31  N   UNL A   1      38.403  22.721  25.823  1.00  0.00    -0.352 N 
ATOM     32  C   UNL A   1      39.535  22.977  26.558  1.00  0.00     0.251 C 
ATOM     33  H   UNL A   1      38.253  21.779  25.580  1.00  0.00     0.163 HD
ATOM     34  O   UNL A   1      40.374  22.103  26.741  1.00  0.00    -0.269 OA
BRANCH  32  35
ATOM     35  C   UNL A   1      39.727  24.337  27.089  1.00  0.00     0.039 A 
ATOM     36  C   UNL A   1      39.242  24.642  28.361  1.00  0.00     0.014 A 
ATOM     37  C   UNL A   1      40.471  25.268  26.359  1.00  0.00     0.014 A 
ATOM     38  C   UNL A   1      39.561  25.873  28.932  1.00  0.00     0.010 A 
ATOM     39  C   UNL A   1      40.854  26.458  26.963  1.00  0.00     0.010 A 
ATOM     40  C   UNL A   1      40.400  26.773  28.254  1.00  0.00    -0.014 A 
BRANCH  40  41
ATOM     41  C   UNL A   1      40.808  28.057  28.872  1.00  0.00     0.031 A 
ATOM     42  C   UNL A   1      42.190  28.204  29.447  1.00  0.00     0.074 A 
ATOM     43  C   UNL A   1      39.919  29.066  28.971  1.00  0.00     0.049 A 
ATOM     44  N   UNL A   1      42.718  29.222  30.075  1.00  0.00    -0.248 NA
ATOM     45  C   UNL A   1      43.088  27.042  29.324  1.00  0.00     0.031 C 
ATOM     46  C   UNL A   1      38.533  29.026  28.495  1.00  0.00     0.029 A 
ATOM     47  N   UNL A   1      40.046  30.321  29.510  1.00  0.00    -0.354 N 
ATOM     48  C   UNL A   1      43.998  28.819  30.434  1.00  0.00     0.074 A 
ATOM     49  C   UNL A   1      44.148  27.446  30.008  1.00  0.00     0.031 C 
ATOM     50  C   UNL A   1      37.949  30.210  28.737  1.00  0.00     0.029 A 
ATOM     51  C   UNL A   1      38.903  31.079  29.419  1.00  0.00     0.049 A 
ATOM     52  H   UNL A   1      40.878  30.648  29.923  1.00  0.00     0.167 HD
ATOM     53  C   UNL A   1      44.972  29.537  31.042  1.00  0.00     0.031 A 
ATOM     54  C   UNL A   1      38.649  32.334  29.842  1.00  0.00     0.031 A 
ATOM     55  C   UNL A   1      44.822  30.907  31.452  1.00  0.00     0.049 A 
ATOM     56  C   UNL A   1      39.747  33.111  30.517  1.00  0.00     0.074 A 
ATOM     57  C   UNL A   1      45.764  31.740  32.028  1.00  0.00     0.029 A 
ATOM     58  N   UNL A   1      43.655  31.645  31.326  1.00  0.00    -0.354 N 
ATOM     59  N   UNL A   1      40.975  32.735  30.789  1.00  0.00    -0.248 NA
ATOM     60  C   UNL A   1      39.431  34.484  30.931  1.00  0.00     0.031 C 
ATOM     61  C   UNL A   1      45.151  32.968  32.297  1.00  0.00     0.029 A 
ATOM     62  C   UNL A   1      43.846  32.919  31.833  1.00  0.00     0.049 A 
ATOM     63  H   UNL A   1      42.814  31.313  30.935  1.00  0.00     0.167 HD
ATOM     64  C   UNL A   1      41.585  33.835  31.380  1.00  0.00     0.074 A 
ATOM     65  C   UNL A   1      40.597  34.894  31.411  1.00  0.00     0.031 C 
ATOM     66  C   UNL A   1      42.849  33.960  31.854  1.00  0.00     0.031 A 
BRANCH  53  67
ATOM     67  C   UNL A   1      46.286  28.847  31.298  1.00  0.00    -0.014 A 
ATOM     68  C   UNL A   1      46.512  28.137  32.491  1.00  0.00     0.010 A 
ATOM     69  C   UNL A   1      47.296  28.880  30.320  1.00  0.00     0.010 A 
ATOM     70  C   UNL A   1      47.739  27.508  32.720  1.00  0.00     0.020 A 
ATOM     71  C   UNL A   1      48.514  28.225  30.531  1.00  0.00     0.020 A 
ATOM     72  C   UNL A   1      48.732  27.558  31.738  1.00  0.00     0.054 A 
BRANCH  72  73
ATOM     73  S   UNL A   1      50.304  26.709  32.051  1.00  0.00     0.124 S 
ATOM     74  O   UNL A   1      51.236  27.830  32.155  1.00  0.00    -0.237 OA
ATOM     75  O   UNL A   1      50.040  25.996  33.299  1.00  0.00    -0.237 OA
ATOM     76  O   UNL A   1      50.481  25.860  30.877  1.00  0.00    -0.744 OA
ENDBRANCH  72  73
ENDBRANCH  53  67
BRANCH  54  77
ATOM     77  C   UNL A   1      37.305  32.936  29.626  1.00  0.00    -0.014 A 
ATOM     78  C   UNL A   1      36.966  33.500  28.383  1.00  0.00     0.010 A 
ATOM     79  C   UNL A   1      36.353  32.943  30.661  1.00  0.00     0.010 A 
ATOM     80  C   UNL A   1      35.708  34.078  28.187  1.00  0.00     0.020 A 
ATOM     81  C   UNL A   1      35.084  33.493  30.460  1.00  0.00     0.020 A 
ATOM     82  C   UNL A   1      34.774  34.070  29.227  1.00  0.00     0.054 A 
BRANCH  82  83
ATOM     83  S   UNL A   1      33.131  34.784  28.935  1.00  0.00     0.124 S 
ATOM     84  O   UNL A   1      33.464  36.089  28.376  1.00  0.00    -0.237 OA
ATOM     85  O   UNL A   1      32.533  33.829  28.005  1.00  0.00    -0.237 OA
ATOM     86  O   UNL A   1      32.528  34.806  30.266  1.00  0.00    -0.744 OA
ENDBRANCH  82  83
ENDBRANCH  54  77
BRANCH  66  87
ATOM     87  C   UNL A   1      43.251  35.298  32.416  1.00  0.00    -0.014 A 
ATOM     88  C   UNL A   1      43.100  35.589  33.783  1.00  0.00     0.010 A 
ATOM     89  C   UNL A   1      43.844  36.252  31.571  1.00  0.00     0.010 A 
ATOM     90  C   UNL A   1      43.507  36.826  34.288  1.00  0.00     0.020 A 
ATOM     91  C   UNL A   1      44.279  37.480  32.077  1.00  0.00     0.020 A 
ATOM     92  C   UNL A   1      44.095  37.763  33.432  1.00  0.00     0.054 A 
BRANCH  92  93
ATOM     93  S   UNL A   1      44.657  39.343  34.121  1.00  0.00     0.124 S 
ATOM     94  O   UNL A   1      45.482  39.871  33.038  1.00  0.00    -0.237 OA
ATOM     95  O   UNL A   1      43.404  40.053  34.361  1.00  0.00    -0.237 OA
ATOM     96  O   UNL A   1      45.387  38.956  35.326  1.00  0.00    -0.744 OA
ENDBRANCH  92  93
ENDBRANCH  66  87
ENDBRANCH  40  41
ENDBRANCH  32  35
ENDBRANCH  30  31
ENDBRANCH  29  30
ENDBRANCH   1  29
TORSDOF 18
ENDMDL
