MODEL 1
REMARK VINA RESULT:     -10.8      0.000      0.000
REMARK SMILES Cc1nc(SCc2ccccc2)[nH]c(=O)c1CCC(=O)NCCCCNC(=O)c1ccc(-c2c3nc(c(-c4ccc(S(=O)(=O)[O-])cc4)c4ccc([nH]4)c(-c4ccc(S(=O)(=O)[O-])cc4)c4nc(c(-c5ccc(S(=O)(=O)[O-])cc5)c5ccc2[nH]5)C=C4)C=C3)cc1
REMARK SMILES IDX 22 1 21 2 19 3 20 4 18 6 17 7 16 8 1 9 2 10 3 11 4 12 14 13
REMARK SMILES IDX 13 14 15 15 5 17 6 18 7 19 8 20 12 21 9 22 11 23 10 24 23 25
REMARK SMILES IDX 24 26 25 27 26 28 27 29 28 31 29 32 30 33 88 34 31 35 87 36
REMARK SMILES IDX 32 37 33 38 34 39 81 40 35 41 86 42 80 43 82 44 36 45 85 46
REMARK SMILES IDX 79 47 78 48 37 50 67 51 48 52 66 53 49 54 52 55 65 56 83 57
REMARK SMILES IDX 50 58 51 59 64 61 84 62 53 63 38 64 39 65 47 66 40 67 46 68
REMARK SMILES IDX 41 69 42 70 43 71 44 72 45 73 68 74 69 75 77 76 70 77 76 78
REMARK SMILES IDX 71 79 72 80 73 81 74 82 75 83 54 84 55 85 63 86 56 87 62 88
REMARK SMILES IDX 57 89 58 90 59 91 60 92 61 93
REMARK H PARENT 21 5 13 16 26 30 82 49 52 60
REMARK Flexibility Score: inf
ROOT
ATOM      1  C   UNL A   1      34.710  24.992  24.950  1.00  0.00     0.116 C 
ENDROOT
BRANCH   1   2
ATOM      2  N   UNL A   1      34.201  25.897  25.968  1.00  0.00    -0.356 N 
ATOM      3  C   UNL A   1      33.528  27.073  25.883  1.00  0.00     0.220 C 
ATOM      4  O   UNL A   1      33.298  27.692  26.926  1.00  0.00    -0.275 OA
ATOM      5  H   UNL A   1      34.379  25.602  26.890  1.00  0.00     0.163 HD
BRANCH   3   6
ATOM      6  C   UNL A   1      33.008  27.594  24.558  1.00  0.00     0.105 C 
BRANCH   6   7
ATOM      7  C   UNL A   1      31.509  27.316  24.336  1.00  0.00     0.053 C 
BRANCH   7   8
ATOM      8  C   UNL A   1      31.262  25.888  23.916  1.00  0.00     0.039 A 
ATOM      9  C   UNL A   1      30.325  25.050  26.076  1.00  0.00     0.067 C 
ATOM     10  C   UNL A   1      30.815  24.856  24.665  1.00  0.00     0.049 A 
ATOM     11  N   UNL A   1      30.925  23.528  24.280  1.00  0.00    -0.229 NA
ATOM     12  C   UNL A   1      31.518  23.297  23.160  1.00  0.00     0.168 A 
ATOM     13  C   UNL A   1      31.550  25.566  22.506  1.00  0.00     0.254 A 
ATOM     14  N   UNL A   1      31.790  24.260  22.251  1.00  0.00    -0.301 N 
ATOM     15  O   UNL A   1      31.615  26.438  21.640  1.00  0.00    -0.269 OA
ATOM     16  H   UNL A   1      32.174  24.004  21.382  1.00  0.00     0.172 HD
BRANCH  12  17
ATOM     17  S   UNL A   1      32.146  21.787  22.612  1.00  0.00    -0.083 SA
BRANCH  17  18
ATOM     18  C   UNL A   1      32.689  20.899  24.070  1.00  0.00     0.113 C 
BRANCH  18  19
ATOM     19  C   UNL A   1      33.093  19.437  24.024  1.00  0.00    -0.038 A 
ATOM     20  C   UNL A   1      34.293  19.064  24.660  1.00  0.00     0.004 A 
ATOM     21  C   UNL A   1      32.467  18.468  23.231  1.00  0.00     0.004 A 
ATOM     22  C   UNL A   1      34.866  17.804  24.457  1.00  0.00     0.000 A 
ATOM     23  C   UNL A   1      33.048  17.217  23.005  1.00  0.00     0.000 A 
ATOM     24  C   UNL A   1      34.256  16.890  23.604  1.00  0.00     0.000 A 
ENDBRANCH  18  19
ENDBRANCH  17  18
ENDBRANCH  12  17
ENDBRANCH   7   8
ENDBRANCH   6   7
ENDBRANCH   3   6
ENDBRANCH   1   2
BRANCH   1  25
ATOM     25  C   UNL A   1      34.808  23.567  25.498  1.00  0.00     0.023 C 
BRANCH  25  26
ATOM     26  C   UNL A   1      36.156  23.118  26.027  1.00  0.00     0.023 C 
BRANCH  26  27
ATOM     27  C   UNL A   1      37.299  23.078  25.031  1.00  0.00     0.116 C 
BRANCH  27  28
ATOM     28  N   UNL A   1      38.508  22.382  25.463  1.00  0.00    -0.352 N 
ATOM     29  C   UNL A   1      39.501  22.827  26.321  1.00  0.00     0.251 C 
ATOM     30  H   UNL A   1      38.632  21.477  25.097  1.00  0.00     0.163 HD
ATOM     31  O   UNL A   1      40.451  22.109  26.610  1.00  0.00    -0.269 OA
BRANCH  29  32
ATOM     32  C   UNL A   1      39.437  24.217  26.826  1.00  0.00     0.039 A 
ATOM     33  C   UNL A   1      38.926  24.453  28.104  1.00  0.00     0.014 A 
ATOM     34  C   UNL A   1      40.048  25.243  26.112  1.00  0.00     0.014 A 
ATOM     35  C   UNL A   1      39.176  25.682  28.722  1.00  0.00     0.010 A 
ATOM     36  C   UNL A   1      40.436  26.390  26.790  1.00  0.00     0.010 A 
ATOM     37  C   UNL A   1      40.010  26.628  28.106  1.00  0.00    -0.014 A 
BRANCH  37  38
ATOM     38  C   UNL A   1      40.459  27.868  28.802  1.00  0.00     0.031 A 
ATOM     39  C   UNL A   1      41.836  27.919  29.418  1.00  0.00     0.074 A 
ATOM     40  C   UNL A   1      39.610  28.906  28.971  1.00  0.00     0.049 A 
ATOM     41  N   UNL A   1      42.368  28.841  30.179  1.00  0.00    -0.248 NA
ATOM     42  C   UNL A   1      42.713  26.755  29.194  1.00  0.00     0.031 C 
ATOM     43  C   UNL A   1      38.225  28.966  28.494  1.00  0.00     0.029 A 
ATOM     44  N   UNL A   1      39.787  30.116  29.600  1.00  0.00    -0.354 N 
ATOM     45  C   UNL A   1      43.616  28.350  30.547  1.00  0.00     0.074 A 
ATOM     46  C   UNL A   1      43.729  27.020  29.999  1.00  0.00     0.031 C 
ATOM     47  C   UNL A   1      37.698  30.163  28.806  1.00  0.00     0.029 A 
ATOM     48  C   UNL A   1      38.683  30.939  29.550  1.00  0.00     0.049 A 
ATOM     49  H   UNL A   1      40.627  30.371  30.046  1.00  0.00     0.167 HD
ATOM     50  C   UNL A   1      44.602  28.963  31.244  1.00  0.00     0.031 A 
ATOM     51  C   UNL A   1      38.486  32.177  30.047  1.00  0.00     0.031 A 
ATOM     52  C   UNL A   1      44.513  30.307  31.743  1.00  0.00     0.049 A 
ATOM     53  C   UNL A   1      39.606  32.850  30.794  1.00  0.00     0.074 A 
ATOM     54  C   UNL A   1      45.481  31.047  32.396  1.00  0.00     0.029 A 
ATOM     55  N   UNL A   1      43.395  31.118  31.627  1.00  0.00    -0.354 N 
ATOM     56  N   UNL A   1      40.803  32.391  31.072  1.00  0.00    -0.248 NA
ATOM     57  C   UNL A   1      39.356  34.214  31.282  1.00  0.00     0.031 C 
ATOM     58  C   UNL A   1      44.933  32.291  32.717  1.00  0.00     0.029 A 
ATOM     59  C   UNL A   1      43.644  32.348  32.210  1.00  0.00     0.049 A 
ATOM     60  H   UNL A   1      42.549  30.858  31.195  1.00  0.00     0.167 HD
ATOM     61  C   UNL A   1      41.457  33.420  31.742  1.00  0.00     0.074 A 
ATOM     62  C   UNL A   1      40.530  34.531  31.810  1.00  0.00     0.031 C 
ATOM     63  C   UNL A   1      42.712  33.444  32.256  1.00  0.00     0.031 A 
BRANCH  50  64
ATOM     64  C   UNL A   1      45.873  28.189  31.477  1.00  0.00    -0.014 A 
ATOM     65  C   UNL A   1      46.963  28.300  30.594  1.00  0.00     0.010 A 
ATOM     66  C   UNL A   1      45.993  27.364  32.610  1.00  0.00     0.010 A 
ATOM     67  C   UNL A   1      48.130  27.568  30.812  1.00  0.00     0.020 A 
ATOM     68  C   UNL A   1      47.175  26.656  32.852  1.00  0.00     0.020 A 
ATOM     69  C   UNL A   1      48.230  26.750  31.942  1.00  0.00     0.054 A 
BRANCH  69  70
ATOM     70  S   UNL A   1      49.773  25.840  32.217  1.00  0.00     0.124 S 
ATOM     71  O   UNL A   1      49.485  25.128  33.460  1.00  0.00    -0.237 OA
ATOM     72  O   UNL A   1      49.868  25.004  31.023  1.00  0.00    -0.237 OA
ATOM     73  O   UNL A   1      50.783  26.891  32.321  1.00  0.00    -0.744 OA
ENDBRANCH  69  70
ENDBRANCH  50  64
BRANCH  51  74
ATOM     74  C   UNL A   1      37.181  32.872  29.845  1.00  0.00    -0.014 A 
ATOM     75  C   UNL A   1      36.892  33.507  28.622  1.00  0.00     0.010 A 
ATOM     76  C   UNL A   1      36.223  32.915  30.874  1.00  0.00     0.010 A 
ATOM     77  C   UNL A   1      35.687  34.195  28.444  1.00  0.00     0.020 A 
ATOM     78  C   UNL A   1      35.004  33.575  30.689  1.00  0.00     0.020 A 
ATOM     79  C   UNL A   1      34.749  34.224  29.480  1.00  0.00     0.054 A 
BRANCH  79  80
ATOM     80  S   UNL A   1      33.178  35.093  29.215  1.00  0.00     0.124 S 
ATOM     81  O   UNL A   1      32.557  34.286  28.170  1.00  0.00    -0.237 OA
ATOM     82  O   UNL A   1      32.549  35.017  30.532  1.00  0.00    -0.237 OA
ATOM     83  O   UNL A   1      33.593  36.434  28.809  1.00  0.00    -0.744 OA
ENDBRANCH  79  80
ENDBRANCH  51  74
BRANCH  63  84
ATOM     84  C   UNL A   1      43.176  34.723  32.899  1.00  0.00    -0.014 A 
ATOM     85  C   UNL A   1      43.063  34.926  34.286  1.00  0.00     0.010 A 
ATOM     86  C   UNL A   1      43.797  35.707  32.108  1.00  0.00     0.010 A 
ATOM     87  C   UNL A   1      43.538  36.105  34.865  1.00  0.00     0.020 A 
ATOM     88  C   UNL A   1      44.300  36.872  32.688  1.00  0.00     0.020 A 
ATOM     89  C   UNL A   1      44.155  37.071  34.062  1.00  0.00     0.054 A 
BRANCH  89  90
ATOM     90  S   UNL A   1      44.807  38.570  34.847  1.00  0.00     0.124 S 
ATOM     91  O   UNL A   1      44.505  39.591  33.848  1.00  0.00    -0.237 OA
ATOM     92  O   UNL A   1      44.029  38.648  36.081  1.00  0.00    -0.237 OA
ATOM     93  O   UNL A   1      46.226  38.277  35.030  1.00  0.00    -0.744 OA
ENDBRANCH  89  90
ENDBRANCH  63  84
ENDBRANCH  37  38
ENDBRANCH  29  32
ENDBRANCH  27  28
ENDBRANCH  26  27
ENDBRANCH  25  26
ENDBRANCH   1  25
TORSDOF 19
ENDMDL
MODEL 2
REMARK VINA RESULT:     -10.5      1.570      3.696
REMARK SMILES Cc1nc(SCc2ccccc2)[nH]c(=O)c1CCC(=O)NCCCCNC(=O)c1ccc(-c2c3nc(c(-c4ccc(S(=O)(=O)[O-])cc4)c4ccc([nH]4)c(-c4ccc(S(=O)(=O)[O-])cc4)c4nc(c(-c5ccc(S(=O)(=O)[O-])cc5)c5ccc2[nH]5)C=C4)C=C3)cc1
REMARK SMILES IDX 22 1 21 2 19 3 20 4 18 6 17 7 16 8 1 9 2 10 3 11 4 12 14 13
REMARK SMILES IDX 13 14 15 15 5 17 6 18 7 19 8 20 12 21 9 22 11 23 10 24 23 25
REMARK SMILES IDX 24 26 25 27 26 28 27 29 28 31 29 32 30 33 88 34 31 35 87 36
REMARK SMILES IDX 32 37 33 38 34 39 81 40 35 41 86 42 80 43 82 44 36 45 85 46
REMARK SMILES IDX 79 47 78 48 37 50 67 51 48 52 66 53 49 54 52 55 65 56 83 57
REMARK SMILES IDX 50 58 51 59 64 61 84 62 53 63 38 64 39 65 47 66 40 67 46 68
REMARK SMILES IDX 41 69 42 70 43 71 44 72 45 73 68 74 69 75 77 76 70 77 76 78
REMARK SMILES IDX 71 79 72 80 73 81 74 82 75 83 54 84 55 85 63 86 56 87 62 88
REMARK SMILES IDX 57 89 58 90 59 91 60 92 61 93
REMARK H PARENT 21 5 13 16 26 30 82 49 52 60
REMARK Flexibility Score: inf
ROOT
ATOM      1  C   UNL A   1      34.382  20.310  25.369  1.00  0.00     0.116 C 
ENDROOT
BRANCH   1   2
ATOM      2  N   UNL A   1      33.329  20.790  24.490  1.00  0.00    -0.356 N 
ATOM      3  C   UNL A   1      32.341  21.704  24.671  1.00  0.00     0.220 C 
ATOM      4  O   UNL A   1      31.508  21.850  23.773  1.00  0.00    -0.275 OA
ATOM      5  H   UNL A   1      33.332  20.375  23.597  1.00  0.00     0.163 HD
BRANCH   3   6
ATOM      6  C   UNL A   1      32.286  22.575  25.911  1.00  0.00     0.105 C 
BRANCH   6   7
ATOM      7  C   UNL A   1      32.812  24.004  25.679  1.00  0.00     0.053 C 
BRANCH   7   8
ATOM      8  C   UNL A   1      31.868  24.816  24.826  1.00  0.00     0.039 A 
ATOM      9  C   UNL A   1      33.154  24.705  22.686  1.00  0.00     0.067 C 
ATOM     10  C   UNL A   1      32.018  25.201  23.540  1.00  0.00     0.049 A 
ATOM     11  N   UNL A   1      31.260  26.201  22.949  1.00  0.00    -0.229 NA
ATOM     12  C   UNL A   1      30.400  26.797  23.701  1.00  0.00     0.168 A 
ATOM     13  C   UNL A   1      30.620  25.256  25.477  1.00  0.00     0.254 A 
ATOM     14  N   UNL A   1      30.027  26.334  24.916  1.00  0.00    -0.301 N 
ATOM     15  O   UNL A   1      30.184  24.706  26.487  1.00  0.00    -0.269 OA
ATOM     16  H   UNL A   1      29.308  26.794  25.404  1.00  0.00     0.172 HD
BRANCH  12  17
ATOM     17  S   UNL A   1      29.611  28.299  23.386  1.00  0.00    -0.083 SA
BRANCH  17  18
ATOM     18  C   UNL A   1      30.664  29.581  24.062  1.00  0.00     0.113 C 
BRANCH  18  19
ATOM     19  C   UNL A   1      31.801  29.274  25.020  1.00  0.00    -0.038 A 
ATOM     20  C   UNL A   1      33.056  28.949  24.471  1.00  0.00     0.004 A 
ATOM     21  C   UNL A   1      31.646  29.097  26.399  1.00  0.00     0.004 A 
ATOM     22  C   UNL A   1      34.081  28.414  25.258  1.00  0.00     0.000 A 
ATOM     23  C   UNL A   1      32.658  28.539  27.186  1.00  0.00     0.000 A 
ATOM     24  C   UNL A   1      33.870  28.182  26.613  1.00  0.00     0.000 A 
ENDBRANCH  18  19
ENDBRANCH  17  18
ENDBRANCH  12  17
ENDBRANCH   7   8
ENDBRANCH   6   7
ENDBRANCH   3   6
ENDBRANCH   1   2
BRANCH   1  25
ATOM     25  C   UNL A   1      35.722  20.952  25.001  1.00  0.00     0.023 C 
BRANCH  25  26
ATOM     26  C   UNL A   1      36.124  22.203  25.758  1.00  0.00     0.023 C 
BRANCH  26  27
ATOM     27  C   UNL A   1      37.377  22.914  25.282  1.00  0.00     0.116 C 
BRANCH  27  28
ATOM     28  N   UNL A   1      38.647  22.284  25.629  1.00  0.00    -0.352 N 
ATOM     29  C   UNL A   1      39.686  22.795  26.390  1.00  0.00     0.251 C 
ATOM     30  H   UNL A   1      38.783  21.375  25.276  1.00  0.00     0.163 HD
ATOM     31  O   UNL A   1      40.689  22.128  26.617  1.00  0.00    -0.269 OA
BRANCH  29  32
ATOM     32  C   UNL A   1      39.599  24.195  26.866  1.00  0.00     0.039 A 
ATOM     33  C   UNL A   1      39.079  24.451  28.136  1.00  0.00     0.014 A 
ATOM     34  C   UNL A   1      40.199  25.214  26.133  1.00  0.00     0.014 A 
ATOM     35  C   UNL A   1      39.307  25.695  28.729  1.00  0.00     0.010 A 
ATOM     36  C   UNL A   1      40.567  26.381  26.787  1.00  0.00     0.010 A 
ATOM     37  C   UNL A   1      40.131  26.641  28.097  1.00  0.00    -0.014 A 
BRANCH  37  38
ATOM     38  C   UNL A   1      40.559  27.901  28.768  1.00  0.00     0.031 A 
ATOM     39  C   UNL A   1      41.938  27.992  29.374  1.00  0.00     0.074 A 
ATOM     40  C   UNL A   1      39.689  28.924  28.924  1.00  0.00     0.049 A 
ATOM     41  N   UNL A   1      42.456  28.937  30.114  1.00  0.00    -0.248 NA
ATOM     42  C   UNL A   1      42.837  26.842  29.164  1.00  0.00     0.031 C 
ATOM     43  C   UNL A   1      38.300  28.948  28.456  1.00  0.00     0.029 A 
ATOM     44  N   UNL A   1      39.846  30.148  29.531  1.00  0.00    -0.354 N 
ATOM     45  C   UNL A   1      43.716  28.478  30.483  1.00  0.00     0.074 A 
ATOM     46  C   UNL A   1      43.853  27.142  29.957  1.00  0.00     0.031 C 
ATOM     47  C   UNL A   1      37.751  30.139  28.751  1.00  0.00     0.029 A 
ATOM     48  C   UNL A   1      38.725  30.948  29.474  1.00  0.00     0.049 A 
ATOM     49  H   UNL A   1      40.683  30.428  29.967  1.00  0.00     0.167 HD
ATOM     50  C   UNL A   1      44.694  29.124  31.162  1.00  0.00     0.031 A 
ATOM     51  C   UNL A   1      38.505  32.189  29.952  1.00  0.00     0.031 A 
ATOM     52  C   UNL A   1      44.580  30.474  31.639  1.00  0.00     0.049 A 
ATOM     53  C   UNL A   1      39.616  32.899  30.679  1.00  0.00     0.074 A 
ATOM     54  C   UNL A   1      45.537  31.245  32.273  1.00  0.00     0.029 A 
ATOM     55  N   UNL A   1      43.445  31.260  31.516  1.00  0.00    -0.354 N 
ATOM     56  N   UNL A   1      40.824  32.469  30.957  1.00  0.00    -0.248 NA
ATOM     57  C   UNL A   1      39.340  34.266  31.145  1.00  0.00     0.031 C 
ATOM     58  C   UNL A   1      44.965  32.483  32.576  1.00  0.00     0.029 A 
ATOM     59  C   UNL A   1      43.672  32.504  32.076  1.00  0.00     0.049 A 
ATOM     60  H   UNL A   1      42.601  30.975  31.094  1.00  0.00     0.167 HD
ATOM     61  C   UNL A   1      41.460  33.523  31.604  1.00  0.00     0.074 A 
ATOM     62  C   UNL A   1      40.511  34.615  31.659  1.00  0.00     0.031 C 
ATOM     63  C   UNL A   1      42.717  33.581  32.110  1.00  0.00     0.031 A 
BRANCH  50  64
ATOM     64  C   UNL A   1      45.982  28.380  31.401  1.00  0.00    -0.014 A 
ATOM     65  C   UNL A   1      47.027  28.419  30.459  1.00  0.00     0.010 A 
ATOM     66  C   UNL A   1      46.164  27.658  32.594  1.00  0.00     0.010 A 
ATOM     67  C   UNL A   1      48.211  27.716  30.684  1.00  0.00     0.020 A 
ATOM     68  C   UNL A   1      47.362  26.980  32.839  1.00  0.00     0.020 A 
ATOM     69  C   UNL A   1      48.372  27.001  31.874  1.00  0.00     0.054 A 
BRANCH  69  70
ATOM     70  S   UNL A   1      49.936  26.126  32.153  1.00  0.00     0.124 S 
ATOM     71  O   UNL A   1      49.474  24.776  32.466  1.00  0.00    -0.237 OA
ATOM     72  O   UNL A   1      50.617  26.273  30.869  1.00  0.00    -0.237 OA
ATOM     73  O   UNL A   1      50.545  26.850  33.266  1.00  0.00    -0.744 OA
ENDBRANCH  69  70
ENDBRANCH  50  64
BRANCH  51  74
ATOM     74  C   UNL A   1      37.185  32.855  29.745  1.00  0.00    -0.014 A 
ATOM     75  C   UNL A   1      36.886  33.487  28.524  1.00  0.00     0.010 A 
ATOM     76  C   UNL A   1      36.222  32.871  30.771  1.00  0.00     0.010 A 
ATOM     77  C   UNL A   1      35.665  34.147  28.343  1.00  0.00     0.020 A 
ATOM     78  C   UNL A   1      34.988  33.502  30.583  1.00  0.00     0.020 A 
ATOM     79  C   UNL A   1      34.723  34.150  29.376  1.00  0.00     0.054 A 
BRANCH  79  80
ATOM     80  S   UNL A   1      33.132  34.982  29.107  1.00  0.00     0.124 S 
ATOM     81  O   UNL A   1      33.553  36.302  28.648  1.00  0.00    -0.237 OA
ATOM     82  O   UNL A   1      32.499  34.133  28.100  1.00  0.00    -0.237 OA
ATOM     83  O   UNL A   1      32.501  34.946  30.424  1.00  0.00    -0.744 OA
ENDBRANCH  79  80
ENDBRANCH  51  74
BRANCH  63  84
ATOM     84  C   UNL A   1      43.159  34.881  32.728  1.00  0.00    -0.014 A 
ATOM     85  C   UNL A   1      43.711  35.911  31.946  1.00  0.00     0.010 A 
ATOM     86  C   UNL A   1      42.955  35.095  34.104  1.00  0.00     0.010 A 
ATOM     87  C   UNL A   1      44.076  37.124  32.536  1.00  0.00     0.020 A 
ATOM     88  C   UNL A   1      43.291  36.316  34.690  1.00  0.00     0.020 A 
ATOM     89  C   UNL A   1      43.863  37.319  33.905  1.00  0.00     0.054 A 
BRANCH  89  90
ATOM     90  S   UNL A   1      44.302  38.919  34.636  1.00  0.00     0.124 S 
ATOM     91  O   UNL A   1      44.122  38.661  36.062  1.00  0.00    -0.237 OA
ATOM     92  O   UNL A   1      45.683  39.102  34.199  1.00  0.00    -0.237 OA
ATOM     93  O   UNL A   1      43.339  39.846  34.044  1.00  0.00    -0.744 OA
ENDBRANCH  89  90
ENDBRANCH  63  84
ENDBRANCH  37  38
ENDBRANCH  29  32
ENDBRANCH  27  28
ENDBRANCH  26  27
ENDBRANCH  25  26
ENDBRANCH   1  25
TORSDOF 19
ENDMDL
MODEL 3
REMARK VINA RESULT:     -10.3      1.706      3.864
REMARK SMILES Cc1nc(SCc2ccccc2)[nH]c(=O)c1CCC(=O)NCCCCNC(=O)c1ccc(-c2c3nc(c(-c4ccc(S(=O)(=O)[O-])cc4)c4ccc([nH]4)c(-c4ccc(S(=O)(=O)[O-])cc4)c4nc(c(-c5ccc(S(=O)(=O)[O-])cc5)c5ccc2[nH]5)C=C4)C=C3)cc1
REMARK SMILES IDX 22 1 21 2 19 3 20 4 18 6 17 7 16 8 1 9 2 10 3 11 4 12 14 13
REMARK SMILES IDX 13 14 15 15 5 17 6 18 7 19 8 20 12 21 9 22 11 23 10 24 23 25
REMARK SMILES IDX 24 26 25 27 26 28 27 29 28 31 29 32 30 33 88 34 31 35 87 36
REMARK SMILES IDX 32 37 33 38 34 39 81 40 35 41 86 42 80 43 82 44 36 45 85 46
REMARK SMILES IDX 79 47 78 48 37 50 67 51 48 52 66 53 49 54 52 55 65 56 83 57
REMARK SMILES IDX 50 58 51 59 64 61 84 62 53 63 38 64 39 65 47 66 40 67 46 68
REMARK SMILES IDX 41 69 42 70 43 71 44 72 45 73 68 74 69 75 77 76 70 77 76 78
REMARK SMILES IDX 71 79 72 80 73 81 74 82 75 83 54 84 55 85 63 86 56 87 62 88
REMARK SMILES IDX 57 89 58 90 59 91 60 92 61 93
REMARK H PARENT 21 5 13 16 26 30 82 49 52 60
REMARK Flexibility Score: inf
ROOT
ATOM      1  C   UNL A   1      34.555  21.345  26.747  1.00  0.00     0.116 C 
ENDROOT
BRANCH   1   2
ATOM      2  N   UNL A   1      33.794  20.359  25.998  1.00  0.00    -0.356 N 
ATOM      3  C   UNL A   1      32.586  20.420  25.381  1.00  0.00     0.220 C 
ATOM      4  O   UNL A   1      32.126  19.384  24.892  1.00  0.00    -0.275 OA
ATOM      5  H   UNL A   1      34.238  19.483  25.925  1.00  0.00     0.163 HD
BRANCH   3   6
ATOM      6  C   UNL A   1      31.839  21.730  25.232  1.00  0.00     0.105 C 
BRANCH   6   7
ATOM      7  C   UNL A   1      32.031  22.391  23.854  1.00  0.00     0.053 C 
BRANCH   7   8
ATOM      8  C   UNL A   1      32.684  23.747  23.971  1.00  0.00     0.039 A 
ATOM      9  C   UNL A   1      32.122  24.195  26.365  1.00  0.00     0.067 C 
ATOM     10  C   UNL A   1      32.683  24.593  25.025  1.00  0.00     0.049 A 
ATOM     11  N   UNL A   1      33.029  25.932  24.931  1.00  0.00    -0.229 NA
ATOM     12  C   UNL A   1      33.330  26.371  23.758  1.00  0.00     0.168 A 
ATOM     13  C   UNL A   1      33.413  24.222  22.781  1.00  0.00     0.254 A 
ATOM     14  N   UNL A   1      33.575  25.563  22.702  1.00  0.00    -0.301 N 
ATOM     15  O   UNL A   1      33.799  23.451  21.904  1.00  0.00    -0.269 OA
ATOM     16  H   UNL A   1      33.877  25.960  21.854  1.00  0.00     0.172 HD
BRANCH  12  17
ATOM     17  S   UNL A   1      33.414  28.020  23.258  1.00  0.00    -0.083 SA
BRANCH  17  18
ATOM     18  C   UNL A   1      32.028  28.858  24.023  1.00  0.00     0.113 C 
BRANCH  18  19
ATOM     19  C   UNL A   1      30.601  28.668  23.541  1.00  0.00    -0.038 A 
ATOM     20  C   UNL A   1      29.892  29.807  23.114  1.00  0.00     0.004 A 
ATOM     21  C   UNL A   1      29.874  27.480  23.673  1.00  0.00     0.004 A 
ATOM     22  C   UNL A   1      28.511  29.768  22.895  1.00  0.00     0.000 A 
ATOM     23  C   UNL A   1      28.490  27.440  23.480  1.00  0.00     0.000 A 
ATOM     24  C   UNL A   1      27.805  28.588  23.107  1.00  0.00     0.000 A 
ENDBRANCH  18  19
ENDBRANCH  17  18
ENDBRANCH  12  17
ENDBRANCH   7   8
ENDBRANCH   6   7
ENDBRANCH   3   6
ENDBRANCH   1   2
BRANCH   1  25
ATOM     25  C   UNL A   1      35.889  21.634  26.055  1.00  0.00     0.023 C 
BRANCH  25  26
ATOM     26  C   UNL A   1      36.039  22.977  25.368  1.00  0.00     0.023 C 
BRANCH  26  27
ATOM     27  C   UNL A   1      37.394  23.282  24.758  1.00  0.00     0.116 C 
BRANCH  27  28
ATOM     28  N   UNL A   1      38.525  22.523  25.285  1.00  0.00    -0.352 N 
ATOM     29  C   UNL A   1      39.449  22.904  26.244  1.00  0.00     0.251 C 
ATOM     30  H   UNL A   1      38.646  21.621  24.909  1.00  0.00     0.163 HD
ATOM     31  O   UNL A   1      40.336  22.139  26.604  1.00  0.00    -0.269 OA
BRANCH  29  32
ATOM     32  C   UNL A   1      39.395  24.285  26.778  1.00  0.00     0.039 A 
ATOM     33  C   UNL A   1      38.783  24.514  28.011  1.00  0.00     0.014 A 
ATOM     34  C   UNL A   1      40.107  25.300  26.146  1.00  0.00     0.014 A 
ATOM     35  C   UNL A   1      39.024  25.717  28.680  1.00  0.00     0.010 A 
ATOM     36  C   UNL A   1      40.478  26.415  26.883  1.00  0.00     0.010 A 
ATOM     37  C   UNL A   1      39.947  26.642  28.164  1.00  0.00    -0.014 A 
BRANCH  37  38
ATOM     38  C   UNL A   1      40.380  27.847  28.927  1.00  0.00     0.031 A 
ATOM     39  C   UNL A   1      41.721  27.846  29.621  1.00  0.00     0.074 A 
ATOM     40  C   UNL A   1      39.544  28.897  29.085  1.00  0.00     0.049 A 
ATOM     41  N   UNL A   1      42.228  28.729  30.442  1.00  0.00    -0.248 NA
ATOM     42  C   UNL A   1      42.585  26.671  29.404  1.00  0.00     0.031 C 
ATOM     43  C   UNL A   1      38.190  29.004  28.535  1.00  0.00     0.029 A 
ATOM     44  N   UNL A   1      39.710  30.080  29.766  1.00  0.00    -0.354 N 
ATOM     45  C   UNL A   1      43.443  28.198  30.862  1.00  0.00     0.074 A 
ATOM     46  C   UNL A   1      43.560  26.885  30.273  1.00  0.00     0.031 C 
ATOM     47  C   UNL A   1      37.671  30.201  28.859  1.00  0.00     0.029 A 
ATOM     48  C   UNL A   1      38.628  30.929  29.684  1.00  0.00     0.049 A 
ATOM     49  H   UNL A   1      40.528  30.301  30.267  1.00  0.00     0.167 HD
ATOM     50  C   UNL A   1      44.400  28.764  31.633  1.00  0.00     0.031 A 
ATOM     51  C   UNL A   1      38.427  32.152  30.214  1.00  0.00     0.031 A 
ATOM     52  C   UNL A   1      44.310  30.092  32.174  1.00  0.00     0.049 A 
ATOM     53  C   UNL A   1      39.518  32.775  31.045  1.00  0.00     0.074 A 
ATOM     54  C   UNL A   1      45.254  30.787  32.907  1.00  0.00     0.029 A 
ATOM     55  N   UNL A   1      43.217  30.931  32.025  1.00  0.00    -0.354 N 
ATOM     56  N   UNL A   1      40.687  32.280  31.373  1.00  0.00    -0.248 NA
ATOM     57  C   UNL A   1      39.267  34.126  31.567  1.00  0.00     0.031 C 
ATOM     58  C   UNL A   1      44.714  32.031  33.241  1.00  0.00     0.029 A 
ATOM     59  C   UNL A   1      43.458  32.134  32.665  1.00  0.00     0.049 A 
ATOM     60  H   UNL A   1      42.392  30.705  31.538  1.00  0.00     0.167 HD
ATOM     61  C   UNL A   1      41.323  33.270  32.114  1.00  0.00     0.074 A 
ATOM     62  C   UNL A   1      40.416  34.398  32.170  1.00  0.00     0.031 C 
ATOM     63  C   UNL A   1      42.547  33.248  32.698  1.00  0.00     0.031 A 
BRANCH  50  64
ATOM     64  C   UNL A   1      45.640  27.954  31.910  1.00  0.00    -0.014 A 
ATOM     65  C   UNL A   1      45.790  27.247  33.118  1.00  0.00     0.010 A 
ATOM     66  C   UNL A   1      46.654  27.871  30.939  1.00  0.00     0.010 A 
ATOM     67  C   UNL A   1      46.948  26.511  33.369  1.00  0.00     0.020 A 
ATOM     68  C   UNL A   1      47.801  27.105  31.173  1.00  0.00     0.020 A 
ATOM     69  C   UNL A   1      47.947  26.443  32.394  1.00  0.00     0.054 A 
BRANCH  69  70
ATOM     70  S   UNL A   1      49.424  25.449  32.736  1.00  0.00     0.124 S 
ATOM     71  O   UNL A   1      50.259  26.394  33.473  1.00  0.00    -0.237 OA
ATOM     72  O   UNL A   1      48.888  24.341  33.523  1.00  0.00    -0.237 OA
ATOM     73  O   UNL A   1      49.915  25.088  31.408  1.00  0.00    -0.744 OA
ENDBRANCH  69  70
ENDBRANCH  50  64
BRANCH  51  74
ATOM     74  C   UNL A   1      37.151  32.883  29.963  1.00  0.00    -0.014 A 
ATOM     75  C   UNL A   1      36.050  32.717  30.825  1.00  0.00     0.010 A 
ATOM     76  C   UNL A   1      37.021  33.742  28.856  1.00  0.00     0.010 A 
ATOM     77  C   UNL A   1      34.840  33.369  30.569  1.00  0.00     0.020 A 
ATOM     78  C   UNL A   1      35.822  34.421  28.615  1.00  0.00     0.020 A 
ATOM     79  C   UNL A   1      34.734  34.219  29.464  1.00  0.00     0.054 A 
BRANCH  79  80
ATOM     80  S   UNL A   1      33.164  35.082  29.171  1.00  0.00     0.124 S 
ATOM     81  O   UNL A   1      33.618  36.387  28.701  1.00  0.00    -0.237 OA
ATOM     82  O   UNL A   1      32.521  34.236  28.168  1.00  0.00    -0.237 OA
ATOM     83  O   UNL A   1      32.521  35.077  30.483  1.00  0.00    -0.744 OA
ENDBRANCH  79  80
ENDBRANCH  51  74
BRANCH  63  84
ATOM     84  C   UNL A   1      43.000  34.493  33.412  1.00  0.00    -0.014 A 
ATOM     85  C   UNL A   1      42.601  34.765  34.732  1.00  0.00     0.010 A 
ATOM     86  C   UNL A   1      43.895  35.369  32.769  1.00  0.00     0.010 A 
ATOM     87  C   UNL A   1      43.067  35.908  35.387  1.00  0.00     0.020 A 
ATOM     88  C   UNL A   1      44.386  36.495  33.432  1.00  0.00     0.020 A 
ATOM     89  C   UNL A   1      43.958  36.765  34.733  1.00  0.00     0.054 A 
BRANCH  89  90
ATOM     90  S   UNL A   1      44.586  38.214  35.624  1.00  0.00     0.124 S 
ATOM     91  O   UNL A   1      46.023  38.120  35.383  1.00  0.00    -0.237 OA
ATOM     92  O   UNL A   1      43.906  39.320  34.954  1.00  0.00    -0.237 OA
ATOM     93  O   UNL A   1      44.169  37.979  37.005  1.00  0.00    -0.744 OA
ENDBRANCH  89  90
ENDBRANCH  63  84
ENDBRANCH  37  38
ENDBRANCH  29  32
ENDBRANCH  27  28
ENDBRANCH  26  27
ENDBRANCH  25  26
ENDBRANCH   1  25
TORSDOF 19
ENDMDL
