MODEL 1
REMARK VINA RESULT:     -11.6      0.000      0.000
REMARK SMILES Cc1nnc(SCC2=C(C(=O)NCCCCNC(=O)c3ccc(-c4c5nc(c(-c6ccc(S(=O)(=O)[O-])cc6)c6ccc([nH]6)c(-c6ccc(S(=O)(=O)[O-])cc6)c6nc(c(-c7ccc(S(=O)(=O)[O-])cc7)c7ccc4[nH]7)C=C6)C=C5)cc3)N3C(=O)[C@H](NC(=O)c4cn(C)nc4C)[C@@H]3SC2)s1
REMARK SMILES IDX 14 1 13 2 12 3 10 4 11 5 9 7 8 8 96 9 80 10 95 11 81 12
REMARK SMILES IDX 94 13 82 14 83 15 7 16 6 17 5 18 1 19 2 20 3 21 97 22 4 23
REMARK SMILES IDX 84 24 85 25 86 27 87 28 88 29 92 30 89 31 91 32 93 33 90 34
REMARK SMILES IDX 15 35 16 36 17 37 18 38 19 40 20 41 21 42 79 43 22 44 78 45
REMARK SMILES IDX 23 46 24 47 25 48 72 49 26 50 77 51 71 52 73 53 27 54 76 55
REMARK SMILES IDX 70 56 69 57 28 59 58 60 39 61 57 62 40 63 43 64 56 65 74 66
REMARK SMILES IDX 41 67 42 68 55 70 75 71 44 72 29 73 30 74 38 75 31 76 37 77
REMARK SMILES IDX 32 78 33 79 34 80 35 81 36 82 59 83 60 84 68 85 61 86 67 87
REMARK SMILES IDX 62 88 63 89 64 90 65 91 66 92 45 93 46 94 54 95 47 96 53 97
REMARK SMILES IDX 48 98 49 99 50 100 51 101 52 102
REMARK H PARENT 12 6 84 26 17 39 73 58 43 69
REMARK Flexibility Score: inf
ROOT
ATOM      1  C   UNL A   1      36.107  23.107  25.489  1.00  0.00     0.023 C 
ENDROOT
BRANCH   1   2
ATOM      2  C   UNL A   1      35.365  24.010  24.508  1.00  0.00     0.116 C 
BRANCH   2   3
ATOM      3  N   UNL A   1      34.994  23.484  23.214  1.00  0.00    -0.351 N 
ATOM      4  C   UNL A   1      33.873  23.656  22.436  1.00  0.00     0.268 C 
ATOM      5  O   UNL A   1      34.003  23.334  21.253  1.00  0.00    -0.268 OA
ATOM      6  H   UNL A   1      35.672  22.893  22.814  1.00  0.00     0.163 HD
BRANCH   4   7
ATOM      7  C   UNL A   1      32.494  24.097  22.968  1.00  0.00     0.111 C 
ATOM      8  C   UNL A   1      31.669  23.360  23.777  1.00  0.00    -0.020 C 
ATOM      9  C   UNL A   1      30.297  23.841  24.228  1.00  0.00     0.106 C 
ATOM     10  N   UNL A   1      32.141  25.400  22.672  1.00  0.00    -0.290 N 
ATOM     11  S   UNL A   1      30.111  25.622  24.379  1.00  0.00    -0.129 SA
ATOM     12  C   UNL A   1      32.732  26.555  22.262  1.00  0.00     0.253 C 
ATOM     13  C   UNL A   1      30.799  25.942  22.751  1.00  0.00     0.181 C 
ATOM     14  O   UNL A   1      33.833  26.886  21.902  1.00  0.00    -0.272 OA
ATOM     15  C   UNL A   1      31.419  27.354  22.544  1.00  0.00     0.206 C 
BRANCH   8  16
ATOM     16  C   UNL A   1      32.054  21.989  24.303  1.00  0.00     0.111 C 
BRANCH  16  17
ATOM     17  S   UNL A   1      32.487  20.658  23.168  1.00  0.00    -0.089 SA
BRANCH  17  18
ATOM     18  C   UNL A   1      32.556  19.284  24.228  1.00  0.00     0.174 A 
ATOM     19  C   UNL A   1      32.628  15.716  25.584  1.00  0.00     0.081 C 
ATOM     20  C   UNL A   1      32.605  17.161  25.260  1.00  0.00     0.115 A 
ATOM     21  N   UNL A   1      32.523  18.137  26.140  1.00  0.00    -0.143 NA
ATOM     22  S   UNL A   1      32.671  17.686  23.629  1.00  0.00    -0.091 S 
ATOM     23  N   UNL A   1      32.494  19.377  25.535  1.00  0.00    -0.132 NA
ENDBRANCH  17  18
ENDBRANCH  16  17
ENDBRANCH   8  16
BRANCH  15  24
ATOM     24  N   UNL A   1      31.458  28.256  23.732  1.00  0.00    -0.337 N 
ATOM     25  C   UNL A   1      30.698  29.363  24.019  1.00  0.00     0.255 C 
ATOM     26  H   UNL A   1      32.130  28.022  24.412  1.00  0.00     0.164 HD
ATOM     27  O   UNL A   1      30.919  29.993  25.051  1.00  0.00    -0.269 OA
BRANCH  25  28
ATOM     28  C   UNL A   1      29.682  29.783  23.074  1.00  0.00     0.080 A 
ATOM     29  C   UNL A   1      29.750  30.792  22.130  1.00  0.00     0.122 A 
ATOM     30  C   UNL A   1      28.402  29.197  22.863  1.00  0.00     0.072 A 
ATOM     31  N   UNL A   1      28.540  30.810  21.503  1.00  0.00    -0.275 N 
ATOM     32  N   UNL A   1      27.707  29.843  21.916  1.00  0.00    -0.178 NA
ATOM     33  C   UNL A   1      27.780  28.048  23.570  1.00  0.00     0.069 C 
ATOM     34  C   UNL A   1      28.085  31.755  20.513  1.00  0.00     0.173 C 
ENDBRANCH  25  28
ENDBRANCH  15  24
ENDBRANCH   4   7
ENDBRANCH   2   3
ENDBRANCH   1   2
BRANCH   1  35
ATOM     35  C   UNL A   1      37.300  22.296  24.981  1.00  0.00     0.023 C 
BRANCH  35  36
ATOM     36  C   UNL A   1      38.534  22.174  25.873  1.00  0.00     0.116 C 
BRANCH  36  37
ATOM     37  N   UNL A   1      39.175  20.864  25.874  1.00  0.00    -0.352 N 
ATOM     38  C   UNL A   1      40.470  20.488  26.169  1.00  0.00     0.251 C 
ATOM     39  H   UNL A   1      38.582  20.120  25.622  1.00  0.00     0.163 HD
ATOM     40  O   UNL A   1      40.789  19.305  26.086  1.00  0.00    -0.269 OA
BRANCH  38  41
ATOM     41  C   UNL A   1      41.489  21.502  26.520  1.00  0.00     0.039 A 
ATOM     42  C   UNL A   1      42.044  22.280  25.498  1.00  0.00     0.014 A 
ATOM     43  C   UNL A   1      41.866  21.725  27.844  1.00  0.00     0.014 A 
ATOM     44  C   UNL A   1      42.856  23.372  25.819  1.00  0.00     0.010 A 
ATOM     45  C   UNL A   1      42.599  22.864  28.168  1.00  0.00     0.010 A 
ATOM     46  C   UNL A   1      43.074  23.720  27.162  1.00  0.00    -0.014 A 
BRANCH  46  47
ATOM     47  C   UNL A   1      43.728  25.002  27.542  1.00  0.00     0.031 A 
ATOM     48  C   UNL A   1      42.922  26.125  28.138  1.00  0.00     0.074 A 
ATOM     49  C   UNL A   1      45.030  25.198  27.245  1.00  0.00     0.049 A 
ATOM     50  N   UNL A   1      43.290  27.349  28.412  1.00  0.00    -0.248 NA
ATOM     51  C   UNL A   1      41.508  25.841  28.436  1.00  0.00     0.031 C 
ATOM     52  C   UNL A   1      45.917  24.213  26.618  1.00  0.00     0.029 A 
ATOM     53  N   UNL A   1      45.835  26.299  27.416  1.00  0.00    -0.354 N 
ATOM     54  C   UNL A   1      42.153  27.990  28.888  1.00  0.00     0.074 A 
ATOM     55  C   UNL A   1      41.071  27.031  28.825  1.00  0.00     0.031 C 
ATOM     56  C   UNL A   1      47.142  24.745  26.480  1.00  0.00     0.029 A 
ATOM     57  C   UNL A   1      47.122  26.121  26.961  1.00  0.00     0.049 A 
ATOM     58  H   UNL A   1      45.520  27.137  27.827  1.00  0.00     0.167 HD
ATOM     59  C   UNL A   1      42.022  29.255  29.352  1.00  0.00     0.031 A 
ATOM     60  C   UNL A   1      48.166  26.972  26.919  1.00  0.00     0.031 A 
ATOM     61  C   UNL A   1      43.101  30.203  29.434  1.00  0.00     0.049 A 
ATOM     62  C   UNL A   1      47.996  28.373  27.435  1.00  0.00     0.074 A 
ATOM     63  C   UNL A   1      43.082  31.484  29.958  1.00  0.00     0.029 A 
ATOM     64  N   UNL A   1      44.392  29.976  28.981  1.00  0.00    -0.354 N 
ATOM     65  N   UNL A   1      46.928  28.935  27.948  1.00  0.00    -0.248 NA
ATOM     66  C   UNL A   1      49.171  29.254  27.371  1.00  0.00     0.031 C 
ATOM     67  C   UNL A   1      44.350  32.049  29.778  1.00  0.00     0.029 A 
ATOM     68  C   UNL A   1      45.171  31.101  29.190  1.00  0.00     0.049 A 
ATOM     69  H   UNL A   1      44.707  29.138  28.572  1.00  0.00     0.167 HD
ATOM     70  C   UNL A   1      47.307  30.230  28.284  1.00  0.00     0.074 A 
ATOM     71  C   UNL A   1      48.707  30.362  27.932  1.00  0.00     0.031 C 
ATOM     72  C   UNL A   1      46.562  31.220  28.834  1.00  0.00     0.031 A 
BRANCH  59  73
ATOM     73  C   UNL A   1      40.654  29.690  29.810  1.00  0.00    -0.014 A 
ATOM     74  C   UNL A   1      40.303  29.653  31.170  1.00  0.00     0.010 A 
ATOM     75  C   UNL A   1      39.723  30.174  28.874  1.00  0.00     0.010 A 
ATOM     76  C   UNL A   1      39.028  30.051  31.582  1.00  0.00     0.020 A 
ATOM     77  C   UNL A   1      38.456  30.599  29.285  1.00  0.00     0.020 A 
ATOM     78  C   UNL A   1      38.110  30.516  30.636  1.00  0.00     0.054 A 
BRANCH  78  79
ATOM     79  S   UNL A   1      36.470  31.042  31.202  1.00  0.00     0.124 S 
ATOM     80  O   UNL A   1      35.667  30.870  29.995  1.00  0.00    -0.237 OA
ATOM     81  O   UNL A   1      36.186  30.101  32.283  1.00  0.00    -0.237 OA
ATOM     82  O   UNL A   1      36.675  32.426  31.622  1.00  0.00    -0.744 OA
ENDBRANCH  78  79
ENDBRANCH  59  73
BRANCH  60  83
ATOM     83  C   UNL A   1      49.475  26.518  26.370  1.00  0.00    -0.014 A 
ATOM     84  C   UNL A   1      49.832  26.817  25.044  1.00  0.00     0.010 A 
ATOM     85  C   UNL A   1      50.375  25.795  27.174  1.00  0.00     0.010 A 
ATOM     86  C   UNL A   1      51.059  26.391  24.527  1.00  0.00     0.020 A 
ATOM     87  C   UNL A   1      51.614  25.389  26.668  1.00  0.00     0.020 A 
ATOM     88  C   UNL A   1      51.943  25.682  25.343  1.00  0.00     0.054 A 
BRANCH  88  89
ATOM     89  S   UNL A   1      53.555  25.190  24.670  1.00  0.00     0.124 S 
ATOM     90  O   UNL A   1      53.437  25.595  23.272  1.00  0.00    -0.237 OA
ATOM     91  O   UNL A   1      54.489  25.971  25.478  1.00  0.00    -0.237 OA
ATOM     92  O   UNL A   1      53.598  23.748  24.905  1.00  0.00    -0.744 OA
ENDBRANCH  88  89
ENDBRANCH  60  83
BRANCH  72  93
ATOM     93  C   UNL A   1      47.244  32.532  29.111  1.00  0.00    -0.014 A 
ATOM     94  C   UNL A   1      47.926  32.752  30.319  1.00  0.00     0.010 A 
ATOM     95  C   UNL A   1      47.263  33.528  28.117  1.00  0.00     0.010 A 
ATOM     96  C   UNL A   1      48.603  33.956  30.537  1.00  0.00     0.020 A 
ATOM     97  C   UNL A   1      47.958  34.722  28.323  1.00  0.00     0.020 A 
ATOM     98  C   UNL A   1      48.617  34.931  29.535  1.00  0.00     0.054 A 
BRANCH  98  99
ATOM     99  S   UNL A   1      49.558  36.457  29.817  1.00  0.00     0.124 S 
ATOM    100  O   UNL A   1      48.497  37.456  29.909  1.00  0.00    -0.237 OA
ATOM    101  O   UNL A   1      50.264  36.174  31.064  1.00  0.00    -0.237 OA
ATOM    102  O   UNL A   1      50.411  36.561  28.636  1.00  0.00    -0.744 OA
ENDBRANCH  98  99
ENDBRANCH  72  93
ENDBRANCH  46  47
ENDBRANCH  38  41
ENDBRANCH  36  37
ENDBRANCH  35  36
ENDBRANCH   1  35
TORSDOF 19
ENDMDL
MODEL 2
REMARK VINA RESULT:     -11.2      5.735      9.754
REMARK SMILES Cc1nnc(SCC2=C(C(=O)NCCCCNC(=O)c3ccc(-c4c5nc(c(-c6ccc(S(=O)(=O)[O-])cc6)c6ccc([nH]6)c(-c6ccc(S(=O)(=O)[O-])cc6)c6nc(c(-c7ccc(S(=O)(=O)[O-])cc7)c7ccc4[nH]7)C=C6)C=C5)cc3)N3C(=O)[C@H](NC(=O)c4cn(C)nc4C)[C@@H]3SC2)s1
REMARK SMILES IDX 14 1 13 2 12 3 10 4 11 5 9 7 8 8 96 9 80 10 95 11 81 12
REMARK SMILES IDX 94 13 82 14 83 15 7 16 6 17 5 18 1 19 2 20 3 21 97 22 4 23
REMARK SMILES IDX 84 24 85 25 86 27 87 28 88 29 92 30 89 31 91 32 93 33 90 34
REMARK SMILES IDX 15 35 16 36 17 37 18 38 19 40 20 41 21 42 79 43 22 44 78 45
REMARK SMILES IDX 23 46 24 47 25 48 72 49 26 50 77 51 71 52 73 53 27 54 76 55
REMARK SMILES IDX 70 56 69 57 28 59 58 60 39 61 57 62 40 63 43 64 56 65 74 66
REMARK SMILES IDX 41 67 42 68 55 70 75 71 44 72 29 73 30 74 38 75 31 76 37 77
REMARK SMILES IDX 32 78 33 79 34 80 35 81 36 82 59 83 60 84 68 85 61 86 67 87
REMARK SMILES IDX 62 88 63 89 64 90 65 91 66 92 45 93 46 94 54 95 47 96 53 97
REMARK SMILES IDX 48 98 49 99 50 100 51 101 52 102
REMARK H PARENT 12 6 84 26 17 39 73 58 43 69
REMARK Flexibility Score: inf
ROOT
ATOM      1  C   UNL A   1      36.820  23.091  24.639  1.00  0.00     0.023 C 
ENDROOT
BRANCH   1   2
ATOM      2  C   UNL A   1      35.520  23.628  24.049  1.00  0.00     0.116 C 
BRANCH   2   3
ATOM      3  N   UNL A   1      35.104  23.177  22.740  1.00  0.00    -0.351 N 
ATOM      4  C   UNL A   1      33.959  23.395  22.012  1.00  0.00     0.268 C 
ATOM      5  O   UNL A   1      34.047  23.141  20.809  1.00  0.00    -0.268 OA
ATOM      6  H   UNL A   1      35.767  22.609  22.285  1.00  0.00     0.163 HD
BRANCH   4   7
ATOM      7  C   UNL A   1      32.599  23.806  22.613  1.00  0.00     0.111 C 
ATOM      8  C   UNL A   1      31.794  23.022  23.398  1.00  0.00    -0.020 C 
ATOM      9  C   UNL A   1      30.440  23.479  23.922  1.00  0.00     0.106 C 
ATOM     10  N   UNL A   1      32.246  25.128  22.414  1.00  0.00    -0.290 N 
ATOM     11  S   UNL A   1      30.271  25.247  24.194  1.00  0.00    -0.129 SA
ATOM     12  C   UNL A   1      32.831  26.304  22.062  1.00  0.00     0.253 C 
ATOM     13  C   UNL A   1      30.911  25.669  22.570  1.00  0.00     0.181 C 
ATOM     14  O   UNL A   1      33.924  26.653  21.690  1.00  0.00    -0.272 OA
ATOM     15  C   UNL A   1      31.533  27.089  22.435  1.00  0.00     0.206 C 
BRANCH   8  16
ATOM     16  C   UNL A   1      32.186  21.618  23.821  1.00  0.00     0.111 C 
BRANCH  16  17
ATOM     17  S   UNL A   1      32.634  21.264  25.530  1.00  0.00    -0.089 SA
BRANCH  17  18
ATOM     18  C   UNL A   1      33.075  19.586  25.451  1.00  0.00     0.174 A 
ATOM     19  C   UNL A   1      34.846  16.310  24.612  1.00  0.00     0.081 C 
ATOM     20  C   UNL A   1      34.021  17.461  25.045  1.00  0.00     0.115 A 
ATOM     21  N   UNL A   1      32.889  17.379  25.712  1.00  0.00    -0.143 NA
ATOM     22  S   UNL A   1      34.505  19.064  24.672  1.00  0.00    -0.091 S 
ATOM     23  N   UNL A   1      32.337  18.622  25.947  1.00  0.00    -0.132 NA
ENDBRANCH  17  18
ENDBRANCH  16  17
ENDBRANCH   8  16
BRANCH  15  24
ATOM     24  N   UNL A   1      31.615  27.912  23.678  1.00  0.00    -0.337 N 
ATOM     25  C   UNL A   1      30.876  29.005  24.057  1.00  0.00     0.255 C 
ATOM     26  H   UNL A   1      32.303  27.627  24.323  1.00  0.00     0.164 HD
ATOM     27  O   UNL A   1      31.132  29.564  25.121  1.00  0.00    -0.269 OA
BRANCH  25  28
ATOM     28  C   UNL A   1      29.840  29.496  23.169  1.00  0.00     0.080 A 
ATOM     29  C   UNL A   1      29.902  30.548  22.275  1.00  0.00     0.122 A 
ATOM     30  C   UNL A   1      28.538  28.952  22.975  1.00  0.00     0.072 A 
ATOM     31  N   UNL A   1      28.672  30.627  21.692  1.00  0.00    -0.275 N 
ATOM     32  N   UNL A   1      27.830  29.660  22.085  1.00  0.00    -0.178 NA
ATOM     33  C   UNL A   1      27.912  27.783  23.646  1.00  0.00     0.069 C 
ATOM     34  C   UNL A   1      28.208  31.630  20.765  1.00  0.00     0.173 C 
ENDBRANCH  25  28
ENDBRANCH  15  24
ENDBRANCH   4   7
ENDBRANCH   2   3
ENDBRANCH   1   2
BRANCH   1  35
ATOM     35  C   UNL A   1      37.658  24.013  25.527  1.00  0.00     0.023 C 
BRANCH  35  36
ATOM     36  C   UNL A   1      38.581  23.383  26.569  1.00  0.00     0.116 C 
BRANCH  36  37
ATOM     37  N   UNL A   1      40.002  23.417  26.243  1.00  0.00    -0.352 N 
ATOM     38  C   UNL A   1      40.991  24.314  26.592  1.00  0.00     0.251 C 
ATOM     39  H   UNL A   1      40.309  22.672  25.677  1.00  0.00     0.163 HD
ATOM     40  O   UNL A   1      42.135  24.141  26.180  1.00  0.00    -0.269 OA
BRANCH  38  41
ATOM     41  C   UNL A   1      40.674  25.511  27.402  1.00  0.00     0.039 A 
ATOM     42  C   UNL A   1      39.700  25.408  28.401  1.00  0.00     0.014 A 
ATOM     43  C   UNL A   1      41.357  26.713  27.220  1.00  0.00     0.014 A 
ATOM     44  C   UNL A   1      39.521  26.458  29.308  1.00  0.00     0.010 A 
ATOM     45  C   UNL A   1      41.244  27.720  28.175  1.00  0.00     0.010 A 
ATOM     46  C   UNL A   1      40.349  27.591  29.250  1.00  0.00    -0.014 A 
BRANCH  46  47
ATOM     47  C   UNL A   1      40.353  28.613  30.331  1.00  0.00     0.031 A 
ATOM     48  C   UNL A   1      41.260  28.463  31.523  1.00  0.00     0.074 A 
ATOM     49  C   UNL A   1      39.457  29.622  30.295  1.00  0.00     0.049 A 
ATOM     50  N   UNL A   1      41.311  29.181  32.616  1.00  0.00    -0.248 NA
ATOM     51  C   UNL A   1      42.213  27.342  31.495  1.00  0.00     0.031 C 
ATOM     52  C   UNL A   1      38.482  29.857  29.225  1.00  0.00     0.029 A 
ATOM     53  N   UNL A   1      39.206  30.634  31.192  1.00  0.00    -0.354 N 
ATOM     54  C   UNL A   1      42.278  28.585  33.415  1.00  0.00     0.074 A 
ATOM     55  C   UNL A   1      42.758  27.421  32.700  1.00  0.00     0.031 C 
ATOM     56  C   UNL A   1      37.759  30.950  29.516  1.00  0.00     0.029 A 
ATOM     57  C   UNL A   1      38.181  31.470  30.812  1.00  0.00     0.049 A 
ATOM     58  H   UNL A   1      39.712  30.749  32.028  1.00  0.00     0.167 HD
ATOM     59  C   UNL A   1      42.740  28.977  34.627  1.00  0.00     0.031 A 
ATOM     60  C   UNL A   1      37.628  32.527  31.439  1.00  0.00     0.031 A 
ATOM     61  C   UNL A   1      42.278  30.145  35.329  1.00  0.00     0.049 A 
ATOM     62  C   UNL A   1      38.153  32.941  32.785  1.00  0.00     0.074 A 
ATOM     63  C   UNL A   1      42.736  30.664  36.527  1.00  0.00     0.029 A 
ATOM     64  N   UNL A   1      41.253  30.974  34.899  1.00  0.00    -0.354 N 
ATOM     65  N   UNL A   1      39.119  32.404  33.491  1.00  0.00    -0.248 NA
ATOM     66  C   UNL A   1      37.518  34.105  33.419  1.00  0.00     0.031 C 
ATOM     67  C   UNL A   1      41.957  31.781  36.846  1.00  0.00     0.029 A 
ATOM     68  C   UNL A   1      41.048  31.987  35.820  1.00  0.00     0.049 A 
ATOM     69  H   UNL A   1      40.748  30.859  34.063  1.00  0.00     0.167 HD
ATOM     70  C   UNL A   1      39.219  33.175  34.644  1.00  0.00     0.074 A 
ATOM     71  C   UNL A   1      38.227  34.226  34.533  1.00  0.00     0.031 C 
ATOM     72  C   UNL A   1      40.057  33.025  35.698  1.00  0.00     0.031 A 
BRANCH  59  73
ATOM     73  C   UNL A   1      43.804  28.130  35.273  1.00  0.00    -0.014 A 
ATOM     74  C   UNL A   1      43.463  27.068  36.128  1.00  0.00     0.010 A 
ATOM     75  C   UNL A   1      45.161  28.376  34.994  1.00  0.00     0.010 A 
ATOM     76  C   UNL A   1      44.460  26.295  36.728  1.00  0.00     0.020 A 
ATOM     77  C   UNL A   1      46.161  27.587  35.570  1.00  0.00     0.020 A 
ATOM     78  C   UNL A   1      45.803  26.562  36.450  1.00  0.00     0.054 A 
BRANCH  78  79
ATOM     79  S   UNL A   1      47.074  25.531  37.230  1.00  0.00     0.124 S 
ATOM     80  O   UNL A   1      48.301  26.102  36.681  1.00  0.00    -0.237 OA
ATOM     81  O   UNL A   1      46.853  25.770  38.654  1.00  0.00    -0.237 OA
ATOM     82  O   UNL A   1      46.756  24.181  36.771  1.00  0.00    -0.744 OA
ENDBRANCH  78  79
ENDBRANCH  59  73
BRANCH  60  83
ATOM     83  C   UNL A   1      36.513  33.275  30.795  1.00  0.00    -0.014 A 
ATOM     84  C   UNL A   1      35.190  33.096  31.233  1.00  0.00     0.010 A 
ATOM     85  C   UNL A   1      36.769  34.181  29.749  1.00  0.00     0.010 A 
ATOM     86  C   UNL A   1      34.142  33.797  30.630  1.00  0.00     0.020 A 
ATOM     87  C   UNL A   1      35.726  34.902  29.160  1.00  0.00     0.020 A 
ATOM     88  C   UNL A   1      34.417  34.697  29.598  1.00  0.00     0.054 A 
BRANCH  88  89
ATOM     89  S   UNL A   1      33.048  35.640  28.869  1.00  0.00     0.124 S 
ATOM     90  O   UNL A   1      32.341  34.612  28.111  1.00  0.00    -0.237 OA
ATOM     91  O   UNL A   1      32.352  36.151  30.047  1.00  0.00    -0.237 OA
ATOM     92  O   UNL A   1      33.724  36.658  28.067  1.00  0.00    -0.744 OA
ENDBRANCH  88  89
ENDBRANCH  60  83
BRANCH  72  93
ATOM     93  C   UNL A   1      39.956  34.029  36.814  1.00  0.00    -0.014 A 
ATOM     94  C   UNL A   1      39.162  33.778  37.945  1.00  0.00     0.010 A 
ATOM     95  C   UNL A   1      40.726  35.206  36.761  1.00  0.00     0.010 A 
ATOM     96  C   UNL A   1      39.124  34.695  38.999  1.00  0.00     0.020 A 
ATOM     97  C   UNL A   1      40.709  36.114  37.823  1.00  0.00     0.020 A 
ATOM     98  C   UNL A   1      39.902  35.856  38.932  1.00  0.00     0.054 A 
BRANCH  98  99
ATOM     99  S   UNL A   1      39.887  36.999  40.341  1.00  0.00     0.124 S 
ATOM    100  O   UNL A   1      40.124  36.098  41.466  1.00  0.00    -0.237 OA
ATOM    101  O   UNL A   1      40.981  37.913  40.026  1.00  0.00    -0.237 OA
ATOM    102  O   UNL A   1      38.553  37.594  40.290  1.00  0.00    -0.744 OA
ENDBRANCH  98  99
ENDBRANCH  72  93
ENDBRANCH  46  47
ENDBRANCH  38  41
ENDBRANCH  36  37
ENDBRANCH  35  36
ENDBRANCH   1  35
TORSDOF 19
ENDMDL
MODEL 3
REMARK VINA RESULT:     -11.1      1.125      7.797
REMARK SMILES Cc1nnc(SCC2=C(C(=O)NCCCCNC(=O)c3ccc(-c4c5nc(c(-c6ccc(S(=O)(=O)[O-])cc6)c6ccc([nH]6)c(-c6ccc(S(=O)(=O)[O-])cc6)c6nc(c(-c7ccc(S(=O)(=O)[O-])cc7)c7ccc4[nH]7)C=C6)C=C5)cc3)N3C(=O)[C@H](NC(=O)c4cn(C)nc4C)[C@@H]3SC2)s1
REMARK SMILES IDX 14 1 13 2 12 3 10 4 11 5 9 7 8 8 96 9 80 10 95 11 81 12
REMARK SMILES IDX 94 13 82 14 83 15 7 16 6 17 5 18 1 19 2 20 3 21 97 22 4 23
REMARK SMILES IDX 84 24 85 25 86 27 87 28 88 29 92 30 89 31 91 32 93 33 90 34
REMARK SMILES IDX 15 35 16 36 17 37 18 38 19 40 20 41 21 42 79 43 22 44 78 45
REMARK SMILES IDX 23 46 24 47 25 48 72 49 26 50 77 51 71 52 73 53 27 54 76 55
REMARK SMILES IDX 70 56 69 57 28 59 58 60 39 61 57 62 40 63 43 64 56 65 74 66
REMARK SMILES IDX 41 67 42 68 55 70 75 71 44 72 29 73 30 74 38 75 31 76 37 77
REMARK SMILES IDX 32 78 33 79 34 80 35 81 36 82 59 83 60 84 68 85 61 86 67 87
REMARK SMILES IDX 62 88 63 89 64 90 65 91 66 92 45 93 46 94 54 95 47 96 53 97
REMARK SMILES IDX 48 98 49 99 50 100 51 101 52 102
REMARK H PARENT 12 6 84 26 17 39 73 58 43 69
REMARK Flexibility Score: inf
ROOT
ATOM      1  C   UNL A   1      36.270  22.590  25.146  1.00  0.00     0.023 C 
ENDROOT
BRANCH   1   2
ATOM      2  C   UNL A   1      35.470  23.244  24.024  1.00  0.00     0.116 C 
BRANCH   2   3
ATOM      3  N   UNL A   1      34.440  22.479  23.357  1.00  0.00    -0.351 N 
ATOM      4  C   UNL A   1      33.099  22.711  23.163  1.00  0.00     0.268 C 
ATOM      5  O   UNL A   1      32.572  22.028  22.283  1.00  0.00    -0.268 OA
ATOM      6  H   UNL A   1      34.760  21.632  22.970  1.00  0.00     0.163 HD
BRANCH   4   7
ATOM      7  C   UNL A   1      32.236  23.653  24.028  1.00  0.00     0.111 C 
ATOM      8  C   UNL A   1      31.557  23.305  25.167  1.00  0.00    -0.020 C 
ATOM      9  C   UNL A   1      30.685  24.278  25.947  1.00  0.00     0.106 C 
ATOM     10  N   UNL A   1      32.264  24.983  23.653  1.00  0.00    -0.290 N 
ATOM     11  S   UNL A   1      31.178  26.004  25.859  1.00  0.00    -0.129 SA
ATOM     12  C   UNL A   1      33.022  25.819  22.895  1.00  0.00     0.253 C 
ATOM     13  C   UNL A   1      31.306  25.989  24.067  1.00  0.00     0.181 C 
ATOM     14  O   UNL A   1      33.966  25.703  22.153  1.00  0.00    -0.272 OA
ATOM     15  C   UNL A   1      32.249  27.060  23.447  1.00  0.00     0.206 C 
BRANCH   8  16
ATOM     16  C   UNL A   1      31.616  21.908  25.757  1.00  0.00     0.111 C 
BRANCH  16  17
ATOM     17  S   UNL A   1      33.187  21.194  26.274  1.00  0.00    -0.089 SA
BRANCH  17  18
ATOM     18  C   UNL A   1      33.169  19.654  25.473  1.00  0.00     0.174 A 
ATOM     19  C   UNL A   1      34.133  16.619  23.367  1.00  0.00     0.081 C 
ATOM     20  C   UNL A   1      33.575  17.697  24.214  1.00  0.00     0.115 A 
ATOM     21  N   UNL A   1      32.347  17.735  24.688  1.00  0.00    -0.143 NA
ATOM     22  S   UNL A   1      34.539  19.048  24.647  1.00  0.00    -0.091 S 
ATOM     23  N   UNL A   1      32.111  18.879  25.422  1.00  0.00    -0.132 NA
ENDBRANCH  17  18
ENDBRANCH  16  17
ENDBRANCH   8  16
BRANCH  15  24
ATOM     24  N   UNL A   1      33.012  27.921  24.398  1.00  0.00    -0.337 N 
ATOM     25  C   UNL A   1      32.696  29.156  24.910  1.00  0.00     0.255 C 
ATOM     26  H   UNL A   1      33.870  27.548  24.703  1.00  0.00     0.164 HD
ATOM     27  O   UNL A   1      33.491  29.715  25.661  1.00  0.00    -0.269 OA
BRANCH  25  28
ATOM     28  C   UNL A   1      31.450  29.783  24.515  1.00  0.00     0.080 A 
ATOM     29  C   UNL A   1      30.597  29.428  23.487  1.00  0.00     0.122 A 
ATOM     30  C   UNL A   1      30.794  30.876  25.149  1.00  0.00     0.072 A 
ATOM     31  N   UNL A   1      29.578  30.333  23.507  1.00  0.00    -0.275 N 
ATOM     32  N   UNL A   1      29.662  31.213  24.516  1.00  0.00    -0.178 NA
ATOM     33  C   UNL A   1      31.228  31.656  26.337  1.00  0.00     0.069 C 
ATOM     34  C   UNL A   1      28.492  30.446  22.564  1.00  0.00     0.173 C 
ENDBRANCH  25  28
ENDBRANCH  15  24
ENDBRANCH   4   7
ENDBRANCH   2   3
ENDBRANCH   1   2
BRANCH   1  35
ATOM     35  C   UNL A   1      37.540  21.817  24.787  1.00  0.00     0.023 C 
BRANCH  35  36
ATOM     36  C   UNL A   1      38.708  21.832  25.772  1.00  0.00     0.116 C 
BRANCH  36  37
ATOM     37  N   UNL A   1      39.476  20.594  25.845  1.00  0.00    -0.352 N 
ATOM     38  C   UNL A   1      40.803  20.368  26.150  1.00  0.00     0.251 C 
ATOM     39  H   UNL A   1      38.960  19.781  25.643  1.00  0.00     0.163 HD
ATOM     40  O   UNL A   1      41.238  19.220  26.135  1.00  0.00    -0.269 OA
BRANCH  38  41
ATOM     41  C   UNL A   1      41.717  21.498  26.431  1.00  0.00     0.039 A 
ATOM     42  C   UNL A   1      42.259  22.208  25.354  1.00  0.00     0.014 A 
ATOM     43  C   UNL A   1      42.005  21.892  27.737  1.00  0.00     0.014 A 
ATOM     44  C   UNL A   1      42.962  23.394  25.587  1.00  0.00     0.010 A 
ATOM     45  C   UNL A   1      42.625  23.118  27.965  1.00  0.00     0.010 A 
ATOM     46  C   UNL A   1      43.081  23.900  26.892  1.00  0.00    -0.014 A 
BRANCH  46  47
ATOM     47  C   UNL A   1      43.607  25.267  27.155  1.00  0.00     0.031 A 
ATOM     48  C   UNL A   1      45.062  25.583  26.936  1.00  0.00     0.074 A 
ATOM     49  C   UNL A   1      42.796  26.198  27.701  1.00  0.00     0.049 A 
ATOM     50  N   UNL A   1      45.723  26.674  27.229  1.00  0.00    -0.248 NA
ATOM     51  C   UNL A   1      45.889  24.522  26.337  1.00  0.00     0.031 C 
ATOM     52  C   UNL A   1      41.376  26.009  28.016  1.00  0.00     0.029 A 
ATOM     53  N   UNL A   1      43.050  27.487  28.105  1.00  0.00    -0.354 N 
ATOM     54  C   UNL A   1      47.043  26.423  26.877  1.00  0.00     0.074 A 
ATOM     55  C   UNL A   1      47.098  25.062  26.388  1.00  0.00     0.031 C 
ATOM     56  C   UNL A   1      40.884  27.144  28.539  1.00  0.00     0.029 A 
ATOM     57  C   UNL A   1      41.957  28.126  28.645  1.00  0.00     0.049 A 
ATOM     58  H   UNL A   1      43.933  27.913  28.017  1.00  0.00     0.167 HD
ATOM     59  C   UNL A   1      48.111  27.253  26.937  1.00  0.00     0.031 A 
ATOM     60  C   UNL A   1      41.831  29.356  29.179  1.00  0.00     0.031 A 
ATOM     61  C   UNL A   1      48.053  28.614  27.403  1.00  0.00     0.049 A 
ATOM     62  C   UNL A   1      43.031  30.259  29.240  1.00  0.00     0.074 A 
ATOM     63  C   UNL A   1      49.066  29.556  27.432  1.00  0.00     0.029 A 
ATOM     64  N   UNL A   1      46.922  29.226  27.921  1.00  0.00    -0.354 N 
ATOM     65  N   UNL A   1      44.255  30.025  28.834  1.00  0.00    -0.248 NA
ATOM     66  C   UNL A   1      42.833  31.591  29.827  1.00  0.00     0.031 C 
ATOM     67  C   UNL A   1      48.560  30.724  28.012  1.00  0.00     0.029 A 
ATOM     68  C   UNL A   1      47.219  30.525  28.296  1.00  0.00     0.049 A 
ATOM     69  H   UNL A   1      46.040  28.800  28.008  1.00  0.00     0.167 HD
ATOM     70  C   UNL A   1      44.970  31.188  29.100  1.00  0.00     0.074 A 
ATOM     71  C   UNL A   1      44.037  32.129  29.686  1.00  0.00     0.031 C 
ATOM     72  C   UNL A   1      46.281  31.451  28.879  1.00  0.00     0.031 A 
BRANCH  59  73
ATOM     73  C   UNL A   1      49.441  26.710  26.484  1.00  0.00    -0.014 A 
ATOM     74  C   UNL A   1      50.253  25.968  27.359  1.00  0.00     0.010 A 
ATOM     75  C   UNL A   1      49.867  26.913  25.159  1.00  0.00     0.010 A 
ATOM     76  C   UNL A   1      51.489  25.476  26.931  1.00  0.00     0.020 A 
ATOM     77  C   UNL A   1      51.090  26.398  24.718  1.00  0.00     0.020 A 
ATOM     78  C   UNL A   1      51.902  25.699  25.614  1.00  0.00     0.054 A 
BRANCH  78  79
ATOM     79  S   UNL A   1      53.503  25.034  25.082  1.00  0.00     0.124 S 
ATOM     80  O   UNL A   1      53.322  23.602  25.308  1.00  0.00    -0.237 OA
ATOM     81  O   UNL A   1      53.571  25.444  23.681  1.00  0.00    -0.237 OA
ATOM     82  O   UNL A   1      54.463  25.688  25.967  1.00  0.00    -0.744 OA
ENDBRANCH  78  79
ENDBRANCH  59  73
BRANCH  60  83
ATOM     83  C   UNL A   1      40.510  29.811  29.697  1.00  0.00    -0.014 A 
ATOM     84  C   UNL A   1      39.589  30.439  28.842  1.00  0.00     0.010 A 
ATOM     85  C   UNL A   1      40.163  29.607  31.045  1.00  0.00     0.010 A 
ATOM     86  C   UNL A   1      38.349  30.867  29.327  1.00  0.00     0.020 A 
ATOM     87  C   UNL A   1      38.914  30.012  31.527  1.00  0.00     0.020 A 
ATOM     88  C   UNL A   1      38.019  30.648  30.666  1.00  0.00     0.054 A 
BRANCH  88  89
ATOM     89  S   UNL A   1      36.382  31.160  31.260  1.00  0.00     0.124 S 
ATOM     90  O   UNL A   1      35.587  31.116  30.036  1.00  0.00    -0.237 OA
ATOM     91  O   UNL A   1      36.070  30.135  32.253  1.00  0.00    -0.237 OA
ATOM     92  O   UNL A   1      36.619  32.493  31.809  1.00  0.00    -0.744 OA
ENDBRANCH  88  89
ENDBRANCH  60  83
BRANCH  72  93
ATOM     93  C   UNL A   1      46.789  32.817  29.252  1.00  0.00    -0.014 A 
ATOM     94  C   UNL A   1      47.362  33.057  30.512  1.00  0.00     0.010 A 
ATOM     95  C   UNL A   1      46.757  33.854  28.301  1.00  0.00     0.010 A 
ATOM     96  C   UNL A   1      47.881  34.317  30.823  1.00  0.00     0.020 A 
ATOM     97  C   UNL A   1      47.297  35.107  28.599  1.00  0.00     0.020 A 
ATOM     98  C   UNL A   1      47.848  35.333  29.862  1.00  0.00     0.054 A 
BRANCH  98  99
ATOM     99  S   UNL A   1      48.587  36.940  30.266  1.00  0.00     0.124 S 
ATOM    100  O   UNL A   1      48.766  36.838  31.711  1.00  0.00    -0.237 OA
ATOM    101  O   UNL A   1      49.818  36.935  29.478  1.00  0.00    -0.237 OA
ATOM    102  O   UNL A   1      47.580  37.904  29.829  1.00  0.00    -0.744 OA
ENDBRANCH  98  99
ENDBRANCH  72  93
ENDBRANCH  46  47
ENDBRANCH  38  41
ENDBRANCH  36  37
ENDBRANCH  35  36
ENDBRANCH   1  35
TORSDOF 19
ENDMDL
