MODEL 1
REMARK VINA RESULT:     -11.1      0.000      0.000
REMARK SMILES COc1ccc([C@@H](O)[C@@H](C)CC(=O)NCCCCNC(=O)c2ccc(-c3c4nc(c(-c5ccc(S(=O)(=O)[O-])cc5)c5ccc([nH]5)c(-c5ccc(S(=O)(=O)[O-])cc5)c5nc(c(-c6ccc(S(=O)(=O)[O-])cc6)c6ccc3[nH]6)C=C5)C=C4)cc2)c2ccccc12
REMARK SMILES IDX 16 1 15 2 14 3 12 4 13 5 11 7 9 8 10 9 7 10 6 11 3 12 4 13
REMARK SMILES IDX 87 14 5 15 82 16 86 17 83 18 85 19 84 20 2 21 1 22 8 23
REMARK SMILES IDX 17 25 18 26 19 27 20 28 21 30 22 31 23 32 81 33 24 34 80 35
REMARK SMILES IDX 25 36 26 37 27 38 74 39 28 40 79 41 73 42 75 43 29 44 78 45
REMARK SMILES IDX 72 46 71 47 30 49 60 50 41 51 59 52 42 53 45 54 58 55 76 56
REMARK SMILES IDX 43 57 44 58 57 60 77 61 46 62 31 63 32 64 40 65 33 66 39 67
REMARK SMILES IDX 34 68 35 69 36 70 37 71 38 72 61 73 62 74 70 75 63 76 69 77
REMARK SMILES IDX 64 78 65 79 66 80 67 81 68 82 47 83 48 84 56 85 49 86 55 87
REMARK SMILES IDX 50 88 51 89 52 90 53 91 54 92
REMARK H PARENT 14 6 8 24 19 29 75 48 45 59
REMARK Flexibility Score: inf
ROOT
ATOM      1  C   UNL A   1      31.898  28.285  25.441  1.00  0.00     0.023 C 
ENDROOT
BRANCH   1   2
ATOM      2  C   UNL A   1      32.045  28.674  23.962  1.00  0.00     0.116 C 
BRANCH   2   3
ATOM      3  N   UNL A   1      33.070  27.932  23.231  1.00  0.00    -0.356 N 
ATOM      4  C   UNL A   1      32.963  26.979  22.249  1.00  0.00     0.220 C 
ATOM      5  O   UNL A   1      33.980  26.670  21.627  1.00  0.00    -0.275 OA
ATOM      6  H   UNL A   1      33.995  28.154  23.486  1.00  0.00     0.163 HD
BRANCH   4   7
ATOM      7  C   UNL A   1      31.650  26.256  22.003  1.00  0.00     0.106 C 
BRANCH   7   8
ATOM      8  C   UNL A   1      31.577  24.801  22.567  1.00  0.00     0.028 C 
ATOM      9  C   UNL A   1      31.297  24.896  24.068  1.00  0.00     0.011 C 
BRANCH   8  10
ATOM     10  C   UNL A   1      32.882  24.050  22.261  1.00  0.00     0.148 C 
BRANCH  10  11
ATOM     11  C   UNL A   1      33.273  22.741  22.936  1.00  0.00    -0.011 A 
ATOM     12  C   UNL A   1      33.484  20.449  24.557  1.00  0.00     0.126 A 
ATOM     13  C   UNL A   1      32.428  20.565  23.657  1.00  0.00     0.047 A 
ATOM     14  C   UNL A   1      34.459  21.466  24.664  1.00  0.00     0.024 A 
ATOM     15  C   UNL A   1      32.326  21.696  22.857  1.00  0.00     0.011 A 
ATOM     16  C   UNL A   1      34.389  22.604  23.812  1.00  0.00    -0.009 A 
ATOM     17  C   UNL A   1      35.492  21.391  25.623  1.00  0.00     0.012 A 
ATOM     18  C   UNL A   1      35.416  23.570  23.930  1.00  0.00     0.009 A 
ATOM     19  C   UNL A   1      36.457  22.388  25.746  1.00  0.00     0.001 A 
ATOM     20  C   UNL A   1      36.427  23.474  24.887  1.00  0.00     0.001 A 
BRANCH  12  21
ATOM     21  O   UNL A   1      33.567  19.384  25.426  1.00  0.00    -0.496 OA
ATOM     22  C   UNL A   1      32.659  18.328  25.134  1.00  0.00     0.278 C 
ENDBRANCH  12  21
ENDBRANCH  10  11
BRANCH  10  23
ATOM     23  O   UNL A   1      33.015  23.861  20.852  1.00  0.00    -0.388 OA
ATOM     24  H   UNL A   1      32.762  22.953  20.622  1.00  0.00     0.211 HD
ENDBRANCH  10  23
ENDBRANCH   8  10
ENDBRANCH   7   8
ENDBRANCH   4   7
ENDBRANCH   2   3
ENDBRANCH   1   2
BRANCH   1  25
ATOM     25  C   UNL A   1      32.977  27.369  25.999  1.00  0.00     0.023 C 
BRANCH  25  26
ATOM     26  C   UNL A   1      34.078  28.114  26.726  1.00  0.00     0.116 C 
BRANCH  26  27
ATOM     27  N   UNL A   1      33.692  29.477  27.070  1.00  0.00    -0.352 N 
ATOM     28  C   UNL A   1      34.381  30.415  27.797  1.00  0.00     0.251 C 
ATOM     29  H   UNL A   1      32.812  29.764  26.735  1.00  0.00     0.163 HD
ATOM     30  O   UNL A   1      33.842  31.459  28.130  1.00  0.00    -0.269 OA
BRANCH  28  31
ATOM     31  C   UNL A   1      35.775  30.125  28.182  1.00  0.00     0.039 A 
ATOM     32  C   UNL A   1      36.037  29.605  29.449  1.00  0.00     0.014 A 
ATOM     33  C   UNL A   1      36.808  30.333  27.264  1.00  0.00     0.014 A 
ATOM     34  C   UNL A   1      37.342  29.240  29.778  1.00  0.00     0.010 A 
ATOM     35  C   UNL A   1      38.081  29.875  27.555  1.00  0.00     0.010 A 
ATOM     36  C   UNL A   1      38.364  29.347  28.821  1.00  0.00    -0.014 A 
BRANCH  36  37
ATOM     37  C   UNL A   1      39.758  28.963  29.130  1.00  0.00     0.031 A 
ATOM     38  C   UNL A   1      40.676  29.976  29.758  1.00  0.00     0.074 A 
ATOM     39  C   UNL A   1      40.213  27.748  28.768  1.00  0.00     0.049 A 
ATOM     40  N   UNL A   1      41.955  29.887  30.011  1.00  0.00    -0.248 NA
ATOM     41  C   UNL A   1      40.085  31.282  30.108  1.00  0.00     0.031 C 
ATOM     42  C   UNL A   1      39.424  26.710  28.100  1.00  0.00     0.029 A 
ATOM     43  N   UNL A   1      41.455  27.186  28.905  1.00  0.00    -0.354 N 
ATOM     44  C   UNL A   1      42.325  31.128  30.514  1.00  0.00     0.074 A 
ATOM     45  C   UNL A   1      41.152  31.971  30.480  1.00  0.00     0.031 C 
ATOM     46  C   UNL A   1      40.195  25.626  27.912  1.00  0.00     0.029 A 
ATOM     47  C   UNL A   1      41.537  25.905  28.413  1.00  0.00     0.049 A 
ATOM     48  H   UNL A   1      42.217  27.655  29.316  1.00  0.00     0.167 HD
ATOM     49  C   UNL A   1      43.529  31.523  30.988  1.00  0.00     0.031 A 
ATOM     50  C   UNL A   1      42.579  25.055  28.373  1.00  0.00     0.031 A 
ATOM     51  C   UNL A   1      44.676  30.661  31.056  1.00  0.00     0.049 A 
ATOM     52  C   UNL A   1      43.896  25.499  28.947  1.00  0.00     0.074 A 
ATOM     53  C   UNL A   1      45.928  30.931  31.580  1.00  0.00     0.029 A 
ATOM     54  N   UNL A   1      44.706  29.354  30.593  1.00  0.00    -0.354 N 
ATOM     55  N   UNL A   1      44.214  26.657  29.477  1.00  0.00    -0.248 NA
ATOM     56  C   UNL A   1      44.989  24.519  28.936  1.00  0.00     0.031 C 
ATOM     57  C   UNL A   1      46.723  29.794  31.406  1.00  0.00     0.029 A 
ATOM     58  C   UNL A   1      45.955  28.804  30.812  1.00  0.00     0.049 A 
ATOM     59  H   UNL A   1      43.949  28.887  30.171  1.00  0.00     0.167 HD
ATOM     60  C   UNL A   1      45.538  26.537  29.882  1.00  0.00     0.074 A 
ATOM     61  C   UNL A   1      45.954  25.189  29.550  1.00  0.00     0.031 C 
ATOM     62  C   UNL A   1      46.338  27.458  30.474  1.00  0.00     0.031 A 
BRANCH  49  63
ATOM     63  C   UNL A   1      43.653  32.943  31.469  1.00  0.00    -0.014 A 
ATOM     64  C   UNL A   1      43.996  33.983  30.584  1.00  0.00     0.010 A 
ATOM     65  C   UNL A   1      43.414  33.249  32.821  1.00  0.00     0.010 A 
ATOM     66  C   UNL A   1      44.146  35.291  31.051  1.00  0.00     0.020 A 
ATOM     67  C   UNL A   1      43.535  34.561  33.287  1.00  0.00     0.020 A 
ATOM     68  C   UNL A   1      43.921  35.570  32.402  1.00  0.00     0.054 A 
BRANCH  68  69
ATOM     69  S   UNL A   1      44.111  37.279  32.981  1.00  0.00     0.124 S 
ATOM     70  O   UNL A   1      42.919  37.449  33.809  1.00  0.00    -0.237 OA
ATOM     71  O   UNL A   1      45.378  37.234  33.708  1.00  0.00    -0.237 OA
ATOM     72  O   UNL A   1      44.130  38.062  31.748  1.00  0.00    -0.744 OA
ENDBRANCH  68  69
ENDBRANCH  49  63
BRANCH  50  73
ATOM     73  C   UNL A   1      42.406  23.692  27.803  1.00  0.00    -0.014 A 
ATOM     74  C   UNL A   1      42.784  23.425  26.476  1.00  0.00     0.010 A 
ATOM     75  C   UNL A   1      41.889  22.647  28.591  1.00  0.00     0.010 A 
ATOM     76  C   UNL A   1      42.631  22.144  25.938  1.00  0.00     0.020 A 
ATOM     77  C   UNL A   1      41.757  21.358  28.065  1.00  0.00     0.020 A 
ATOM     78  C   UNL A   1      42.119  21.118  26.737  1.00  0.00     0.054 A 
BRANCH  78  79
ATOM     79  S   UNL A   1      41.977  19.450  26.035  1.00  0.00     0.124 S 
ATOM     80  O   UNL A   1      42.533  18.625  27.103  1.00  0.00    -0.237 OA
ATOM     81  O   UNL A   1      40.539  19.319  25.817  1.00  0.00    -0.237 OA
ATOM     82  O   UNL A   1      42.780  19.524  24.816  1.00  0.00    -0.744 OA
ENDBRANCH  78  79
ENDBRANCH  50  73
BRANCH  62  83
ATOM     83  C   UNL A   1      47.733  27.026  30.829  1.00  0.00    -0.014 A 
ATOM     84  C   UNL A   1      48.798  27.209  29.930  1.00  0.00     0.010 A 
ATOM     85  C   UNL A   1      47.988  26.488  32.104  1.00  0.00     0.010 A 
ATOM     86  C   UNL A   1      50.094  26.836  30.292  1.00  0.00     0.020 A 
ATOM     87  C   UNL A   1      49.287  26.136  32.477  1.00  0.00     0.020 A 
ATOM     88  C   UNL A   1      50.330  26.301  31.563  1.00  0.00     0.054 A 
BRANCH  88  89
ATOM     89  S   UNL A   1      52.028  25.871  32.029  1.00  0.00     0.124 S 
ATOM     90  O   UNL A   1      51.851  24.556  32.639  1.00  0.00    -0.237 OA
ATOM     91  O   UNL A   1      52.727  25.879  30.746  1.00  0.00    -0.237 OA
ATOM     92  O   UNL A   1      52.414  26.939  32.949  1.00  0.00    -0.744 OA
ENDBRANCH  88  89
ENDBRANCH  62  83
ENDBRANCH  36  37
ENDBRANCH  28  31
ENDBRANCH  26  27
ENDBRANCH  25  26
ENDBRANCH   1  25
TORSDOF 19
ENDMDL
MODEL 2
REMARK VINA RESULT:     -10.5      2.773      9.355
REMARK SMILES COc1ccc([C@@H](O)[C@@H](C)CC(=O)NCCCCNC(=O)c2ccc(-c3c4nc(c(-c5ccc(S(=O)(=O)[O-])cc5)c5ccc([nH]5)c(-c5ccc(S(=O)(=O)[O-])cc5)c5nc(c(-c6ccc(S(=O)(=O)[O-])cc6)c6ccc3[nH]6)C=C5)C=C4)cc2)c2ccccc12
REMARK SMILES IDX 16 1 15 2 14 3 12 4 13 5 11 7 9 8 10 9 7 10 6 11 3 12 4 13
REMARK SMILES IDX 87 14 5 15 82 16 86 17 83 18 85 19 84 20 2 21 1 22 8 23
REMARK SMILES IDX 17 25 18 26 19 27 20 28 21 30 22 31 23 32 81 33 24 34 80 35
REMARK SMILES IDX 25 36 26 37 27 38 74 39 28 40 79 41 73 42 75 43 29 44 78 45
REMARK SMILES IDX 72 46 71 47 30 49 60 50 41 51 59 52 42 53 45 54 58 55 76 56
REMARK SMILES IDX 43 57 44 58 57 60 77 61 46 62 31 63 32 64 40 65 33 66 39 67
REMARK SMILES IDX 34 68 35 69 36 70 37 71 38 72 61 73 62 74 70 75 63 76 69 77
REMARK SMILES IDX 64 78 65 79 66 80 67 81 68 82 47 83 48 84 56 85 49 86 55 87
REMARK SMILES IDX 50 88 51 89 52 90 53 91 54 92
REMARK H PARENT 14 6 8 24 19 29 75 48 45 59
REMARK Flexibility Score: inf
ROOT
ATOM      1  C   UNL A   1      34.548  23.073  26.670  1.00  0.00     0.023 C 
ENDROOT
BRANCH   1   2
ATOM      2  C   UNL A   1      33.621  21.862  26.859  1.00  0.00     0.116 C 
BRANCH   2   3
ATOM      3  N   UNL A   1      32.212  22.193  27.065  1.00  0.00    -0.356 N 
ATOM      4  C   UNL A   1      31.191  22.379  26.168  1.00  0.00     0.220 C 
ATOM      5  O   UNL A   1      30.039  22.424  26.601  1.00  0.00    -0.275 OA
ATOM      6  H   UNL A   1      31.952  22.301  28.009  1.00  0.00     0.163 HD
BRANCH   4   7
ATOM      7  C   UNL A   1      31.479  22.620  24.696  1.00  0.00     0.106 C 
BRANCH   7   8
ATOM      8  C   UNL A   1      31.025  24.012  24.150  1.00  0.00     0.028 C 
ATOM      9  C   UNL A   1      32.044  24.454  23.097  1.00  0.00     0.011 C 
BRANCH   8  10
ATOM     10  C   UNL A   1      30.901  25.018  25.304  1.00  0.00     0.148 C 
BRANCH  10  11
ATOM     11  C   UNL A   1      31.503  26.417  25.264  1.00  0.00    -0.011 A 
ATOM     12  C   UNL A   1      32.391  29.036  25.793  1.00  0.00     0.126 A 
ATOM     13  C   UNL A   1      32.997  27.957  26.433  1.00  0.00     0.047 A 
ATOM     14  C   UNL A   1      31.338  28.834  24.874  1.00  0.00     0.024 A 
ATOM     15  C   UNL A   1      32.558  26.665  26.169  1.00  0.00     0.011 A 
ATOM     16  C   UNL A   1      30.917  27.511  24.561  1.00  0.00    -0.009 A 
ATOM     17  C   UNL A   1      30.670  29.924  24.275  1.00  0.00     0.012 A 
ATOM     18  C   UNL A   1      29.889  27.364  23.600  1.00  0.00     0.009 A 
ATOM     19  C   UNL A   1      29.625  29.742  23.373  1.00  0.00     0.001 A 
ATOM     20  C   UNL A   1      29.243  28.458  23.023  1.00  0.00     0.001 A 
BRANCH  12  21
ATOM     21  O   UNL A   1      32.742  30.332  26.097  1.00  0.00    -0.496 OA
ATOM     22  C   UNL A   1      33.563  30.454  27.252  1.00  0.00     0.278 C 
ENDBRANCH  12  21
ENDBRANCH  10  11
BRANCH  10  23
ATOM     23  O   UNL A   1      29.533  25.151  25.687  1.00  0.00    -0.388 OA
ATOM     24  H   UNL A   1      29.259  26.077  25.594  1.00  0.00     0.211 HD
ENDBRANCH  10  23
ENDBRANCH   8  10
ENDBRANCH   7   8
ENDBRANCH   4   7
ENDBRANCH   2   3
ENDBRANCH   1   2
BRANCH   1  25
ATOM     25  C   UNL A   1      35.156  23.236  25.285  1.00  0.00     0.023 C 
BRANCH  25  26
ATOM     26  C   UNL A   1      36.556  23.815  25.309  1.00  0.00     0.116 C 
BRANCH  26  27
ATOM     27  N   UNL A   1      37.575  22.791  25.503  1.00  0.00    -0.352 N 
ATOM     28  C   UNL A   1      38.819  22.904  26.074  1.00  0.00     0.251 C 
ATOM     29  H   UNL A   1      37.339  21.892  25.179  1.00  0.00     0.163 HD
ATOM     30  O   UNL A   1      39.614  21.979  26.013  1.00  0.00    -0.269 OA
BRANCH  28  31
ATOM     31  C   UNL A   1      39.177  24.169  26.741  1.00  0.00     0.039 A 
ATOM     32  C   UNL A   1      38.775  24.381  28.059  1.00  0.00     0.014 A 
ATOM     33  C   UNL A   1      39.947  25.119  26.064  1.00  0.00     0.014 A 
ATOM     34  C   UNL A   1      39.196  25.533  28.722  1.00  0.00     0.010 A 
ATOM     35  C   UNL A   1      40.447  26.209  26.754  1.00  0.00     0.010 A 
ATOM     36  C   UNL A   1      40.057  26.438  28.080  1.00  0.00    -0.014 A 
BRANCH  36  37
ATOM     37  C   UNL A   1      40.531  27.667  28.753  1.00  0.00     0.031 A 
ATOM     38  C   UNL A   1      41.915  27.694  29.342  1.00  0.00     0.074 A 
ATOM     39  C   UNL A   1      39.693  28.710  28.906  1.00  0.00     0.049 A 
ATOM     40  N   UNL A   1      42.487  28.621  30.063  1.00  0.00    -0.248 NA
ATOM     41  C   UNL A   1      42.751  26.498  29.128  1.00  0.00     0.031 C 
ATOM     42  C   UNL A   1      38.310  28.768  28.425  1.00  0.00     0.029 A 
ATOM     43  N   UNL A   1      39.883  29.921  29.520  1.00  0.00    -0.354 N 
ATOM     44  C   UNL A   1      43.729  28.107  30.415  1.00  0.00     0.074 A 
ATOM     45  C   UNL A   1      43.808  26.768  29.878  1.00  0.00     0.031 C 
ATOM     46  C   UNL A   1      37.787  29.966  28.737  1.00  0.00     0.029 A 
ATOM     47  C   UNL A   1      38.782  30.743  29.468  1.00  0.00     0.049 A 
ATOM     48  H   UNL A   1      40.727  30.177  29.957  1.00  0.00     0.167 HD
ATOM     49  C   UNL A   1      44.727  28.708  31.104  1.00  0.00     0.031 A 
ATOM     50  C   UNL A   1      38.601  31.983  29.957  1.00  0.00     0.031 A 
ATOM     51  C   UNL A   1      44.653  30.055  31.596  1.00  0.00     0.049 A 
ATOM     52  C   UNL A   1      39.740  32.649  30.678  1.00  0.00     0.074 A 
ATOM     53  C   UNL A   1      45.627  30.792  32.245  1.00  0.00     0.029 A 
ATOM     54  N   UNL A   1      43.539  30.874  31.480  1.00  0.00    -0.354 N 
ATOM     55  N   UNL A   1      40.932  32.172  30.950  1.00  0.00    -0.248 NA
ATOM     56  C   UNL A   1      39.518  34.024  31.143  1.00  0.00     0.031 C 
ATOM     57  C   UNL A   1      45.090  32.047  32.549  1.00  0.00     0.029 A 
ATOM     58  C   UNL A   1      43.797  32.106  32.052  1.00  0.00     0.049 A 
ATOM     59  H   UNL A   1      42.690  30.616  31.054  1.00  0.00     0.167 HD
ATOM     60  C   UNL A   1      41.611  33.197  31.599  1.00  0.00     0.074 A 
ATOM     61  C   UNL A   1      40.700  34.324  31.663  1.00  0.00     0.031 C 
ATOM     62  C   UNL A   1      42.872  33.208  32.097  1.00  0.00     0.031 A 
BRANCH  49  63
ATOM     63  C   UNL A   1      45.977  27.907  31.353  1.00  0.00    -0.014 A 
ATOM     64  C   UNL A   1      46.129  27.147  32.529  1.00  0.00     0.010 A 
ATOM     65  C   UNL A   1      47.009  27.903  30.399  1.00  0.00     0.010 A 
ATOM     66  C   UNL A   1      47.311  26.440  32.767  1.00  0.00     0.020 A 
ATOM     67  C   UNL A   1      48.181  27.174  30.620  1.00  0.00     0.020 A 
ATOM     68  C   UNL A   1      48.332  26.464  31.812  1.00  0.00     0.054 A 
BRANCH  68  69
ATOM     69  S   UNL A   1      49.851  25.527  32.140  1.00  0.00     0.124 S 
ATOM     70  O   UNL A   1      50.737  26.567  32.659  1.00  0.00    -0.237 OA
ATOM     71  O   UNL A   1      49.412  24.533  33.116  1.00  0.00    -0.237 OA
ATOM     72  O   UNL A   1      50.217  24.992  30.831  1.00  0.00    -0.744 OA
ENDBRANCH  68  69
ENDBRANCH  49  63
BRANCH  50  73
ATOM     73  C   UNL A   1      37.306  32.684  29.746  1.00  0.00    -0.014 A 
ATOM     74  C   UNL A   1      36.302  32.627  30.727  1.00  0.00     0.010 A 
ATOM     75  C   UNL A   1      37.080  33.434  28.578  1.00  0.00     0.010 A 
ATOM     76  C   UNL A   1      35.086  33.291  30.538  1.00  0.00     0.020 A 
ATOM     77  C   UNL A   1      35.875  34.120  28.395  1.00  0.00     0.020 A 
ATOM     78  C   UNL A   1      34.881  34.034  29.372  1.00  0.00     0.054 A 
BRANCH  78  79
ATOM     79  S   UNL A   1      33.316  34.931  29.170  1.00  0.00     0.124 S 
ATOM     80  O   UNL A   1      32.614  34.099  28.197  1.00  0.00    -0.237 OA
ATOM     81  O   UNL A   1      32.768  34.920  30.523  1.00  0.00    -0.237 OA
ATOM     82  O   UNL A   1      33.736  36.244  28.686  1.00  0.00    -0.744 OA
ENDBRANCH  78  79
ENDBRANCH  50  73
BRANCH  62  83
ATOM     83  C   UNL A   1      43.349  34.487  32.726  1.00  0.00    -0.014 A 
ATOM     84  C   UNL A   1      43.783  35.565  31.935  1.00  0.00     0.010 A 
ATOM     85  C   UNL A   1      43.301  34.629  34.125  1.00  0.00     0.010 A 
ATOM     86  C   UNL A   1      44.188  36.758  32.537  1.00  0.00     0.020 A 
ATOM     87  C   UNL A   1      43.682  35.830  34.727  1.00  0.00     0.020 A 
ATOM     88  C   UNL A   1      44.136  36.883  33.929  1.00  0.00     0.054 A 
BRANCH  88  89
ATOM     89  S   UNL A   1      44.618  38.459  34.684  1.00  0.00     0.124 S 
ATOM     90  O   UNL A   1      44.119  39.426  33.710  1.00  0.00    -0.237 OA
ATOM     91  O   UNL A   1      43.911  38.434  35.963  1.00  0.00    -0.237 OA
ATOM     92  O   UNL A   1      46.073  38.364  34.781  1.00  0.00    -0.744 OA
ENDBRANCH  88  89
ENDBRANCH  62  83
ENDBRANCH  36  37
ENDBRANCH  28  31
ENDBRANCH  26  27
ENDBRANCH  25  26
ENDBRANCH   1  25
TORSDOF 19
ENDMDL
MODEL 3
REMARK VINA RESULT:     -10.5      2.634      3.231
REMARK SMILES COc1ccc([C@@H](O)[C@@H](C)CC(=O)NCCCCNC(=O)c2ccc(-c3c4nc(c(-c5ccc(S(=O)(=O)[O-])cc5)c5ccc([nH]5)c(-c5ccc(S(=O)(=O)[O-])cc5)c5nc(c(-c6ccc(S(=O)(=O)[O-])cc6)c6ccc3[nH]6)C=C5)C=C4)cc2)c2ccccc12
REMARK SMILES IDX 16 1 15 2 14 3 12 4 13 5 11 7 9 8 10 9 7 10 6 11 3 12 4 13
REMARK SMILES IDX 87 14 5 15 82 16 86 17 83 18 85 19 84 20 2 21 1 22 8 23
REMARK SMILES IDX 17 25 18 26 19 27 20 28 21 30 22 31 23 32 81 33 24 34 80 35
REMARK SMILES IDX 25 36 26 37 27 38 74 39 28 40 79 41 73 42 75 43 29 44 78 45
REMARK SMILES IDX 72 46 71 47 30 49 60 50 41 51 59 52 42 53 45 54 58 55 76 56
REMARK SMILES IDX 43 57 44 58 57 60 77 61 46 62 31 63 32 64 40 65 33 66 39 67
REMARK SMILES IDX 34 68 35 69 36 70 37 71 38 72 61 73 62 74 70 75 63 76 69 77
REMARK SMILES IDX 64 78 65 79 66 80 67 81 68 82 47 83 48 84 56 85 49 86 55 87
REMARK SMILES IDX 50 88 51 89 52 90 53 91 54 92
REMARK H PARENT 14 6 8 24 19 29 75 48 45 59
REMARK Flexibility Score: inf
ROOT
ATOM      1  C   UNL A   1      31.817  28.194  26.540  1.00  0.00     0.023 C 
ENDROOT
BRANCH   1   2
ATOM      2  C   UNL A   1      31.014  27.307  25.575  1.00  0.00     0.116 C 
BRANCH   2   3
ATOM      3  N   UNL A   1      30.884  27.836  24.219  1.00  0.00    -0.356 N 
ATOM      4  C   UNL A   1      30.856  27.198  23.005  1.00  0.00     0.220 C 
ATOM      5  O   UNL A   1      30.506  27.846  22.017  1.00  0.00    -0.275 OA
ATOM      6  H   UNL A   1      30.803  28.815  24.169  1.00  0.00     0.163 HD
BRANCH   4   7
ATOM      7  C   UNL A   1      31.336  25.763  22.863  1.00  0.00     0.106 C 
BRANCH   7   8
ATOM      8  C   UNL A   1      32.851  25.537  23.169  1.00  0.00     0.028 C 
ATOM      9  C   UNL A   1      33.597  26.822  22.805  1.00  0.00     0.011 C 
BRANCH   8  10
ATOM     10  C   UNL A   1      33.371  24.318  22.392  1.00  0.00     0.148 C 
BRANCH  10  11
ATOM     11  C   UNL A   1      33.551  22.940  23.018  1.00  0.00    -0.011 A 
ATOM     12  C   UNL A   1      33.489  20.631  24.628  1.00  0.00     0.126 A 
ATOM     13  C   UNL A   1      32.352  21.012  23.920  1.00  0.00     0.047 A 
ATOM     14  C   UNL A   1      34.681  21.386  24.543  1.00  0.00     0.024 A 
ATOM     15  C   UNL A   1      32.384  22.151  23.125  1.00  0.00     0.011 A 
ATOM     16  C   UNL A   1      34.736  22.525  23.692  1.00  0.00    -0.009 A 
ATOM     17  C   UNL A   1      35.816  21.049  25.312  1.00  0.00     0.012 A 
ATOM     18  C   UNL A   1      35.967  23.218  23.610  1.00  0.00     0.009 A 
ATOM     19  C   UNL A   1      36.995  21.787  25.245  1.00  0.00     0.001 A 
ATOM     20  C   UNL A   1      37.076  22.866  24.381  1.00  0.00     0.001 A 
BRANCH  12  21
ATOM     21  O   UNL A   1      33.466  19.560  25.492  1.00  0.00    -0.496 OA
ATOM     22  C   UNL A   1      32.676  18.467  25.037  1.00  0.00     0.278 C 
ENDBRANCH  12  21
ENDBRANCH  10  11
BRANCH  10  23
ATOM     23  O   UNL A   1      32.613  24.148  21.194  1.00  0.00    -0.388 OA
ATOM     24  H   UNL A   1      31.794  24.663  21.253  1.00  0.00     0.211 HD
ENDBRANCH  10  23
ENDBRANCH   8  10
ENDBRANCH   7   8
ENDBRANCH   4   7
ENDBRANCH   2   3
ENDBRANCH   1   2
BRANCH   1  25
ATOM     25  C   UNL A   1      33.292  27.852  26.687  1.00  0.00     0.023 C 
BRANCH  25  26
ATOM     26  C   UNL A   1      34.212  28.901  26.098  1.00  0.00     0.116 C 
BRANCH  26  27
ATOM     27  N   UNL A   1      33.888  30.245  26.563  1.00  0.00    -0.352 N 
ATOM     28  C   UNL A   1      34.495  30.993  27.541  1.00  0.00     0.251 C 
ATOM     29  H   UNL A   1      33.126  30.676  26.112  1.00  0.00     0.163 HD
ATOM     30  O   UNL A   1      33.996  32.043  27.917  1.00  0.00    -0.269 OA
BRANCH  28  31
ATOM     31  C   UNL A   1      35.747  30.492  28.137  1.00  0.00     0.039 A 
ATOM     32  C   UNL A   1      36.964  31.035  27.723  1.00  0.00     0.014 A 
ATOM     33  C   UNL A   1      35.701  29.515  29.136  1.00  0.00     0.014 A 
ATOM     34  C   UNL A   1      38.139  30.632  28.356  1.00  0.00     0.010 A 
ATOM     35  C   UNL A   1      36.854  29.193  29.830  1.00  0.00     0.010 A 
ATOM     36  C   UNL A   1      38.085  29.730  29.431  1.00  0.00    -0.014 A 
BRANCH  36  37
ATOM     37  C   UNL A   1      39.309  29.285  30.132  1.00  0.00     0.031 A 
ATOM     38  C   UNL A   1      39.726  29.985  31.396  1.00  0.00     0.074 A 
ATOM     39  C   UNL A   1      40.079  28.324  29.587  1.00  0.00     0.049 A 
ATOM     40  N   UNL A   1      40.812  29.830  32.106  1.00  0.00    -0.248 NA
ATOM     41  C   UNL A   1      38.820  31.031  31.906  1.00  0.00     0.031 C 
ATOM     42  C   UNL A   1      39.799  27.619  28.333  1.00  0.00     0.029 A 
ATOM     43  N   UNL A   1      41.261  27.780  30.017  1.00  0.00    -0.354 N 
ATOM     44  C   UNL A   1      40.735  30.777  33.120  1.00  0.00     0.074 A 
ATOM     45  C   UNL A   1      39.526  31.539  32.904  1.00  0.00     0.031 C 
ATOM     46  C   UNL A   1      40.768  26.715  28.112  1.00  0.00     0.029 A 
ATOM     47  C   UNL A   1      41.752  26.801  29.186  1.00  0.00     0.049 A 
ATOM     48  H   UNL A   1      41.715  28.064  30.843  1.00  0.00     0.167 HD
ATOM     49  C   UNL A   1      41.583  30.978  34.155  1.00  0.00     0.031 A 
ATOM     50  C   UNL A   1      42.870  26.060  29.284  1.00  0.00     0.031 A 
ATOM     51  C   UNL A   1      42.758  30.185  34.382  1.00  0.00     0.049 A 
ATOM     52  C   UNL A   1      43.774  26.267  30.467  1.00  0.00     0.074 A 
ATOM     53  C   UNL A   1      43.653  30.250  35.435  1.00  0.00     0.029 A 
ATOM     54  N   UNL A   1      43.196  29.169  33.544  1.00  0.00    -0.354 N 
ATOM     55  N   UNL A   1      43.655  27.127  31.452  1.00  0.00    -0.248 NA
ATOM     56  C   UNL A   1      44.952  25.396  30.563  1.00  0.00     0.031 C 
ATOM     57  C   UNL A   1      44.649  29.293  35.217  1.00  0.00     0.029 A 
ATOM     58  C   UNL A   1      44.352  28.604  34.051  1.00  0.00     0.049 A 
ATOM     59  H   UNL A   1      42.749  28.891  32.712  1.00  0.00     0.167 HD
ATOM     60  C   UNL A   1      44.731  26.885  32.297  1.00  0.00     0.074 A 
ATOM     61  C   UNL A   1      45.479  25.788  31.715  1.00  0.00     0.031 C 
ATOM     62  C   UNL A   1      45.071  27.511  33.450  1.00  0.00     0.031 A 
BRANCH  49  63
ATOM     63  C   UNL A   1      41.257  32.092  35.112  1.00  0.00    -0.014 A 
ATOM     64  C   UNL A   1      40.652  31.828  36.355  1.00  0.00     0.010 A 
ATOM     65  C   UNL A   1      41.567  33.421  34.772  1.00  0.00     0.010 A 
ATOM     66  C   UNL A   1      40.318  32.875  37.217  1.00  0.00     0.020 A 
ATOM     67  C   UNL A   1      41.261  34.469  35.644  1.00  0.00     0.020 A 
ATOM     68  C   UNL A   1      40.619  34.191  36.853  1.00  0.00     0.054 A 
BRANCH  68  69
ATOM     69  S   UNL A   1      40.186  35.531  37.996  1.00  0.00     0.124 S 
ATOM     70  O   UNL A   1      41.282  35.469  38.960  1.00  0.00    -0.237 OA
ATOM     71  O   UNL A   1      40.181  36.706  37.127  1.00  0.00    -0.237 OA
ATOM     72  O   UNL A   1      38.878  35.137  38.513  1.00  0.00    -0.744 OA
ENDBRANCH  68  69
ENDBRANCH  49  63
BRANCH  50  73
ATOM     73  C   UNL A   1      43.173  25.031  28.252  1.00  0.00    -0.014 A 
ATOM     74  C   UNL A   1      43.955  25.360  27.132  1.00  0.00     0.010 A 
ATOM     75  C   UNL A   1      42.705  23.712  28.397  1.00  0.00     0.010 A 
ATOM     76  C   UNL A   1      44.250  24.395  26.164  1.00  0.00     0.020 A 
ATOM     77  C   UNL A   1      43.018  22.738  27.444  1.00  0.00     0.020 A 
ATOM     78  C   UNL A   1      43.779  23.090  26.327  1.00  0.00     0.054 A 
BRANCH  78  79
ATOM     79  S   UNL A   1      44.217  21.840  25.085  1.00  0.00     0.124 S 
ATOM     80  O   UNL A   1      45.586  21.504  25.464  1.00  0.00    -0.237 OA
ATOM     81  O   UNL A   1      43.221  20.798  25.321  1.00  0.00    -0.237 OA
ATOM     82  O   UNL A   1      44.073  22.554  23.818  1.00  0.00    -0.744 OA
ENDBRANCH  78  79
ENDBRANCH  50  73
BRANCH  62  83
ATOM     83  C   UNL A   1      46.287  27.004  34.173  1.00  0.00    -0.014 A 
ATOM     84  C   UNL A   1      46.190  25.966  35.115  1.00  0.00     0.010 A 
ATOM     85  C   UNL A   1      47.552  27.533  33.854  1.00  0.00     0.010 A 
ATOM     86  C   UNL A   1      47.337  25.483  35.749  1.00  0.00     0.020 A 
ATOM     87  C   UNL A   1      48.702  27.036  34.469  1.00  0.00     0.020 A 
ATOM     88  C   UNL A   1      48.586  26.021  35.422  1.00  0.00     0.054 A 
BRANCH  88  89
ATOM     89  S   UNL A   1      50.066  25.343  36.219  1.00  0.00     0.124 S 
ATOM     90  O   UNL A   1      49.489  24.523  37.280  1.00  0.00    -0.237 OA
ATOM     91  O   UNL A   1      50.709  24.607  35.134  1.00  0.00    -0.237 OA
ATOM     92  O   UNL A   1      50.788  26.530  36.672  1.00  0.00    -0.744 OA
ENDBRANCH  88  89
ENDBRANCH  62  83
ENDBRANCH  36  37
ENDBRANCH  28  31
ENDBRANCH  26  27
ENDBRANCH  25  26
ENDBRANCH   1  25
TORSDOF 19
ENDMDL
