MODEL 1
REMARK VINA RESULT:     -10.3      0.000      0.000
REMARK SMILES CC[NH2+][C@]1(C(=O)NCCCCNC(=O)c2ccc(-c3c4nc(c(-c5ccc(S(=O)(=O)[O-])cc5)c5ccc([nH]5)c(-c5ccc(S(=O)(=O)[O-])cc5)c5nc(c(-c6ccc(S(=O)(=O)[O-])cc6)c6ccc3[nH]6)C=C5)C=C4)cc2)CCC[C@@H]1CCSc1ccccc1F
REMARK SMILES IDX 9 1 8 2 7 3 5 4 6 5 4 7 75 8 78 9 76 10 77 11 3 12 2 15 1 16
REMARK SMILES IDX 79 17 80 18 81 19 82 20 83 21 87 22 84 23 86 24 88 25 85 26
REMARK SMILES IDX 10 27 11 28 12 29 13 30 14 32 15 33 16 34 74 35 17 36 73 37
REMARK SMILES IDX 18 38 19 39 20 40 67 41 21 42 72 43 66 44 68 45 22 46 71 47
REMARK SMILES IDX 65 48 64 49 23 51 53 52 34 53 52 54 35 55 38 56 51 57 69 58
REMARK SMILES IDX 36 59 37 60 50 62 70 63 39 64 24 65 25 66 33 67 26 68 32 69
REMARK SMILES IDX 27 70 28 71 29 72 30 73 31 74 54 75 55 76 63 77 56 78 62 79
REMARK SMILES IDX 57 80 58 81 59 82 60 83 61 84 40 85 41 86 49 87 42 88 48 89
REMARK SMILES IDX 43 90 44 91 45 92 46 93 47 94
REMARK H PARENT 7 6 3 13 3 14 12 31 68 50 38 61
REMARK Flexibility Score: inf
ROOT
ATOM      1  C   UNL A   1      34.475  24.035  25.454  1.00  0.00     0.023 C 
ENDROOT
BRANCH   1   2
ATOM      2  C   UNL A   1      34.262  25.543  25.486  1.00  0.00     0.116 C 
BRANCH   2   3
ATOM      3  N   UNL A   1      33.124  25.971  26.285  1.00  0.00    -0.351 N 
ATOM      4  C   UNL A   1      31.949  26.568  25.884  1.00  0.00     0.281 C 
ATOM      5  O   UNL A   1      31.143  26.898  26.755  1.00  0.00    -0.268 OA
ATOM      6  H   UNL A   1      33.206  25.813  27.253  1.00  0.00     0.163 HD
BRANCH   4   7
ATOM      7  C   UNL A   1      31.697  26.852  24.368  1.00  0.00     0.178 C 
ATOM      8  C   UNL A   1      32.964  27.596  23.831  1.00  0.00     0.079 C 
ATOM      9  C   UNL A   1      31.804  25.609  23.422  1.00  0.00     0.061 C 
ATOM     10  C   UNL A   1      32.982  27.433  22.323  1.00  0.00     0.008 C 
ATOM     11  C   UNL A   1      32.133  26.211  22.043  1.00  0.00     0.011 C 
BRANCH   7  12
ATOM     12  N   UNL A   1      30.439  27.627  24.181  1.00  0.00    -0.334 N 
ATOM     13  H   UNL A   1      29.972  27.289  23.340  1.00  0.00     0.347 HD
ATOM     14  H   UNL A   1      29.873  27.490  25.018  1.00  0.00     0.347 HD
BRANCH  12  15
ATOM     15  C   UNL A   1      30.659  29.077  24.041  1.00  0.00     0.257 C 
ATOM     16  C   UNL A   1      29.929  29.617  22.821  1.00  0.00     0.071 C 
ENDBRANCH  12  15
ENDBRANCH   7  12
BRANCH   9  17
ATOM     17  C   UNL A   1      30.682  24.572  23.321  1.00  0.00     0.022 C 
BRANCH  17  18
ATOM     18  C   UNL A   1      31.076  23.163  23.813  1.00  0.00     0.075 C 
BRANCH  18  19
ATOM     19  S   UNL A   1      32.339  22.279  22.812  1.00  0.00    -0.123 SA
BRANCH  19  20
ATOM     20  C   UNL A   1      32.467  20.696  23.635  1.00  0.00     0.043 A 
ATOM     21  C   UNL A   1      32.775  20.619  24.998  1.00  0.00     0.018 A 
ATOM     22  C   UNL A   1      32.351  19.499  22.919  1.00  0.00     0.136 A 
ATOM     23  C   UNL A   1      32.902  19.373  25.629  1.00  0.00     0.001 A 
ATOM     24  C   UNL A   1      32.419  18.258  23.550  1.00  0.00     0.040 A 
ATOM     25  F   UNL A   1      32.148  19.513  21.593  1.00  0.00    -0.206 F 
ATOM     26  C   UNL A   1      32.697  18.193  24.910  1.00  0.00     0.003 A 
ENDBRANCH  19  20
ENDBRANCH  18  19
ENDBRANCH  17  18
ENDBRANCH   9  17
ENDBRANCH   4   7
ENDBRANCH   2   3
ENDBRANCH   1   2
BRANCH   1  27
ATOM     27  C   UNL A   1      35.789  23.560  26.051  1.00  0.00     0.023 C 
BRANCH  27  28
ATOM     28  C   UNL A   1      36.986  23.687  25.122  1.00  0.00     0.116 C 
BRANCH  28  29
ATOM     29  N   UNL A   1      38.050  22.738  25.424  1.00  0.00    -0.352 N 
ATOM     30  C   UNL A   1      39.219  22.939  26.113  1.00  0.00     0.251 C 
ATOM     31  H   UNL A   1      37.909  21.823  25.087  1.00  0.00     0.163 HD
ATOM     32  O   UNL A   1      40.074  22.056  26.151  1.00  0.00    -0.269 OA
BRANCH  30  33
ATOM     33  C   UNL A   1      39.454  24.235  26.778  1.00  0.00     0.039 A 
ATOM     34  C   UNL A   1      38.981  24.426  28.076  1.00  0.00     0.014 A 
ATOM     35  C   UNL A   1      40.183  25.239  26.135  1.00  0.00     0.014 A 
ATOM     36  C   UNL A   1      39.302  25.602  28.756  1.00  0.00     0.010 A 
ATOM     37  C   UNL A   1      40.583  26.363  26.847  1.00  0.00     0.010 A 
ATOM     38  C   UNL A   1      40.141  26.560  28.162  1.00  0.00    -0.014 A 
BRANCH  38  39
ATOM     39  C   UNL A   1      40.565  27.773  28.905  1.00  0.00     0.031 A 
ATOM     40  C   UNL A   1      41.924  27.827  29.550  1.00  0.00     0.074 A 
ATOM     41  C   UNL A   1      39.708  28.804  29.040  1.00  0.00     0.049 A 
ATOM     42  N   UNL A   1      42.464  28.792  30.250  1.00  0.00    -0.248 NA
ATOM     43  C   UNL A   1      42.777  26.635  29.414  1.00  0.00     0.031 C 
ATOM     44  C   UNL A   1      38.343  28.849  28.505  1.00  0.00     0.029 A 
ATOM     45  N   UNL A   1      39.855  30.016  29.666  1.00  0.00    -0.354 N 
ATOM     46  C   UNL A   1      43.710  28.319  30.644  1.00  0.00     0.074 A 
ATOM     47  C   UNL A   1      43.822  26.961  30.160  1.00  0.00     0.031 C 
ATOM     48  C   UNL A   1      37.797  30.042  28.791  1.00  0.00     0.029 A 
ATOM     49  C   UNL A   1      38.752  30.830  29.562  1.00  0.00     0.049 A 
ATOM     50  H   UNL A   1      40.676  30.278  30.144  1.00  0.00     0.167 HD
ATOM     51  C   UNL A   1      44.686  28.964  31.328  1.00  0.00     0.031 A 
ATOM     52  C   UNL A   1      38.534  32.073  30.035  1.00  0.00     0.031 A 
ATOM     53  C   UNL A   1      44.572  30.319  31.801  1.00  0.00     0.049 A 
ATOM     54  C   UNL A   1      39.630  32.766  30.797  1.00  0.00     0.074 A 
ATOM     55  C   UNL A   1      45.523  31.083  32.456  1.00  0.00     0.029 A 
ATOM     56  N   UNL A   1      43.440  31.109  31.676  1.00  0.00    -0.354 N 
ATOM     57  N   UNL A   1      40.830  32.329  31.097  1.00  0.00    -0.248 NA
ATOM     58  C   UNL A   1      39.346  34.127  31.270  1.00  0.00     0.031 C 
ATOM     59  C   UNL A   1      44.945  32.315  32.777  1.00  0.00     0.029 A 
ATOM     60  C   UNL A   1      43.658  32.344  32.263  1.00  0.00     0.049 A 
ATOM     61  H   UNL A   1      42.604  30.833  31.234  1.00  0.00     0.167 HD
ATOM     62  C   UNL A   1      41.454  33.372  31.773  1.00  0.00     0.074 A 
ATOM     63  C   UNL A   1      40.506  34.467  31.817  1.00  0.00     0.031 C 
ATOM     64  C   UNL A   1      42.700  33.421  32.307  1.00  0.00     0.031 A 
BRANCH  51  65
ATOM     65  C   UNL A   1      45.961  28.209  31.601  1.00  0.00    -0.014 A 
ATOM     66  C   UNL A   1      47.060  28.296  30.727  1.00  0.00     0.010 A 
ATOM     67  C   UNL A   1      46.075  27.429  32.766  1.00  0.00     0.010 A 
ATOM     68  C   UNL A   1      48.233  27.585  30.989  1.00  0.00     0.020 A 
ATOM     69  C   UNL A   1      47.260  26.741  33.050  1.00  0.00     0.020 A 
ATOM     70  C   UNL A   1      48.325  26.810  32.149  1.00  0.00     0.054 A 
BRANCH  70  71
ATOM     71  S   UNL A   1      49.870  25.919  32.478  1.00  0.00     0.124 S 
ATOM     72  O   UNL A   1      50.836  27.012  32.559  1.00  0.00    -0.237 OA
ATOM     73  O   UNL A   1      49.585  25.238  33.738  1.00  0.00    -0.237 OA
ATOM     74  O   UNL A   1      50.020  25.043  31.319  1.00  0.00    -0.744 OA
ENDBRANCH  70  71
ENDBRANCH  51  65
BRANCH  52  75
ATOM     75  C   UNL A   1      37.231  32.748  29.779  1.00  0.00    -0.014 A 
ATOM     76  C   UNL A   1      36.180  32.645  30.707  1.00  0.00     0.010 A 
ATOM     77  C   UNL A   1      37.038  33.506  28.611  1.00  0.00     0.010 A 
ATOM     78  C   UNL A   1      34.953  33.270  30.461  1.00  0.00     0.020 A 
ATOM     79  C   UNL A   1      35.823  34.158  28.376  1.00  0.00     0.020 A 
ATOM     80  C   UNL A   1      34.783  34.024  29.297  1.00  0.00     0.054 A 
BRANCH  80  81
ATOM     81  S   UNL A   1      33.199  34.865  29.023  1.00  0.00     0.124 S 
ATOM     82  O   UNL A   1      33.629  36.172  28.537  1.00  0.00    -0.237 OA
ATOM     83  O   UNL A   1      32.553  34.003  28.036  1.00  0.00    -0.237 OA
ATOM     84  O   UNL A   1      32.576  34.861  30.345  1.00  0.00    -0.744 OA
ENDBRANCH  80  81
ENDBRANCH  52  75
BRANCH  64  85
ATOM     85  C   UNL A   1      43.120  34.712  32.959  1.00  0.00    -0.014 A 
ATOM     86  C   UNL A   1      42.948  34.924  34.339  1.00  0.00     0.010 A 
ATOM     87  C   UNL A   1      43.729  35.714  32.182  1.00  0.00     0.010 A 
ATOM     88  C   UNL A   1      43.335  36.134  34.920  1.00  0.00     0.020 A 
ATOM     89  C   UNL A   1      44.148  36.911  32.766  1.00  0.00     0.020 A 
ATOM     90  C   UNL A   1      43.930  37.122  34.129  1.00  0.00     0.054 A 
BRANCH  90  91
ATOM     91  S   UNL A   1      44.445  38.675  34.912  1.00  0.00     0.124 S 
ATOM     92  O   UNL A   1      44.076  38.448  36.307  1.00  0.00    -0.237 OA
ATOM     93  O   UNL A   1      45.880  38.710  34.639  1.00  0.00    -0.237 OA
ATOM     94  O   UNL A   1      43.659  39.691  34.217  1.00  0.00    -0.744 OA
ENDBRANCH  90  91
ENDBRANCH  64  85
ENDBRANCH  38  39
ENDBRANCH  30  33
ENDBRANCH  28  29
ENDBRANCH  27  28
ENDBRANCH   1  27
TORSDOF 20
ENDMDL
MODEL 2
REMARK VINA RESULT:      -9.9      4.316      6.352
REMARK SMILES CC[NH2+][C@]1(C(=O)NCCCCNC(=O)c2ccc(-c3c4nc(c(-c5ccc(S(=O)(=O)[O-])cc5)c5ccc([nH]5)c(-c5ccc(S(=O)(=O)[O-])cc5)c5nc(c(-c6ccc(S(=O)(=O)[O-])cc6)c6ccc3[nH]6)C=C5)C=C4)cc2)CCC[C@@H]1CCSc1ccccc1F
REMARK SMILES IDX 9 1 8 2 7 3 5 4 6 5 4 7 75 8 78 9 76 10 77 11 3 12 2 15 1 16
REMARK SMILES IDX 79 17 80 18 81 19 82 20 83 21 87 22 84 23 86 24 88 25 85 26
REMARK SMILES IDX 10 27 11 28 12 29 13 30 14 32 15 33 16 34 74 35 17 36 73 37
REMARK SMILES IDX 18 38 19 39 20 40 67 41 21 42 72 43 66 44 68 45 22 46 71 47
REMARK SMILES IDX 65 48 64 49 23 51 53 52 34 53 52 54 35 55 38 56 51 57 69 58
REMARK SMILES IDX 36 59 37 60 50 62 70 63 39 64 24 65 25 66 33 67 26 68 32 69
REMARK SMILES IDX 27 70 28 71 29 72 30 73 31 74 54 75 55 76 63 77 56 78 62 79
REMARK SMILES IDX 57 80 58 81 59 82 60 83 61 84 40 85 41 86 49 87 42 88 48 89
REMARK SMILES IDX 43 90 44 91 45 92 46 93 47 94
REMARK H PARENT 7 6 3 13 3 14 12 31 68 50 38 61
REMARK Flexibility Score: inf
ROOT
ATOM      1  C   UNL A   1      39.173  22.531  26.476  1.00  0.00     0.023 C 
ENDROOT
BRANCH   1   2
ATOM      2  C   UNL A   1      37.897  23.253  26.061  1.00  0.00     0.116 C 
BRANCH   2   3
ATOM      3  N   UNL A   1      37.618  23.207  24.634  1.00  0.00    -0.351 N 
ATOM      4  C   UNL A   1      36.420  23.011  23.983  1.00  0.00     0.281 C 
ATOM      5  O   UNL A   1      36.435  22.954  22.752  1.00  0.00    -0.268 OA
ATOM      6  H   UNL A   1      38.400  23.332  24.048  1.00  0.00     0.163 HD
BRANCH   4   7
ATOM      7  C   UNL A   1      35.107  22.821  24.807  1.00  0.00     0.178 C 
ATOM      8  C   UNL A   1      35.537  22.385  26.247  1.00  0.00     0.079 C 
ATOM      9  C   UNL A   1      34.379  24.141  25.230  1.00  0.00     0.061 C 
ATOM     10  C   UNL A   1      34.377  22.682  27.178  1.00  0.00     0.008 C 
ATOM     11  C   UNL A   1      33.557  23.739  26.469  1.00  0.00     0.011 C 
BRANCH   7  12
ATOM     12  N   UNL A   1      34.206  21.839  24.142  1.00  0.00    -0.334 N 
ATOM     13  H   UNL A   1      33.240  22.120  24.311  1.00  0.00     0.347 HD
ATOM     14  H   UNL A   1      34.440  21.840  23.149  1.00  0.00     0.347 HD
BRANCH  12  15
ATOM     15  C   UNL A   1      34.382  20.460  24.627  1.00  0.00     0.257 C 
ATOM     16  C   UNL A   1      33.036  19.788  24.843  1.00  0.00     0.071 C 
ENDBRANCH  12  15
ENDBRANCH   7  12
BRANCH   9  17
ATOM     17  C   UNL A   1      33.532  24.949  24.242  1.00  0.00     0.022 C 
BRANCH  17  18
ATOM     18  C   UNL A   1      32.013  24.877  24.504  1.00  0.00     0.075 C 
BRANCH  18  19
ATOM     19  S   UNL A   1      31.024  26.321  23.938  1.00  0.00    -0.123 SA
BRANCH  19  20
ATOM     20  C   UNL A   1      31.392  27.565  25.169  1.00  0.00     0.043 A 
ATOM     21  C   UNL A   1      31.524  27.221  26.520  1.00  0.00     0.018 A 
ATOM     22  C   UNL A   1      31.465  28.920  24.826  1.00  0.00     0.136 A 
ATOM     23  C   UNL A   1      31.783  28.207  27.482  1.00  0.00     0.001 A 
ATOM     24  C   UNL A   1      31.779  29.898  25.768  1.00  0.00     0.040 A 
ATOM     25  F   UNL A   1      31.254  29.317  23.562  1.00  0.00    -0.206 F 
ATOM     26  C   UNL A   1      31.937  29.542  27.102  1.00  0.00     0.003 A 
ENDBRANCH  19  20
ENDBRANCH  18  19
ENDBRANCH  17  18
ENDBRANCH   9  17
ENDBRANCH   4   7
ENDBRANCH   2   3
ENDBRANCH   1   2
BRANCH   1  27
ATOM     27  C   UNL A   1      39.382  21.173  25.825  1.00  0.00     0.023 C 
BRANCH  27  28
ATOM     28  C   UNL A   1      40.042  20.139  26.722  1.00  0.00     0.116 C 
BRANCH  28  29
ATOM     29  N   UNL A   1      41.214  19.518  26.116  1.00  0.00    -0.352 N 
ATOM     30  C   UNL A   1      42.407  20.092  25.755  1.00  0.00     0.251 C 
ATOM     31  H   UNL A   1      41.139  18.551  25.942  1.00  0.00     0.163 HD
ATOM     32  O   UNL A   1      43.238  19.444  25.121  1.00  0.00    -0.269 OA
BRANCH  30  33
ATOM     33  C   UNL A   1      42.668  21.502  26.106  1.00  0.00     0.039 A 
ATOM     34  C   UNL A   1      42.970  21.826  27.428  1.00  0.00     0.014 A 
ATOM     35  C   UNL A   1      42.661  22.490  25.117  1.00  0.00     0.014 A 
ATOM     36  C   UNL A   1      43.336  23.135  27.745  1.00  0.00     0.010 A 
ATOM     37  C   UNL A   1      43.120  23.766  25.417  1.00  0.00     0.010 A 
ATOM     38  C   UNL A   1      43.455  24.105  26.735  1.00  0.00    -0.014 A 
BRANCH  38  39
ATOM     39  C   UNL A   1      43.930  25.477  27.042  1.00  0.00     0.031 A 
ATOM     40  C   UNL A   1      45.353  25.868  26.746  1.00  0.00     0.074 A 
ATOM     41  C   UNL A   1      43.094  26.354  27.633  1.00  0.00     0.049 A 
ATOM     42  N   UNL A   1      45.952  27.012  26.956  1.00  0.00    -0.248 NA
ATOM     43  C   UNL A   1      46.223  24.834  26.161  1.00  0.00     0.031 C 
ATOM     44  C   UNL A   1      41.707  26.075  28.019  1.00  0.00     0.029 A 
ATOM     45  N   UNL A   1      43.285  27.658  28.012  1.00  0.00    -0.354 N 
ATOM     46  C   UNL A   1      47.267  26.831  26.541  1.00  0.00     0.074 A 
ATOM     47  C   UNL A   1      47.394  25.452  26.125  1.00  0.00     0.031 C 
ATOM     48  C   UNL A   1      41.164  27.187  28.540  1.00  0.00     0.029 A 
ATOM     49  C   UNL A   1      42.171  28.242  28.565  1.00  0.00     0.049 A 
ATOM     50  H   UNL A   1      44.142  28.131  27.898  1.00  0.00     0.167 HD
ATOM     51  C   UNL A   1      48.272  27.737  26.487  1.00  0.00     0.031 A 
ATOM     52  C   UNL A   1      41.980  29.490  29.039  1.00  0.00     0.031 A 
ATOM     53  C   UNL A   1      48.138  29.110  26.896  1.00  0.00     0.049 A 
ATOM     54  C   UNL A   1      43.114  30.475  28.975  1.00  0.00     0.074 A 
ATOM     55  C   UNL A   1      49.079  30.123  26.830  1.00  0.00     0.029 A 
ATOM     56  N   UNL A   1      46.993  29.663  27.450  1.00  0.00    -0.354 N 
ATOM     57  N   UNL A   1      44.329  30.306  28.510  1.00  0.00    -0.248 NA
ATOM     58  C   UNL A   1      42.844  31.826  29.485  1.00  0.00     0.031 C 
ATOM     59  C   UNL A   1      48.522  31.273  27.398  1.00  0.00     0.029 A 
ATOM     60  C   UNL A   1      47.212  30.996  27.755  1.00  0.00     0.049 A 
ATOM     61  H   UNL A   1      46.149  29.180  27.603  1.00  0.00     0.167 HD
ATOM     62  C   UNL A   1      44.962  31.536  28.649  1.00  0.00     0.074 A 
ATOM     63  C   UNL A   1      43.987  32.444  29.220  1.00  0.00     0.031 C 
ATOM     64  C   UNL A   1      46.234  31.885  28.331  1.00  0.00     0.031 A 
BRANCH  51  65
ATOM     65  C   UNL A   1      49.606  27.266  25.966  1.00  0.00    -0.014 A 
ATOM     66  C   UNL A   1      50.531  26.624  26.809  1.00  0.00     0.010 A 
ATOM     67  C   UNL A   1      49.925  27.436  24.606  1.00  0.00     0.010 A 
ATOM     68  C   UNL A   1      51.766  26.199  26.314  1.00  0.00     0.020 A 
ATOM     69  C   UNL A   1      51.147  26.983  24.099  1.00  0.00     0.020 A 
ATOM     70  C   UNL A   1      52.067  26.382  24.961  1.00  0.00     0.054 A 
BRANCH  70  71
ATOM     71  S   UNL A   1      53.667  25.796  24.341  1.00  0.00     0.124 S 
ATOM     72  O   UNL A   1      53.689  24.418  24.823  1.00  0.00    -0.237 OA
ATOM     73  O   UNL A   1      53.526  25.954  22.896  1.00  0.00    -0.237 OA
ATOM     74  O   UNL A   1      54.634  26.691  24.972  1.00  0.00    -0.744 OA
ENDBRANCH  70  71
ENDBRANCH  51  65
BRANCH  52  75
ATOM     75  C   UNL A   1      40.654  29.880  29.594  1.00  0.00    -0.014 A 
ATOM     76  C   UNL A   1      40.396  29.769  30.971  1.00  0.00     0.010 A 
ATOM     77  C   UNL A   1      39.645  30.375  28.748  1.00  0.00     0.010 A 
ATOM     78  C   UNL A   1      39.146  30.125  31.490  1.00  0.00     0.020 A 
ATOM     79  C   UNL A   1      38.405  30.761  29.267  1.00  0.00     0.020 A 
ATOM     80  C   UNL A   1      38.159  30.620  30.634  1.00  0.00     0.054 A 
BRANCH  80  81
ATOM     81  S   UNL A   1      36.563  31.121  31.336  1.00  0.00     0.124 S 
ATOM     82  O   UNL A   1      36.279  30.026  32.256  1.00  0.00    -0.237 OA
ATOM     83  O   UNL A   1      36.881  32.405  31.957  1.00  0.00    -0.237 OA
ATOM     84  O   UNL A   1      35.687  31.204  30.169  1.00  0.00    -0.744 OA
ENDBRANCH  80  81
ENDBRANCH  52  75
BRANCH  64  85
ATOM     85  C   UNL A   1      46.635  33.317  28.567  1.00  0.00    -0.014 A 
ATOM     86  C   UNL A   1      46.442  34.302  27.582  1.00  0.00     0.010 A 
ATOM     87  C   UNL A   1      47.180  33.689  29.810  1.00  0.00     0.010 A 
ATOM     88  C   UNL A   1      46.832  35.623  27.818  1.00  0.00     0.020 A 
ATOM     89  C   UNL A   1      47.539  35.014  30.062  1.00  0.00     0.020 A 
ATOM     90  C   UNL A   1      47.381  35.970  29.057  1.00  0.00     0.054 A 
BRANCH  90  91
ATOM     91  S   UNL A   1      47.857  37.695  29.348  1.00  0.00     0.124 S 
ATOM     92  O   UNL A   1      48.242  38.134  28.010  1.00  0.00    -0.237 OA
ATOM     93  O   UNL A   1      46.626  38.283  29.872  1.00  0.00    -0.237 OA
ATOM     94  O   UNL A   1      48.951  37.596  30.310  1.00  0.00    -0.744 OA
ENDBRANCH  90  91
ENDBRANCH  64  85
ENDBRANCH  38  39
ENDBRANCH  30  33
ENDBRANCH  28  29
ENDBRANCH  27  28
ENDBRANCH   1  27
TORSDOF 20
ENDMDL
MODEL 3
REMARK VINA RESULT:      -9.8      3.164      8.873
REMARK SMILES CC[NH2+][C@]1(C(=O)NCCCCNC(=O)c2ccc(-c3c4nc(c(-c5ccc(S(=O)(=O)[O-])cc5)c5ccc([nH]5)c(-c5ccc(S(=O)(=O)[O-])cc5)c5nc(c(-c6ccc(S(=O)(=O)[O-])cc6)c6ccc3[nH]6)C=C5)C=C4)cc2)CCC[C@@H]1CCSc1ccccc1F
REMARK SMILES IDX 9 1 8 2 7 3 5 4 6 5 4 7 75 8 78 9 76 10 77 11 3 12 2 15 1 16
REMARK SMILES IDX 79 17 80 18 81 19 82 20 83 21 87 22 84 23 86 24 88 25 85 26
REMARK SMILES IDX 10 27 11 28 12 29 13 30 14 32 15 33 16 34 74 35 17 36 73 37
REMARK SMILES IDX 18 38 19 39 20 40 67 41 21 42 72 43 66 44 68 45 22 46 71 47
REMARK SMILES IDX 65 48 64 49 23 51 53 52 34 53 52 54 35 55 38 56 51 57 69 58
REMARK SMILES IDX 36 59 37 60 50 62 70 63 39 64 24 65 25 66 33 67 26 68 32 69
REMARK SMILES IDX 27 70 28 71 29 72 30 73 31 74 54 75 55 76 63 77 56 78 62 79
REMARK SMILES IDX 57 80 58 81 59 82 60 83 61 84 40 85 41 86 49 87 42 88 48 89
REMARK SMILES IDX 43 90 44 91 45 92 46 93 47 94
REMARK H PARENT 7 6 3 13 3 14 12 31 68 50 38 61
REMARK Flexibility Score: inf
ROOT
ATOM      1  C   UNL A   1      33.308  29.319  24.164  1.00  0.00     0.023 C 
ENDROOT
BRANCH   1   2
ATOM      2  C   UNL A   1      32.373  28.612  23.190  1.00  0.00     0.116 C 
BRANCH   2   3
ATOM      3  N   UNL A   1      33.048  27.768  22.216  1.00  0.00    -0.351 N 
ATOM      4  C   UNL A   1      33.062  26.395  22.109  1.00  0.00     0.281 C 
ATOM      5  O   UNL A   1      33.759  25.891  21.226  1.00  0.00    -0.268 OA
ATOM      6  H   UNL A   1      33.573  28.248  21.535  1.00  0.00     0.163 HD
BRANCH   4   7
ATOM      7  C   UNL A   1      32.249  25.525  23.122  1.00  0.00     0.178 C 
ATOM      8  C   UNL A   1      30.844  26.199  23.268  1.00  0.00     0.079 C 
ATOM      9  C   UNL A   1      31.734  24.153  22.573  1.00  0.00     0.061 C 
ATOM     10  C   UNL A   1      29.891  25.151  23.811  1.00  0.00     0.008 C 
ATOM     11  C   UNL A   1      30.524  23.819  23.464  1.00  0.00     0.011 C 
BRANCH   7  12
ATOM     12  N   UNL A   1      32.979  25.406  24.415  1.00  0.00    -0.334 N 
ATOM     13  H   UNL A   1      33.060  26.335  24.828  1.00  0.00     0.347 HD
ATOM     14  H   UNL A   1      32.445  24.767  25.005  1.00  0.00     0.347 HD
BRANCH  12  15
ATOM     15  C   UNL A   1      34.331  24.839  24.275  1.00  0.00     0.257 C 
ATOM     16  C   UNL A   1      35.060  24.850  25.609  1.00  0.00     0.071 C 
ENDBRANCH  12  15
ENDBRANCH   7  12
BRANCH   9  17
ATOM     17  C   UNL A   1      32.662  22.944  22.422  1.00  0.00     0.022 C 
BRANCH  17  18
ATOM     18  C   UNL A   1      31.980  21.586  22.690  1.00  0.00     0.075 C 
BRANCH  18  19
ATOM     19  S   UNL A   1      32.910  20.408  23.753  1.00  0.00    -0.123 SA
BRANCH  19  20
ATOM     20  C   UNL A   1      32.963  21.249  25.331  1.00  0.00     0.043 A 
ATOM     21  C   UNL A   1      31.877  22.016  25.771  1.00  0.00     0.018 A 
ATOM     22  C   UNL A   1      34.120  21.236  26.118  1.00  0.00     0.136 A 
ATOM     23  C   UNL A   1      31.939  22.696  26.996  1.00  0.00     0.001 A 
ATOM     24  C   UNL A   1      34.167  21.861  27.362  1.00  0.00     0.040 A 
ATOM     25  F   UNL A   1      35.221  20.593  25.701  1.00  0.00    -0.206 F 
ATOM     26  C   UNL A   1      33.073  22.597  27.804  1.00  0.00     0.003 A 
ENDBRANCH  19  20
ENDBRANCH  18  19
ENDBRANCH  17  18
ENDBRANCH   9  17
ENDBRANCH   4   7
ENDBRANCH   2   3
ENDBRANCH   1   2
BRANCH   1  27
ATOM     27  C   UNL A   1      33.954  28.417  25.203  1.00  0.00     0.023 C 
BRANCH  27  28
ATOM     28  C   UNL A   1      33.569  28.735  26.639  1.00  0.00     0.116 C 
BRANCH  28  29
ATOM     29  N   UNL A   1      33.454  30.164  26.900  1.00  0.00    -0.352 N 
ATOM     30  C   UNL A   1      34.266  30.974  27.654  1.00  0.00     0.251 C 
ATOM     31  H   UNL A   1      32.686  30.612  26.474  1.00  0.00     0.163 HD
ATOM     32  O   UNL A   1      33.938  32.137  27.883  1.00  0.00    -0.269 OA
BRANCH  30  33
ATOM     33  C   UNL A   1      35.517  30.426  28.212  1.00  0.00     0.039 A 
ATOM     34  C   UNL A   1      36.723  30.696  27.564  1.00  0.00     0.014 A 
ATOM     35  C   UNL A   1      35.500  29.691  29.400  1.00  0.00     0.014 A 
ATOM     36  C   UNL A   1      37.921  30.285  28.150  1.00  0.00     0.010 A 
ATOM     37  C   UNL A   1      36.696  29.370  30.028  1.00  0.00     0.010 A 
ATOM     38  C   UNL A   1      37.920  29.657  29.407  1.00  0.00    -0.014 A 
BRANCH  38  39
ATOM     39  C   UNL A   1      39.190  29.295  30.085  1.00  0.00     0.031 A 
ATOM     40  C   UNL A   1      39.624  30.036  31.321  1.00  0.00     0.074 A 
ATOM     41  C   UNL A   1      39.974  28.334  29.559  1.00  0.00     0.049 A 
ATOM     42  N   UNL A   1      40.704  29.872  32.042  1.00  0.00    -0.248 NA
ATOM     43  C   UNL A   1      38.745  31.117  31.797  1.00  0.00     0.031 C 
ATOM     44  C   UNL A   1      39.687  27.581  28.334  1.00  0.00     0.029 A 
ATOM     45  N   UNL A   1      41.173  27.822  29.986  1.00  0.00    -0.354 N 
ATOM     46  C   UNL A   1      40.638  30.833  33.044  1.00  0.00     0.074 A 
ATOM     47  C   UNL A   1      39.446  31.615  32.804  1.00  0.00     0.031 C 
ATOM     48  C   UNL A   1      40.661  26.678  28.134  1.00  0.00     0.029 A 
ATOM     49  C   UNL A   1      41.660  26.814  29.188  1.00  0.00     0.049 A 
ATOM     50  H   UNL A   1      41.641  28.147  30.790  1.00  0.00     0.167 HD
ATOM     51  C   UNL A   1      41.482  31.032  34.085  1.00  0.00     0.031 A 
ATOM     52  C   UNL A   1      42.785  26.080  29.294  1.00  0.00     0.031 A 
ATOM     53  C   UNL A   1      42.663  30.246  34.322  1.00  0.00     0.049 A 
ATOM     54  C   UNL A   1      43.709  26.325  30.454  1.00  0.00     0.074 A 
ATOM     55  C   UNL A   1      43.555  30.331  35.378  1.00  0.00     0.029 A 
ATOM     56  N   UNL A   1      43.121  29.234  33.492  1.00  0.00    -0.354 N 
ATOM     57  N   UNL A   1      43.592  27.190  31.434  1.00  0.00    -0.248 NA
ATOM     58  C   UNL A   1      44.909  25.482  30.532  1.00  0.00     0.031 C 
ATOM     59  C   UNL A   1      44.583  29.410  35.155  1.00  0.00     0.029 A 
ATOM     60  C   UNL A   1      44.296  28.704  33.998  1.00  0.00     0.049 A 
ATOM     61  H   UNL A   1      42.676  28.936  32.665  1.00  0.00     0.167 HD
ATOM     62  C   UNL A   1      44.691  26.979  32.259  1.00  0.00     0.074 A 
ATOM     63  C   UNL A   1      45.448  25.890  31.674  1.00  0.00     0.031 C 
ATOM     64  C   UNL A   1      45.043  27.625  33.398  1.00  0.00     0.031 A 
BRANCH  51  65
ATOM     65  C   UNL A   1      41.151  32.146  35.045  1.00  0.00    -0.014 A 
ATOM     66  C   UNL A   1      40.317  31.925  36.157  1.00  0.00     0.010 A 
ATOM     67  C   UNL A   1      41.710  33.423  34.853  1.00  0.00     0.010 A 
ATOM     68  C   UNL A   1      40.014  32.968  37.034  1.00  0.00     0.020 A 
ATOM     69  C   UNL A   1      41.435  34.463  35.748  1.00  0.00     0.020 A 
ATOM     70  C   UNL A   1      40.574  34.232  36.823  1.00  0.00     0.054 A 
BRANCH  70  71
ATOM     71  S   UNL A   1      40.184  35.560  37.994  1.00  0.00     0.124 S 
ATOM     72  O   UNL A   1      39.952  36.691  37.099  1.00  0.00    -0.237 OA
ATOM     73  O   UNL A   1      38.999  35.047  38.677  1.00  0.00    -0.237 OA
ATOM     74  O   UNL A   1      41.384  35.658  38.822  1.00  0.00    -0.744 OA
ENDBRANCH  70  71
ENDBRANCH  51  65
BRANCH  52  75
ATOM     75  C   UNL A   1      43.086  25.029  28.282  1.00  0.00    -0.014 A 
ATOM     76  C   UNL A   1      43.813  25.344  27.120  1.00  0.00     0.010 A 
ATOM     77  C   UNL A   1      42.655  23.705  28.479  1.00  0.00     0.010 A 
ATOM     78  C   UNL A   1      44.084  24.359  26.165  1.00  0.00     0.020 A 
ATOM     79  C   UNL A   1      42.952  22.711  27.542  1.00  0.00     0.020 A 
ATOM     80  C   UNL A   1      43.654  23.048  26.383  1.00  0.00     0.054 A 
BRANCH  80  81
ATOM     81  S   UNL A   1      44.060  21.777  25.153  1.00  0.00     0.124 S 
ATOM     82  O   UNL A   1      43.902  22.506  23.900  1.00  0.00    -0.237 OA
ATOM     83  O   UNL A   1      45.431  21.421  25.511  1.00  0.00    -0.237 OA
ATOM     84  O   UNL A   1      43.069  20.732  25.401  1.00  0.00    -0.744 OA
ENDBRANCH  80  81
ENDBRANCH  52  75
BRANCH  64  85
ATOM     85  C   UNL A   1      46.286  27.150  34.104  1.00  0.00    -0.014 A 
ATOM     86  C   UNL A   1      47.543  27.717  33.832  1.00  0.00     0.010 A 
ATOM     87  C   UNL A   1      46.185  26.144  35.083  1.00  0.00     0.010 A 
ATOM     88  C   UNL A   1      48.685  27.253  34.491  1.00  0.00     0.020 A 
ATOM     89  C   UNL A   1      47.318  25.702  35.768  1.00  0.00     0.020 A 
ATOM     90  C   UNL A   1      48.564  26.246  35.454  1.00  0.00     0.054 A 
BRANCH  90  91
ATOM     91  S   UNL A   1      50.057  25.677  36.313  1.00  0.00     0.124 S 
ATOM     92  O   UNL A   1      50.659  26.936  36.742  1.00  0.00    -0.237 OA
ATOM     93  O   UNL A   1      49.512  24.844  37.383  1.00  0.00    -0.237 OA
ATOM     94  O   UNL A   1      50.796  24.953  35.282  1.00  0.00    -0.744 OA
ENDBRANCH  90  91
ENDBRANCH  64  85
ENDBRANCH  38  39
ENDBRANCH  30  33
ENDBRANCH  28  29
ENDBRANCH  27  28
ENDBRANCH   1  27
TORSDOF 20
ENDMDL
