MODEL 1
REMARK VINA RESULT:     -11.8      0.000      0.000
REMARK SMILES Cc1ccc(NC(=O)Cn2c(CCC(=O)NCCCCNC(=O)c3ccc(-c4c5nc(c(-c6ccc(S(=O)(=O)[O-])cc6)c6ccc([nH]6)c(-c6ccc(S(=O)(=O)[O-])cc6)c6nc(c(-c7ccc(S(=O)(=O)[O-])cc7)c7ccc4[nH]7)C=C6)C=C5)cc3)ccc2-c2ccccc2)cc1
REMARK SMILES IDX 17 1 16 2 14 3 15 4 13 6 12 7 11 8 10 9 86 10 84 11 85 12
REMARK SMILES IDX 9 13 7 14 6 15 8 17 5 18 1 19 2 20 3 21 94 22 4 23 93 24
REMARK SMILES IDX 87 25 88 26 92 27 89 28 91 29 90 30 18 31 19 32 20 33 21 34
REMARK SMILES IDX 22 35 23 37 24 38 25 39 83 40 26 41 82 42 27 43 28 44 29 45
REMARK SMILES IDX 76 46 30 47 81 48 75 49 77 50 31 51 80 52 74 53 73 54 32 56
REMARK SMILES IDX 62 57 43 58 61 59 44 60 47 61 60 62 78 63 45 64 46 65 59 67
REMARK SMILES IDX 79 68 48 69 33 70 34 71 42 72 35 73 41 74 36 75 37 76 38 77
REMARK SMILES IDX 39 78 40 79 63 80 64 81 72 82 65 83 71 84 66 85 67 86 68 87
REMARK SMILES IDX 69 88 70 89 49 90 50 91 58 92 51 93 57 94 52 95 53 96 54 97
REMARK SMILES IDX 55 98 56 99
REMARK H PARENT 16 5 6 16 21 36 77 55 47 66
REMARK Flexibility Score: inf
ROOT
ATOM      1  C   UNL A   1      33.068  29.660  25.353  1.00  0.00     0.116 C 
ENDROOT
BRANCH   1   2
ATOM      2  N   UNL A   1      31.759  30.258  25.111  1.00  0.00    -0.356 N 
ATOM      3  C   UNL A   1      30.813  29.937  24.186  1.00  0.00     0.220 C 
ATOM      4  O   UNL A   1      29.682  30.426  24.278  1.00  0.00    -0.275 OA
ATOM      5  H   UNL A   1      31.526  31.007  25.707  1.00  0.00     0.163 HD
BRANCH   3   6
ATOM      6  C   UNL A   1      31.136  29.030  23.022  1.00  0.00     0.106 C 
BRANCH   6   7
ATOM      7  C   UNL A   1      30.910  27.575  23.413  1.00  0.00     0.064 C 
BRANCH   7   8
ATOM      8  C   UNL A   1      32.101  26.672  23.241  1.00  0.00     0.019 A 
ATOM      9  N   UNL A   1      32.954  26.133  24.203  1.00  0.00    -0.335 N 
ATOM     10  C   UNL A   1      33.856  25.267  23.548  1.00  0.00     0.049 A 
ATOM     11  C   UNL A   1      32.562  26.255  22.002  1.00  0.00     0.024 A 
ATOM     12  C   UNL A   1      33.653  25.398  22.190  1.00  0.00     0.029 A 
BRANCH   9  13
ATOM     13  C   UNL A   1      32.975  26.239  25.676  1.00  0.00     0.222 C 
BRANCH  13  14
ATOM     14  C   UNL A   1      31.756  26.008  26.540  1.00  0.00     0.244 C 
ATOM     15  N   UNL A   1      31.279  24.773  26.884  1.00  0.00    -0.325 N 
ATOM     16  H   UNL A   1      30.522  24.778  27.514  1.00  0.00     0.169 HD
ATOM     17  O   UNL A   1      31.094  26.988  26.913  1.00  0.00    -0.273 OA
BRANCH  15  18
ATOM     18  C   UNL A   1      31.705  23.504  26.474  1.00  0.00     0.041 A 
ATOM     19  C   UNL A   1      33.740  20.031  24.996  1.00  0.00     0.044 C 
ATOM     20  C   UNL A   1      32.942  21.159  25.577  1.00  0.00    -0.051 A 
ATOM     21  C   UNL A   1      31.998  21.812  24.781  1.00  0.00     0.005 A 
ATOM     22  C   UNL A   1      33.191  21.634  26.868  1.00  0.00     0.005 A 
ATOM     23  C   UNL A   1      31.374  22.971  25.234  1.00  0.00     0.026 A 
ATOM     24  C   UNL A   1      32.547  22.784  27.330  1.00  0.00     0.026 A 
ENDBRANCH  15  18
ENDBRANCH  13  14
ENDBRANCH   9  13
BRANCH  10  25
ATOM     25  C   UNL A   1      34.737  24.268  24.173  1.00  0.00    -0.002 A 
ATOM     26  C   UNL A   1      35.233  24.419  25.467  1.00  0.00     0.010 A 
ATOM     27  C   UNL A   1      35.244  23.226  23.389  1.00  0.00     0.010 A 
ATOM     28  C   UNL A   1      36.188  23.519  25.967  1.00  0.00     0.001 A 
ATOM     29  C   UNL A   1      36.172  22.312  23.885  1.00  0.00     0.001 A 
ATOM     30  C   UNL A   1      36.647  22.461  25.180  1.00  0.00     0.000 A 
ENDBRANCH  10  25
ENDBRANCH   7   8
ENDBRANCH   6   7
ENDBRANCH   3   6
ENDBRANCH   1   2
BRANCH   1  31
ATOM     31  C   UNL A   1      33.489  29.722  26.819  1.00  0.00     0.023 C 
BRANCH  31  32
ATOM     32  C   UNL A   1      33.946  31.102  27.334  1.00  0.00     0.023 C 
BRANCH  32  33
ATOM     33  C   UNL A   1      35.318  31.103  28.058  1.00  0.00     0.116 C 
BRANCH  33  34
ATOM     34  N   UNL A   1      35.826  32.451  28.319  1.00  0.00    -0.352 N 
ATOM     35  C   UNL A   1      36.708  32.969  29.250  1.00  0.00     0.251 C 
ATOM     36  H   UNL A   1      35.467  33.130  27.703  1.00  0.00     0.163 HD
ATOM     37  O   UNL A   1      36.658  34.188  29.442  1.00  0.00    -0.269 OA
BRANCH  35  38
ATOM     38  C   UNL A   1      37.700  32.170  30.039  1.00  0.00     0.039 A 
ATOM     39  C   UNL A   1      37.427  31.849  31.390  1.00  0.00     0.014 A 
ATOM     40  C   UNL A   1      38.943  31.818  29.543  1.00  0.00     0.014 A 
ATOM     41  C   UNL A   1      38.311  31.060  32.179  1.00  0.00     0.010 A 
ATOM     42  C   UNL A   1      39.847  31.101  30.354  1.00  0.00     0.010 A 
ATOM     43  C   UNL A   1      39.529  30.625  31.654  1.00  0.00    -0.014 A 
BRANCH  43  44
ATOM     44  C   UNL A   1      40.200  29.324  32.060  1.00  0.00     0.031 A 
ATOM     45  C   UNL A   1      39.884  28.297  31.072  1.00  0.00     0.074 A 
ATOM     46  C   UNL A   1      41.428  29.045  32.591  1.00  0.00     0.049 A 
ATOM     47  N   UNL A   1      40.615  28.284  30.014  1.00  0.00    -0.248 NA
ATOM     48  C   UNL A   1      38.735  27.427  31.053  1.00  0.00     0.031 C 
ATOM     49  C   UNL A   1      42.258  29.964  33.344  1.00  0.00     0.029 A 
ATOM     50  N   UNL A   1      42.284  27.919  32.345  1.00  0.00    -0.354 N 
ATOM     51  C   UNL A   1      40.081  27.392  29.151  1.00  0.00     0.074 A 
ATOM     52  C   UNL A   1      38.918  26.860  29.850  1.00  0.00     0.031 C 
ATOM     53  C   UNL A   1      43.514  29.476  33.389  1.00  0.00     0.029 A 
ATOM     54  C   UNL A   1      43.627  28.220  32.604  1.00  0.00     0.049 A 
ATOM     55  H   UNL A   1      41.965  27.041  32.033  1.00  0.00     0.167 HD
ATOM     56  C   UNL A   1      40.753  27.188  27.988  1.00  0.00     0.031 A 
ATOM     57  C   UNL A   1      44.769  27.905  31.901  1.00  0.00     0.031 A 
ATOM     58  C   UNL A   1      41.602  28.328  27.537  1.00  0.00     0.049 A 
ATOM     59  C   UNL A   1      44.957  29.161  31.122  1.00  0.00     0.074 A 
ATOM     60  C   UNL A   1      41.808  28.965  26.325  1.00  0.00     0.029 A 
ATOM     61  N   UNL A   1      42.337  29.096  28.441  1.00  0.00    -0.354 N 
ATOM     62  N   UNL A   1      44.187  29.409  30.112  1.00  0.00    -0.248 NA
ATOM     63  C   UNL A   1      45.952  30.172  31.408  1.00  0.00     0.031 C 
ATOM     64  C   UNL A   1      42.577  30.160  26.552  1.00  0.00     0.029 A 
ATOM     65  C   UNL A   1      42.873  30.264  27.902  1.00  0.00     0.049 A 
ATOM     66  H   UNL A   1      42.467  28.834  29.381  1.00  0.00     0.167 HD
ATOM     67  C   UNL A   1      44.471  30.665  29.673  1.00  0.00     0.074 A 
ATOM     68  C   UNL A   1      45.601  31.086  30.493  1.00  0.00     0.031 C 
ATOM     69  C   UNL A   1      43.655  31.231  28.738  1.00  0.00     0.031 A 
BRANCH  56  70
ATOM     70  C   UNL A   1      40.748  25.806  27.388  1.00  0.00    -0.014 A 
ATOM     71  C   UNL A   1      41.955  25.082  27.360  1.00  0.00     0.010 A 
ATOM     72  C   UNL A   1      39.582  25.094  27.048  1.00  0.00     0.010 A 
ATOM     73  C   UNL A   1      41.981  23.708  27.060  1.00  0.00     0.020 A 
ATOM     74  C   UNL A   1      39.586  23.720  26.795  1.00  0.00     0.020 A 
ATOM     75  C   UNL A   1      40.789  23.031  26.799  1.00  0.00     0.054 A 
BRANCH  75  76
ATOM     76  S   UNL A   1      40.800  21.253  26.452  1.00  0.00     0.124 S 
ATOM     77  O   UNL A   1      40.790  20.680  27.799  1.00  0.00    -0.237 OA
ATOM     78  O   UNL A   1      39.597  21.066  25.663  1.00  0.00    -0.237 OA
ATOM     79  O   UNL A   1      42.054  21.055  25.719  1.00  0.00    -0.744 OA
ENDBRANCH  75  76
ENDBRANCH  56  70
BRANCH  57  80
ATOM     80  C   UNL A   1      45.333  26.725  31.114  1.00  0.00    -0.014 A 
ATOM     81  C   UNL A   1      46.669  26.743  30.678  1.00  0.00     0.010 A 
ATOM     82  C   UNL A   1      44.483  25.787  30.459  1.00  0.00     0.010 A 
ATOM     83  C   UNL A   1      47.101  25.937  29.592  1.00  0.00     0.020 A 
ATOM     84  C   UNL A   1      44.895  25.005  29.366  1.00  0.00     0.020 A 
ATOM     85  C   UNL A   1      46.201  25.104  28.917  1.00  0.00     0.054 A 
BRANCH  85  86
ATOM     86  S   UNL A   1      46.717  24.250  27.392  1.00  0.00     0.124 S 
ATOM     87  O   UNL A   1      46.181  25.126  26.350  1.00  0.00    -0.237 OA
ATOM     88  O   UNL A   1      48.170  24.239  27.504  1.00  0.00    -0.237 OA
ATOM     89  O   UNL A   1      46.065  22.943  27.477  1.00  0.00    -0.744 OA
ENDBRANCH  85  86
ENDBRANCH  57  80
BRANCH  69  90
ATOM     90  C   UNL A   1      43.517  32.747  28.616  1.00  0.00    -0.014 A 
ATOM     91  C   UNL A   1      42.697  33.556  29.433  1.00  0.00     0.010 A 
ATOM     92  C   UNL A   1      44.132  33.420  27.540  1.00  0.00     0.010 A 
ATOM     93  C   UNL A   1      42.551  34.938  29.252  1.00  0.00     0.020 A 
ATOM     94  C   UNL A   1      43.993  34.807  27.336  1.00  0.00     0.020 A 
ATOM     95  C   UNL A   1      43.215  35.561  28.208  1.00  0.00     0.054 A 
BRANCH  95  96
ATOM     96  S   UNL A   1      43.033  37.352  28.035  1.00  0.00     0.124 S 
ATOM     97  O   UNL A   1      43.538  37.592  26.686  1.00  0.00    -0.237 OA
ATOM     98  O   UNL A   1      41.596  37.537  28.206  1.00  0.00    -0.237 OA
ATOM     99  O   UNL A   1      43.861  37.889  29.115  1.00  0.00    -0.744 OA
ENDBRANCH  95  96
ENDBRANCH  69  90
ENDBRANCH  43  44
ENDBRANCH  35  38
ENDBRANCH  33  34
ENDBRANCH  32  33
ENDBRANCH  31  32
ENDBRANCH   1  31
TORSDOF 20
ENDMDL
MODEL 2
REMARK VINA RESULT:     -11.0      4.091      6.583
REMARK SMILES Cc1ccc(NC(=O)Cn2c(CCC(=O)NCCCCNC(=O)c3ccc(-c4c5nc(c(-c6ccc(S(=O)(=O)[O-])cc6)c6ccc([nH]6)c(-c6ccc(S(=O)(=O)[O-])cc6)c6nc(c(-c7ccc(S(=O)(=O)[O-])cc7)c7ccc4[nH]7)C=C6)C=C5)cc3)ccc2-c2ccccc2)cc1
REMARK SMILES IDX 17 1 16 2 14 3 15 4 13 6 12 7 11 8 10 9 86 10 84 11 85 12
REMARK SMILES IDX 9 13 7 14 6 15 8 17 5 18 1 19 2 20 3 21 94 22 4 23 93 24
REMARK SMILES IDX 87 25 88 26 92 27 89 28 91 29 90 30 18 31 19 32 20 33 21 34
REMARK SMILES IDX 22 35 23 37 24 38 25 39 83 40 26 41 82 42 27 43 28 44 29 45
REMARK SMILES IDX 76 46 30 47 81 48 75 49 77 50 31 51 80 52 74 53 73 54 32 56
REMARK SMILES IDX 62 57 43 58 61 59 44 60 47 61 60 62 78 63 45 64 46 65 59 67
REMARK SMILES IDX 79 68 48 69 33 70 34 71 42 72 35 73 41 74 36 75 37 76 38 77
REMARK SMILES IDX 39 78 40 79 63 80 64 81 72 82 65 83 71 84 66 85 67 86 68 87
REMARK SMILES IDX 69 88 70 89 49 90 50 91 58 92 51 93 57 94 52 95 53 96 54 97
REMARK SMILES IDX 55 98 56 99
REMARK H PARENT 16 5 6 16 21 36 77 55 47 66
REMARK Flexibility Score: inf
ROOT
ATOM      1  C   UNL A   1      31.375  29.789  24.289  1.00  0.00     0.116 C 
ENDROOT
BRANCH   1   2
ATOM      2  N   UNL A   1      30.029  29.979  23.760  1.00  0.00    -0.356 N 
ATOM      3  C   UNL A   1      29.245  29.122  23.047  1.00  0.00     0.220 C 
ATOM      4  O   UNL A   1      28.053  29.393  22.871  1.00  0.00    -0.275 OA
ATOM      5  H   UNL A   1      29.628  30.859  23.945  1.00  0.00     0.163 HD
BRANCH   3   6
ATOM      6  C   UNL A   1      29.820  27.870  22.431  1.00  0.00     0.106 C 
BRANCH   6   7
ATOM      7  C   UNL A   1      30.282  26.911  23.521  1.00  0.00     0.064 C 
BRANCH   7   8
ATOM      8  C   UNL A   1      31.618  26.263  23.283  1.00  0.00     0.019 A 
ATOM      9  N   UNL A   1      32.571  25.826  24.202  1.00  0.00    -0.335 N 
ATOM     10  C   UNL A   1      33.610  25.195  23.484  1.00  0.00     0.049 A 
ATOM     11  C   UNL A   1      32.131  26.031  22.016  1.00  0.00     0.024 A 
ATOM     12  C   UNL A   1      33.366  25.383  22.140  1.00  0.00     0.029 A 
BRANCH   9  13
ATOM     13  C   UNL A   1      32.593  25.827  25.678  1.00  0.00     0.222 C 
BRANCH  13  14
ATOM     14  C   UNL A   1      31.439  25.337  26.524  1.00  0.00     0.244 C 
ATOM     15  N   UNL A   1      31.222  24.024  26.844  1.00  0.00    -0.325 N 
ATOM     16  H   UNL A   1      30.475  23.863  27.464  1.00  0.00     0.169 HD
ATOM     17  O   UNL A   1      30.587  26.154  26.903  1.00  0.00    -0.273 OA
BRANCH  15  18
ATOM     18  C   UNL A   1      31.903  22.876  26.421  1.00  0.00     0.041 A 
ATOM     19  C   UNL A   1      34.602  19.924  24.876  1.00  0.00     0.044 C 
ATOM     20  C   UNL A   1      33.596  20.853  25.483  1.00  0.00    -0.051 A 
ATOM     21  C   UNL A   1      32.504  21.276  24.720  1.00  0.00     0.005 A 
ATOM     22  C   UNL A   1      33.777  21.382  26.765  1.00  0.00     0.005 A 
ATOM     23  C   UNL A   1      31.656  22.273  25.193  1.00  0.00     0.026 A 
ATOM     24  C   UNL A   1      32.911  22.367  27.247  1.00  0.00     0.026 A 
ENDBRANCH  15  18
ENDBRANCH  13  14
ENDBRANCH   9  13
BRANCH  10  25
ATOM     25  C   UNL A   1      34.671  24.336  24.033  1.00  0.00    -0.002 A 
ATOM     26  C   UNL A   1      35.219  24.547  25.298  1.00  0.00     0.010 A 
ATOM     27  C   UNL A   1      35.281  23.394  23.198  1.00  0.00     0.010 A 
ATOM     28  C   UNL A   1      36.330  23.799  25.719  1.00  0.00     0.001 A 
ATOM     29  C   UNL A   1      36.368  22.628  23.617  1.00  0.00     0.001 A 
ATOM     30  C   UNL A   1      36.895  22.834  24.884  1.00  0.00     0.000 A 
ENDBRANCH  10  25
ENDBRANCH   7   8
ENDBRANCH   6   7
ENDBRANCH   3   6
ENDBRANCH   1   2
BRANCH   1  31
ATOM     31  C   UNL A   1      31.521  30.269  25.731  1.00  0.00     0.023 C 
BRANCH  31  32
ATOM     32  C   UNL A   1      31.944  29.201  26.761  1.00  0.00     0.023 C 
BRANCH  32  33
ATOM     33  C   UNL A   1      33.216  29.553  27.575  1.00  0.00     0.116 C 
BRANCH  33  34
ATOM     34  N   UNL A   1      33.596  30.963  27.465  1.00  0.00    -0.352 N 
ATOM     35  C   UNL A   1      34.738  31.667  27.799  1.00  0.00     0.251 C 
ATOM     36  H   UNL A   1      32.891  31.527  27.072  1.00  0.00     0.163 HD
ATOM     37  O   UNL A   1      34.620  32.890  27.916  1.00  0.00    -0.269 OA
BRANCH  35  38
ATOM     38  C   UNL A   1      36.089  31.061  28.032  1.00  0.00     0.039 A 
ATOM     39  C   UNL A   1      37.132  31.857  28.563  1.00  0.00     0.014 A 
ATOM     40  C   UNL A   1      36.411  29.773  27.643  1.00  0.00     0.014 A 
ATOM     41  C   UNL A   1      38.424  31.330  28.843  1.00  0.00     0.010 A 
ATOM     42  C   UNL A   1      37.714  29.279  27.853  1.00  0.00     0.010 A 
ATOM     43  C   UNL A   1      38.727  30.003  28.536  1.00  0.00    -0.014 A 
BRANCH  43  44
ATOM     44  C   UNL A   1      39.715  29.163  29.329  1.00  0.00     0.031 A 
ATOM     45  C   UNL A   1      41.057  29.707  29.146  1.00  0.00     0.074 A 
ATOM     46  C   UNL A   1      39.650  28.585  30.566  1.00  0.00     0.049 A 
ATOM     47  N   UNL A   1      41.374  30.700  29.901  1.00  0.00    -0.248 NA
ATOM     48  C   UNL A   1      41.992  29.392  28.095  1.00  0.00     0.031 C 
ATOM     49  C   UNL A   1      38.438  28.229  31.277  1.00  0.00     0.029 A 
ATOM     50  N   UNL A   1      40.691  28.420  31.541  1.00  0.00    -0.354 N 
ATOM     51  C   UNL A   1      42.568  31.173  29.484  1.00  0.00     0.074 A 
ATOM     52  C   UNL A   1      42.932  30.311  28.366  1.00  0.00     0.031 C 
ATOM     53  C   UNL A   1      38.741  28.029  32.575  1.00  0.00     0.029 A 
ATOM     54  C   UNL A   1      40.177  28.308  32.838  1.00  0.00     0.049 A 
ATOM     55  H   UNL A   1      41.652  28.388  31.323  1.00  0.00     0.167 HD
ATOM     56  C   UNL A   1      43.107  32.193  30.202  1.00  0.00     0.031 A 
ATOM     57  C   UNL A   1      40.601  28.865  34.024  1.00  0.00     0.031 A 
ATOM     58  C   UNL A   1      42.124  33.038  30.939  1.00  0.00     0.049 A 
ATOM     59  C   UNL A   1      39.699  30.049  34.099  1.00  0.00     0.074 A 
ATOM     60  C   UNL A   1      41.950  34.402  31.107  1.00  0.00     0.029 A 
ATOM     61  N   UNL A   1      41.008  32.485  31.567  1.00  0.00    -0.354 N 
ATOM     62  N   UNL A   1      39.917  31.069  33.333  1.00  0.00    -0.248 NA
ATOM     63  C   UNL A   1      38.554  30.164  34.975  1.00  0.00     0.031 C 
ATOM     64  C   UNL A   1      40.680  34.635  31.741  1.00  0.00     0.029 A 
ATOM     65  C   UNL A   1      40.063  33.419  31.991  1.00  0.00     0.049 A 
ATOM     66  H   UNL A   1      40.896  31.516  31.700  1.00  0.00     0.167 HD
ATOM     67  C   UNL A   1      38.882  31.937  33.494  1.00  0.00     0.074 A 
ATOM     68  C   UNL A   1      38.075  31.343  34.554  1.00  0.00     0.031 C 
ATOM     69  C   UNL A   1      38.783  33.001  32.647  1.00  0.00     0.031 A 
BRANCH  56  70
ATOM     70  C   UNL A   1      44.604  32.251  30.357  1.00  0.00    -0.014 A 
ATOM     71  C   UNL A   1      45.226  31.341  31.232  1.00  0.00     0.010 A 
ATOM     72  C   UNL A   1      45.457  33.005  29.527  1.00  0.00     0.010 A 
ATOM     73  C   UNL A   1      46.620  31.159  31.236  1.00  0.00     0.020 A 
ATOM     74  C   UNL A   1      46.838  32.801  29.486  1.00  0.00     0.020 A 
ATOM     75  C   UNL A   1      47.417  31.880  30.345  1.00  0.00     0.054 A 
BRANCH  75  76
ATOM     76  S   UNL A   1      49.211  31.627  30.308  1.00  0.00     0.124 S 
ATOM     77  O   UNL A   1      49.436  30.867  31.539  1.00  0.00    -0.237 OA
ATOM     78  O   UNL A   1      49.415  30.911  29.062  1.00  0.00    -0.237 OA
ATOM     79  O   UNL A   1      49.749  32.990  30.331  1.00  0.00    -0.744 OA
ENDBRANCH  75  76
ENDBRANCH  56  70
BRANCH  57  80
ATOM     80  C   UNL A   1      41.919  29.181  34.727  1.00  0.00    -0.014 A 
ATOM     81  C   UNL A   1      43.021  28.322  34.575  1.00  0.00     0.010 A 
ATOM     82  C   UNL A   1      41.982  30.074  35.835  1.00  0.00     0.010 A 
ATOM     83  C   UNL A   1      44.074  28.298  35.527  1.00  0.00     0.020 A 
ATOM     84  C   UNL A   1      43.005  30.040  36.797  1.00  0.00     0.020 A 
ATOM     85  C   UNL A   1      44.039  29.129  36.654  1.00  0.00     0.054 A 
BRANCH  85  86
ATOM     86  S   UNL A   1      45.279  28.928  37.974  1.00  0.00     0.124 S 
ATOM     87  O   UNL A   1      46.472  29.522  37.370  1.00  0.00    -0.237 OA
ATOM     88  O   UNL A   1      44.702  29.684  39.077  1.00  0.00    -0.237 OA
ATOM     89  O   UNL A   1      45.359  27.481  38.171  1.00  0.00    -0.744 OA
ENDBRANCH  85  86
ENDBRANCH  57  80
BRANCH  69  90
ATOM     90  C   UNL A   1      37.437  33.663  32.354  1.00  0.00    -0.014 A 
ATOM     91  C   UNL A   1      36.842  34.673  33.141  1.00  0.00     0.010 A 
ATOM     92  C   UNL A   1      36.631  33.172  31.307  1.00  0.00     0.010 A 
ATOM     93  C   UNL A   1      35.578  35.215  32.873  1.00  0.00     0.020 A 
ATOM     94  C   UNL A   1      35.355  33.698  31.025  1.00  0.00     0.020 A 
ATOM     95  C   UNL A   1      34.844  34.732  31.803  1.00  0.00     0.054 A 
BRANCH  95  96
ATOM     96  S   UNL A   1      33.235  35.487  31.466  1.00  0.00     0.124 S 
ATOM     97  O   UNL A   1      33.548  36.912  31.470  1.00  0.00    -0.237 OA
ATOM     98  O   UNL A   1      32.895  34.925  30.162  1.00  0.00    -0.237 OA
ATOM     99  O   UNL A   1      32.399  35.028  32.576  1.00  0.00    -0.744 OA
ENDBRANCH  95  96
ENDBRANCH  69  90
ENDBRANCH  43  44
ENDBRANCH  35  38
ENDBRANCH  33  34
ENDBRANCH  32  33
ENDBRANCH  31  32
ENDBRANCH   1  31
TORSDOF 20
ENDMDL
MODEL 3
REMARK VINA RESULT:     -11.0      4.223      7.210
REMARK SMILES Cc1ccc(NC(=O)Cn2c(CCC(=O)NCCCCNC(=O)c3ccc(-c4c5nc(c(-c6ccc(S(=O)(=O)[O-])cc6)c6ccc([nH]6)c(-c6ccc(S(=O)(=O)[O-])cc6)c6nc(c(-c7ccc(S(=O)(=O)[O-])cc7)c7ccc4[nH]7)C=C6)C=C5)cc3)ccc2-c2ccccc2)cc1
REMARK SMILES IDX 17 1 16 2 14 3 15 4 13 6 12 7 11 8 10 9 86 10 84 11 85 12
REMARK SMILES IDX 9 13 7 14 6 15 8 17 5 18 1 19 2 20 3 21 94 22 4 23 93 24
REMARK SMILES IDX 87 25 88 26 92 27 89 28 91 29 90 30 18 31 19 32 20 33 21 34
REMARK SMILES IDX 22 35 23 37 24 38 25 39 83 40 26 41 82 42 27 43 28 44 29 45
REMARK SMILES IDX 76 46 30 47 81 48 75 49 77 50 31 51 80 52 74 53 73 54 32 56
REMARK SMILES IDX 62 57 43 58 61 59 44 60 47 61 60 62 78 63 45 64 46 65 59 67
REMARK SMILES IDX 79 68 48 69 33 70 34 71 42 72 35 73 41 74 36 75 37 76 38 77
REMARK SMILES IDX 39 78 40 79 63 80 64 81 72 82 65 83 71 84 66 85 67 86 68 87
REMARK SMILES IDX 69 88 70 89 49 90 50 91 58 92 51 93 57 94 52 95 53 96 54 97
REMARK SMILES IDX 55 98 56 99
REMARK H PARENT 16 5 6 16 21 36 77 55 47 66
REMARK Flexibility Score: inf
ROOT
ATOM      1  C   UNL A   1      33.176  28.823  23.472  1.00  0.00     0.116 C 
ENDROOT
BRANCH   1   2
ATOM      2  N   UNL A   1      32.067  29.022  22.545  1.00  0.00    -0.356 N 
ATOM      3  C   UNL A   1      30.745  28.727  22.693  1.00  0.00     0.220 C 
ATOM      4  O   UNL A   1      29.930  29.166  21.876  1.00  0.00    -0.275 OA
ATOM      5  H   UNL A   1      32.311  29.431  21.683  1.00  0.00     0.163 HD
BRANCH   3   6
ATOM      6  C   UNL A   1      30.266  27.835  23.813  1.00  0.00     0.106 C 
BRANCH   6   7
ATOM      7  C   UNL A   1      30.232  26.384  23.351  1.00  0.00     0.064 C 
BRANCH   7   8
ATOM      8  C   UNL A   1      31.578  25.742  23.150  1.00  0.00     0.019 A 
ATOM      9  N   UNL A   1      32.586  25.481  24.077  1.00  0.00    -0.335 N 
ATOM     10  C   UNL A   1      33.612  24.773  23.416  1.00  0.00     0.049 A 
ATOM     11  C   UNL A   1      32.041  25.327  21.911  1.00  0.00     0.024 A 
ATOM     12  C   UNL A   1      33.301  24.740  22.072  1.00  0.00     0.029 A 
BRANCH   9  13
ATOM     13  C   UNL A   1      32.674  25.717  25.532  1.00  0.00     0.222 C 
BRANCH  13  14
ATOM     14  C   UNL A   1      31.584  25.322  26.502  1.00  0.00     0.244 C 
ATOM     15  N   UNL A   1      31.342  24.039  26.909  1.00  0.00    -0.325 N 
ATOM     16  H   UNL A   1      30.649  23.943  27.602  1.00  0.00     0.169 HD
ATOM     17  O   UNL A   1      30.806  26.196  26.913  1.00  0.00    -0.273 OA
BRANCH  15  18
ATOM     18  C   UNL A   1      31.932  22.841  26.488  1.00  0.00     0.041 A 
ATOM     19  C   UNL A   1      34.334  19.694  24.840  1.00  0.00     0.044 C 
ATOM     20  C   UNL A   1      33.437  20.699  25.497  1.00  0.00    -0.051 A 
ATOM     21  C   UNL A   1      32.274  21.113  24.842  1.00  0.00     0.005 A 
ATOM     22  C   UNL A   1      33.788  21.302  26.708  1.00  0.00     0.005 A 
ATOM     23  C   UNL A   1      31.520  22.169  25.343  1.00  0.00     0.026 A 
ATOM     24  C   UNL A   1      33.017  22.348  27.222  1.00  0.00     0.026 A 
ENDBRANCH  15  18
ENDBRANCH  13  14
ENDBRANCH   9  13
BRANCH  10  25
ATOM     25  C   UNL A   1      34.726  24.040  24.039  1.00  0.00    -0.002 A 
ATOM     26  C   UNL A   1      35.289  24.434  25.252  1.00  0.00     0.010 A 
ATOM     27  C   UNL A   1      35.365  23.030  23.311  1.00  0.00     0.010 A 
ATOM     28  C   UNL A   1      36.445  23.797  25.733  1.00  0.00     0.001 A 
ATOM     29  C   UNL A   1      36.497  22.375  23.792  1.00  0.00     0.001 A 
ATOM     30  C   UNL A   1      37.040  22.762  25.009  1.00  0.00     0.000 A 
ENDBRANCH  10  25
ENDBRANCH   7   8
ENDBRANCH   6   7
ENDBRANCH   3   6
ENDBRANCH   1   2
BRANCH   1  31
ATOM     31  C   UNL A   1      33.105  29.740  24.690  1.00  0.00     0.023 C 
BRANCH  31  32
ATOM     32  C   UNL A   1      32.956  29.041  26.056  1.00  0.00     0.023 C 
BRANCH  32  33
ATOM     33  C   UNL A   1      34.158  29.230  27.018  1.00  0.00     0.116 C 
BRANCH  33  34
ATOM     34  N   UNL A   1      34.642  30.611  27.065  1.00  0.00    -0.352 N 
ATOM     35  C   UNL A   1      35.350  31.337  28.006  1.00  0.00     0.251 C 
ATOM     36  H   UNL A   1      34.418  31.132  26.260  1.00  0.00     0.163 HD
ATOM     37  O   UNL A   1      35.294  32.567  27.912  1.00  0.00    -0.269 OA
BRANCH  35  38
ATOM     38  C   UNL A   1      36.162  30.748  29.118  1.00  0.00     0.039 A 
ATOM     39  C   UNL A   1      36.655  29.427  29.004  1.00  0.00     0.014 A 
ATOM     40  C   UNL A   1      36.364  31.396  30.324  1.00  0.00     0.014 A 
ATOM     41  C   UNL A   1      37.464  28.825  30.009  1.00  0.00     0.010 A 
ATOM     42  C   UNL A   1      37.103  30.767  31.347  1.00  0.00     0.010 A 
ATOM     43  C   UNL A   1      37.747  29.511  31.191  1.00  0.00    -0.014 A 
BRANCH  43  44
ATOM     44  C   UNL A   1      39.035  29.331  31.977  1.00  0.00     0.031 A 
ATOM     45  C   UNL A   1      40.166  29.680  31.123  1.00  0.00     0.074 A 
ATOM     46  C   UNL A   1      39.373  29.608  33.272  1.00  0.00     0.049 A 
ATOM     47  N   UNL A   1      40.451  30.931  31.042  1.00  0.00    -0.248 NA
ATOM     48  C   UNL A   1      40.875  28.814  30.214  1.00  0.00     0.031 C 
ATOM     49  C   UNL A   1      38.452  29.728  34.385  1.00  0.00     0.029 A 
ATOM     50  N   UNL A   1      40.624  30.077  33.798  1.00  0.00    -0.354 N 
ATOM     51  C   UNL A   1      41.401  31.081  30.094  1.00  0.00     0.074 A 
ATOM     52  C   UNL A   1      41.656  29.728  29.616  1.00  0.00     0.031 C 
ATOM     53  C   UNL A   1      39.081  30.352  35.401  1.00  0.00     0.029 A 
ATOM     54  C   UNL A   1      40.457  30.756  35.011  1.00  0.00     0.049 A 
ATOM     55  H   UNL A   1      41.495  29.937  33.359  1.00  0.00     0.167 HD
ATOM     56  C   UNL A   1      41.883  32.337  29.903  1.00  0.00     0.031 A 
ATOM     57  C   UNL A   1      41.028  31.920  35.475  1.00  0.00     0.031 A 
ATOM     58  C   UNL A   1      40.954  33.438  30.285  1.00  0.00     0.049 A 
ATOM     59  C   UNL A   1      39.956  32.897  35.134  1.00  0.00     0.074 A 
ATOM     60  C   UNL A   1      40.562  34.628  29.692  1.00  0.00     0.029 A 
ATOM     61  N   UNL A   1      40.143  33.352  31.417  1.00  0.00    -0.354 N 
ATOM     62  N   UNL A   1      39.788  33.258  33.902  1.00  0.00    -0.248 NA
ATOM     63  C   UNL A   1      39.046  33.495  36.086  1.00  0.00     0.031 C 
ATOM     64  C   UNL A   1      39.454  35.172  30.430  1.00  0.00     0.029 A 
ATOM     65  C   UNL A   1      39.160  34.338  31.498  1.00  0.00     0.049 A 
ATOM     66  H   UNL A   1      40.256  32.655  32.102  1.00  0.00     0.167 HD
ATOM     67  C   UNL A   1      38.671  34.033  33.847  1.00  0.00     0.074 A 
ATOM     68  C   UNL A   1      38.263  34.178  35.239  1.00  0.00     0.031 C 
ATOM     69  C   UNL A   1      38.173  34.375  32.624  1.00  0.00     0.031 A 
BRANCH  56  70
ATOM     70  C   UNL A   1      43.335  32.501  29.536  1.00  0.00    -0.014 A 
ATOM     71  C   UNL A   1      43.653  32.989  28.254  1.00  0.00     0.010 A 
ATOM     72  C   UNL A   1      44.400  32.410  30.453  1.00  0.00     0.010 A 
ATOM     73  C   UNL A   1      44.955  33.412  27.930  1.00  0.00     0.020 A 
ATOM     74  C   UNL A   1      45.685  32.871  30.161  1.00  0.00     0.020 A 
ATOM     75  C   UNL A   1      45.960  33.368  28.897  1.00  0.00     0.054 A 
BRANCH  75  76
ATOM     76  S   UNL A   1      47.632  33.948  28.508  1.00  0.00     0.124 S 
ATOM     77  O   UNL A   1      48.438  33.243  29.506  1.00  0.00    -0.237 OA
ATOM     78  O   UNL A   1      47.809  33.534  27.128  1.00  0.00    -0.237 OA
ATOM     79  O   UNL A   1      47.548  35.397  28.711  1.00  0.00    -0.744 OA
ENDBRANCH  75  76
ENDBRANCH  56  70
BRANCH  57  80
ATOM     80  C   UNL A   1      42.387  32.616  35.437  1.00  0.00    -0.014 A 
ATOM     81  C   UNL A   1      42.747  33.512  36.458  1.00  0.00     0.010 A 
ATOM     82  C   UNL A   1      43.145  32.713  34.235  1.00  0.00     0.010 A 
ATOM     83  C   UNL A   1      43.743  34.503  36.251  1.00  0.00     0.020 A 
ATOM     84  C   UNL A   1      44.113  33.706  34.011  1.00  0.00     0.020 A 
ATOM     85  C   UNL A   1      44.391  34.619  35.015  1.00  0.00     0.054 A 
BRANCH  85  86
ATOM     86  S   UNL A   1      45.499  36.030  34.696  1.00  0.00     0.124 S 
ATOM     87  O   UNL A   1      44.564  37.154  34.651  1.00  0.00    -0.237 OA
ATOM     88  O   UNL A   1      46.388  36.010  35.850  1.00  0.00    -0.237 OA
ATOM     89  O   UNL A   1      46.122  35.711  33.411  1.00  0.00    -0.744 OA
ENDBRANCH  85  86
ENDBRANCH  57  80
BRANCH  69  90
ATOM     90  C   UNL A   1      36.694  34.706  32.431  1.00  0.00    -0.014 A 
ATOM     91  C   UNL A   1      35.975  34.538  31.228  1.00  0.00     0.010 A 
ATOM     92  C   UNL A   1      35.983  35.352  33.464  1.00  0.00     0.010 A 
ATOM     93  C   UNL A   1      34.633  34.909  31.073  1.00  0.00     0.020 A 
ATOM     94  C   UNL A   1      34.635  35.739  33.326  1.00  0.00     0.020 A 
ATOM     95  C   UNL A   1      33.963  35.497  32.132  1.00  0.00     0.054 A 
BRANCH  95  96
ATOM     96  S   UNL A   1      32.219  35.922  31.905  1.00  0.00     0.124 S 
ATOM     97  O   UNL A   1      31.535  34.805  32.549  1.00  0.00    -0.237 OA
ATOM     98  O   UNL A   1      32.119  37.202  32.600  1.00  0.00    -0.237 OA
ATOM     99  O   UNL A   1      32.068  35.992  30.452  1.00  0.00    -0.744 OA
ENDBRANCH  95  96
ENDBRANCH  69  90
ENDBRANCH  43  44
ENDBRANCH  35  38
ENDBRANCH  33  34
ENDBRANCH  32  33
ENDBRANCH  31  32
ENDBRANCH   1  31
TORSDOF 20
ENDMDL
