MODEL 1
REMARK VINA RESULT:      -9.0      0.000      0.000
REMARK SMILES Nc1ccc(F)cc1SCCOc1ccc(C(=O)NCCCCNC(=O)c2ccc(-c3c4nc(c(-c5ccc(S(=O)(=O)[O-])cc5)c5ccc([nH]5)c(-c5ccc(S(=O)(=O)[O-])cc5)c5nc(c(-c6ccc(S(=O)(=O)[O-])cc6)c6ccc3[nH]6)C=C5)C=C4)cc2)cc1
REMARK SMILES IDX 20 1 19 2 17 3 18 4 16 6 13 7 14 8 88 9 15 10 87 11 12 12
REMARK SMILES IDX 11 13 10 14 9 15 8 16 2 17 3 18 4 19 7 20 5 21 6 22 1 23
REMARK SMILES IDX 21 26 22 27 23 28 24 29 25 30 26 32 27 33 28 34 86 35 29 36
REMARK SMILES IDX 85 37 30 38 31 39 32 40 79 41 33 42 84 43 78 44 80 45 34 46
REMARK SMILES IDX 83 47 77 48 76 49 35 51 65 52 46 53 64 54 47 55 50 56 63 57
REMARK SMILES IDX 81 58 48 59 49 60 62 62 82 63 51 64 36 65 37 66 45 67 38 68
REMARK SMILES IDX 44 69 39 70 40 71 41 72 42 73 43 74 66 75 67 76 75 77 68 78
REMARK SMILES IDX 74 79 69 80 70 81 71 82 72 83 73 84 52 85 53 86 61 87 54 88
REMARK SMILES IDX 60 89 55 90 56 91 57 92 58 93 59 94
REMARK H PARENT 19 5 1 24 1 25 24 31 80 50 50 61
REMARK Flexibility Score: inf
ROOT
ATOM      1  C   UNL A   1      38.477  34.105  30.324  1.00  0.00     0.116 C 
ENDROOT
BRANCH   1   2
ATOM      2  N   UNL A   1      37.789  34.812  31.384  1.00  0.00    -0.352 N 
ATOM      3  C   UNL A   1      37.326  34.374  32.598  1.00  0.00     0.251 C 
ATOM      4  O   UNL A   1      36.553  35.094  33.228  1.00  0.00    -0.269 OA
ATOM      5  H   UNL A   1      37.626  35.766  31.204  1.00  0.00     0.163 HD
BRANCH   3   6
ATOM      6  C   UNL A   1      37.724  33.068  33.180  1.00  0.00     0.040 A 
ATOM      7  C   UNL A   1      38.816  30.594  33.937  1.00  0.00     0.119 A 
ATOM      8  C   UNL A   1      39.481  31.776  34.255  1.00  0.00     0.047 A 
ATOM      9  C   UNL A   1      37.552  30.658  33.353  1.00  0.00     0.047 A 
ATOM     10  C   UNL A   1      38.938  33.008  33.875  1.00  0.00     0.017 A 
ATOM     11  C   UNL A   1      37.038  31.881  32.920  1.00  0.00     0.017 A 
BRANCH   7  12
ATOM     12  O   UNL A   1      39.315  29.328  34.066  1.00  0.00    -0.493 OA
BRANCH  12  13
ATOM     13  C   UNL A   1      40.701  29.135  33.769  1.00  0.00     0.241 C 
BRANCH  13  14
ATOM     14  C   UNL A   1      41.543  28.607  34.940  1.00  0.00     0.116 C 
BRANCH  14  15
ATOM     15  S   UNL A   1      43.272  28.144  34.562  1.00  0.00    -0.120 SA
BRANCH  15  16
ATOM     16  C   UNL A   1      43.443  26.357  34.749  1.00  0.00     0.033 A 
ATOM     17  C   UNL A   1      43.224  25.558  35.895  1.00  0.00     0.045 A 
ATOM     18  C   UNL A   1      43.453  24.167  35.822  1.00  0.00     0.029 A 
ATOM     19  C   UNL A   1      43.916  23.567  34.655  1.00  0.00     0.041 A 
ATOM     20  C   UNL A   1      43.927  25.728  33.583  1.00  0.00     0.056 A 
ATOM     21  C   UNL A   1      44.152  24.355  33.545  1.00  0.00     0.124 A 
ATOM     22  F   UNL A   1      44.594  23.784  32.417  1.00  0.00    -0.207 F 
BRANCH  17  23
ATOM     23  N   UNL A   1      42.626  26.032  37.067  1.00  0.00    -0.398 N 
ATOM     24  H   UNL A   1      42.400  25.405  37.793  1.00  0.00     0.156 HD
ATOM     25  H   UNL A   1      42.430  26.991  37.167  1.00  0.00     0.156 HD
ENDBRANCH  17  23
ENDBRANCH  15  16
ENDBRANCH  14  15
ENDBRANCH  13  14
ENDBRANCH  12  13
ENDBRANCH   7  12
ENDBRANCH   3   6
ENDBRANCH   1   2
BRANCH   1  26
ATOM     26  C   UNL A   1      37.516  33.572  29.269  1.00  0.00     0.023 C 
BRANCH  26  27
ATOM     27  C   UNL A   1      36.043  33.833  29.570  1.00  0.00     0.023 C 
BRANCH  27  28
ATOM     28  C   UNL A   1      35.234  32.608  29.978  1.00  0.00     0.116 C 
BRANCH  28  29
ATOM     29  N   UNL A   1      34.380  32.075  28.921  1.00  0.00    -0.352 N 
ATOM     30  C   UNL A   1      34.595  30.964  28.137  1.00  0.00     0.251 C 
ATOM     31  H   UNL A   1      33.549  32.572  28.746  1.00  0.00     0.163 HD
ATOM     32  O   UNL A   1      33.803  30.652  27.255  1.00  0.00    -0.269 OA
BRANCH  30  33
ATOM     33  C   UNL A   1      35.836  30.197  28.348  1.00  0.00     0.039 A 
ATOM     34  C   UNL A   1      36.054  29.553  29.567  1.00  0.00     0.014 A 
ATOM     35  C   UNL A   1      36.839  30.259  27.379  1.00  0.00     0.014 A 
ATOM     36  C   UNL A   1      37.338  29.139  29.891  1.00  0.00     0.010 A 
ATOM     37  C   UNL A   1      38.108  29.763  27.678  1.00  0.00     0.010 A 
ATOM     38  C   UNL A   1      38.384  29.258  28.958  1.00  0.00    -0.014 A 
BRANCH  38  39
ATOM     39  C   UNL A   1      39.762  28.875  29.356  1.00  0.00     0.031 A 
ATOM     40  C   UNL A   1      40.345  27.552  28.934  1.00  0.00     0.074 A 
ATOM     41  C   UNL A   1      40.512  29.759  30.041  1.00  0.00     0.049 A 
ATOM     42  N   UNL A   1      41.535  27.065  29.182  1.00  0.00    -0.248 NA
ATOM     43  C   UNL A   1      39.493  26.660  28.130  1.00  0.00     0.031 C 
ATOM     44  C   UNL A   1      40.061  31.086  30.469  1.00  0.00     0.029 A 
ATOM     45  N   UNL A   1      41.815  29.698  30.462  1.00  0.00    -0.354 N 
ATOM     46  C   UNL A   1      41.565  25.809  28.588  1.00  0.00     0.074 A 
ATOM     47  C   UNL A   1      40.269  25.594  27.986  1.00  0.00     0.031 C 
ATOM     48  C   UNL A   1      41.090  31.737  31.030  1.00  0.00     0.029 A 
ATOM     49  C   UNL A   1      42.249  30.850  31.072  1.00  0.00     0.049 A 
ATOM     50  H   UNL A   1      42.385  28.903  30.341  1.00  0.00     0.167 HD
ATOM     51  C   UNL A   1      42.587  24.922  28.543  1.00  0.00     0.031 A 
ATOM     52  C   UNL A   1      43.440  31.163  31.617  1.00  0.00     0.031 A 
ATOM     53  C   UNL A   1      43.882  25.155  29.127  1.00  0.00     0.049 A 
ATOM     54  C   UNL A   1      44.542  30.147  31.594  1.00  0.00     0.074 A 
ATOM     55  C   UNL A   1      44.984  24.316  29.128  1.00  0.00     0.029 A 
ATOM     56  N   UNL A   1      44.255  26.307  29.803  1.00  0.00    -0.354 N 
ATOM     57  N   UNL A   1      44.543  28.953  31.052  1.00  0.00    -0.248 NA
ATOM     58  C   UNL A   1      45.799  30.508  32.263  1.00  0.00     0.031 C 
ATOM     59  C   UNL A   1      46.005  24.939  29.849  1.00  0.00     0.029 A 
ATOM     60  C   UNL A   1      45.563  26.192  30.245  1.00  0.00     0.049 A 
ATOM     61  H   UNL A   1      43.677  27.090  29.947  1.00  0.00     0.167 HD
ATOM     62  C   UNL A   1      45.798  28.420  31.311  1.00  0.00     0.074 A 
ATOM     63  C   UNL A   1      46.540  29.428  32.040  1.00  0.00     0.031 C 
ATOM     64  C   UNL A   1      46.286  27.200  30.979  1.00  0.00     0.031 A 
BRANCH  51  65
ATOM     65  C   UNL A   1      42.365  23.603  27.848  1.00  0.00    -0.014 A 
ATOM     66  C   UNL A   1      41.651  22.583  28.503  1.00  0.00     0.010 A 
ATOM     67  C   UNL A   1      42.959  23.331  26.603  1.00  0.00     0.010 A 
ATOM     68  C   UNL A   1      41.557  21.307  27.942  1.00  0.00     0.020 A 
ATOM     69  C   UNL A   1      42.846  22.061  26.026  1.00  0.00     0.020 A 
ATOM     70  C   UNL A   1      42.165  21.051  26.710  1.00  0.00     0.054 A 
BRANCH  70  71
ATOM     71  S   UNL A   1      42.049  19.384  26.002  1.00  0.00     0.124 S 
ATOM     72  O   UNL A   1      42.881  19.497  24.808  1.00  0.00    -0.237 OA
ATOM     73  O   UNL A   1      42.588  18.543  27.070  1.00  0.00    -0.237 OA
ATOM     74  O   UNL A   1      40.618  19.218  25.755  1.00  0.00    -0.744 OA
ENDBRANCH  70  71
ENDBRANCH  51  65
BRANCH  52  75
ATOM     75  C   UNL A   1      43.623  32.513  32.216  1.00  0.00    -0.014 A 
ATOM     76  C   UNL A   1      43.077  32.806  33.480  1.00  0.00     0.010 A 
ATOM     77  C   UNL A   1      44.239  33.539  31.481  1.00  0.00     0.010 A 
ATOM     78  C   UNL A   1      43.081  34.115  33.968  1.00  0.00     0.020 A 
ATOM     79  C   UNL A   1      44.272  34.845  31.979  1.00  0.00     0.020 A 
ATOM     80  C   UNL A   1      43.662  35.130  33.204  1.00  0.00     0.054 A 
BRANCH  80  81
ATOM     81  S   UNL A   1      43.596  36.833  33.822  1.00  0.00     0.124 S 
ATOM     82  O   UNL A   1      42.374  36.813  34.622  1.00  0.00    -0.237 OA
ATOM     83  O   UNL A   1      44.841  36.951  34.578  1.00  0.00    -0.237 OA
ATOM     84  O   UNL A   1      43.534  37.636  32.604  1.00  0.00    -0.744 OA
ENDBRANCH  80  81
ENDBRANCH  52  75
BRANCH  64  85
ATOM     85  C   UNL A   1      47.689  26.860  31.402  1.00  0.00    -0.014 A 
ATOM     86  C   UNL A   1      48.758  27.074  30.511  1.00  0.00     0.010 A 
ATOM     87  C   UNL A   1      47.930  26.207  32.623  1.00  0.00     0.010 A 
ATOM     88  C   UNL A   1      50.037  26.605  30.818  1.00  0.00     0.020 A 
ATOM     89  C   UNL A   1      49.214  25.759  32.943  1.00  0.00     0.020 A 
ATOM     90  C   UNL A   1      50.254  25.938  32.026  1.00  0.00     0.054 A 
BRANCH  90  91
ATOM     91  S   UNL A   1      51.912  25.299  32.390  1.00  0.00     0.124 S 
ATOM     92  O   UNL A   1      51.738  23.863  32.198  1.00  0.00    -0.237 OA
ATOM     93  O   UNL A   1      52.743  25.973  31.395  1.00  0.00    -0.237 OA
ATOM     94  O   UNL A   1      52.144  25.722  33.770  1.00  0.00    -0.744 OA
ENDBRANCH  90  91
ENDBRANCH  64  85
ENDBRANCH  38  39
ENDBRANCH  30  33
ENDBRANCH  28  29
ENDBRANCH  27  28
ENDBRANCH  26  27
ENDBRANCH   1  26
TORSDOF 20
ENDMDL
MODEL 2
REMARK VINA RESULT:      -8.9      5.496     11.666
REMARK SMILES Nc1ccc(F)cc1SCCOc1ccc(C(=O)NCCCCNC(=O)c2ccc(-c3c4nc(c(-c5ccc(S(=O)(=O)[O-])cc5)c5ccc([nH]5)c(-c5ccc(S(=O)(=O)[O-])cc5)c5nc(c(-c6ccc(S(=O)(=O)[O-])cc6)c6ccc3[nH]6)C=C5)C=C4)cc2)cc1
REMARK SMILES IDX 20 1 19 2 17 3 18 4 16 6 13 7 14 8 88 9 15 10 87 11 12 12
REMARK SMILES IDX 11 13 10 14 9 15 8 16 2 17 3 18 4 19 7 20 5 21 6 22 1 23
REMARK SMILES IDX 21 26 22 27 23 28 24 29 25 30 26 32 27 33 28 34 86 35 29 36
REMARK SMILES IDX 85 37 30 38 31 39 32 40 79 41 33 42 84 43 78 44 80 45 34 46
REMARK SMILES IDX 83 47 77 48 76 49 35 51 65 52 46 53 64 54 47 55 50 56 63 57
REMARK SMILES IDX 81 58 48 59 49 60 62 62 82 63 51 64 36 65 37 66 45 67 38 68
REMARK SMILES IDX 44 69 39 70 40 71 41 72 42 73 43 74 66 75 67 76 75 77 68 78
REMARK SMILES IDX 74 79 69 80 70 81 71 82 72 83 73 84 52 85 53 86 61 87 54 88
REMARK SMILES IDX 60 89 55 90 56 91 57 92 58 93 59 94
REMARK H PARENT 19 5 1 24 1 25 24 31 80 50 50 61
REMARK Flexibility Score: inf
ROOT
ATOM      1  C   UNL A   1      35.761  20.951  25.048  1.00  0.00     0.116 C 
ENDROOT
BRANCH   1   2
ATOM      2  N   UNL A   1      34.690  19.980  25.133  1.00  0.00    -0.352 N 
ATOM      3  C   UNL A   1      33.390  20.115  25.543  1.00  0.00     0.251 C 
ATOM      4  O   UNL A   1      32.732  19.100  25.764  1.00  0.00    -0.269 OA
ATOM      5  H   UNL A   1      34.937  19.071  24.847  1.00  0.00     0.163 HD
BRANCH   3   6
ATOM      6  C   UNL A   1      32.745  21.440  25.728  1.00  0.00     0.040 A 
ATOM      7  C   UNL A   1      31.281  23.729  26.434  1.00  0.00     0.119 A 
ATOM      8  C   UNL A   1      32.349  23.312  27.226  1.00  0.00     0.047 A 
ATOM      9  C   UNL A   1      31.028  23.074  25.231  1.00  0.00     0.047 A 
ATOM     10  C   UNL A   1      33.076  22.170  26.875  1.00  0.00     0.017 A 
ATOM     11  C   UNL A   1      31.712  21.901  24.911  1.00  0.00     0.017 A 
BRANCH   7  12
ATOM     12  O   UNL A   1      30.368  24.697  26.754  1.00  0.00    -0.493 OA
BRANCH  12  13
ATOM     13  C   UNL A   1      30.176  25.754  25.811  1.00  0.00     0.241 C 
BRANCH  13  14
ATOM     14  C   UNL A   1      30.982  27.029  26.101  1.00  0.00     0.116 C 
BRANCH  14  15
ATOM     15  S   UNL A   1      32.127  27.591  24.790  1.00  0.00    -0.120 SA
BRANCH  15  16
ATOM     16  C   UNL A   1      32.993  26.153  24.128  1.00  0.00     0.033 A 
ATOM     17  C   UNL A   1      32.712  25.404  22.962  1.00  0.00     0.045 A 
ATOM     18  C   UNL A   1      33.511  24.283  22.650  1.00  0.00     0.029 A 
ATOM     19  C   UNL A   1      34.555  23.881  23.479  1.00  0.00     0.041 A 
ATOM     20  C   UNL A   1      34.046  25.717  24.960  1.00  0.00     0.056 A 
ATOM     21  C   UNL A   1      34.810  24.602  24.629  1.00  0.00     0.124 A 
ATOM     22  F   UNL A   1      35.816  24.224  25.430  1.00  0.00    -0.207 F 
BRANCH  17  23
ATOM     23  N   UNL A   1      31.786  25.800  21.991  1.00  0.00    -0.398 N 
ATOM     24  H   UNL A   1      30.823  25.784  22.194  1.00  0.00     0.156 HD
ATOM     25  H   UNL A   1      32.098  26.094  21.105  1.00  0.00     0.156 HD
ENDBRANCH  17  23
ENDBRANCH  15  16
ENDBRANCH  14  15
ENDBRANCH  13  14
ENDBRANCH  12  13
ENDBRANCH   7  12
ENDBRANCH   3   6
ENDBRANCH   1   2
BRANCH   1  26
ATOM     26  C   UNL A   1      37.133  20.291  24.994  1.00  0.00     0.023 C 
BRANCH  26  27
ATOM     27  C   UNL A   1      38.304  21.270  25.025  1.00  0.00     0.023 C 
BRANCH  27  28
ATOM     28  C   UNL A   1      39.311  21.047  26.146  1.00  0.00     0.116 C 
BRANCH  28  29
ATOM     29  N   UNL A   1      40.017  19.771  26.073  1.00  0.00    -0.352 N 
ATOM     30  C   UNL A   1      41.370  19.543  26.176  1.00  0.00     0.251 C 
ATOM     31  H   UNL A   1      39.455  18.975  25.931  1.00  0.00     0.163 HD
ATOM     32  O   UNL A   1      41.830  18.413  26.058  1.00  0.00    -0.269 OA
BRANCH  30  33
ATOM     33  C   UNL A   1      42.255  20.707  26.370  1.00  0.00     0.039 A 
ATOM     34  C   UNL A   1      42.506  21.179  27.658  1.00  0.00     0.014 A 
ATOM     35  C   UNL A   1      42.701  21.408  25.247  1.00  0.00     0.014 A 
ATOM     36  C   UNL A   1      43.036  22.452  27.819  1.00  0.00     0.010 A 
ATOM     37  C   UNL A   1      43.311  22.651  25.418  1.00  0.00     0.010 A 
ATOM     38  C   UNL A   1      43.426  23.210  26.701  1.00  0.00    -0.014 A 
BRANCH  38  39
ATOM     39  C   UNL A   1      43.921  24.596  26.897  1.00  0.00     0.031 A 
ATOM     40  C   UNL A   1      43.013  25.665  27.448  1.00  0.00     0.074 A 
ATOM     41  C   UNL A   1      45.214  24.869  26.645  1.00  0.00     0.049 A 
ATOM     42  N   UNL A   1      43.284  26.921  27.695  1.00  0.00    -0.248 NA
ATOM     43  C   UNL A   1      41.627  25.282  27.765  1.00  0.00     0.031 C 
ATOM     44  C   UNL A   1      46.193  23.900  26.144  1.00  0.00     0.029 A 
ATOM     45  N   UNL A   1      45.939  26.021  26.807  1.00  0.00    -0.354 N 
ATOM     46  C   UNL A   1      42.105  27.481  28.173  1.00  0.00     0.074 A 
ATOM     47  C   UNL A   1      41.106  26.436  28.161  1.00  0.00     0.031 C 
ATOM     48  C   UNL A   1      47.401  24.478  26.107  1.00  0.00     0.029 A 
ATOM     49  C   UNL A   1      47.272  25.877  26.505  1.00  0.00     0.049 A 
ATOM     50  H   UNL A   1      45.543  26.870  27.111  1.00  0.00     0.167 HD
ATOM     51  C   UNL A   1      41.882  28.748  28.592  1.00  0.00     0.031 A 
ATOM     52  C   UNL A   1      48.282  26.768  26.531  1.00  0.00     0.031 A 
ATOM     53  C   UNL A   1      42.890  29.776  28.621  1.00  0.00     0.049 A 
ATOM     54  C   UNL A   1      48.000  28.178  26.956  1.00  0.00     0.074 A 
ATOM     55  C   UNL A   1      42.759  31.091  29.035  1.00  0.00     0.029 A 
ATOM     56  N   UNL A   1      44.210  29.607  28.234  1.00  0.00    -0.354 N 
ATOM     57  N   UNL A   1      46.871  28.694  27.378  1.00  0.00    -0.248 NA
ATOM     58  C   UNL A   1      49.117  29.129  26.900  1.00  0.00     0.031 C 
ATOM     59  C   UNL A   1      43.987  31.730  28.848  1.00  0.00     0.029 A 
ATOM     60  C   UNL A   1      44.900  30.800  28.376  1.00  0.00     0.049 A 
ATOM     61  H   UNL A   1      44.600  28.765  27.905  1.00  0.00     0.167 HD
ATOM     62  C   UNL A   1      47.141  30.031  27.640  1.00  0.00     0.074 A 
ATOM     63  C   UNL A   1      48.545  30.240  27.351  1.00  0.00     0.031 C 
ATOM     64  C   UNL A   1      46.296  30.996  28.075  1.00  0.00     0.031 A 
BRANCH  51  65
ATOM     65  C   UNL A   1      40.495  29.121  29.051  1.00  0.00    -0.014 A 
ATOM     66  C   UNL A   1      39.521  29.482  28.102  1.00  0.00     0.010 A 
ATOM     67  C   UNL A   1      40.189  29.228  30.420  1.00  0.00     0.010 A 
ATOM     68  C   UNL A   1      38.277  29.970  28.509  1.00  0.00     0.020 A 
ATOM     69  C   UNL A   1      38.935  29.693  30.831  1.00  0.00     0.020 A 
ATOM     70  C   UNL A   1      37.996  30.083  29.873  1.00  0.00     0.054 A 
BRANCH  70  71
ATOM     71  S   UNL A   1      36.382  30.734  30.387  1.00  0.00     0.124 S 
ATOM     72  O   UNL A   1      35.582  30.566  29.177  1.00  0.00    -0.237 OA
ATOM     73  O   UNL A   1      36.025  29.864  31.506  1.00  0.00    -0.237 OA
ATOM     74  O   UNL A   1      36.675  32.117  30.756  1.00  0.00    -0.744 OA
ENDBRANCH  70  71
ENDBRANCH  51  65
BRANCH  52  75
ATOM     75  C   UNL A   1      49.647  26.318  26.144  1.00  0.00    -0.014 A 
ATOM     76  C   UNL A   1      50.483  25.700  27.092  1.00  0.00     0.010 A 
ATOM     77  C   UNL A   1      50.155  26.609  24.867  1.00  0.00     0.010 A 
ATOM     78  C   UNL A   1      51.824  25.444  26.795  1.00  0.00     0.020 A 
ATOM     79  C   UNL A   1      51.488  26.326  24.555  1.00  0.00     0.020 A 
ATOM     80  C   UNL A   1      52.323  25.777  25.534  1.00  0.00     0.054 A 
BRANCH  80  81
ATOM     81  S   UNL A   1      54.081  25.501  25.190  1.00  0.00     0.124 S 
ATOM     82  O   UNL A   1      54.239  24.095  25.553  1.00  0.00    -0.237 OA
ATOM     83  O   UNL A   1      54.182  25.797  23.764  1.00  0.00    -0.237 OA
ATOM     84  O   UNL A   1      54.754  26.453  26.070  1.00  0.00    -0.744 OA
ENDBRANCH  80  81
ENDBRANCH  52  75
BRANCH  64  85
ATOM     85  C   UNL A   1      46.845  32.385  28.262  1.00  0.00    -0.014 A 
ATOM     86  C   UNL A   1      47.302  32.790  29.531  1.00  0.00     0.010 A 
ATOM     87  C   UNL A   1      46.780  33.326  27.220  1.00  0.00     0.010 A 
ATOM     88  C   UNL A   1      47.650  34.121  29.764  1.00  0.00     0.020 A 
ATOM     89  C   UNL A   1      47.152  34.654  27.445  1.00  0.00     0.020 A 
ATOM     90  C   UNL A   1      47.559  35.049  28.723  1.00  0.00     0.054 A 
BRANCH  90  91
ATOM     91  S   UNL A   1      47.976  36.782  29.054  1.00  0.00     0.124 S 
ATOM     92  O   UNL A   1      46.865  37.491  28.426  1.00  0.00    -0.237 OA
ATOM     93  O   UNL A   1      48.011  36.833  30.514  1.00  0.00    -0.237 OA
ATOM     94  O   UNL A   1      49.273  36.951  28.403  1.00  0.00    -0.744 OA
ENDBRANCH  90  91
ENDBRANCH  64  85
ENDBRANCH  38  39
ENDBRANCH  30  33
ENDBRANCH  28  29
ENDBRANCH  27  28
ENDBRANCH  26  27
ENDBRANCH   1  26
TORSDOF 20
ENDMDL
MODEL 3
REMARK VINA RESULT:      -8.8      5.226     11.812
REMARK SMILES Nc1ccc(F)cc1SCCOc1ccc(C(=O)NCCCCNC(=O)c2ccc(-c3c4nc(c(-c5ccc(S(=O)(=O)[O-])cc5)c5ccc([nH]5)c(-c5ccc(S(=O)(=O)[O-])cc5)c5nc(c(-c6ccc(S(=O)(=O)[O-])cc6)c6ccc3[nH]6)C=C5)C=C4)cc2)cc1
REMARK SMILES IDX 20 1 19 2 17 3 18 4 16 6 13 7 14 8 88 9 15 10 87 11 12 12
REMARK SMILES IDX 11 13 10 14 9 15 8 16 2 17 3 18 4 19 7 20 5 21 6 22 1 23
REMARK SMILES IDX 21 26 22 27 23 28 24 29 25 30 26 32 27 33 28 34 86 35 29 36
REMARK SMILES IDX 85 37 30 38 31 39 32 40 79 41 33 42 84 43 78 44 80 45 34 46
REMARK SMILES IDX 83 47 77 48 76 49 35 51 65 52 46 53 64 54 47 55 50 56 63 57
REMARK SMILES IDX 81 58 48 59 49 60 62 62 82 63 51 64 36 65 37 66 45 67 38 68
REMARK SMILES IDX 44 69 39 70 40 71 41 72 42 73 43 74 66 75 67 76 75 77 68 78
REMARK SMILES IDX 74 79 69 80 70 81 71 82 72 83 73 84 52 85 53 86 61 87 54 88
REMARK SMILES IDX 60 89 55 90 56 91 57 92 58 93 59 94
REMARK H PARENT 19 5 1 24 1 25 24 31 80 50 50 61
REMARK Flexibility Score: inf
ROOT
ATOM      1  C   UNL A   1      43.104  21.240  25.790  1.00  0.00     0.116 C 
ENDROOT
BRANCH   1   2
ATOM      2  N   UNL A   1      42.720  21.516  27.159  1.00  0.00    -0.352 N 
ATOM      3  C   UNL A   1      41.596  22.110  27.670  1.00  0.00     0.251 C 
ATOM      4  O   UNL A   1      41.600  22.462  28.849  1.00  0.00    -0.269 OA
ATOM      5  H   UNL A   1      43.376  21.229  27.835  1.00  0.00     0.163 HD
BRANCH   3   6
ATOM      6  C   UNL A   1      40.376  22.342  26.858  1.00  0.00     0.040 A 
ATOM      7  C   UNL A   1      37.834  22.775  25.745  1.00  0.00     0.119 A 
ATOM      8  C   UNL A   1      38.499  23.815  26.390  1.00  0.00     0.047 A 
ATOM      9  C   UNL A   1      38.492  21.561  25.551  1.00  0.00     0.047 A 
ATOM     10  C   UNL A   1      39.764  23.598  26.947  1.00  0.00     0.017 A 
ATOM     11  C   UNL A   1      39.726  21.325  26.157  1.00  0.00     0.017 A 
BRANCH   7  12
ATOM     12  O   UNL A   1      36.530  22.783  25.332  1.00  0.00    -0.493 OA
BRANCH  12  13
ATOM     13  C   UNL A   1      35.552  23.260  26.260  1.00  0.00     0.241 C 
BRANCH  13  14
ATOM     14  C   UNL A   1      34.103  22.886  25.916  1.00  0.00     0.116 C 
BRANCH  14  15
ATOM     15  S   UNL A   1      33.462  21.336  26.647  1.00  0.00    -0.120 SA
BRANCH  15  16
ATOM     16  C   UNL A   1      32.930  20.247  25.311  1.00  0.00     0.033 A 
ATOM     17  C   UNL A   1      32.768  18.842  25.320  1.00  0.00     0.045 A 
ATOM     18  C   UNL A   1      32.368  18.184  24.137  1.00  0.00     0.029 A 
ATOM     19  C   UNL A   1      32.155  18.884  22.952  1.00  0.00     0.041 A 
ATOM     20  C   UNL A   1      32.722  20.932  24.095  1.00  0.00     0.056 A 
ATOM     21  C   UNL A   1      32.338  20.254  22.943  1.00  0.00     0.124 A 
ATOM     22  F   UNL A   1      32.130  20.935  21.808  1.00  0.00    -0.207 F 
BRANCH  17  23
ATOM     23  N   UNL A   1      32.815  18.064  26.481  1.00  0.00    -0.398 N 
ATOM     24  H   UNL A   1      33.666  17.952  26.965  1.00  0.00     0.156 HD
ATOM     25  H   UNL A   1      31.999  17.628  26.815  1.00  0.00     0.156 HD
ENDBRANCH  17  23
ENDBRANCH  15  16
ENDBRANCH  14  15
ENDBRANCH  13  14
ENDBRANCH  12  13
ENDBRANCH   7  12
ENDBRANCH   3   6
ENDBRANCH   1   2
BRANCH   1  26
ATOM     26  C   UNL A   1      43.991  22.333  25.209  1.00  0.00     0.023 C 
BRANCH  26  27
ATOM     27  C   UNL A   1      44.803  23.102  26.247  1.00  0.00     0.023 C 
BRANCH  27  28
ATOM     28  C   UNL A   1      44.523  24.598  26.316  1.00  0.00     0.116 C 
BRANCH  28  29
ATOM     29  N   UNL A   1      43.428  25.043  25.460  1.00  0.00    -0.352 N 
ATOM     30  C   UNL A   1      42.439  25.954  25.752  1.00  0.00     0.251 C 
ATOM     31  H   UNL A   1      43.392  24.640  24.562  1.00  0.00     0.163 HD
ATOM     32  O   UNL A   1      41.554  26.207  24.942  1.00  0.00    -0.269 OA
BRANCH  30  33
ATOM     33  C   UNL A   1      42.440  26.571  27.092  1.00  0.00     0.039 A 
ATOM     34  C   UNL A   1      41.715  25.980  28.126  1.00  0.00     0.014 A 
ATOM     35  C   UNL A   1      43.043  27.819  27.258  1.00  0.00     0.014 A 
ATOM     36  C   UNL A   1      41.431  26.725  29.263  1.00  0.00     0.010 A 
ATOM     37  C   UNL A   1      42.826  28.530  28.439  1.00  0.00     0.010 A 
ATOM     38  C   UNL A   1      41.967  28.016  29.423  1.00  0.00    -0.014 A 
BRANCH  38  39
ATOM     39  C   UNL A   1      41.588  28.819  30.612  1.00  0.00     0.031 A 
ATOM     40  C   UNL A   1      42.459  28.828  31.842  1.00  0.00     0.074 A 
ATOM     41  C   UNL A   1      40.492  29.598  30.551  1.00  0.00     0.049 A 
ATOM     42  N   UNL A   1      42.285  29.482  32.963  1.00  0.00    -0.248 NA
ATOM     43  C   UNL A   1      43.678  28.004  31.817  1.00  0.00     0.031 C 
ATOM     44  C   UNL A   1      39.597  29.696  29.396  1.00  0.00     0.029 A 
ATOM     45  N   UNL A   1      39.964  30.481  31.458  1.00  0.00    -0.354 N 
ATOM     46  C   UNL A   1      43.354  29.134  33.779  1.00  0.00     0.074 A 
ATOM     47  C   UNL A   1      44.163  28.192  33.038  1.00  0.00     0.031 C 
ATOM     48  C   UNL A   1      38.673  30.637  29.637  1.00  0.00     0.029 A 
ATOM     49  C   UNL A   1      38.861  31.154  30.989  1.00  0.00     0.049 A 
ATOM     50  H   UNL A   1      40.338  30.619  32.358  1.00  0.00     0.167 HD
ATOM     51  C   UNL A   1      43.639  29.569  35.029  1.00  0.00     0.031 A 
ATOM     52  C   UNL A   1      38.076  32.076  31.578  1.00  0.00     0.031 A 
ATOM     53  C   UNL A   1      42.839  30.525  35.750  1.00  0.00     0.049 A 
ATOM     54  C   UNL A   1      38.386  32.509  32.980  1.00  0.00     0.074 A 
ATOM     55  C   UNL A   1      43.050  31.031  37.021  1.00  0.00     0.029 A 
ATOM     56  N   UNL A   1      41.686  31.125  35.266  1.00  0.00    -0.354 N 
ATOM     57  N   UNL A   1      39.387  32.146  33.746  1.00  0.00    -0.248 NA
ATOM     58  C   UNL A   1      37.460  33.463  33.605  1.00  0.00     0.031 C 
ATOM     59  C   UNL A   1      41.997  31.897  37.325  1.00  0.00     0.029 A 
ATOM     60  C   UNL A   1      41.162  31.979  36.222  1.00  0.00     0.049 A 
ATOM     61  H   UNL A   1      41.298  30.967  34.376  1.00  0.00     0.167 HD
ATOM     62  C   UNL A   1      39.214  32.829  34.943  1.00  0.00     0.074 A 
ATOM     63  C   UNL A   1      38.025  33.643  34.793  1.00  0.00     0.031 C 
ATOM     64  C   UNL A   1      39.972  32.777  36.064  1.00  0.00     0.031 A 
BRANCH  51  65
ATOM     65  C   UNL A   1      44.861  29.022  35.721  1.00  0.00    -0.014 A 
ATOM     66  C   UNL A   1      46.045  29.781  35.743  1.00  0.00     0.010 A 
ATOM     67  C   UNL A   1      44.876  27.716  36.243  1.00  0.00     0.010 A 
ATOM     68  C   UNL A   1      47.230  29.238  36.248  1.00  0.00     0.020 A 
ATOM     69  C   UNL A   1      46.054  27.178  36.772  1.00  0.00     0.020 A 
ATOM     70  C   UNL A   1      47.228  27.934  36.750  1.00  0.00     0.054 A 
BRANCH  70  71
ATOM     71  S   UNL A   1      48.778  27.236  37.387  1.00  0.00     0.124 S 
ATOM     72  O   UNL A   1      49.695  27.453  36.273  1.00  0.00    -0.237 OA
ATOM     73  O   UNL A   1      49.029  28.046  38.578  1.00  0.00    -0.237 OA
ATOM     74  O   UNL A   1      48.437  25.841  37.656  1.00  0.00    -0.744 OA
ENDBRANCH  70  71
ENDBRANCH  51  65
BRANCH  52  75
ATOM     75  C   UNL A   1      36.931  32.640  30.812  1.00  0.00    -0.014 A 
ATOM     76  C   UNL A   1      37.139  33.696  29.905  1.00  0.00     0.010 A 
ATOM     77  C   UNL A   1      35.621  32.207  31.072  1.00  0.00     0.010 A 
ATOM     78  C   UNL A   1      36.054  34.354  29.323  1.00  0.00     0.020 A 
ATOM     79  C   UNL A   1      34.533  32.843  30.468  1.00  0.00     0.020 A 
ATOM     80  C   UNL A   1      34.756  33.936  29.624  1.00  0.00     0.054 A 
BRANCH  80  81
ATOM     81  S   UNL A   1      33.358  34.847  28.913  1.00  0.00     0.124 S 
ATOM     82  O   UNL A   1      32.535  35.097  30.093  1.00  0.00    -0.237 OA
ATOM     83  O   UNL A   1      34.001  36.023  28.334  1.00  0.00    -0.237 OA
ATOM     84  O   UNL A   1      32.797  33.908  27.945  1.00  0.00    -0.744 OA
ENDBRANCH  80  81
ENDBRANCH  52  75
BRANCH  64  85
ATOM     85  C   UNL A   1      39.549  33.611  37.243  1.00  0.00    -0.014 A 
ATOM     86  C   UNL A   1      40.034  34.926  37.377  1.00  0.00     0.010 A 
ATOM     87  C   UNL A   1      38.786  33.049  38.280  1.00  0.00     0.010 A 
ATOM     88  C   UNL A   1      39.795  35.651  38.546  1.00  0.00     0.020 A 
ATOM     89  C   UNL A   1      38.524  33.782  39.441  1.00  0.00     0.020 A 
ATOM     90  C   UNL A   1      39.053  35.069  39.577  1.00  0.00     0.054 A 
BRANCH  90  91
ATOM     91  S   UNL A   1      38.786  36.009  41.105  1.00  0.00     0.124 S 
ATOM     92  O   UNL A   1      40.037  35.788  41.824  1.00  0.00    -0.237 OA
ATOM     93  O   UNL A   1      38.572  37.368  40.614  1.00  0.00    -0.237 OA
ATOM     94  O   UNL A   1      37.607  35.377  41.693  1.00  0.00    -0.744 OA
ENDBRANCH  90  91
ENDBRANCH  64  85
ENDBRANCH  38  39
ENDBRANCH  30  33
ENDBRANCH  28  29
ENDBRANCH  27  28
ENDBRANCH  26  27
ENDBRANCH   1  26
TORSDOF 20
ENDMDL
