MODEL 1
REMARK VINA RESULT:     -10.3      0.000      0.000
REMARK SMILES Cc1ccccc1C(=O)Nc1ccc(N2CCC(n3c(C)nc4cccnc43)CC2)c(C(=O)NCCCCNC(=O)c2ccc(-c3c4nc(c(-c5ccc(S(=O)(=O)[O-])cc5)c5ccc([nH]5)c(-c5ccc(S(=O)(=O)[O-])cc5)c5nc(c(-c6ccc(S(=O)(=O)[O-])cc6)c6ccc3[nH]6)C=C5)C=C4)cc2)c1
REMARK SMILES IDX 37 1 36 2 35 3 34 4 32 5 33 6 31 8 11 9 12 10 102 11 13 12
REMARK SMILES IDX 14 13 10 14 8 15 9 16 7 18 1 19 2 20 3 21 4 22 6 23 5 24
REMARK SMILES IDX 15 25 16 26 30 27 17 28 29 29 18 30 19 31 20 32 28 33 21 34
REMARK SMILES IDX 22 35 23 36 27 37 24 38 26 39 25 40 38 41 39 42 40 43 41 45
REMARK SMILES IDX 42 46 43 47 101 48 44 49 100 50 45 51 46 52 47 53 94 54
REMARK SMILES IDX 48 55 99 56 93 57 95 58 49 59 98 60 92 61 91 62 50 64 80 65
REMARK SMILES IDX 61 66 79 67 62 68 65 69 78 70 96 71 63 72 64 73 77 75 97 76
REMARK SMILES IDX 66 77 51 78 52 79 60 80 53 81 59 82 54 83 55 84 56 85 57 86
REMARK SMILES IDX 58 87 81 88 82 89 90 90 83 91 89 92 84 93 85 94 86 95 87 96
REMARK SMILES IDX 88 97 67 98 68 99 76 100 69 101 75 102 70 103 71 104 72 105
REMARK SMILES IDX 73 106 74 107
REMARK H PARENT 34 7 10 17 39 44 95 63 65 74
REMARK Flexibility Score: inf
ROOT
ATOM      1  C   UNL A   1      40.787  31.193  35.032  1.00  0.00     0.023 C 
ENDROOT
BRANCH   1   2
ATOM      2  C   UNL A   1      41.353  30.975  33.632  1.00  0.00     0.023 C 
BRANCH   2   3
ATOM      3  C   UNL A   1      40.434  30.376  32.569  1.00  0.00     0.116 C 
BRANCH   3   4
ATOM      4  N   UNL A   1      39.259  29.656  32.994  1.00  0.00    -0.352 N 
ATOM      5  C   UNL A   1      38.468  28.781  32.272  1.00  0.00     0.253 C 
ATOM      6  O   UNL A   1      37.568  28.207  32.893  1.00  0.00    -0.269 OA
ATOM      7  H   UNL A   1      38.981  29.810  33.926  1.00  0.00     0.163 HD
BRANCH   5   8
ATOM      8  C   UNL A   1      38.570  28.534  30.785  1.00  0.00     0.065 A 
ATOM      9  C   UNL A   1      39.837  27.295  29.085  1.00  0.00     0.042 A 
ATOM     10  C   UNL A   1      39.068  27.855  28.081  1.00  0.00     0.028 A 
ATOM     11  C   UNL A   1      39.499  27.527  30.425  1.00  0.00     0.042 A 
ATOM     12  C   UNL A   1      38.134  28.829  28.414  1.00  0.00     0.029 A 
ATOM     13  C   UNL A   1      37.966  29.279  29.747  1.00  0.00     0.050 A 
BRANCH   9  14
ATOM     14  N   UNL A   1      41.016  26.590  28.815  1.00  0.00    -0.322 N 
ATOM     15  C   UNL A   1      42.256  27.043  28.405  1.00  0.00     0.255 C 
ATOM     16  O   UNL A   1      43.077  26.207  28.017  1.00  0.00    -0.269 OA
ATOM     17  H   UNL A   1      40.951  25.615  28.934  1.00  0.00     0.170 HD
BRANCH  15  18
ATOM     18  C   UNL A   1      42.695  28.480  28.464  1.00  0.00     0.043 A 
ATOM     19  C   UNL A   1      43.075  28.659  31.021  1.00  0.00     0.045 C 
ATOM     20  C   UNL A   1      43.046  29.208  29.622  1.00  0.00    -0.038 A 
ATOM     21  C   UNL A   1      43.449  30.555  29.491  1.00  0.00     0.004 A 
ATOM     22  C   UNL A   1      43.619  31.144  28.241  1.00  0.00     0.000 A 
ATOM     23  C   UNL A   1      42.901  29.089  27.207  1.00  0.00     0.014 A 
ATOM     24  C   UNL A   1      43.371  30.401  27.096  1.00  0.00     0.001 A 
ENDBRANCH  15  18
ENDBRANCH   9  14
BRANCH  13  25
ATOM     25  N   UNL A   1      37.398  30.540  29.891  1.00  0.00    -0.371 N 
ATOM     26  C   UNL A   1      38.243  31.701  30.121  1.00  0.00     0.118 C 
ATOM     27  C   UNL A   1      35.944  30.648  29.827  1.00  0.00     0.118 C 
ATOM     28  C   UNL A   1      37.626  32.739  31.026  1.00  0.00     0.047 C 
ATOM     29  C   UNL A   1      35.435  31.512  30.967  1.00  0.00     0.047 C 
ATOM     30  C   UNL A   1      36.094  32.891  30.960  1.00  0.00     0.094 C 
BRANCH  30  31
ATOM     31  N   UNL A   1      35.691  33.809  32.033  1.00  0.00    -0.310 N 
ATOM     32  C   UNL A   1      36.143  33.973  33.331  1.00  0.00     0.108 A 
ATOM     33  C   UNL A   1      34.794  34.829  31.800  1.00  0.00     0.160 A 
ATOM     34  C   UNL A   1      36.904  32.979  34.132  1.00  0.00     0.088 C 
ATOM     35  N   UNL A   1      35.753  35.139  33.824  1.00  0.00    -0.232 NA
ATOM     36  C   UNL A   1      34.882  35.657  32.905  1.00  0.00     0.108 A 
ATOM     37  N   UNL A   1      34.018  34.993  30.711  1.00  0.00    -0.237 NA
ATOM     38  C   UNL A   1      34.070  36.797  32.933  1.00  0.00     0.034 A 
ATOM     39  C   UNL A   1      33.176  36.044  30.827  1.00  0.00     0.113 A 
ATOM     40  C   UNL A   1      33.173  36.964  31.872  1.00  0.00     0.022 A 
ENDBRANCH  30  31
ENDBRANCH  13  25
ENDBRANCH   5   8
ENDBRANCH   3   4
ENDBRANCH   2   3
ENDBRANCH   1   2
BRANCH   1  41
ATOM     41  C   UNL A   1      41.098  32.520  35.707  1.00  0.00     0.116 C 
BRANCH  41  42
ATOM     42  N   UNL A   1      40.056  33.522  35.644  1.00  0.00    -0.352 N 
ATOM     43  C   UNL A   1      40.102  34.769  35.027  1.00  0.00     0.251 C 
ATOM     44  H   UNL A   1      39.210  33.294  36.095  1.00  0.00     0.163 HD
ATOM     45  O   UNL A   1      39.454  35.682  35.510  1.00  0.00    -0.269 OA
BRANCH  43  46
ATOM     46  C   UNL A   1      40.844  34.953  33.740  1.00  0.00     0.039 A 
ATOM     47  C   UNL A   1      40.406  34.251  32.601  1.00  0.00     0.014 A 
ATOM     48  C   UNL A   1      42.022  35.684  33.654  1.00  0.00     0.014 A 
ATOM     49  C   UNL A   1      41.201  34.186  31.448  1.00  0.00     0.010 A 
ATOM     50  C   UNL A   1      42.841  35.566  32.562  1.00  0.00     0.010 A 
ATOM     51  C   UNL A   1      42.447  34.800  31.466  1.00  0.00    -0.014 A 
BRANCH  51  52
ATOM     52  C   UNL A   1      43.430  34.859  30.397  1.00  0.00     0.031 A 
ATOM     53  C   UNL A   1      44.646  34.027  30.515  1.00  0.00     0.074 A 
ATOM     54  C   UNL A   1      42.953  35.250  29.196  1.00  0.00     0.049 A 
ATOM     55  N   UNL A   1      45.591  33.968  29.642  1.00  0.00    -0.248 NA
ATOM     56  C   UNL A   1      44.880  33.176  31.680  1.00  0.00     0.031 C 
ATOM     57  C   UNL A   1      43.397  34.841  27.868  1.00  0.00     0.029 A 
ATOM     58  N   UNL A   1      42.076  36.309  28.952  1.00  0.00    -0.354 N 
ATOM     59  C   UNL A   1      46.372  32.877  29.963  1.00  0.00     0.074 A 
ATOM     60  C   UNL A   1      45.949  32.482  31.285  1.00  0.00     0.031 C 
ATOM     61  C   UNL A   1      43.045  35.800  26.992  1.00  0.00     0.029 A 
ATOM     62  C   UNL A   1      42.578  36.924  27.795  1.00  0.00     0.049 A 
ATOM     63  H   UNL A   1      41.282  36.566  29.474  1.00  0.00     0.167 HD
ATOM     64  C   UNL A   1      47.178  32.323  29.012  1.00  0.00     0.031 A 
ATOM     65  C   UNL A   1      43.179  38.154  27.810  1.00  0.00     0.031 A 
ATOM     66  C   UNL A   1      47.147  33.103  27.776  1.00  0.00     0.049 A 
ATOM     67  C   UNL A   1      44.557  38.119  27.203  1.00  0.00     0.074 A 
ATOM     68  C   UNL A   1      46.476  32.929  26.577  1.00  0.00     0.029 A 
ATOM     69  N   UNL A   1      47.626  34.408  27.779  1.00  0.00    -0.354 N 
ATOM     70  N   UNL A   1      45.363  37.096  27.281  1.00  0.00    -0.248 NA
ATOM     71  C   UNL A   1      45.110  39.232  26.445  1.00  0.00     0.031 C 
ATOM     72  C   UNL A   1      46.482  34.174  25.893  1.00  0.00     0.029 A 
ATOM     73  C   UNL A   1      47.181  35.088  26.664  1.00  0.00     0.049 A 
ATOM     74  H   UNL A   1      48.204  34.793  28.479  1.00  0.00     0.167 HD
ATOM     75  C   UNL A   1      46.503  37.379  26.578  1.00  0.00     0.074 A 
ATOM     76  C   UNL A   1      46.300  38.729  26.080  1.00  0.00     0.031 C 
ATOM     77  C   UNL A   1      47.527  36.487  26.454  1.00  0.00     0.031 A 
BRANCH  64  78
ATOM     78  C   UNL A   1      47.761  30.925  29.098  1.00  0.00    -0.014 A 
ATOM     79  C   UNL A   1      46.944  29.813  28.801  1.00  0.00     0.010 A 
ATOM     80  C   UNL A   1      49.075  30.628  29.506  1.00  0.00     0.010 A 
ATOM     81  C   UNL A   1      47.379  28.491  28.988  1.00  0.00     0.020 A 
ATOM     82  C   UNL A   1      49.516  29.314  29.729  1.00  0.00     0.020 A 
ATOM     83  C   UNL A   1      48.660  28.249  29.476  1.00  0.00     0.054 A 
BRANCH  83  84
ATOM     84  S   UNL A   1      49.190  26.542  29.767  1.00  0.00     0.124 S 
ATOM     85  O   UNL A   1      48.152  26.037  30.663  1.00  0.00    -0.237 OA
ATOM     86  O   UNL A   1      49.189  25.979  28.420  1.00  0.00    -0.237 OA
ATOM     87  O   UNL A   1      50.512  26.687  30.377  1.00  0.00    -0.744 OA
ENDBRANCH  83  84
ENDBRANCH  64  78
BRANCH  65  88
ATOM     88  C   UNL A   1      42.834  38.996  28.995  1.00  0.00    -0.014 A 
ATOM     89  C   UNL A   1      43.780  39.074  30.029  1.00  0.00     0.010 A 
ATOM     90  C   UNL A   1      41.870  40.017  28.876  1.00  0.00     0.010 A 
ATOM     91  C   UNL A   1      43.883  40.239  30.790  1.00  0.00     0.020 A 
ATOM     92  C   UNL A   1      41.964  41.177  29.662  1.00  0.00     0.020 A 
ATOM     93  C   UNL A   1      43.020  41.306  30.564  1.00  0.00     0.054 A 
BRANCH  93  94
ATOM     94  S   UNL A   1      43.447  42.905  31.317  1.00  0.00     0.124 S 
ATOM     95  O   UNL A   1      44.274  42.514  32.456  1.00  0.00    -0.237 OA
ATOM     96  O   UNL A   1      44.162  43.570  30.231  1.00  0.00    -0.237 OA
ATOM     97  O   UNL A   1      42.149  43.483  31.646  1.00  0.00    -0.744 OA
ENDBRANCH  93  94
ENDBRANCH  65  88
BRANCH  77  98
ATOM     98  C   UNL A   1      48.934  36.842  26.042  1.00  0.00    -0.014 A 
ATOM     99  C   UNL A   1      49.831  37.536  26.871  1.00  0.00     0.010 A 
ATOM    100  C   UNL A   1      49.451  36.330  24.829  1.00  0.00     0.010 A 
ATOM    101  C   UNL A   1      51.155  37.768  26.485  1.00  0.00     0.020 A 
ATOM    102  C   UNL A   1      50.787  36.509  24.458  1.00  0.00     0.020 A 
ATOM    103  C   UNL A   1      51.626  37.252  25.280  1.00  0.00     0.054 A 
BRANCH 103 104
ATOM    104  S   UNL A   1      53.365  37.489  24.845  1.00  0.00     0.124 S 
ATOM    105  O   UNL A   1      54.044  36.794  25.936  1.00  0.00    -0.237 OA
ATOM    106  O   UNL A   1      53.464  36.844  23.536  1.00  0.00    -0.237 OA
ATOM    107  O   UNL A   1      53.522  38.940  24.827  1.00  0.00    -0.744 OA
ENDBRANCH 103 104
ENDBRANCH  77  98
ENDBRANCH  51  52
ENDBRANCH  43  46
ENDBRANCH  41  42
ENDBRANCH   1  41
TORSDOF 18
ENDMDL
MODEL 2
REMARK VINA RESULT:     -10.2      6.292     12.397
REMARK SMILES Cc1ccccc1C(=O)Nc1ccc(N2CCC(n3c(C)nc4cccnc43)CC2)c(C(=O)NCCCCNC(=O)c2ccc(-c3c4nc(c(-c5ccc(S(=O)(=O)[O-])cc5)c5ccc([nH]5)c(-c5ccc(S(=O)(=O)[O-])cc5)c5nc(c(-c6ccc(S(=O)(=O)[O-])cc6)c6ccc3[nH]6)C=C5)C=C4)cc2)c1
REMARK SMILES IDX 37 1 36 2 35 3 34 4 32 5 33 6 31 8 11 9 12 10 102 11 13 12
REMARK SMILES IDX 14 13 10 14 8 15 9 16 7 18 1 19 2 20 3 21 4 22 6 23 5 24
REMARK SMILES IDX 15 25 16 26 30 27 17 28 29 29 18 30 19 31 20 32 28 33 21 34
REMARK SMILES IDX 22 35 23 36 27 37 24 38 26 39 25 40 38 41 39 42 40 43 41 45
REMARK SMILES IDX 42 46 43 47 101 48 44 49 100 50 45 51 46 52 47 53 94 54
REMARK SMILES IDX 48 55 99 56 93 57 95 58 49 59 98 60 92 61 91 62 50 64 80 65
REMARK SMILES IDX 61 66 79 67 62 68 65 69 78 70 96 71 63 72 64 73 77 75 97 76
REMARK SMILES IDX 66 77 51 78 52 79 60 80 53 81 59 82 54 83 55 84 56 85 57 86
REMARK SMILES IDX 58 87 81 88 82 89 90 90 83 91 89 92 84 93 85 94 86 95 87 96
REMARK SMILES IDX 88 97 67 98 68 99 76 100 69 101 75 102 70 103 71 104 72 105
REMARK SMILES IDX 73 106 74 107
REMARK H PARENT 34 7 10 17 39 44 95 63 65 74
REMARK Flexibility Score: inf
ROOT
ATOM      1  C   UNL A   1      35.444  23.888  25.238  1.00  0.00     0.023 C 
ENDROOT
BRANCH   1   2
ATOM      2  C   UNL A   1      34.818  25.036  26.024  1.00  0.00     0.023 C 
BRANCH   2   3
ATOM      3  C   UNL A   1      33.895  25.999  25.279  1.00  0.00     0.116 C 
BRANCH   3   4
ATOM      4  N   UNL A   1      34.226  26.369  23.925  1.00  0.00    -0.352 N 
ATOM      5  C   UNL A   1      33.503  27.143  23.035  1.00  0.00     0.253 C 
ATOM      6  O   UNL A   1      34.049  27.405  21.959  1.00  0.00    -0.269 OA
ATOM      7  H   UNL A   1      35.083  26.023  23.588  1.00  0.00     0.163 HD
BRANCH   5   8
ATOM      8  C   UNL A   1      32.085  27.621  23.244  1.00  0.00     0.065 A 
ATOM      9  C   UNL A   1      30.755  29.529  24.030  1.00  0.00     0.042 A 
ATOM     10  C   UNL A   1      29.584  28.835  23.786  1.00  0.00     0.028 A 
ATOM     11  C   UNL A   1      31.981  28.979  23.634  1.00  0.00     0.042 A 
ATOM     12  C   UNL A   1      29.663  27.507  23.381  1.00  0.00     0.029 A 
ATOM     13  C   UNL A   1      30.905  26.843  23.235  1.00  0.00     0.050 A 
BRANCH   9  14
ATOM     14  N   UNL A   1      30.774  30.721  24.765  1.00  0.00    -0.322 N 
ATOM     15  C   UNL A   1      31.395  31.026  25.962  1.00  0.00     0.255 C 
ATOM     16  O   UNL A   1      31.082  32.080  26.523  1.00  0.00    -0.269 OA
ATOM     17  H   UNL A   1      30.260  31.461  24.366  1.00  0.00     0.170 HD
BRANCH  15  18
ATOM     18  C   UNL A   1      32.476  30.193  26.591  1.00  0.00     0.043 A 
ATOM     19  C   UNL A   1      31.071  28.081  27.119  1.00  0.00     0.045 C 
ATOM     20  C   UNL A   1      32.337  28.891  27.120  1.00  0.00    -0.038 A 
ATOM     21  C   UNL A   1      33.469  28.246  27.667  1.00  0.00     0.004 A 
ATOM     22  C   UNL A   1      34.737  28.818  27.591  1.00  0.00     0.000 A 
ATOM     23  C   UNL A   1      33.774  30.740  26.501  1.00  0.00     0.014 A 
ATOM     24  C   UNL A   1      34.894  30.054  26.982  1.00  0.00     0.001 A 
ENDBRANCH  15  18
ENDBRANCH   9  14
BRANCH  13  25
ATOM     25  N   UNL A   1      30.860  25.455  23.313  1.00  0.00    -0.371 N 
ATOM     26  C   UNL A   1      30.127  24.807  24.388  1.00  0.00     0.118 C 
ATOM     27  C   UNL A   1      31.584  24.688  22.305  1.00  0.00     0.118 C 
ATOM     28  C   UNL A   1      30.756  23.523  24.873  1.00  0.00     0.047 C 
ATOM     29  C   UNL A   1      32.393  23.588  22.969  1.00  0.00     0.047 C 
ATOM     30  C   UNL A   1      31.506  22.682  23.822  1.00  0.00     0.094 C 
BRANCH  30  31
ATOM     31  N   UNL A   1      32.185  21.588  24.531  1.00  0.00    -0.310 N 
ATOM     32  C   UNL A   1      32.642  21.469  25.832  1.00  0.00     0.108 A 
ATOM     33  C   UNL A   1      32.350  20.352  23.944  1.00  0.00     0.160 A 
ATOM     34  C   UNL A   1      32.926  22.584  26.772  1.00  0.00     0.088 C 
ATOM     35  N   UNL A   1      32.865  20.200  26.140  1.00  0.00    -0.232 NA
ATOM     36  C   UNL A   1      32.732  19.505  24.969  1.00  0.00     0.108 A 
ATOM     37  N   UNL A   1      32.153  20.037  22.649  1.00  0.00    -0.237 NA
ATOM     38  C   UNL A   1      32.965  18.162  24.654  1.00  0.00     0.034 A 
ATOM     39  C   UNL A   1      32.491  18.758  22.369  1.00  0.00     0.113 A 
ATOM     40  C   UNL A   1      32.869  17.800  23.305  1.00  0.00     0.022 A 
ENDBRANCH  30  31
ENDBRANCH  13  25
ENDBRANCH   5   8
ENDBRANCH   3   4
ENDBRANCH   2   3
ENDBRANCH   1   2
BRANCH   1  41
ATOM     41  C   UNL A   1      36.961  23.781  25.258  1.00  0.00     0.116 C 
BRANCH  41  42
ATOM     42  N   UNL A   1      37.503  22.561  25.817  1.00  0.00    -0.352 N 
ATOM     43  C   UNL A   1      38.832  22.271  26.111  1.00  0.00     0.251 C 
ATOM     44  H   UNL A   1      36.852  21.848  26.011  1.00  0.00     0.163 HD
ATOM     45  O   UNL A   1      39.211  21.116  26.014  1.00  0.00    -0.269 OA
BRANCH  43  46
ATOM     46  C   UNL A   1      39.743  23.335  26.639  1.00  0.00     0.039 A 
ATOM     47  C   UNL A   1      40.178  23.251  27.976  1.00  0.00     0.014 A 
ATOM     48  C   UNL A   1      40.073  24.468  25.906  1.00  0.00     0.014 A 
ATOM     49  C   UNL A   1      40.816  24.337  28.592  1.00  0.00     0.010 A 
ATOM     50  C   UNL A   1      40.629  25.560  26.519  1.00  0.00     0.010 A 
ATOM     51  C   UNL A   1      40.980  25.509  27.867  1.00  0.00    -0.014 A 
BRANCH  51  52
ATOM     52  C   UNL A   1      41.606  26.747  28.299  1.00  0.00     0.031 A 
ATOM     53  C   UNL A   1      40.766  27.959  28.405  1.00  0.00     0.074 A 
ATOM     54  C   UNL A   1      42.732  26.601  29.029  1.00  0.00     0.049 A 
ATOM     55  N   UNL A   1      41.180  29.117  28.786  1.00  0.00    -0.248 NA
ATOM     56  C   UNL A   1      39.344  27.934  28.069  1.00  0.00     0.031 C 
ATOM     57  C   UNL A   1      43.234  27.452  30.102  1.00  0.00     0.029 A 
ATOM     58  N   UNL A   1      43.787  25.725  28.766  1.00  0.00    -0.354 N 
ATOM     59  C   UNL A   1      40.061  29.883  29.044  1.00  0.00     0.074 A 
ATOM     60  C   UNL A   1      38.955  29.139  28.490  1.00  0.00     0.031 C 
ATOM     61  C   UNL A   1      44.564  27.269  30.199  1.00  0.00     0.029 A 
ATOM     62  C   UNL A   1      44.944  26.472  29.038  1.00  0.00     0.049 A 
ATOM     63  H   UNL A   1      43.733  24.791  28.460  1.00  0.00     0.167 HD
ATOM     64  C   UNL A   1      40.169  30.984  29.841  1.00  0.00     0.031 A 
ATOM     65  C   UNL A   1      45.793  26.908  28.057  1.00  0.00     0.031 A 
ATOM     66  C   UNL A   1      41.561  31.230  30.215  1.00  0.00     0.049 A 
ATOM     67  C   UNL A   1      46.004  28.398  28.111  1.00  0.00     0.074 A 
ATOM     68  C   UNL A   1      42.283  30.958  31.366  1.00  0.00     0.029 A 
ATOM     69  N   UNL A   1      42.488  31.546  29.229  1.00  0.00    -0.354 N 
ATOM     70  N   UNL A   1      45.092  29.251  28.487  1.00  0.00    -0.248 NA
ATOM     71  C   UNL A   1      47.271  29.025  27.763  1.00  0.00     0.031 C 
ATOM     72  C   UNL A   1      43.662  31.030  31.039  1.00  0.00     0.029 A 
ATOM     73  C   UNL A   1      43.773  31.373  29.702  1.00  0.00     0.049 A 
ATOM     74  H   UNL A   1      42.260  31.851  28.320  1.00  0.00     0.167 HD
ATOM     75  C   UNL A   1      45.632  30.509  28.471  1.00  0.00     0.074 A 
ATOM     76  C   UNL A   1      46.994  30.316  28.005  1.00  0.00     0.031 C 
ATOM     77  C   UNL A   1      44.924  31.614  28.843  1.00  0.00     0.031 A 
BRANCH  64  78
ATOM     78  C   UNL A   1      38.995  31.663  30.520  1.00  0.00    -0.014 A 
ATOM     79  C   UNL A   1      38.704  31.364  31.868  1.00  0.00     0.010 A 
ATOM     80  C   UNL A   1      38.112  32.560  29.888  1.00  0.00     0.010 A 
ATOM     81  C   UNL A   1      37.558  31.853  32.516  1.00  0.00     0.020 A 
ATOM     82  C   UNL A   1      36.945  33.032  30.510  1.00  0.00     0.020 A 
ATOM     83  C   UNL A   1      36.668  32.668  31.822  1.00  0.00     0.054 A 
BRANCH  83  84
ATOM     84  S   UNL A   1      35.165  33.246  32.649  1.00  0.00     0.124 S 
ATOM     85  O   UNL A   1      35.234  34.692  32.455  1.00  0.00    -0.237 OA
ATOM     86  O   UNL A   1      34.113  32.559  31.904  1.00  0.00    -0.237 OA
ATOM     87  O   UNL A   1      35.335  32.802  34.032  1.00  0.00    -0.744 OA
ENDBRANCH  83  84
ENDBRANCH  64  78
BRANCH  65  88
ATOM     88  C   UNL A   1      45.699  26.146  26.775  1.00  0.00    -0.014 A 
ATOM     89  C   UNL A   1      46.515  25.011  26.637  1.00  0.00     0.010 A 
ATOM     90  C   UNL A   1      44.545  26.256  25.973  1.00  0.00     0.010 A 
ATOM     91  C   UNL A   1      46.077  23.931  25.870  1.00  0.00     0.020 A 
ATOM     92  C   UNL A   1      44.123  25.174  25.184  1.00  0.00     0.020 A 
ATOM     93  C   UNL A   1      44.860  23.990  25.199  1.00  0.00     0.054 A 
BRANCH  93  94
ATOM     94  S   UNL A   1      44.188  22.434  24.542  1.00  0.00     0.124 S 
ATOM     95  O   UNL A   1      42.777  22.511  24.909  1.00  0.00    -0.237 OA
ATOM     96  O   UNL A   1      44.466  22.563  23.114  1.00  0.00    -0.237 OA
ATOM     97  O   UNL A   1      44.966  21.410  25.233  1.00  0.00    -0.744 OA
ENDBRANCH  93  94
ENDBRANCH  65  88
BRANCH  77  98
ATOM     98  C   UNL A   1      45.300  33.033  28.497  1.00  0.00    -0.014 A 
ATOM     99  C   UNL A   1      46.428  33.686  29.023  1.00  0.00     0.010 A 
ATOM    100  C   UNL A   1      44.588  33.710  27.479  1.00  0.00     0.010 A 
ATOM    101  C   UNL A   1      46.790  34.972  28.608  1.00  0.00     0.020 A 
ATOM    102  C   UNL A   1      44.972  34.973  27.018  1.00  0.00     0.020 A 
ATOM    103  C   UNL A   1      46.060  35.608  27.607  1.00  0.00     0.054 A 
BRANCH 103 104
ATOM    104  S   UNL A   1      46.600  37.232  27.025  1.00  0.00     0.124 S 
ATOM    105  O   UNL A   1      47.461  36.875  25.900  1.00  0.00    -0.237 OA
ATOM    106  O   UNL A   1      45.343  37.886  26.667  1.00  0.00    -0.237 OA
ATOM    107  O   UNL A   1      47.282  37.803  28.182  1.00  0.00    -0.744 OA
ENDBRANCH 103 104
ENDBRANCH  77  98
ENDBRANCH  51  52
ENDBRANCH  43  46
ENDBRANCH  41  42
ENDBRANCH   1  41
TORSDOF 18
ENDMDL
MODEL 3
REMARK VINA RESULT:     -10.2      6.356     12.548
REMARK SMILES Cc1ccccc1C(=O)Nc1ccc(N2CCC(n3c(C)nc4cccnc43)CC2)c(C(=O)NCCCCNC(=O)c2ccc(-c3c4nc(c(-c5ccc(S(=O)(=O)[O-])cc5)c5ccc([nH]5)c(-c5ccc(S(=O)(=O)[O-])cc5)c5nc(c(-c6ccc(S(=O)(=O)[O-])cc6)c6ccc3[nH]6)C=C5)C=C4)cc2)c1
REMARK SMILES IDX 37 1 36 2 35 3 34 4 32 5 33 6 31 8 11 9 12 10 102 11 13 12
REMARK SMILES IDX 14 13 10 14 8 15 9 16 7 18 1 19 2 20 3 21 4 22 6 23 5 24
REMARK SMILES IDX 15 25 16 26 30 27 17 28 29 29 18 30 19 31 20 32 28 33 21 34
REMARK SMILES IDX 22 35 23 36 27 37 24 38 26 39 25 40 38 41 39 42 40 43 41 45
REMARK SMILES IDX 42 46 43 47 101 48 44 49 100 50 45 51 46 52 47 53 94 54
REMARK SMILES IDX 48 55 99 56 93 57 95 58 49 59 98 60 92 61 91 62 50 64 80 65
REMARK SMILES IDX 61 66 79 67 62 68 65 69 78 70 96 71 63 72 64 73 77 75 97 76
REMARK SMILES IDX 66 77 51 78 52 79 60 80 53 81 59 82 54 83 55 84 56 85 57 86
REMARK SMILES IDX 58 87 81 88 82 89 90 90 83 91 89 92 84 93 85 94 86 95 87 96
REMARK SMILES IDX 88 97 67 98 68 99 76 100 69 101 75 102 70 103 71 104 72 105
REMARK SMILES IDX 73 106 74 107
REMARK H PARENT 34 7 10 17 39 44 95 63 65 74
REMARK Flexibility Score: inf
ROOT
ATOM      1  C   UNL A   1      35.684  24.526  25.207  1.00  0.00     0.023 C 
ENDROOT
BRANCH   1   2
ATOM      2  C   UNL A   1      34.459  25.396  24.937  1.00  0.00     0.023 C 
BRANCH   2   3
ATOM      3  C   UNL A   1      34.425  26.209  23.644  1.00  0.00     0.116 C 
BRANCH   3   4
ATOM      4  N   UNL A   1      34.068  25.544  22.415  1.00  0.00    -0.352 N 
ATOM      5  C   UNL A   1      32.817  25.385  21.845  1.00  0.00     0.253 C 
ATOM      6  O   UNL A   1      32.781  24.863  20.727  1.00  0.00    -0.269 OA
ATOM      7  H   UNL A   1      34.817  25.150  21.913  1.00  0.00     0.163 HD
BRANCH   5   8
ATOM      8  C   UNL A   1      31.504  25.725  22.510  1.00  0.00     0.065 A 
ATOM      9  C   UNL A   1      30.091  27.606  23.213  1.00  0.00     0.042 A 
ATOM     10  C   UNL A   1      29.150  26.730  23.724  1.00  0.00     0.028 A 
ATOM     11  C   UNL A   1      31.185  27.105  22.494  1.00  0.00     0.042 A 
ATOM     12  C   UNL A   1      29.434  25.368  23.728  1.00  0.00     0.029 A 
ATOM     13  C   UNL A   1      30.665  24.859  23.248  1.00  0.00     0.050 A 
BRANCH   9  14
ATOM     14  N   UNL A   1      30.053  28.978  23.485  1.00  0.00    -0.322 N 
ATOM     15  C   UNL A   1      30.672  29.712  24.480  1.00  0.00     0.255 C 
ATOM     16  O   UNL A   1      30.307  30.880  24.648  1.00  0.00    -0.269 OA
ATOM     17  H   UNL A   1      29.495  29.507  22.869  1.00  0.00     0.170 HD
BRANCH  15  18
ATOM     18  C   UNL A   1      31.804  29.204  25.327  1.00  0.00     0.043 A 
ATOM     19  C   UNL A   1      33.725  29.499  23.613  1.00  0.00     0.045 C 
ATOM     20  C   UNL A   1      33.159  29.093  24.945  1.00  0.00    -0.038 A 
ATOM     21  C   UNL A   1      34.099  28.602  25.878  1.00  0.00     0.004 A 
ATOM     22  C   UNL A   1      33.741  28.337  27.198  1.00  0.00     0.000 A 
ATOM     23  C   UNL A   1      31.471  28.955  26.676  1.00  0.00     0.014 A 
ATOM     24  C   UNL A   1      32.430  28.541  27.604  1.00  0.00     0.001 A 
ENDBRANCH  15  18
ENDBRANCH   9  14
BRANCH  13  25
ATOM     25  N   UNL A   1      31.032  23.609  23.735  1.00  0.00    -0.371 N 
ATOM     26  C   UNL A   1      31.665  23.490  25.040  1.00  0.00     0.118 C 
ATOM     27  C   UNL A   1      30.785  22.445  22.891  1.00  0.00     0.118 C 
ATOM     28  C   UNL A   1      32.699  22.394  25.122  1.00  0.00     0.047 C 
ATOM     29  C   UNL A   1      32.017  21.558  22.853  1.00  0.00     0.047 C 
ATOM     30  C   UNL A   1      32.448  21.142  24.259  1.00  0.00     0.094 C 
BRANCH  30  31
ATOM     31  N   UNL A   1      33.645  20.294  24.347  1.00  0.00    -0.310 N 
ATOM     32  C   UNL A   1      34.980  20.594  24.557  1.00  0.00     0.108 A 
ATOM     33  C   UNL A   1      33.546  18.919  24.363  1.00  0.00     0.160 A 
ATOM     34  C   UNL A   1      35.629  21.915  24.354  1.00  0.00     0.088 C 
ATOM     35  N   UNL A   1      35.656  19.513  24.916  1.00  0.00    -0.232 NA
ATOM     36  C   UNL A   1      34.792  18.464  24.756  1.00  0.00     0.108 A 
ATOM     37  N   UNL A   1      32.454  18.182  24.079  1.00  0.00    -0.237 NA
ATOM     38  C   UNL A   1      34.978  17.082  24.865  1.00  0.00     0.034 A 
ATOM     39  C   UNL A   1      32.707  16.854  24.093  1.00  0.00     0.113 A 
ATOM     40  C   UNL A   1      33.905  16.265  24.488  1.00  0.00     0.022 A 
ENDBRANCH  30  31
ENDBRANCH  13  25
ENDBRANCH   5   8
ENDBRANCH   3   4
ENDBRANCH   2   3
ENDBRANCH   1   2
BRANCH   1  41
ATOM     41  C   UNL A   1      36.534  24.884  26.416  1.00  0.00     0.116 C 
BRANCH  41  42
ATOM     42  N   UNL A   1      37.464  23.868  26.860  1.00  0.00    -0.352 N 
ATOM     43  C   UNL A   1      38.828  24.002  27.102  1.00  0.00     0.251 C 
ATOM     44  H   UNL A   1      37.086  22.970  27.008  1.00  0.00     0.163 HD
ATOM     45  O   UNL A   1      39.553  23.043  26.901  1.00  0.00    -0.269 OA
BRANCH  43  46
ATOM     46  C   UNL A   1      39.373  25.263  27.697  1.00  0.00     0.039 A 
ATOM     47  C   UNL A   1      39.043  25.579  29.030  1.00  0.00     0.014 A 
ATOM     48  C   UNL A   1      40.083  26.197  26.953  1.00  0.00     0.014 A 
ATOM     49  C   UNL A   1      39.310  26.853  29.552  1.00  0.00     0.010 A 
ATOM     50  C   UNL A   1      40.282  27.466  27.428  1.00  0.00     0.010 A 
ATOM     51  C   UNL A   1      39.876  27.807  28.717  1.00  0.00    -0.014 A 
BRANCH  51  52
ATOM     52  C   UNL A   1      40.235  29.178  29.040  1.00  0.00     0.031 A 
ATOM     53  C   UNL A   1      39.183  30.214  28.976  1.00  0.00     0.074 A 
ATOM     54  C   UNL A   1      41.319  29.319  29.833  1.00  0.00     0.049 A 
ATOM     55  N   UNL A   1      39.352  31.461  29.247  1.00  0.00    -0.248 NA
ATOM     56  C   UNL A   1      37.814  29.888  28.578  1.00  0.00     0.031 C 
ATOM     57  C   UNL A   1      41.585  30.351  30.830  1.00  0.00     0.029 A 
ATOM     58  N   UNL A   1      42.531  28.636  29.717  1.00  0.00    -0.354 N 
ATOM     59  C   UNL A   1      38.098  32.023  29.368  1.00  0.00     0.074 A 
ATOM     60  C   UNL A   1      37.185  31.033  28.847  1.00  0.00     0.031 C 
ATOM     61  C   UNL A   1      42.916  30.432  31.008  1.00  0.00     0.029 A 
ATOM     62  C   UNL A   1      43.512  29.611  29.959  1.00  0.00     0.049 A 
ATOM     63  H   UNL A   1      42.668  27.683  29.512  1.00  0.00     0.167 HD
ATOM     64  C   UNL A   1      37.949  33.198  30.044  1.00  0.00     0.031 A 
ATOM     65  C   UNL A   1      44.329  30.101  28.977  1.00  0.00     0.031 A 
ATOM     66  C   UNL A   1      39.245  33.737  30.454  1.00  0.00     0.049 A 
ATOM     67  C   UNL A   1      44.260  31.602  28.878  1.00  0.00     0.074 A 
ATOM     68  C   UNL A   1      39.927  33.721  31.660  1.00  0.00     0.029 A 
ATOM     69  N   UNL A   1      40.162  34.124  29.483  1.00  0.00    -0.354 N 
ATOM     70  N   UNL A   1      43.184  32.301  29.117  1.00  0.00    -0.248 NA
ATOM     71  C   UNL A   1      45.411  32.420  28.524  1.00  0.00     0.031 C 
ATOM     72  C   UNL A   1      41.288  34.019  31.391  1.00  0.00     0.029 A 
ATOM     73  C   UNL A   1      41.423  34.244  30.031  1.00  0.00     0.049 A 
ATOM     74  H   UNL A   1      39.942  34.290  28.537  1.00  0.00     0.167 HD
ATOM     75  C   UNL A   1      43.485  33.630  28.989  1.00  0.00     0.074 A 
ATOM     76  C   UNL A   1      44.888  33.653  28.611  1.00  0.00     0.031 C 
ATOM     77  C   UNL A   1      42.564  34.613  29.205  1.00  0.00     0.031 A 
BRANCH  64  78
ATOM     78  C   UNL A   1      36.628  33.706  30.590  1.00  0.00    -0.014 A 
ATOM     79  C   UNL A   1      35.586  34.031  29.696  1.00  0.00     0.010 A 
ATOM     80  C   UNL A   1      36.358  33.935  31.953  1.00  0.00     0.010 A 
ATOM     81  C   UNL A   1      34.390  34.630  30.122  1.00  0.00     0.020 A 
ATOM     82  C   UNL A   1      35.182  34.562  32.393  1.00  0.00     0.020 A 
ATOM     83  C   UNL A   1      34.204  34.916  31.471  1.00  0.00     0.054 A 
BRANCH  83  84
ATOM     84  S   UNL A   1      32.682  35.740  32.003  1.00  0.00     0.124 S 
ATOM     85  O   UNL A   1      33.156  36.625  33.063  1.00  0.00    -0.237 OA
ATOM     86  O   UNL A   1      32.240  36.402  30.779  1.00  0.00    -0.237 OA
ATOM     87  O   UNL A   1      31.830  34.640  32.454  1.00  0.00    -0.744 OA
ENDBRANCH  83  84
ENDBRANCH  64  78
BRANCH  65  88
ATOM     88  C   UNL A   1      44.461  29.213  27.783  1.00  0.00    -0.014 A 
ATOM     89  C   UNL A   1      45.304  28.096  27.897  1.00  0.00     0.010 A 
ATOM     90  C   UNL A   1      43.455  29.206  26.795  1.00  0.00     0.010 A 
ATOM     91  C   UNL A   1      45.016  26.933  27.185  1.00  0.00     0.020 A 
ATOM     92  C   UNL A   1      43.186  28.038  26.063  1.00  0.00     0.020 A 
ATOM     93  C   UNL A   1      43.927  26.886  26.321  1.00  0.00     0.054 A 
BRANCH  93  94
ATOM     94  S   UNL A   1      43.396  25.252  25.727  1.00  0.00     0.124 S 
ATOM     95  O   UNL A   1      42.319  25.581  24.797  1.00  0.00    -0.237 OA
ATOM     96  O   UNL A   1      44.617  24.744  25.108  1.00  0.00    -0.237 OA
ATOM     97  O   UNL A   1      42.990  24.563  26.948  1.00  0.00    -0.744 OA
ENDBRANCH  93  94
ENDBRANCH  65  88
BRANCH  77  98
ATOM     98  C   UNL A   1      42.696  36.037  28.725  1.00  0.00    -0.014 A 
ATOM     99  C   UNL A   1      42.002  36.547  27.615  1.00  0.00     0.010 A 
ATOM    100  C   UNL A   1      43.426  36.965  29.504  1.00  0.00     0.010 A 
ATOM    101  C   UNL A   1      42.085  37.896  27.257  1.00  0.00     0.020 A 
ATOM    102  C   UNL A   1      43.472  38.326  29.186  1.00  0.00     0.020 A 
ATOM    103  C   UNL A   1      42.819  38.779  28.046  1.00  0.00     0.054 A 
BRANCH 103 104
ATOM    104  S   UNL A   1      42.838  40.534  27.613  1.00  0.00     0.124 S 
ATOM    105  O   UNL A   1      42.631  41.165  28.914  1.00  0.00    -0.237 OA
ATOM    106  O   UNL A   1      44.168  40.714  27.036  1.00  0.00    -0.237 OA
ATOM    107  O   UNL A   1      41.735  40.667  26.666  1.00  0.00    -0.744 OA
ENDBRANCH 103 104
ENDBRANCH  77  98
ENDBRANCH  51  52
ENDBRANCH  43  46
ENDBRANCH  41  42
ENDBRANCH   1  41
TORSDOF 18
ENDMDL
