MODEL 1
REMARK VINA RESULT:     -11.1      0.000      0.000
REMARK SMILES O=C(CCN1C(=O)/C(=C2\C(=O)N(Cc3ccc(Cl)cc3)c3ccccc32)SC1=S)NCCCCNC(=O)c1ccc(-c2c3nc(c(-c4ccc(S(=O)(=O)[O-])cc4)c4ccc([nH]4)c(-c4ccc(S(=O)(=O)[O-])cc4)c4nc(c(-c5ccc(S(=O)(=O)[O-])cc5)c5ccc2[nH]5)C=C4)C=C3)cc1
REMARK SMILES IDX 32 1 31 2 30 3 1 4 2 5 3 7 4 8 5 9 6 10 28 11 7 12 8 13
REMARK SMILES IDX 27 14 29 15 9 16 10 17 26 18 11 19 12 20 21 21 25 22 22 23
REMARK SMILES IDX 24 24 23 25 13 26 14 27 15 28 20 29 16 30 19 31 17 32 18 33
REMARK SMILES IDX 33 34 34 35 35 36 36 37 37 39 38 40 39 41 97 42 40 43 96 44
REMARK SMILES IDX 41 45 42 46 43 47 90 48 44 49 95 50 89 51 91 52 45 53 94 54
REMARK SMILES IDX 88 55 87 56 46 58 76 59 57 60 75 61 58 62 61 63 74 64 92 65
REMARK SMILES IDX 59 66 60 67 73 69 93 70 62 71 47 72 48 73 56 74 49 75 55 76
REMARK SMILES IDX 50 77 51 78 52 79 53 80 54 81 77 82 78 83 86 84 79 85 85 86
REMARK SMILES IDX 80 87 81 88 82 89 83 90 84 91 63 92 64 93 72 94 65 95 71 96
REMARK SMILES IDX 66 97 67 98 68 99 69 100 70 101
REMARK H PARENT 30 6 35 38 91 57 61 68
REMARK Flexibility Score: inf
ROOT
ATOM      1  C   UNL A   1      33.566  28.790  26.253  1.00  0.00     0.023 C 
ENDROOT
BRANCH   1   2
ATOM      2  C   UNL A   1      33.056  29.333  24.905  1.00  0.00     0.116 C 
BRANCH   2   3
ATOM      3  N   UNL A   1      32.973  28.327  23.844  1.00  0.00    -0.356 N 
ATOM      4  O   UNL A   1      30.777  27.762  24.246  1.00  0.00    -0.275 OA
ATOM      5  C   UNL A   1      31.811  27.614  23.600  1.00  0.00     0.221 C 
ATOM      6  H   UNL A   1      33.767  28.151  23.290  1.00  0.00     0.163 HD
BRANCH   5   7
ATOM      7  C   UNL A   1      31.876  26.612  22.463  1.00  0.00     0.122 C 
BRANCH   7   8
ATOM      8  C   UNL A   1      33.002  25.596  22.650  1.00  0.00     0.137 C 
BRANCH   8   9
ATOM      9  N   UNL A   1      32.953  24.824  23.894  1.00  0.00    -0.292 N 
ATOM     10  C   UNL A   1      33.939  25.001  24.868  1.00  0.00     0.267 C 
ATOM     11  C   UNL A   1      31.843  24.106  24.299  1.00  0.00     0.148 C 
ATOM     12  O   UNL A   1      34.790  25.870  24.858  1.00  0.00    -0.268 OA
ATOM     13  C   UNL A   1      33.745  23.971  25.935  1.00  0.00     0.093 C 
ATOM     14  S   UNL A   1      32.027  23.708  25.996  1.00  0.00    -0.053 SA
ATOM     15  S   UNL A   1      30.508  23.643  23.417  1.00  0.00    -0.052 S 
ATOM     16  C   UNL A   1      34.714  23.068  26.199  1.00  0.00     0.069 C 
ATOM     17  C   UNL A   1      36.206  23.284  25.967  1.00  0.00     0.260 C 
ATOM     18  C   UNL A   1      34.484  21.610  26.109  1.00  0.00     0.012 A 
ATOM     19  O   UNL A   1      36.792  24.331  25.957  1.00  0.00    -0.269 OA
ATOM     20  N   UNL A   1      36.733  22.012  25.674  1.00  0.00    -0.303 N 
ATOM     21  C   UNL A   1      35.688  21.077  25.628  1.00  0.00     0.052 A 
ATOM     22  C   UNL A   1      33.305  20.868  26.083  1.00  0.00     0.011 A 
ATOM     23  C   UNL A   1      35.670  19.882  24.963  1.00  0.00     0.027 A 
ATOM     24  C   UNL A   1      33.258  19.751  25.276  1.00  0.00     0.001 A 
ATOM     25  C   UNL A   1      34.421  19.330  24.656  1.00  0.00     0.002 A 
BRANCH  20  26
ATOM     26  C   UNL A   1      38.099  21.826  25.189  1.00  0.00     0.161 C 
BRANCH  26  27
ATOM     27  C   UNL A   1      39.242  21.938  26.184  1.00  0.00    -0.028 A 
ATOM     28  C   UNL A   1      40.155  20.887  26.373  1.00  0.00     0.007 A 
ATOM     29  C   UNL A   1      39.494  23.149  26.851  1.00  0.00     0.007 A 
ATOM     30  C   UNL A   1      41.250  21.023  27.239  1.00  0.00     0.021 A 
ATOM     31  C   UNL A   1      40.607  23.295  27.695  1.00  0.00     0.021 A 
ATOM     32  C   UNL A   1      41.467  22.222  27.905  1.00  0.00     0.041 A 
ATOM     33  Cl  UNL A   1      42.788  22.361  28.996  1.00  0.00    -0.084 Cl
ENDBRANCH  26  27
ENDBRANCH  20  26
ENDBRANCH   8   9
ENDBRANCH   7   8
ENDBRANCH   5   7
ENDBRANCH   2   3
ENDBRANCH   1   2
BRANCH   1  34
ATOM     34  C   UNL A   1      33.836  29.827  27.372  1.00  0.00     0.023 C 
BRANCH  34  35
ATOM     35  C   UNL A   1      35.310  30.104  27.771  1.00  0.00     0.116 C 
BRANCH  35  36
ATOM     36  N   UNL A   1      35.729  29.622  29.122  1.00  0.00    -0.352 N 
ATOM     37  C   UNL A   1      36.795  29.480  29.999  1.00  0.00     0.251 C 
ATOM     38  H   UNL A   1      34.929  29.262  29.569  1.00  0.00     0.163 HD
ATOM     39  O   UNL A   1      36.473  29.146  31.146  1.00  0.00    -0.269 OA
BRANCH  37  40
ATOM     40  C   UNL A   1      38.271  29.541  29.746  1.00  0.00     0.039 A 
ATOM     41  C   UNL A   1      38.934  30.461  28.954  1.00  0.00     0.014 A 
ATOM     42  C   UNL A   1      39.101  28.690  30.491  1.00  0.00     0.014 A 
ATOM     43  C   UNL A   1      40.316  30.274  28.629  1.00  0.00     0.010 A 
ATOM     44  C   UNL A   1      40.499  28.584  30.254  1.00  0.00     0.010 A 
ATOM     45  C   UNL A   1      41.136  29.292  29.226  1.00  0.00    -0.014 A 
BRANCH  45  46
ATOM     46  C   UNL A   1      42.577  28.966  28.795  1.00  0.00     0.031 A 
ATOM     47  C   UNL A   1      43.743  29.928  29.088  1.00  0.00     0.074 A 
ATOM     48  C   UNL A   1      42.961  27.813  28.192  1.00  0.00     0.049 A 
ATOM     49  N   UNL A   1      44.954  29.982  28.569  1.00  0.00    -0.248 NA
ATOM     50  C   UNL A   1      43.514  30.952  30.110  1.00  0.00     0.031 C 
ATOM     51  C   UNL A   1      42.105  26.673  27.881  1.00  0.00     0.029 A 
ATOM     52  N   UNL A   1      44.210  27.398  27.749  1.00  0.00    -0.354 N 
ATOM     53  C   UNL A   1      45.577  31.102  29.125  1.00  0.00     0.074 A 
ATOM     54  C   UNL A   1      44.619  31.681  30.035  1.00  0.00     0.031 C 
ATOM     55  C   UNL A   1      42.854  25.667  27.407  1.00  0.00     0.029 A 
ATOM     56  C   UNL A   1      44.228  26.126  27.220  1.00  0.00     0.049 A 
ATOM     57  H   UNL A   1      45.012  27.965  27.808  1.00  0.00     0.167 HD
ATOM     58  C   UNL A   1      46.822  31.613  28.929  1.00  0.00     0.031 A 
ATOM     59  C   UNL A   1      45.190  25.403  26.599  1.00  0.00     0.031 A 
ATOM     60  C   UNL A   1      47.863  30.985  28.154  1.00  0.00     0.049 A 
ATOM     61  C   UNL A   1      46.554  25.981  26.328  1.00  0.00     0.074 A 
ATOM     62  C   UNL A   1      49.147  31.451  27.902  1.00  0.00     0.029 A 
ATOM     63  N   UNL A   1      47.778  29.739  27.564  1.00  0.00    -0.354 N 
ATOM     64  N   UNL A   1      47.049  27.134  26.700  1.00  0.00    -0.248 NA
ATOM     65  C   UNL A   1      47.479  25.168  25.517  1.00  0.00     0.031 C 
ATOM     66  C   UNL A   1      49.821  30.507  27.127  1.00  0.00     0.029 A 
ATOM     67  C   UNL A   1      48.980  29.423  26.949  1.00  0.00     0.049 A 
ATOM     68  H   UNL A   1      46.982  29.159  27.580  1.00  0.00     0.167 HD
ATOM     69  C   UNL A   1      48.339  27.181  26.175  1.00  0.00     0.074 A 
ATOM     70  C   UNL A   1      48.563  25.935  25.479  1.00  0.00     0.031 C 
ATOM     71  C   UNL A   1      49.242  28.188  26.259  1.00  0.00     0.031 A 
BRANCH  58  72
ATOM     72  C   UNL A   1      47.177  32.955  29.542  1.00  0.00    -0.014 A 
ATOM     73  C   UNL A   1      47.483  33.014  30.918  1.00  0.00     0.010 A 
ATOM     74  C   UNL A   1      47.050  34.159  28.828  1.00  0.00     0.010 A 
ATOM     75  C   UNL A   1      47.618  34.241  31.575  1.00  0.00     0.020 A 
ATOM     76  C   UNL A   1      47.220  35.392  29.474  1.00  0.00     0.020 A 
ATOM     77  C   UNL A   1      47.477  35.424  30.848  1.00  0.00     0.054 A 
BRANCH  77  78
ATOM     78  S   UNL A   1      47.637  37.013  31.716  1.00  0.00     0.124 S 
ATOM     79  O   UNL A   1      46.655  37.843  31.028  1.00  0.00    -0.237 OA
ATOM     80  O   UNL A   1      47.311  36.660  33.096  1.00  0.00    -0.237 OA
ATOM     81  O   UNL A   1      49.035  37.379  31.494  1.00  0.00    -0.744 OA
ENDBRANCH  77  78
ENDBRANCH  58  72
BRANCH  59  82
ATOM     82  C   UNL A   1      44.867  24.020  26.137  1.00  0.00    -0.014 A 
ATOM     83  C   UNL A   1      45.393  22.901  26.810  1.00  0.00     0.010 A 
ATOM     84  C   UNL A   1      44.088  23.817  24.983  1.00  0.00     0.010 A 
ATOM     85  C   UNL A   1      45.230  21.617  26.289  1.00  0.00     0.020 A 
ATOM     86  C   UNL A   1      43.886  22.527  24.482  1.00  0.00     0.020 A 
ATOM     87  C   UNL A   1      44.496  21.441  25.115  1.00  0.00     0.054 A 
BRANCH  87  88
ATOM     88  S   UNL A   1      44.368  19.775  24.411  1.00  0.00     0.124 S 
ATOM     89  O   UNL A   1      44.519  20.045  22.983  1.00  0.00    -0.237 OA
ATOM     90  O   UNL A   1      45.484  19.073  25.039  1.00  0.00    -0.237 OA
ATOM     91  O   UNL A   1      43.041  19.329  24.827  1.00  0.00    -0.744 OA
ENDBRANCH  87  88
ENDBRANCH  59  82
BRANCH  71  92
ATOM     92  C   UNL A   1      50.590  28.025  25.602  1.00  0.00    -0.014 A 
ATOM     93  C   UNL A   1      50.751  28.346  24.241  1.00  0.00     0.010 A 
ATOM     94  C   UNL A   1      51.658  27.422  26.289  1.00  0.00     0.010 A 
ATOM     95  C   UNL A   1      51.940  28.036  23.569  1.00  0.00     0.020 A 
ATOM     96  C   UNL A   1      52.858  27.131  25.627  1.00  0.00     0.020 A 
ATOM     97  C   UNL A   1      52.981  27.418  24.265  1.00  0.00     0.054 A 
BRANCH  97  98
ATOM     98  S   UNL A   1      54.497  26.981  23.367  1.00  0.00     0.124 S 
ATOM     99  O   UNL A   1      55.148  28.278  23.209  1.00  0.00    -0.237 OA
ATOM    100  O   UNL A   1      55.157  26.052  24.282  1.00  0.00    -0.237 OA
ATOM    101  O   UNL A   1      54.003  26.377  22.130  1.00  0.00    -0.744 OA
ENDBRANCH  97  98
ENDBRANCH  71  92
ENDBRANCH  45  46
ENDBRANCH  37  40
ENDBRANCH  35  36
ENDBRANCH  34  35
ENDBRANCH   1  34
TORSDOF 18
ENDMDL
MODEL 2
REMARK VINA RESULT:     -11.0      2.757      4.481
REMARK SMILES O=C(CCN1C(=O)/C(=C2\C(=O)N(Cc3ccc(Cl)cc3)c3ccccc32)SC1=S)NCCCCNC(=O)c1ccc(-c2c3nc(c(-c4ccc(S(=O)(=O)[O-])cc4)c4ccc([nH]4)c(-c4ccc(S(=O)(=O)[O-])cc4)c4nc(c(-c5ccc(S(=O)(=O)[O-])cc5)c5ccc2[nH]5)C=C4)C=C3)cc1
REMARK SMILES IDX 32 1 31 2 30 3 1 4 2 5 3 7 4 8 5 9 6 10 28 11 7 12 8 13
REMARK SMILES IDX 27 14 29 15 9 16 10 17 26 18 11 19 12 20 21 21 25 22 22 23
REMARK SMILES IDX 24 24 23 25 13 26 14 27 15 28 20 29 16 30 19 31 17 32 18 33
REMARK SMILES IDX 33 34 34 35 35 36 36 37 37 39 38 40 39 41 97 42 40 43 96 44
REMARK SMILES IDX 41 45 42 46 43 47 90 48 44 49 95 50 89 51 91 52 45 53 94 54
REMARK SMILES IDX 88 55 87 56 46 58 76 59 57 60 75 61 58 62 61 63 74 64 92 65
REMARK SMILES IDX 59 66 60 67 73 69 93 70 62 71 47 72 48 73 56 74 49 75 55 76
REMARK SMILES IDX 50 77 51 78 52 79 53 80 54 81 77 82 78 83 86 84 79 85 85 86
REMARK SMILES IDX 80 87 81 88 82 89 83 90 84 91 63 92 64 93 72 94 65 95 71 96
REMARK SMILES IDX 66 97 67 98 68 99 69 100 70 101
REMARK H PARENT 30 6 35 38 91 57 61 68
REMARK Flexibility Score: inf
ROOT
ATOM      1  C   UNL A   1      33.453  32.885  27.939  1.00  0.00     0.023 C 
ENDROOT
BRANCH   1   2
ATOM      2  C   UNL A   1      34.523  31.824  27.621  1.00  0.00     0.116 C 
BRANCH   2   3
ATOM      3  N   UNL A   1      33.989  30.582  27.055  1.00  0.00    -0.356 N 
ATOM      4  O   UNL A   1      35.731  29.251  27.761  1.00  0.00    -0.275 OA
ATOM      5  C   UNL A   1      34.655  29.375  27.181  1.00  0.00     0.221 C 
ATOM      6  H   UNL A   1      33.133  30.608  26.571  1.00  0.00     0.163 HD
BRANCH   5   7
ATOM      7  C   UNL A   1      33.974  28.175  26.550  1.00  0.00     0.122 C 
BRANCH   7   8
ATOM      8  C   UNL A   1      32.454  28.222  26.708  1.00  0.00     0.137 C 
BRANCH   8   9
ATOM      9  N   UNL A   1      31.701  27.349  25.803  1.00  0.00    -0.292 N 
ATOM     10  C   UNL A   1      31.263  26.097  26.241  1.00  0.00     0.267 C 
ATOM     11  C   UNL A   1      31.156  27.783  24.609  1.00  0.00     0.148 C 
ATOM     12  O   UNL A   1      31.315  25.694  27.388  1.00  0.00    -0.268 OA
ATOM     13  C   UNL A   1      30.689  25.358  25.075  1.00  0.00     0.093 C 
ATOM     14  S   UNL A   1      29.992  26.591  24.064  1.00  0.00    -0.053 SA
ATOM     15  S   UNL A   1      31.474  29.173  23.749  1.00  0.00    -0.052 S 
ATOM     16  C   UNL A   1      31.230  24.188  24.671  1.00  0.00     0.069 C 
ATOM     17  C   UNL A   1      31.985  23.212  25.567  1.00  0.00     0.260 C 
ATOM     18  C   UNL A   1      31.749  23.985  23.302  1.00  0.00     0.012 A 
ATOM     19  O   UNL A   1      31.857  23.070  26.752  1.00  0.00    -0.269 OA
ATOM     20  N   UNL A   1      32.930  22.584  24.734  1.00  0.00    -0.303 N 
ATOM     21  C   UNL A   1      32.864  23.150  23.451  1.00  0.00     0.052 A 
ATOM     22  C   UNL A   1      31.536  24.701  22.126  1.00  0.00     0.011 A 
ATOM     23  C   UNL A   1      33.848  23.173  22.502  1.00  0.00     0.027 A 
ATOM     24  C   UNL A   1      32.595  24.849  21.254  1.00  0.00     0.001 A 
ATOM     25  C   UNL A   1      33.764  24.155  21.507  1.00  0.00     0.002 A 
BRANCH  20  26
ATOM     26  C   UNL A   1      33.989  21.726  25.261  1.00  0.00     0.161 C 
BRANCH  26  27
ATOM     27  C   UNL A   1      33.830  20.220  25.136  1.00  0.00    -0.028 A 
ATOM     28  C   UNL A   1      32.582  19.598  25.313  1.00  0.00     0.007 A 
ATOM     29  C   UNL A   1      34.904  19.420  24.713  1.00  0.00     0.007 A 
ATOM     30  C   UNL A   1      32.426  18.217  25.124  1.00  0.00     0.021 A 
ATOM     31  C   UNL A   1      34.741  18.042  24.497  1.00  0.00     0.021 A 
ATOM     32  C   UNL A   1      33.508  17.441  24.728  1.00  0.00     0.041 A 
ATOM     33  Cl  UNL A   1      33.313  15.743  24.543  1.00  0.00    -0.084 Cl
ENDBRANCH  26  27
ENDBRANCH  20  26
ENDBRANCH   8   9
ENDBRANCH   7   8
ENDBRANCH   5   7
ENDBRANCH   2   3
ENDBRANCH   1   2
BRANCH   1  34
ATOM     34  C   UNL A   1      33.938  34.348  28.088  1.00  0.00     0.023 C 
BRANCH  34  35
ATOM     35  C   UNL A   1      34.029  34.946  29.518  1.00  0.00     0.116 C 
BRANCH  35  36
ATOM     36  N   UNL A   1      33.976  33.967  30.646  1.00  0.00    -0.352 N 
ATOM     37  C   UNL A   1      34.659  32.958  31.308  1.00  0.00     0.251 C 
ATOM     38  H   UNL A   1      33.112  34.087  31.101  1.00  0.00     0.163 HD
ATOM     39  O   UNL A   1      34.144  32.608  32.378  1.00  0.00    -0.269 OA
BRANCH  37  40
ATOM     40  C   UNL A   1      35.840  32.143  30.876  1.00  0.00     0.039 A 
ATOM     41  C   UNL A   1      36.122  30.840  31.248  1.00  0.00     0.014 A 
ATOM     42  C   UNL A   1      36.677  32.671  29.882  1.00  0.00     0.014 A 
ATOM     43  C   UNL A   1      37.392  30.256  30.934  1.00  0.00     0.010 A 
ATOM     44  C   UNL A   1      37.883  32.037  29.478  1.00  0.00     0.010 A 
ATOM     45  C   UNL A   1      38.343  30.859  30.083  1.00  0.00    -0.014 A 
BRANCH  45  46
ATOM     46  C   UNL A   1      39.770  30.334  29.844  1.00  0.00     0.031 A 
ATOM     47  C   UNL A   1      41.008  31.191  30.166  1.00  0.00     0.074 A 
ATOM     48  C   UNL A   1      40.071  29.087  29.403  1.00  0.00     0.049 A 
ATOM     49  N   UNL A   1      42.261  31.057  29.778  1.00  0.00    -0.248 NA
ATOM     50  C   UNL A   1      40.805  32.341  31.051  1.00  0.00     0.031 C 
ATOM     51  C   UNL A   1      39.120  28.018  29.116  1.00  0.00     0.029 A 
ATOM     52  N   UNL A   1      41.299  28.494  29.141  1.00  0.00    -0.354 N 
ATOM     53  C   UNL A   1      42.956  32.159  30.285  1.00  0.00     0.074 A 
ATOM     54  C   UNL A   1      41.991  32.934  31.024  1.00  0.00     0.031 C 
ATOM     55  C   UNL A   1      39.787  26.892  28.827  1.00  0.00     0.029 A 
ATOM     56  C   UNL A   1      41.218  27.177  28.745  1.00  0.00     0.049 A 
ATOM     57  H   UNL A   1      42.153  28.974  29.230  1.00  0.00     0.167 HD
ATOM     58  C   UNL A   1      44.265  32.508  30.174  1.00  0.00     0.031 A 
ATOM     59  C   UNL A   1      42.143  26.291  28.306  1.00  0.00     0.031 A 
ATOM     60  C   UNL A   1      45.295  31.690  29.582  1.00  0.00     0.049 A 
ATOM     61  C   UNL A   1      43.585  26.685  28.128  1.00  0.00     0.074 A 
ATOM     62  C   UNL A   1      46.643  31.985  29.426  1.00  0.00     0.029 A 
ATOM     63  N   UNL A   1      45.120  30.403  29.112  1.00  0.00    -0.354 N 
ATOM     64  N   UNL A   1      44.175  27.812  28.436  1.00  0.00    -0.248 NA
ATOM     65  C   UNL A   1      44.481  25.693  27.506  1.00  0.00     0.031 C 
ATOM     66  C   UNL A   1      47.272  30.894  28.825  1.00  0.00     0.029 A 
ATOM     67  C   UNL A   1      46.329  29.894  28.665  1.00  0.00     0.049 A 
ATOM     68  H   UNL A   1      44.263  29.917  29.099  1.00  0.00     0.167 HD
ATOM     69  C   UNL A   1      45.505  27.663  28.051  1.00  0.00     0.074 A 
ATOM     70  C   UNL A   1      45.646  26.330  27.510  1.00  0.00     0.031 C 
ATOM     71  C   UNL A   1      46.509  28.569  28.132  1.00  0.00     0.031 A 
BRANCH  58  72
ATOM     72  C   UNL A   1      44.716  33.864  30.686  1.00  0.00    -0.014 A 
ATOM     73  C   UNL A   1      45.176  33.969  32.017  1.00  0.00     0.010 A 
ATOM     74  C   UNL A   1      44.536  35.042  29.941  1.00  0.00     0.010 A 
ATOM     75  C   UNL A   1      45.411  35.216  32.601  1.00  0.00     0.020 A 
ATOM     76  C   UNL A   1      44.804  36.293  30.512  1.00  0.00     0.020 A 
ATOM     77  C   UNL A   1      45.215  36.374  31.846  1.00  0.00     0.054 A 
BRANCH  77  78
ATOM     78  S   UNL A   1      45.506  37.990  32.623  1.00  0.00     0.124 S 
ATOM     79  O   UNL A   1      44.264  38.700  32.338  1.00  0.00    -0.237 OA
ATOM     80  O   UNL A   1      45.726  37.640  34.024  1.00  0.00    -0.237 OA
ATOM     81  O   UNL A   1      46.689  38.491  31.926  1.00  0.00    -0.744 OA
ENDBRANCH  77  78
ENDBRANCH  58  72
BRANCH  59  82
ATOM     82  C   UNL A   1      41.704  24.908  27.950  1.00  0.00    -0.014 A 
ATOM     83  C   UNL A   1      42.062  23.814  28.762  1.00  0.00     0.010 A 
ATOM     84  C   UNL A   1      40.985  24.670  26.765  1.00  0.00     0.010 A 
ATOM     85  C   UNL A   1      41.798  22.507  28.351  1.00  0.00     0.020 A 
ATOM     86  C   UNL A   1      40.679  23.363  26.371  1.00  0.00     0.020 A 
ATOM     87  C   UNL A   1      41.126  22.290  27.145  1.00  0.00     0.054 A 
BRANCH  87  88
ATOM     88  S   UNL A   1      40.867  20.583  26.590  1.00  0.00     0.124 S 
ATOM     89  O   UNL A   1      39.556  20.675  25.955  1.00  0.00    -0.237 OA
ATOM     90  O   UNL A   1      41.992  20.366  25.684  1.00  0.00    -0.237 OA
ATOM     91  O   UNL A   1      40.910  19.811  27.829  1.00  0.00    -0.744 OA
ENDBRANCH  87  88
ENDBRANCH  59  82
BRANCH  71  92
ATOM     92  C   UNL A   1      47.885  28.191  27.644  1.00  0.00    -0.014 A 
ATOM     93  C   UNL A   1      48.907  27.914  28.573  1.00  0.00     0.010 A 
ATOM     94  C   UNL A   1      48.207  28.249  26.277  1.00  0.00     0.010 A 
ATOM     95  C   UNL A   1      50.229  27.738  28.149  1.00  0.00     0.020 A 
ATOM     96  C   UNL A   1      49.525  28.050  25.846  1.00  0.00     0.020 A 
ATOM     97  C   UNL A   1      50.532  27.820  26.789  1.00  0.00     0.054 A 
BRANCH  97  98
ATOM     98  S   UNL A   1      52.259  27.635  26.261  1.00  0.00     0.124 S 
ATOM     99  O   UNL A   1      52.984  28.319  27.327  1.00  0.00    -0.237 OA
ATOM    100  O   UNL A   1      52.428  26.184  26.216  1.00  0.00    -0.237 OA
ATOM    101  O   UNL A   1      52.293  28.298  24.958  1.00  0.00    -0.744 OA
ENDBRANCH  97  98
ENDBRANCH  71  92
ENDBRANCH  45  46
ENDBRANCH  37  40
ENDBRANCH  35  36
ENDBRANCH  34  35
ENDBRANCH   1  34
TORSDOF 18
ENDMDL
MODEL 3
REMARK VINA RESULT:     -10.8      4.899     10.998
REMARK SMILES O=C(CCN1C(=O)/C(=C2\C(=O)N(Cc3ccc(Cl)cc3)c3ccccc32)SC1=S)NCCCCNC(=O)c1ccc(-c2c3nc(c(-c4ccc(S(=O)(=O)[O-])cc4)c4ccc([nH]4)c(-c4ccc(S(=O)(=O)[O-])cc4)c4nc(c(-c5ccc(S(=O)(=O)[O-])cc5)c5ccc2[nH]5)C=C4)C=C3)cc1
REMARK SMILES IDX 32 1 31 2 30 3 1 4 2 5 3 7 4 8 5 9 6 10 28 11 7 12 8 13
REMARK SMILES IDX 27 14 29 15 9 16 10 17 26 18 11 19 12 20 21 21 25 22 22 23
REMARK SMILES IDX 24 24 23 25 13 26 14 27 15 28 20 29 16 30 19 31 17 32 18 33
REMARK SMILES IDX 33 34 34 35 35 36 36 37 37 39 38 40 39 41 97 42 40 43 96 44
REMARK SMILES IDX 41 45 42 46 43 47 90 48 44 49 95 50 89 51 91 52 45 53 94 54
REMARK SMILES IDX 88 55 87 56 46 58 76 59 57 60 75 61 58 62 61 63 74 64 92 65
REMARK SMILES IDX 59 66 60 67 73 69 93 70 62 71 47 72 48 73 56 74 49 75 55 76
REMARK SMILES IDX 50 77 51 78 52 79 53 80 54 81 77 82 78 83 86 84 79 85 85 86
REMARK SMILES IDX 80 87 81 88 82 89 83 90 84 91 63 92 64 93 72 94 65 95 71 96
REMARK SMILES IDX 66 97 67 98 68 99 69 100 70 101
REMARK H PARENT 30 6 35 38 91 57 61 68
REMARK Flexibility Score: inf
ROOT
ATOM      1  C   UNL A   1      38.555  32.175  34.579  1.00  0.00     0.023 C 
ENDROOT
BRANCH   1   2
ATOM      2  C   UNL A   1      38.824  31.175  35.719  1.00  0.00     0.116 C 
BRANCH   2   3
ATOM      3  N   UNL A   1      39.621  30.011  35.322  1.00  0.00    -0.356 N 
ATOM      4  O   UNL A   1      41.664  31.018  35.661  1.00  0.00    -0.275 OA
ATOM      5  C   UNL A   1      41.005  30.035  35.331  1.00  0.00     0.221 C 
ATOM      6  H   UNL A   1      39.158  29.190  35.040  1.00  0.00     0.163 HD
BRANCH   5   7
ATOM      7  C   UNL A   1      41.692  28.752  34.903  1.00  0.00     0.122 C 
BRANCH   7   8
ATOM      8  C   UNL A   1      42.046  27.859  36.091  1.00  0.00     0.137 C 
BRANCH   8   9
ATOM      9  N   UNL A   1      43.066  26.840  35.830  1.00  0.00    -0.292 N 
ATOM     10  C   UNL A   1      44.404  27.211  35.677  1.00  0.00     0.267 C 
ATOM     11  C   UNL A   1      42.842  25.484  35.982  1.00  0.00     0.148 C 
ATOM     12  O   UNL A   1      44.856  28.321  35.892  1.00  0.00    -0.268 OA
ATOM     13  C   UNL A   1      45.185  26.011  35.247  1.00  0.00     0.093 C 
ATOM     14  S   UNL A   1      44.390  24.664  36.005  1.00  0.00    -0.053 SA
ATOM     15  S   UNL A   1      41.399  24.665  36.125  1.00  0.00    -0.052 S 
ATOM     16  C   UNL A   1      45.838  26.007  34.064  1.00  0.00     0.069 C 
ATOM     17  C   UNL A   1      46.373  27.245  33.349  1.00  0.00     0.260 C 
ATOM     18  C   UNL A   1      45.569  25.002  33.014  1.00  0.00     0.012 A 
ATOM     19  O   UNL A   1      46.704  28.283  33.851  1.00  0.00    -0.269 OA
ATOM     20  N   UNL A   1      46.304  26.948  31.974  1.00  0.00    -0.303 N 
ATOM     21  C   UNL A   1      45.706  25.691  31.801  1.00  0.00     0.052 A 
ATOM     22  C   UNL A   1      44.934  23.763  33.072  1.00  0.00     0.011 A 
ATOM     23  C   UNL A   1      45.053  25.227  30.693  1.00  0.00     0.027 A 
ATOM     24  C   UNL A   1      44.148  23.385  32.005  1.00  0.00     0.001 A 
ATOM     25  C   UNL A   1      44.149  24.172  30.868  1.00  0.00     0.002 A 
BRANCH  20  26
ATOM     26  C   UNL A   1      46.535  27.960  30.945  1.00  0.00     0.161 C 
BRANCH  26  27
ATOM     27  C   UNL A   1      47.959  28.429  30.698  1.00  0.00    -0.028 A 
ATOM     28  C   UNL A   1      48.346  29.756  30.948  1.00  0.00     0.007 A 
ATOM     29  C   UNL A   1      48.961  27.514  30.334  1.00  0.00     0.007 A 
ATOM     30  C   UNL A   1      49.678  30.166  30.788  1.00  0.00     0.021 A 
ATOM     31  C   UNL A   1      50.299  27.918  30.202  1.00  0.00     0.021 A 
ATOM     32  C   UNL A   1      50.649  29.249  30.405  1.00  0.00     0.041 A 
ATOM     33  Cl  UNL A   1      52.269  29.774  30.171  1.00  0.00    -0.084 Cl
ENDBRANCH  26  27
ENDBRANCH  20  26
ENDBRANCH   8   9
ENDBRANCH   7   8
ENDBRANCH   5   7
ENDBRANCH   2   3
ENDBRANCH   1   2
BRANCH   1  34
ATOM     34  C   UNL A   1      37.107  32.706  34.437  1.00  0.00     0.023 C 
BRANCH  34  35
ATOM     35  C   UNL A   1      36.466  32.711  33.023  1.00  0.00     0.116 C 
BRANCH  35  36
ATOM     36  N   UNL A   1      36.299  31.378  32.370  1.00  0.00    -0.352 N 
ATOM     37  C   UNL A   1      36.942  30.365  31.673  1.00  0.00     0.251 C 
ATOM     38  H   UNL A   1      35.358  31.112  32.477  1.00  0.00     0.163 HD
ATOM     39  O   UNL A   1      36.272  29.332  31.538  1.00  0.00    -0.269 OA
BRANCH  37  40
ATOM     40  C   UNL A   1      38.255  30.368  30.951  1.00  0.00     0.039 A 
ATOM     41  C   UNL A   1      38.475  30.757  29.642  1.00  0.00     0.014 A 
ATOM     42  C   UNL A   1      39.415  30.101  31.695  1.00  0.00     0.014 A 
ATOM     43  C   UNL A   1      39.738  30.507  29.014  1.00  0.00     0.010 A 
ATOM     44  C   UNL A   1      40.696  29.967  31.093  1.00  0.00     0.010 A 
ATOM     45  C   UNL A   1      40.880  30.049  29.706  1.00  0.00    -0.014 A 
BRANCH  45  46
ATOM     46  C   UNL A   1      42.203  29.629  29.042  1.00  0.00     0.031 A 
ATOM     47  C   UNL A   1      42.388  28.229  28.427  1.00  0.00     0.074 A 
ATOM     48  C   UNL A   1      43.278  30.440  28.881  1.00  0.00     0.049 A 
ATOM     49  N   UNL A   1      43.488  27.586  28.088  1.00  0.00    -0.248 NA
ATOM     50  C   UNL A   1      41.170  27.464  28.148  1.00  0.00     0.031 C 
ATOM     51  C   UNL A   1      43.367  31.845  29.264  1.00  0.00     0.029 A 
ATOM     52  N   UNL A   1      44.521  30.190  28.314  1.00  0.00    -0.354 N 
ATOM     53  C   UNL A   1      43.092  26.315  27.662  1.00  0.00     0.074 A 
ATOM     54  C   UNL A   1      41.653  26.290  27.764  1.00  0.00     0.031 C 
ATOM     55  C   UNL A   1      44.530  32.354  28.834  1.00  0.00     0.029 A 
ATOM     56  C   UNL A   1      45.359  31.284  28.283  1.00  0.00     0.049 A 
ATOM     57  H   UNL A   1      44.781  29.308  27.965  1.00  0.00     0.167 HD
ATOM     58  C   UNL A   1      43.826  25.263  27.213  1.00  0.00     0.031 A 
ATOM     59  C   UNL A   1      46.654  31.439  27.922  1.00  0.00     0.031 A 
ATOM     60  C   UNL A   1      45.243  25.293  26.945  1.00  0.00     0.049 A 
ATOM     61  C   UNL A   1      47.490  30.269  27.476  1.00  0.00     0.074 A 
ATOM     62  C   UNL A   1      46.055  24.259  26.499  1.00  0.00     0.029 A 
ATOM     63  N   UNL A   1      46.046  26.413  27.030  1.00  0.00    -0.354 N 
ATOM     64  N   UNL A   1      47.128  29.028  27.271  1.00  0.00    -0.248 NA
ATOM     65  C   UNL A   1      48.925  30.516  27.247  1.00  0.00     0.031 C 
ATOM     66  C   UNL A   1      47.356  24.744  26.354  1.00  0.00     0.029 A 
ATOM     67  C   UNL A   1      47.341  26.096  26.648  1.00  0.00     0.049 A 
ATOM     68  H   UNL A   1      45.745  27.306  27.317  1.00  0.00     0.167 HD
ATOM     69  C   UNL A   1      48.284  28.352  26.887  1.00  0.00     0.074 A 
ATOM     70  C   UNL A   1      49.356  29.320  26.861  1.00  0.00     0.031 C 
ATOM     71  C   UNL A   1      48.430  27.036  26.599  1.00  0.00     0.031 A 
BRANCH  58  72
ATOM     72  C   UNL A   1      43.141  23.928  26.978  1.00  0.00    -0.014 A 
ATOM     73  C   UNL A   1      43.056  23.011  28.047  1.00  0.00     0.010 A 
ATOM     74  C   UNL A   1      42.739  23.510  25.698  1.00  0.00     0.010 A 
ATOM     75  C   UNL A   1      42.621  21.699  27.838  1.00  0.00     0.020 A 
ATOM     76  C   UNL A   1      42.269  22.206  25.490  1.00  0.00     0.020 A 
ATOM     77  C   UNL A   1      42.238  21.302  26.557  1.00  0.00     0.054 A 
BRANCH  77  78
ATOM     78  S   UNL A   1      41.692  19.589  26.294  1.00  0.00     0.124 S 
ATOM     79  O   UNL A   1      42.425  19.210  25.090  1.00  0.00    -0.237 OA
ATOM     80  O   UNL A   1      42.112  18.924  27.525  1.00  0.00    -0.237 OA
ATOM     81  O   UNL A   1      40.244  19.717  26.134  1.00  0.00    -0.744 OA
ENDBRANCH  77  78
ENDBRANCH  58  72
BRANCH  59  82
ATOM     82  C   UNL A   1      47.271  32.797  28.014  1.00  0.00    -0.014 A 
ATOM     83  C   UNL A   1      47.278  33.655  26.897  1.00  0.00     0.010 A 
ATOM     84  C   UNL A   1      47.912  33.211  29.195  1.00  0.00     0.010 A 
ATOM     85  C   UNL A   1      47.993  34.853  26.927  1.00  0.00     0.020 A 
ATOM     86  C   UNL A   1      48.593  34.431  29.243  1.00  0.00     0.020 A 
ATOM     87  C   UNL A   1      48.665  35.223  28.094  1.00  0.00     0.054 A 
BRANCH  87  88
ATOM     88  S   UNL A   1      49.656  36.741  28.082  1.00  0.00     0.124 S 
ATOM     89  O   UNL A   1      48.720  37.709  28.648  1.00  0.00    -0.237 OA
ATOM     90  O   UNL A   1      50.790  36.391  28.932  1.00  0.00    -0.237 OA
ATOM     91  O   UNL A   1      49.974  36.930  26.669  1.00  0.00    -0.744 OA
ENDBRANCH  87  88
ENDBRANCH  59  82
BRANCH  71  92
ATOM     92  C   UNL A   1      49.789  26.513  26.207  1.00  0.00    -0.014 A 
ATOM     93  C   UNL A   1      50.610  25.900  27.173  1.00  0.00     0.010 A 
ATOM     94  C   UNL A   1      50.313  26.756  24.925  1.00  0.00     0.010 A 
ATOM     95  C   UNL A   1      51.938  25.570  26.877  1.00  0.00     0.020 A 
ATOM     96  C   UNL A   1      51.634  26.406  24.618  1.00  0.00     0.020 A 
ATOM     97  C   UNL A   1      52.445  25.838  25.604  1.00  0.00     0.054 A 
BRANCH  97  98
ATOM     98  S   UNL A   1      54.183  25.447  25.252  1.00  0.00     0.124 S 
ATOM     99  O   UNL A   1      54.273  24.047  25.657  1.00  0.00    -0.237 OA
ATOM    100  O   UNL A   1      54.284  25.695  23.816  1.00  0.00    -0.237 OA
ATOM    101  O   UNL A   1      54.924  26.387  26.092  1.00  0.00    -0.744 OA
ENDBRANCH  97  98
ENDBRANCH  71  92
ENDBRANCH  45  46
ENDBRANCH  37  40
ENDBRANCH  35  36
ENDBRANCH  34  35
ENDBRANCH   1  34
TORSDOF 18
ENDMDL
