MODEL 1
REMARK VINA RESULT:      -9.2      0.000      0.000
REMARK SMILES CC[C@@H]1CCc2c(sc(NC(=O)COCC(=O)NCCCCNC(=O)c3ccc(-c4c5nc(c(-c6ccc(S(=O)(=O)[O-])cc6)c6ccc([nH]6)c(-c6ccc(S(=O)(=O)[O-])cc6)c6nc(c(-c7ccc(S(=O)(=O)[O-])cc7)c7ccc4[nH]7)C=C6)C=C5)cc3)c2C(N)=O)C1
REMARK SMILES IDX 19 1 18 2 16 3 17 4 15 6 14 7 13 8 11 9 10 10 12 12 9 13
REMARK SMILES IDX 3 14 4 15 90 16 5 17 7 18 6 19 8 20 86 21 2 22 1 23 87 24
REMARK SMILES IDX 88 25 89 26 20 29 21 30 22 31 23 32 24 33 25 35 26 36 27 37
REMARK SMILES IDX 85 38 28 39 84 40 29 41 30 42 31 43 78 44 32 45 83 46 77 47
REMARK SMILES IDX 79 48 33 49 82 50 76 51 75 52 34 54 64 55 45 56 63 57 46 58
REMARK SMILES IDX 49 59 62 60 80 61 47 62 48 63 61 65 81 66 50 67 35 68 36 69
REMARK SMILES IDX 44 70 37 71 43 72 38 73 39 74 40 75 41 76 42 77 65 78 66 79
REMARK SMILES IDX 74 80 67 81 73 82 68 83 69 84 70 85 71 86 72 87 51 88 52 89
REMARK SMILES IDX 60 90 53 91 59 92 54 93 55 94 56 95 57 96 58 97
REMARK H PARENT 18 5 10 11 88 27 88 28 23 34 79 53 49 64
REMARK Flexibility Score: inf
ROOT
ATOM      1  C   UNL A   1      45.001  22.008  24.273  1.00  0.00     0.116 C 
ENDROOT
BRANCH   1   2
ATOM      2  N   UNL A   1      45.118  20.825  23.437  1.00  0.00    -0.354 N 
ATOM      3  C   UNL A   1      44.787  19.535  23.741  1.00  0.00     0.246 C 
ATOM      4  O   UNL A   1      44.951  18.656  22.894  1.00  0.00    -0.272 OA
ATOM      5  H   UNL A   1      45.482  20.972  22.534  1.00  0.00     0.163 HD
BRANCH   3   6
ATOM      6  C   UNL A   1      44.226  19.214  25.125  1.00  0.00     0.260 C 
BRANCH   6   7
ATOM      7  O   UNL A   1      42.809  19.266  25.154  1.00  0.00    -0.362 OA
BRANCH   7   8
ATOM      8  C   UNL A   1      42.306  20.389  25.850  1.00  0.00     0.261 C 
BRANCH   8   9
ATOM      9  C   UNL A   1      41.939  20.090  27.290  1.00  0.00     0.251 C 
ATOM     10  N   UNL A   1      41.696  21.034  28.233  1.00  0.00    -0.315 N 
ATOM     11  H   UNL A   1      41.414  20.631  29.086  1.00  0.00     0.170 HD
ATOM     12  O   UNL A   1      41.846  18.910  27.660  1.00  0.00    -0.272 OA
BRANCH  10  13
ATOM     13  C   UNL A   1      41.740  22.406  28.307  1.00  0.00     0.108 A 
ATOM     14  C   UNL A   1      40.684  27.061  27.193  1.00  0.00    -0.006 C 
ATOM     15  C   UNL A   1      41.518  27.241  28.478  1.00  0.00     0.009 C 
ATOM     16  C   UNL A   1      39.924  25.717  27.196  1.00  0.00     0.050 C 
ATOM     17  C   UNL A   1      42.479  26.087  28.812  1.00  0.00     0.038 C 
ATOM     18  C   UNL A   1      40.759  24.601  27.731  1.00  0.00     0.011 A 
ATOM     19  C   UNL A   1      41.924  24.735  28.449  1.00  0.00    -0.019 A 
ATOM     20  S   UNL A   1      40.301  22.986  27.558  1.00  0.00    -0.122 S 
ATOM     21  C   UNL A   1      42.533  23.447  28.767  1.00  0.00     0.077 A 
BRANCH  14  22
ATOM     22  C   UNL A   1      41.443  27.339  25.876  1.00  0.00     0.000 C 
ATOM     23  C   UNL A   1      41.739  28.783  25.509  1.00  0.00     0.004 C 
ENDBRANCH  14  22
BRANCH  21  24
ATOM     24  C   UNL A   1      43.797  23.403  29.489  1.00  0.00     0.251 C 
ATOM     25  N   UNL A   1      44.908  23.172  28.731  1.00  0.00    -0.365 N 
ATOM     26  O   UNL A   1      43.866  23.424  30.706  1.00  0.00    -0.269 OA
ATOM     27  H   UNL A   1      44.839  23.157  27.749  1.00  0.00     0.159 HD
ATOM     28  H   UNL A   1      45.778  23.022  29.166  1.00  0.00     0.159 HD
ENDBRANCH  21  24
ENDBRANCH  10  13
ENDBRANCH   8   9
ENDBRANCH   7   8
ENDBRANCH   6   7
ENDBRANCH   3   6
ENDBRANCH   1   2
BRANCH   1  29
ATOM     29  C   UNL A   1      46.345  22.696  24.510  1.00  0.00     0.023 C 
BRANCH  29  30
ATOM     30  C   UNL A   1      46.284  24.185  24.841  1.00  0.00     0.023 C 
BRANCH  30  31
ATOM     31  C   UNL A   1      47.629  24.881  24.999  1.00  0.00     0.116 C 
BRANCH  31  32
ATOM     32  N   UNL A   1      47.886  25.877  23.973  1.00  0.00    -0.352 N 
ATOM     33  C   UNL A   1      47.572  27.218  23.970  1.00  0.00     0.251 C 
ATOM     34  H   UNL A   1      48.349  25.549  23.169  1.00  0.00     0.163 HD
ATOM     35  O   UNL A   1      47.766  27.892  22.962  1.00  0.00    -0.269 OA
BRANCH  33  36
ATOM     36  C   UNL A   1      46.960  27.837  25.169  1.00  0.00     0.039 A 
ATOM     37  C   UNL A   1      45.579  27.732  25.354  1.00  0.00     0.014 A 
ATOM     38  C   UNL A   1      47.742  28.503  26.118  1.00  0.00     0.014 A 
ATOM     39  C   UNL A   1      44.993  28.230  26.521  1.00  0.00     0.010 A 
ATOM     40  C   UNL A   1      47.170  28.927  27.315  1.00  0.00     0.010 A 
ATOM     41  C   UNL A   1      45.788  28.799  27.530  1.00  0.00    -0.014 A 
BRANCH  41  42
ATOM     42  C   UNL A   1      45.199  29.282  28.807  1.00  0.00     0.031 A 
ATOM     43  C   UNL A   1      44.687  30.695  28.912  1.00  0.00     0.074 A 
ATOM     44  C   UNL A   1      45.181  28.478  29.889  1.00  0.00     0.049 A 
ATOM     45  N   UNL A   1      44.223  31.329  29.958  1.00  0.00    -0.248 NA
ATOM     46  C   UNL A   1      44.726  31.509  27.686  1.00  0.00     0.031 C 
ATOM     47  C   UNL A   1      45.680  27.100  29.935  1.00  0.00     0.029 A 
ATOM     48  N   UNL A   1      44.733  28.708  31.168  1.00  0.00    -0.354 N 
ATOM     49  C   UNL A   1      43.938  32.619  29.523  1.00  0.00     0.074 A 
ATOM     50  C   UNL A   1      44.323  32.690  28.131  1.00  0.00     0.031 C 
ATOM     51  C   UNL A   1      45.487  26.602  31.167  1.00  0.00     0.029 A 
ATOM     52  C   UNL A   1      44.892  27.633  32.012  1.00  0.00     0.049 A 
ATOM     53  H   UNL A   1      44.337  29.562  31.453  1.00  0.00     0.167 HD
ATOM     54  C   UNL A   1      43.384  33.645  30.211  1.00  0.00     0.031 A 
ATOM     55  C   UNL A   1      44.595  27.494  33.319  1.00  0.00     0.031 A 
ATOM     56  C   UNL A   1      42.974  33.568  31.587  1.00  0.00     0.049 A 
ATOM     57  C   UNL A   1      43.978  28.649  34.061  1.00  0.00     0.074 A 
ATOM     58  C   UNL A   1      42.360  34.540  32.359  1.00  0.00     0.029 A 
ATOM     59  N   UNL A   1      43.130  32.454  32.397  1.00  0.00    -0.354 N 
ATOM     60  N   UNL A   1      43.673  29.845  33.616  1.00  0.00    -0.248 NA
ATOM     61  C   UNL A   1      43.654  28.431  35.479  1.00  0.00     0.031 C 
ATOM     62  C   UNL A   1      42.177  34.025  33.645  1.00  0.00     0.029 A 
ATOM     63  C   UNL A   1      42.631  32.716  33.662  1.00  0.00     0.049 A 
ATOM     64  H   UNL A   1      43.534  31.601  32.114  1.00  0.00     0.167 HD
ATOM     65  C   UNL A   1      43.093  30.510  34.692  1.00  0.00     0.074 A 
ATOM     66  C   UNL A   1      43.079  29.581  35.802  1.00  0.00     0.031 C 
ATOM     67  C   UNL A   1      42.614  31.777  34.753  1.00  0.00     0.031 A 
BRANCH  54  68
ATOM     68  C   UNL A   1      43.178  34.943  29.478  1.00  0.00    -0.014 A 
ATOM     69  C   UNL A   1      41.991  35.189  28.763  1.00  0.00     0.010 A 
ATOM     70  C   UNL A   1      44.159  35.949  29.542  1.00  0.00     0.010 A 
ATOM     71  C   UNL A   1      41.805  36.401  28.095  1.00  0.00     0.020 A 
ATOM     72  C   UNL A   1      43.964  37.175  28.897  1.00  0.00     0.020 A 
ATOM     73  C   UNL A   1      42.794  37.387  28.166  1.00  0.00     0.054 A 
BRANCH  73  74
ATOM     74  S   UNL A   1      42.510  38.965  27.317  1.00  0.00     0.124 S 
ATOM     75  O   UNL A   1      41.340  38.659  26.498  1.00  0.00    -0.237 OA
ATOM     76  O   UNL A   1      42.278  39.888  28.425  1.00  0.00    -0.237 OA
ATOM     77  O   UNL A   1      43.749  39.187  26.574  1.00  0.00    -0.744 OA
ENDBRANCH  73  74
ENDBRANCH  54  68
BRANCH  55  78
ATOM     78  C   UNL A   1      44.868  26.207  34.016  1.00  0.00    -0.014 A 
ATOM     79  C   UNL A   1      46.043  26.041  34.770  1.00  0.00     0.010 A 
ATOM     80  C   UNL A   1      43.962  25.136  33.918  1.00  0.00     0.010 A 
ATOM     81  C   UNL A   1      46.322  24.817  35.389  1.00  0.00     0.020 A 
ATOM     82  C   UNL A   1      44.224  23.920  34.557  1.00  0.00     0.020 A 
ATOM     83  C   UNL A   1      45.411  23.764  35.275  1.00  0.00     0.054 A 
BRANCH  83  84
ATOM     84  S   UNL A   1      45.778  22.195  36.109  1.00  0.00     0.124 S 
ATOM     85  O   UNL A   1      44.804  21.293  35.501  1.00  0.00    -0.237 OA
ATOM     86  O   UNL A   1      47.173  21.960  35.747  1.00  0.00    -0.237 OA
ATOM     87  O   UNL A   1      45.554  22.500  37.521  1.00  0.00    -0.744 OA
ENDBRANCH  83  84
ENDBRANCH  55  78
BRANCH  67  88
ATOM     88  C   UNL A   1      41.991  32.221  36.048  1.00  0.00    -0.014 A 
ATOM     89  C   UNL A   1      40.595  32.261  36.210  1.00  0.00     0.010 A 
ATOM     90  C   UNL A   1      42.820  32.548  37.138  1.00  0.00     0.010 A 
ATOM     91  C   UNL A   1      40.038  32.651  37.431  1.00  0.00     0.020 A 
ATOM     92  C   UNL A   1      42.267  32.913  38.367  1.00  0.00     0.020 A 
ATOM     93  C   UNL A   1      40.878  32.976  38.502  1.00  0.00     0.054 A 
BRANCH  93  94
ATOM     94  S   UNL A   1      40.132  33.435  40.090  1.00  0.00     0.124 S 
ATOM     95  O   UNL A   1      38.826  33.941  39.677  1.00  0.00    -0.237 OA
ATOM     96  O   UNL A   1      40.115  32.169  40.817  1.00  0.00    -0.237 OA
ATOM     97  O   UNL A   1      41.049  34.440  40.625  1.00  0.00    -0.744 OA
ENDBRANCH  93  94
ENDBRANCH  67  88
ENDBRANCH  41  42
ENDBRANCH  33  36
ENDBRANCH  31  32
ENDBRANCH  30  31
ENDBRANCH  29  30
ENDBRANCH   1  29
TORSDOF 20
ENDMDL
MODEL 2
REMARK VINA RESULT:      -9.1      0.391      8.008
REMARK SMILES CC[C@@H]1CCc2c(sc(NC(=O)COCC(=O)NCCCCNC(=O)c3ccc(-c4c5nc(c(-c6ccc(S(=O)(=O)[O-])cc6)c6ccc([nH]6)c(-c6ccc(S(=O)(=O)[O-])cc6)c6nc(c(-c7ccc(S(=O)(=O)[O-])cc7)c7ccc4[nH]7)C=C6)C=C5)cc3)c2C(N)=O)C1
REMARK SMILES IDX 19 1 18 2 16 3 17 4 15 6 14 7 13 8 11 9 10 10 12 12 9 13
REMARK SMILES IDX 3 14 4 15 90 16 5 17 7 18 6 19 8 20 86 21 2 22 1 23 87 24
REMARK SMILES IDX 88 25 89 26 20 29 21 30 22 31 23 32 24 33 25 35 26 36 27 37
REMARK SMILES IDX 85 38 28 39 84 40 29 41 30 42 31 43 78 44 32 45 83 46 77 47
REMARK SMILES IDX 79 48 33 49 82 50 76 51 75 52 34 54 64 55 45 56 63 57 46 58
REMARK SMILES IDX 49 59 62 60 80 61 47 62 48 63 61 65 81 66 50 67 35 68 36 69
REMARK SMILES IDX 44 70 37 71 43 72 38 73 39 74 40 75 41 76 42 77 65 78 66 79
REMARK SMILES IDX 74 80 67 81 73 82 68 83 69 84 70 85 71 86 72 87 51 88 52 89
REMARK SMILES IDX 60 90 53 91 59 92 54 93 55 94 56 95 57 96 58 97
REMARK H PARENT 18 5 10 11 88 27 88 28 23 34 79 53 49 64
REMARK Flexibility Score: inf
ROOT
ATOM      1  C   UNL A   1      44.927  22.026  24.216  1.00  0.00     0.116 C 
ENDROOT
BRANCH   1   2
ATOM      2  N   UNL A   1      45.058  20.842  23.382  1.00  0.00    -0.354 N 
ATOM      3  C   UNL A   1      44.752  19.547  23.694  1.00  0.00     0.246 C 
ATOM      4  O   UNL A   1      44.924  18.669  22.848  1.00  0.00    -0.272 OA
ATOM      5  H   UNL A   1      45.413  20.992  22.476  1.00  0.00     0.163 HD
BRANCH   3   6
ATOM      6  C   UNL A   1      44.207  19.221  25.083  1.00  0.00     0.260 C 
BRANCH   6   7
ATOM      7  O   UNL A   1      42.790  19.242  25.120  1.00  0.00    -0.362 OA
BRANCH   7   8
ATOM      8  C   UNL A   1      42.267  20.334  25.849  1.00  0.00     0.261 C 
BRANCH   8   9
ATOM      9  C   UNL A   1      42.121  20.054  27.333  1.00  0.00     0.251 C 
ATOM     10  N   UNL A   1      41.983  21.010  28.285  1.00  0.00    -0.315 N 
ATOM     11  H   UNL A   1      41.841  20.616  29.176  1.00  0.00     0.170 HD
ATOM     12  O   UNL A   1      42.122  18.880  27.731  1.00  0.00    -0.272 OA
BRANCH  10  13
ATOM     13  C   UNL A   1      41.990  22.384  28.330  1.00  0.00     0.108 A 
ATOM     14  C   UNL A   1      40.712  26.981  27.209  1.00  0.00    -0.006 C 
ATOM     15  C   UNL A   1      41.633  27.213  28.425  1.00  0.00     0.009 C 
ATOM     16  C   UNL A   1      39.996  25.615  27.294  1.00  0.00     0.050 C 
ATOM     17  C   UNL A   1      42.651  26.095  28.708  1.00  0.00     0.038 C 
ATOM     18  C   UNL A   1      40.902  24.536  27.787  1.00  0.00     0.011 A 
ATOM     19  C   UNL A   1      42.113  24.720  28.413  1.00  0.00    -0.019 A 
ATOM     20  S   UNL A   1      40.482  22.905  27.679  1.00  0.00    -0.122 S 
ATOM     21  C   UNL A   1      42.783  23.457  28.709  1.00  0.00     0.077 A 
BRANCH  14  22
ATOM     22  C   UNL A   1      41.363  27.254  25.834  1.00  0.00     0.000 C 
ATOM     23  C   UNL A   1      41.810  28.671  25.519  1.00  0.00     0.004 C 
ENDBRANCH  14  22
BRANCH  21  24
ATOM     24  C   UNL A   1      44.097  23.465  29.336  1.00  0.00     0.251 C 
ATOM     25  N   UNL A   1      45.152  23.204  28.510  1.00  0.00    -0.365 N 
ATOM     26  O   UNL A   1      44.256  23.556  30.541  1.00  0.00    -0.269 OA
ATOM     27  H   UNL A   1      45.011  23.133  27.539  1.00  0.00     0.159 HD
ATOM     28  H   UNL A   1      46.054  23.087  28.887  1.00  0.00     0.159 HD
ENDBRANCH  21  24
ENDBRANCH  10  13
ENDBRANCH   8   9
ENDBRANCH   7   8
ENDBRANCH   6   7
ENDBRANCH   3   6
ENDBRANCH   1   2
BRANCH   1  29
ATOM     29  C   UNL A   1      46.268  22.709  24.482  1.00  0.00     0.023 C 
BRANCH  29  30
ATOM     30  C   UNL A   1      46.197  24.151  24.977  1.00  0.00     0.023 C 
BRANCH  30  31
ATOM     31  C   UNL A   1      47.535  24.850  25.167  1.00  0.00     0.116 C 
BRANCH  31  32
ATOM     32  N   UNL A   1      47.854  25.784  24.100  1.00  0.00    -0.352 N 
ATOM     33  C   UNL A   1      47.624  27.140  24.038  1.00  0.00     0.251 C 
ATOM     34  H   UNL A   1      48.296  25.393  23.312  1.00  0.00     0.163 HD
ATOM     35  O   UNL A   1      47.859  27.756  23.003  1.00  0.00    -0.269 OA
BRANCH  33  36
ATOM     36  C   UNL A   1      47.051  27.847  25.208  1.00  0.00     0.039 A 
ATOM     37  C   UNL A   1      45.667  27.816  25.405  1.00  0.00     0.014 A 
ATOM     38  C   UNL A   1      47.870  28.522  26.117  1.00  0.00     0.014 A 
ATOM     39  C   UNL A   1      45.115  28.399  26.550  1.00  0.00     0.010 A 
ATOM     40  C   UNL A   1      47.328  29.033  27.294  1.00  0.00     0.010 A 
ATOM     41  C   UNL A   1      45.944  28.980  27.523  1.00  0.00    -0.014 A 
BRANCH  41  42
ATOM     42  C   UNL A   1      45.388  29.554  28.778  1.00  0.00     0.031 A 
ATOM     43  C   UNL A   1      45.277  28.697  30.012  1.00  0.00     0.074 A 
ATOM     44  C   UNL A   1      44.922  30.819  28.793  1.00  0.00     0.049 A 
ATOM     45  N   UNL A   1      44.740  28.984  31.170  1.00  0.00    -0.248 NA
ATOM     46  C   UNL A   1      45.818  27.330  29.924  1.00  0.00     0.031 C 
ATOM     47  C   UNL A   1      44.934  31.744  27.656  1.00  0.00     0.029 A 
ATOM     48  N   UNL A   1      44.338  31.545  29.802  1.00  0.00    -0.354 N 
ATOM     49  C   UNL A   1      44.858  27.830  31.938  1.00  0.00     0.074 A 
ATOM     50  C   UNL A   1      45.475  26.826  31.100  1.00  0.00     0.031 C 
ATOM     51  C   UNL A   1      44.407  32.920  28.038  1.00  0.00     0.029 A 
ATOM     52  C   UNL A   1      43.981  32.821  29.431  1.00  0.00     0.049 A 
ATOM     53  H   UNL A   1      44.187  31.185  30.706  1.00  0.00     0.167 HD
ATOM     54  C   UNL A   1      44.506  27.630  33.231  1.00  0.00     0.031 A 
ATOM     55  C   UNL A   1      43.375  33.801  30.131  1.00  0.00     0.031 A 
ATOM     56  C   UNL A   1      43.918  28.635  34.073  1.00  0.00     0.049 A 
ATOM     57  C   UNL A   1      42.997  33.554  31.567  1.00  0.00     0.074 A 
ATOM     58  C   UNL A   1      43.570  28.542  35.410  1.00  0.00     0.029 A 
ATOM     59  N   UNL A   1      43.597  29.921  33.665  1.00  0.00    -0.354 N 
ATOM     60  N   UNL A   1      43.162  32.470  32.287  1.00  0.00    -0.248 NA
ATOM     61  C   UNL A   1      42.361  34.667  32.288  1.00  0.00     0.031 C 
ATOM     62  C   UNL A   1      43.005  29.760  35.800  1.00  0.00     0.029 A 
ATOM     63  C   UNL A   1      43.047  30.627  34.721  1.00  0.00     0.049 A 
ATOM     64  H   UNL A   1      43.740  30.278  32.759  1.00  0.00     0.167 HD
ATOM     65  C   UNL A   1      42.678  32.782  33.554  1.00  0.00     0.074 A 
ATOM     66  C   UNL A   1      42.227  34.157  33.504  1.00  0.00     0.031 C 
ATOM     67  C   UNL A   1      42.614  32.000  34.659  1.00  0.00     0.031 A 
BRANCH  54  68
ATOM     68  C   UNL A   1      44.761  26.267  33.817  1.00  0.00    -0.014 A 
ATOM     69  C   UNL A   1      43.868  25.204  33.590  1.00  0.00     0.010 A 
ATOM     70  C   UNL A   1      45.929  26.032  34.563  1.00  0.00     0.010 A 
ATOM     71  C   UNL A   1      44.119  23.941  34.129  1.00  0.00     0.020 A 
ATOM     72  C   UNL A   1      46.198  24.761  35.082  1.00  0.00     0.020 A 
ATOM     73  C   UNL A   1      45.283  23.728  34.873  1.00  0.00     0.054 A 
BRANCH  73  74
ATOM     74  S   UNL A   1      45.601  22.068  35.533  1.00  0.00     0.124 S 
ATOM     75  O   UNL A   1      45.510  22.296  36.974  1.00  0.00    -0.237 OA
ATOM     76  O   UNL A   1      44.516  21.279  34.954  1.00  0.00    -0.237 OA
ATOM     77  O   UNL A   1      46.936  21.746  35.036  1.00  0.00    -0.744 OA
ENDBRANCH  73  74
ENDBRANCH  54  68
BRANCH  55  78
ATOM     78  C   UNL A   1      43.095  35.116  29.491  1.00  0.00    -0.014 A 
ATOM     79  C   UNL A   1      41.934  35.298  28.719  1.00  0.00     0.010 A 
ATOM     80  C   UNL A   1      43.994  36.187  29.638  1.00  0.00     0.010 A 
ATOM     81  C   UNL A   1      41.691  36.519  28.080  1.00  0.00     0.020 A 
ATOM     82  C   UNL A   1      43.742  37.417  29.022  1.00  0.00     0.020 A 
ATOM     83  C   UNL A   1      42.599  37.569  28.234  1.00  0.00     0.054 A 
BRANCH  83  84
ATOM     84  S   UNL A   1      42.252  39.154  27.421  1.00  0.00     0.124 S 
ATOM     85  O   UNL A   1      41.787  39.972  28.538  1.00  0.00    -0.237 OA
ATOM     86  O   UNL A   1      43.552  39.519  26.866  1.00  0.00    -0.237 OA
ATOM     87  O   UNL A   1      41.236  38.811  26.428  1.00  0.00    -0.744 OA
ENDBRANCH  83  84
ENDBRANCH  55  78
BRANCH  67  88
ATOM     88  C   UNL A   1      42.081  32.623  35.920  1.00  0.00    -0.014 A 
ATOM     89  C   UNL A   1      40.714  32.557  36.244  1.00  0.00     0.010 A 
ATOM     90  C   UNL A   1      42.973  33.233  36.820  1.00  0.00     0.010 A 
ATOM     91  C   UNL A   1      40.245  33.120  37.434  1.00  0.00     0.020 A 
ATOM     92  C   UNL A   1      42.512  33.773  38.023  1.00  0.00     0.020 A 
ATOM     93  C   UNL A   1      41.147  33.726  38.316  1.00  0.00     0.054 A 
BRANCH  93  94
ATOM     94  S   UNL A   1      40.521  34.408  39.875  1.00  0.00     0.124 S 
ATOM     95  O   UNL A   1      41.626  35.263  40.298  1.00  0.00    -0.237 OA
ATOM     96  O   UNL A   1      39.309  35.107  39.458  1.00  0.00    -0.237 OA
ATOM     97  O   UNL A   1      40.295  33.225  40.704  1.00  0.00    -0.744 OA
ENDBRANCH  93  94
ENDBRANCH  67  88
ENDBRANCH  41  42
ENDBRANCH  33  36
ENDBRANCH  31  32
ENDBRANCH  30  31
ENDBRANCH  29  30
ENDBRANCH   1  29
TORSDOF 20
ENDMDL
MODEL 3
REMARK VINA RESULT:      -9.1      6.032      9.621
REMARK SMILES CC[C@@H]1CCc2c(sc(NC(=O)COCC(=O)NCCCCNC(=O)c3ccc(-c4c5nc(c(-c6ccc(S(=O)(=O)[O-])cc6)c6ccc([nH]6)c(-c6ccc(S(=O)(=O)[O-])cc6)c6nc(c(-c7ccc(S(=O)(=O)[O-])cc7)c7ccc4[nH]7)C=C6)C=C5)cc3)c2C(N)=O)C1
REMARK SMILES IDX 19 1 18 2 16 3 17 4 15 6 14 7 13 8 11 9 10 10 12 12 9 13
REMARK SMILES IDX 3 14 4 15 90 16 5 17 7 18 6 19 8 20 86 21 2 22 1 23 87 24
REMARK SMILES IDX 88 25 89 26 20 29 21 30 22 31 23 32 24 33 25 35 26 36 27 37
REMARK SMILES IDX 85 38 28 39 84 40 29 41 30 42 31 43 78 44 32 45 83 46 77 47
REMARK SMILES IDX 79 48 33 49 82 50 76 51 75 52 34 54 64 55 45 56 63 57 46 58
REMARK SMILES IDX 49 59 62 60 80 61 47 62 48 63 61 65 81 66 50 67 35 68 36 69
REMARK SMILES IDX 44 70 37 71 43 72 38 73 39 74 40 75 41 76 42 77 65 78 66 79
REMARK SMILES IDX 74 80 67 81 73 82 68 83 69 84 70 85 71 86 72 87 51 88 52 89
REMARK SMILES IDX 60 90 53 91 59 92 54 93 55 94 56 95 57 96 58 97
REMARK H PARENT 18 5 10 11 88 27 88 28 23 34 79 53 49 64
REMARK Flexibility Score: inf
ROOT
ATOM      1  C   UNL A   1      37.222  23.235  25.578  1.00  0.00     0.116 C 
ENDROOT
BRANCH   1   2
ATOM      2  N   UNL A   1      36.265  22.600  26.470  1.00  0.00    -0.354 N 
ATOM      3  C   UNL A   1      35.098  21.966  26.149  1.00  0.00     0.246 C 
ATOM      4  O   UNL A   1      34.414  21.476  27.048  1.00  0.00    -0.272 OA
ATOM      5  H   UNL A   1      36.487  22.629  27.428  1.00  0.00     0.163 HD
BRANCH   3   6
ATOM      6  C   UNL A   1      34.670  21.884  24.685  1.00  0.00     0.260 C 
BRANCH   6   7
ATOM      7  O   UNL A   1      33.788  20.800  24.445  1.00  0.00    -0.362 OA
BRANCH   7   8
ATOM      8  C   UNL A   1      32.426  21.182  24.429  1.00  0.00     0.261 C 
BRANCH   8   9
ATOM      9  C   UNL A   1      31.991  21.804  23.116  1.00  0.00     0.251 C 
ATOM     10  N   UNL A   1      31.724  23.122  22.942  1.00  0.00    -0.315 N 
ATOM     11  H   UNL A   1      31.519  23.330  22.002  1.00  0.00     0.170 HD
ATOM     12  O   UNL A   1      31.865  21.084  22.115  1.00  0.00    -0.272 OA
BRANCH  10  13
ATOM     13  C   UNL A   1      31.665  24.243  23.736  1.00  0.00     0.108 A 
ATOM     14  C   UNL A   1      32.583  28.824  25.219  1.00  0.00    -0.006 C 
ATOM     15  C   UNL A   1      31.477  28.403  26.210  1.00  0.00     0.009 C 
ATOM     16  C   UNL A   1      32.431  28.102  23.862  1.00  0.00     0.050 C 
ATOM     17  C   UNL A   1      31.325  26.888  26.427  1.00  0.00     0.038 C 
ATOM     18  C   UNL A   1      32.057  26.666  24.029  1.00  0.00     0.011 A 
ATOM     19  C   UNL A   1      31.571  26.086  25.177  1.00  0.00    -0.019 A 
ATOM     20  S   UNL A   1      32.134  25.573  22.746  1.00  0.00    -0.122 S 
ATOM     21  C   UNL A   1      31.368  24.647  25.029  1.00  0.00     0.077 A 
BRANCH  14  22
ATOM     22  C   UNL A   1      34.019  28.782  25.785  1.00  0.00     0.000 C 
ATOM     23  C   UNL A   1      34.207  28.952  27.283  1.00  0.00     0.004 C 
ENDBRANCH  14  22
BRANCH  21  24
ATOM     24  C   UNL A   1      30.895  23.863  26.162  1.00  0.00     0.251 C 
ATOM     25  N   UNL A   1      29.592  24.055  26.516  1.00  0.00    -0.365 N 
ATOM     26  O   UNL A   1      31.635  23.182  26.851  1.00  0.00    -0.269 OA
ATOM     27  H   UNL A   1      29.004  24.608  25.952  1.00  0.00     0.159 HD
ATOM     28  H   UNL A   1      29.238  23.641  27.337  1.00  0.00     0.159 HD
ENDBRANCH  21  24
ENDBRANCH  10  13
ENDBRANCH   8   9
ENDBRANCH   7   8
ENDBRANCH   6   7
ENDBRANCH   3   6
ENDBRANCH   1   2
BRANCH   1  29
ATOM     29  C   UNL A   1      38.634  22.670  25.733  1.00  0.00     0.023 C 
BRANCH  29  30
ATOM     30  C   UNL A   1      38.802  21.191  25.392  1.00  0.00     0.023 C 
BRANCH  30  31
ATOM     31  C   UNL A   1      39.319  20.308  26.519  1.00  0.00     0.116 C 
BRANCH  31  32
ATOM     32  N   UNL A   1      40.430  19.459  26.123  1.00  0.00    -0.352 N 
ATOM     33  C   UNL A   1      41.759  19.785  25.977  1.00  0.00     0.251 C 
ATOM     34  H   UNL A   1      40.200  18.521  25.932  1.00  0.00     0.163 HD
ATOM     35  O   UNL A   1      42.547  18.961  25.521  1.00  0.00    -0.269 OA
BRANCH  33  36
ATOM     36  C   UNL A   1      42.231  21.145  26.331  1.00  0.00     0.039 A 
ATOM     37  C   UNL A   1      42.628  21.401  27.647  1.00  0.00     0.014 A 
ATOM     38  C   UNL A   1      42.301  22.159  25.372  1.00  0.00     0.014 A 
ATOM     39  C   UNL A   1      43.161  22.649  27.981  1.00  0.00     0.010 A 
ATOM     40  C   UNL A   1      42.905  23.374  25.687  1.00  0.00     0.010 A 
ATOM     41  C   UNL A   1      43.339  23.635  26.996  1.00  0.00    -0.014 A 
BRANCH  41  42
ATOM     42  C   UNL A   1      43.959  24.949  27.313  1.00  0.00     0.031 A 
ATOM     43  C   UNL A   1      43.106  26.076  27.836  1.00  0.00     0.074 A 
ATOM     44  C   UNL A   1      45.269  25.154  27.070  1.00  0.00     0.049 A 
ATOM     45  N   UNL A   1      43.440  27.317  28.084  1.00  0.00    -0.248 NA
ATOM     46  C   UNL A   1      41.687  25.774  28.089  1.00  0.00     0.031 C 
ATOM     47  C   UNL A   1      46.200  24.160  26.528  1.00  0.00     0.029 A 
ATOM     48  N   UNL A   1      46.046  26.274  27.239  1.00  0.00    -0.354 N 
ATOM     49  C   UNL A   1      42.271  27.947  28.499  1.00  0.00     0.074 A 
ATOM     50  C   UNL A   1      41.212  26.964  28.425  1.00  0.00     0.031 C 
ATOM     51  C   UNL A   1      47.424  24.707  26.434  1.00  0.00     0.029 A 
ATOM     52  C   UNL A   1      47.359  26.099  26.868  1.00  0.00     0.049 A 
ATOM     53  H   UNL A   1      45.695  27.123  27.593  1.00  0.00     0.167 HD
ATOM     54  C   UNL A   1      42.097  29.220  28.926  1.00  0.00     0.031 A 
ATOM     55  C   UNL A   1      48.394  26.963  26.870  1.00  0.00     0.031 A 
ATOM     56  C   UNL A   1      43.154  30.190  29.026  1.00  0.00     0.049 A 
ATOM     57  C   UNL A   1      48.175  28.372  27.352  1.00  0.00     0.074 A 
ATOM     58  C   UNL A   1      43.086  31.492  29.492  1.00  0.00     0.029 A 
ATOM     59  N   UNL A   1      44.473  29.963  28.663  1.00  0.00    -0.354 N 
ATOM     60  N   UNL A   1      47.071  28.932  27.784  1.00  0.00    -0.248 NA
ATOM     61  C   UNL A   1      49.346  29.262  27.355  1.00  0.00     0.031 C 
ATOM     62  C   UNL A   1      44.356  32.064  29.376  1.00  0.00     0.029 A 
ATOM     63  C   UNL A   1      45.225  31.104  28.886  1.00  0.00     0.049 A 
ATOM     64  H   UNL A   1      44.822  29.116  28.302  1.00  0.00     0.167 HD
ATOM     65  C   UNL A   1      47.422  30.231  28.141  1.00  0.00     0.074 A 
ATOM     66  C   UNL A   1      48.841  30.367  27.885  1.00  0.00     0.031 C 
ATOM     67  C   UNL A   1      46.639  31.220  28.637  1.00  0.00     0.031 A 
BRANCH  54  68
ATOM     68  C   UNL A   1      40.707  29.635  29.328  1.00  0.00    -0.014 A 
ATOM     69  C   UNL A   1      39.723  29.902  28.358  1.00  0.00     0.010 A 
ATOM     70  C   UNL A   1      40.365  29.714  30.690  1.00  0.00     0.010 A 
ATOM     71  C   UNL A   1      38.434  30.275  28.741  1.00  0.00     0.020 A 
ATOM     72  C   UNL A   1      39.067  30.061  31.078  1.00  0.00     0.020 A 
ATOM     73  C   UNL A   1      38.114  30.353  30.100  1.00  0.00     0.054 A 
BRANCH  73  74
ATOM     74  S   UNL A   1      36.422  30.808  30.570  1.00  0.00     0.124 S 
ATOM     75  O   UNL A   1      35.921  29.557  31.134  1.00  0.00    -0.237 OA
ATOM     76  O   UNL A   1      36.635  31.889  31.529  1.00  0.00    -0.237 OA
ATOM     77  O   UNL A   1      35.808  31.212  29.307  1.00  0.00    -0.744 OA
ENDBRANCH  73  74
ENDBRANCH  54  68
BRANCH  55  78
ATOM     78  C   UNL A   1      49.740  26.521  26.412  1.00  0.00    -0.014 A 
ATOM     79  C   UNL A   1      50.646  25.942  27.319  1.00  0.00     0.010 A 
ATOM     80  C   UNL A   1      50.129  26.690  25.072  1.00  0.00     0.010 A 
ATOM     81  C   UNL A   1      51.927  25.567  26.901  1.00  0.00     0.020 A 
ATOM     82  C   UNL A   1      51.399  26.293  24.644  1.00  0.00     0.020 A 
ATOM     83  C   UNL A   1      52.296  25.748  25.565  1.00  0.00     0.054 A 
BRANCH  83  84
ATOM     84  S   UNL A   1      53.952  25.228  25.036  1.00  0.00     0.124 S 
ATOM     85  O   UNL A   1      53.721  23.845  24.632  1.00  0.00    -0.237 OA
ATOM     86  O   UNL A   1      54.248  26.163  23.953  1.00  0.00    -0.237 OA
ATOM     87  O   UNL A   1      54.765  25.406  26.238  1.00  0.00    -0.744 OA
ENDBRANCH  83  84
ENDBRANCH  55  78
BRANCH  67  88
ATOM     88  C   UNL A   1      47.305  32.525  28.981  1.00  0.00    -0.014 A 
ATOM     89  C   UNL A   1      47.882  32.738  30.245  1.00  0.00     0.010 A 
ATOM     90  C   UNL A   1      47.403  33.530  28.001  1.00  0.00     0.010 A 
ATOM     91  C   UNL A   1      48.518  33.948  30.533  1.00  0.00     0.020 A 
ATOM     92  C   UNL A   1      48.061  34.730  28.277  1.00  0.00     0.020 A 
ATOM     93  C   UNL A   1      48.603  34.938  29.548  1.00  0.00     0.054 A 
BRANCH  93  94
ATOM     94  S   UNL A   1      49.474  36.481  29.931  1.00  0.00     0.124 S 
ATOM     95  O   UNL A   1      48.785  36.927  31.139  1.00  0.00    -0.237 OA
ATOM     96  O   UNL A   1      50.852  36.036  30.122  1.00  0.00    -0.237 OA
ATOM     97  O   UNL A   1      49.252  37.307  28.746  1.00  0.00    -0.744 OA
ENDBRANCH  93  94
ENDBRANCH  67  88
ENDBRANCH  41  42
ENDBRANCH  33  36
ENDBRANCH  31  32
ENDBRANCH  30  31
ENDBRANCH  29  30
ENDBRANCH   1  29
TORSDOF 20
ENDMDL
