MODEL 1
REMARK VINA RESULT:     -10.8      0.000      0.000
REMARK SMILES C[C@H](CNC(=O)N1C[C@H]2CCCC[N@@H+]2C[C@@H]1C)C(=O)NCCCCNC(=O)c1ccc(-c2c3nc(c(-c4ccc(S(=O)(=O)[O-])cc4)c4ccc([nH]4)c(-c4ccc(S(=O)(=O)[O-])cc4)c4nc(c(-c5ccc(S(=O)(=O)[O-])cc5)c5ccc2[nH]5)C=C4)C=C3)cc1
REMARK SMILES IDX 22 1 21 2 20 3 18 4 19 5 2 7 1 8 3 9 4 10 5 11 6 13 7 14
REMARK SMILES IDX 8 15 16 16 9 17 15 18 17 19 10 20 14 21 11 22 13 23 12 25
REMARK SMILES IDX 23 26 24 27 25 28 26 29 27 31 28 32 29 33 87 34 30 35 86 36
REMARK SMILES IDX 31 37 32 38 33 39 80 40 34 41 85 42 79 43 81 44 35 45 84 46
REMARK SMILES IDX 78 47 77 48 36 50 66 51 47 52 65 53 48 54 51 55 64 56 82 57
REMARK SMILES IDX 49 58 50 59 63 61 83 62 52 63 37 64 38 65 46 66 39 67 45 68
REMARK SMILES IDX 40 69 41 70 42 71 43 72 44 73 67 74 68 75 76 76 69 77 75 78
REMARK SMILES IDX 70 79 71 80 72 81 73 82 74 83 53 84 54 85 62 86 55 87 61 88
REMARK SMILES IDX 56 89 57 90 58 91 59 92 60 93
REMARK H PARENT 20 6 4 12 14 24 25 30 81 49 51 60
REMARK Flexibility Score: inf
ROOT
ATOM      1  C   UNL A   1      32.484  29.082  24.881  1.00  0.00     0.023 C 
ENDROOT
BRANCH   1   2
ATOM      2  C   UNL A   1      31.342  28.078  24.738  1.00  0.00     0.116 C 
BRANCH   2   3
ATOM      3  N   UNL A   1      31.251  27.573  23.381  1.00  0.00    -0.356 N 
ATOM      4  C   UNL A   1      31.788  26.465  22.809  1.00  0.00     0.224 C 
ATOM      5  O   UNL A   1      31.597  26.301  21.600  1.00  0.00    -0.275 OA
ATOM      6  H   UNL A   1      30.710  28.127  22.772  1.00  0.00     0.163 HD
BRANCH   4   7
ATOM      7  C   UNL A   1      32.613  25.448  23.585  1.00  0.00     0.094 C 
ATOM      8  C   UNL A   1      33.972  25.125  22.970  1.00  0.00     0.020 C 
BRANCH   7   9
ATOM      9  C   UNL A   1      31.793  24.250  24.089  1.00  0.00     0.130 C 
BRANCH   9  10
ATOM     10  N   UNL A   1      31.495  24.200  25.514  1.00  0.00    -0.337 N 
ATOM     11  C   UNL A   1      31.948  23.380  26.503  1.00  0.00     0.318 C 
ATOM     12  H   UNL A   1      30.851  24.880  25.816  1.00  0.00     0.165 HD
ATOM     13  O   UNL A   1      31.270  23.242  27.517  1.00  0.00    -0.249 OA
BRANCH  11  14
ATOM     14  N   UNL A   1      33.137  22.743  26.294  1.00  0.00    -0.311 N 
ATOM     15  C   UNL A   1      34.312  23.314  26.938  1.00  0.00     0.186 C 
ATOM     16  C   UNL A   1      33.236  21.282  26.105  1.00  0.00     0.139 C 
ATOM     17  C   UNL A   1      35.528  23.082  26.048  1.00  0.00     0.203 C 
ATOM     18  C   UNL A   1      34.635  20.885  25.505  1.00  0.00     0.287 C 
ATOM     19  C   UNL A   1      32.159  20.702  25.174  1.00  0.00     0.037 C 
ATOM     20  C   UNL A   1      36.719  23.886  26.569  1.00  0.00     0.067 C 
ATOM     21  N   UNL A   1      35.825  21.633  25.993  1.00  0.00    -0.329 N 
ATOM     22  C   UNL A   1      37.928  23.662  25.672  1.00  0.00     0.012 C 
ATOM     23  C   UNL A   1      36.979  21.379  25.115  1.00  0.00     0.262 C 
ATOM     24  H   UNL A   1      36.056  21.311  26.933  1.00  0.00     0.348 HD
ATOM     25  C   UNL A   1      38.218  22.170  25.547  1.00  0.00     0.062 C 
ENDBRANCH  11  14
ENDBRANCH   9  10
ENDBRANCH   7   9
ENDBRANCH   4   7
ENDBRANCH   2   3
ENDBRANCH   1   2
BRANCH   1  26
ATOM     26  C   UNL A   1      33.699  28.579  25.643  1.00  0.00     0.023 C 
BRANCH  26  27
ATOM     27  C   UNL A   1      33.577  28.656  27.154  1.00  0.00     0.116 C 
BRANCH  27  28
ATOM     28  N   UNL A   1      33.528  30.019  27.668  1.00  0.00    -0.352 N 
ATOM     29  C   UNL A   1      34.527  30.731  28.290  1.00  0.00     0.251 C 
ATOM     30  H   UNL A   1      32.672  30.491  27.554  1.00  0.00     0.163 HD
ATOM     31  O   UNL A   1      34.312  31.849  28.748  1.00  0.00    -0.269 OA
BRANCH  29  32
ATOM     32  C   UNL A   1      35.851  30.099  28.440  1.00  0.00     0.039 A 
ATOM     33  C   UNL A   1      36.756  30.160  27.379  1.00  0.00     0.014 A 
ATOM     34  C   UNL A   1      36.226  29.547  29.668  1.00  0.00     0.014 A 
ATOM     35  C   UNL A   1      38.071  29.741  27.579  1.00  0.00     0.010 A 
ATOM     36  C   UNL A   1      37.557  29.224  29.890  1.00  0.00     0.010 A 
ATOM     37  C   UNL A   1      38.493  29.315  28.849  1.00  0.00    -0.014 A 
BRANCH  37  38
ATOM     38  C   UNL A   1      39.904  28.944  29.116  1.00  0.00     0.031 A 
ATOM     39  C   UNL A   1      40.838  29.960  29.715  1.00  0.00     0.074 A 
ATOM     40  C   UNL A   1      40.363  27.732  28.744  1.00  0.00     0.049 A 
ATOM     41  N   UNL A   1      42.123  29.868  29.936  1.00  0.00    -0.248 NA
ATOM     42  C   UNL A   1      40.258  31.265  30.076  1.00  0.00     0.031 C 
ATOM     43  C   UNL A   1      39.569  26.679  28.102  1.00  0.00     0.029 A 
ATOM     44  N   UNL A   1      41.616  27.182  28.847  1.00  0.00    -0.354 N 
ATOM     45  C   UNL A   1      42.508  31.110  30.429  1.00  0.00     0.074 A 
ATOM     46  C   UNL A   1      41.334  31.953  30.426  1.00  0.00     0.031 C 
ATOM     47  C   UNL A   1      40.346  25.601  27.903  1.00  0.00     0.029 A 
ATOM     48  C   UNL A   1      41.699  25.897  28.363  1.00  0.00     0.049 A 
ATOM     49  H   UNL A   1      42.384  27.663  29.232  1.00  0.00     0.167 HD
ATOM     50  C   UNL A   1      43.726  31.507  30.866  1.00  0.00     0.031 A 
ATOM     51  C   UNL A   1      42.747  25.054  28.299  1.00  0.00     0.031 A 
ATOM     52  C   UNL A   1      44.881  30.654  30.907  1.00  0.00     0.049 A 
ATOM     53  C   UNL A   1      44.082  25.506  28.823  1.00  0.00     0.074 A 
ATOM     54  C   UNL A   1      46.141  30.935  31.404  1.00  0.00     0.029 A 
ATOM     55  N   UNL A   1      44.912  29.348  30.442  1.00  0.00    -0.354 N 
ATOM     56  N   UNL A   1      44.412  26.664  29.346  1.00  0.00    -0.248 NA
ATOM     57  C   UNL A   1      45.183  24.536  28.761  1.00  0.00     0.031 C 
ATOM     58  C   UNL A   1      46.947  29.809  31.205  1.00  0.00     0.029 A 
ATOM     59  C   UNL A   1      46.175  28.813  30.627  1.00  0.00     0.049 A 
ATOM     60  H   UNL A   1      44.150  28.873  30.039  1.00  0.00     0.167 HD
ATOM     61  C   UNL A   1      45.751  26.551  29.699  1.00  0.00     0.074 A 
ATOM     62  C   UNL A   1      46.167  25.210  29.341  1.00  0.00     0.031 C 
ATOM     63  C   UNL A   1      46.565  27.473  30.268  1.00  0.00     0.031 A 
BRANCH  50  64
ATOM     64  C   UNL A   1      43.861  32.930  31.340  1.00  0.00    -0.014 A 
ATOM     65  C   UNL A   1      43.484  33.299  32.644  1.00  0.00     0.010 A 
ATOM     66  C   UNL A   1      44.391  33.906  30.477  1.00  0.00     0.010 A 
ATOM     67  C   UNL A   1      43.591  34.628  33.062  1.00  0.00     0.020 A 
ATOM     68  C   UNL A   1      44.525  35.231  30.902  1.00  0.00     0.020 A 
ATOM     69  C   UNL A   1      44.106  35.587  32.185  1.00  0.00     0.054 A 
BRANCH  69  70
ATOM     70  S   UNL A   1      44.251  37.301  32.758  1.00  0.00     0.124 S 
ATOM     71  O   UNL A   1      45.662  37.376  33.129  1.00  0.00    -0.237 OA
ATOM     72  O   UNL A   1      43.873  38.070  31.573  1.00  0.00    -0.237 OA
ATOM     73  O   UNL A   1      43.308  37.375  33.870  1.00  0.00    -0.744 OA
ENDBRANCH  69  70
ENDBRANCH  50  64
BRANCH  51  74
ATOM     74  C   UNL A   1      42.570  23.683  27.746  1.00  0.00    -0.014 A 
ATOM     75  C   UNL A   1      42.110  22.641  28.572  1.00  0.00     0.010 A 
ATOM     76  C   UNL A   1      42.850  23.413  26.395  1.00  0.00     0.010 A 
ATOM     77  C   UNL A   1      41.953  21.350  28.061  1.00  0.00     0.020 A 
ATOM     78  C   UNL A   1      42.671  22.127  25.875  1.00  0.00     0.020 A 
ATOM     79  C   UNL A   1      42.236  21.101  26.715  1.00  0.00     0.054 A 
BRANCH  79  80
ATOM     80  S   UNL A   1      41.980  19.426  26.062  1.00  0.00     0.124 S 
ATOM     81  O   UNL A   1      42.794  19.446  24.851  1.00  0.00    -0.237 OA
ATOM     82  O   UNL A   1      42.477  18.583  27.146  1.00  0.00    -0.237 OA
ATOM     83  O   UNL A   1      40.536  19.363  25.847  1.00  0.00    -0.744 OA
ENDBRANCH  79  80
ENDBRANCH  51  74
BRANCH  63  84
ATOM     84  C   UNL A   1      47.976  27.055  30.573  1.00  0.00    -0.014 A 
ATOM     85  C   UNL A   1      49.010  27.258  29.644  1.00  0.00     0.010 A 
ATOM     86  C   UNL A   1      48.278  26.508  31.834  1.00  0.00     0.010 A 
ATOM     87  C   UNL A   1      50.322  26.896  29.961  1.00  0.00     0.020 A 
ATOM     88  C   UNL A   1      49.592  26.167  32.163  1.00  0.00     0.020 A 
ATOM     89  C   UNL A   1      50.604  26.351  31.219  1.00  0.00     0.054 A 
BRANCH  89  90
ATOM     90  S   UNL A   1      52.322  25.935  31.627  1.00  0.00     0.124 S 
ATOM     91  O   UNL A   1      52.624  26.898  32.682  1.00  0.00    -0.237 OA
ATOM     92  O   UNL A   1      52.222  24.542  32.056  1.00  0.00    -0.237 OA
ATOM     93  O   UNL A   1      53.035  26.144  30.369  1.00  0.00    -0.744 OA
ENDBRANCH  89  90
ENDBRANCH  63  84
ENDBRANCH  37  38
ENDBRANCH  29  32
ENDBRANCH  27  28
ENDBRANCH  26  27
ENDBRANCH   1  26
TORSDOF 17
ENDMDL
MODEL 2
REMARK VINA RESULT:     -10.4      2.792      3.560
REMARK SMILES C[C@H](CNC(=O)N1C[C@H]2CCCC[N@@H+]2C[C@@H]1C)C(=O)NCCCCNC(=O)c1ccc(-c2c3nc(c(-c4ccc(S(=O)(=O)[O-])cc4)c4ccc([nH]4)c(-c4ccc(S(=O)(=O)[O-])cc4)c4nc(c(-c5ccc(S(=O)(=O)[O-])cc5)c5ccc2[nH]5)C=C4)C=C3)cc1
REMARK SMILES IDX 22 1 21 2 20 3 18 4 19 5 2 7 1 8 3 9 4 10 5 11 6 13 7 14
REMARK SMILES IDX 8 15 16 16 9 17 15 18 17 19 10 20 14 21 11 22 13 23 12 25
REMARK SMILES IDX 23 26 24 27 25 28 26 29 27 31 28 32 29 33 87 34 30 35 86 36
REMARK SMILES IDX 31 37 32 38 33 39 80 40 34 41 85 42 79 43 81 44 35 45 84 46
REMARK SMILES IDX 78 47 77 48 36 50 66 51 47 52 65 53 48 54 51 55 64 56 82 57
REMARK SMILES IDX 49 58 50 59 63 61 83 62 52 63 37 64 38 65 46 66 39 67 45 68
REMARK SMILES IDX 40 69 41 70 42 71 43 72 44 73 67 74 68 75 76 76 69 77 75 78
REMARK SMILES IDX 70 79 71 80 72 81 73 82 74 83 53 84 54 85 62 86 55 87 61 88
REMARK SMILES IDX 56 89 57 90 58 91 59 92 60 93
REMARK H PARENT 20 6 4 12 14 24 25 30 81 49 51 60
REMARK Flexibility Score: inf
ROOT
ATOM      1  C   UNL A   1      33.550  30.425  27.248  1.00  0.00     0.023 C 
ENDROOT
BRANCH   1   2
ATOM      2  C   UNL A   1      32.097  30.049  26.962  1.00  0.00     0.116 C 
BRANCH   2   3
ATOM      3  N   UNL A   1      31.846  29.966  25.535  1.00  0.00    -0.356 N 
ATOM      4  C   UNL A   1      31.889  28.907  24.687  1.00  0.00     0.224 C 
ATOM      5  O   UNL A   1      31.685  29.130  23.489  1.00  0.00    -0.275 OA
ATOM      6  H   UNL A   1      31.605  30.822  25.110  1.00  0.00     0.163 HD
BRANCH   4   7
ATOM      7  C   UNL A   1      32.189  27.488  25.147  1.00  0.00     0.094 C 
ATOM      8  C   UNL A   1      33.499  26.908  24.619  1.00  0.00     0.020 C 
BRANCH   7   9
ATOM      9  C   UNL A   1      30.967  26.557  25.101  1.00  0.00     0.130 C 
BRANCH   9  10
ATOM     10  N   UNL A   1      30.774  25.655  26.228  1.00  0.00    -0.337 N 
ATOM     11  C   UNL A   1      31.092  24.341  26.399  1.00  0.00     0.318 C 
ATOM     12  H   UNL A   1      30.335  26.068  27.006  1.00  0.00     0.165 HD
ATOM     13  O   UNL A   1      30.480  23.686  27.236  1.00  0.00    -0.249 OA
BRANCH  11  14
ATOM     14  N   UNL A   1      32.076  23.827  25.604  1.00  0.00    -0.311 N 
ATOM     15  C   UNL A   1      33.305  23.409  26.266  1.00  0.00     0.186 C 
ATOM     16  C   UNL A   1      31.789  23.054  24.380  1.00  0.00     0.139 C 
ATOM     17  C   UNL A   1      34.481  23.649  25.325  1.00  0.00     0.203 C 
ATOM     18  C   UNL A   1      33.071  22.931  23.477  1.00  0.00     0.287 C 
ATOM     19  C   UNL A   1      30.676  23.660  23.510  1.00  0.00     0.037 C 
ATOM     20  C   UNL A   1      35.799  23.462  26.077  1.00  0.00     0.067 C 
ATOM     21  N   UNL A   1      34.376  22.735  24.166  1.00  0.00    -0.329 N 
ATOM     22  C   UNL A   1      36.971  23.714  25.140  1.00  0.00     0.012 C 
ATOM     23  C   UNL A   1      35.485  22.968  23.227  1.00  0.00     0.262 C 
ATOM     24  H   UNL A   1      34.431  21.774  24.502  1.00  0.00     0.348 HD
ATOM     25  C   UNL A   1      36.853  22.829  23.903  1.00  0.00     0.062 C 
ENDBRANCH  11  14
ENDBRANCH   9  10
ENDBRANCH   7   9
ENDBRANCH   4   7
ENDBRANCH   2   3
ENDBRANCH   1   2
BRANCH   1  26
ATOM     26  C   UNL A   1      34.538  29.270  27.208  1.00  0.00     0.023 C 
BRANCH  26  27
ATOM     27  C   UNL A   1      35.810  29.495  28.005  1.00  0.00     0.116 C 
BRANCH  27  28
ATOM     28  N   UNL A   1      35.572  29.827  29.404  1.00  0.00    -0.352 N 
ATOM     29  C   UNL A   1      36.496  29.971  30.413  1.00  0.00     0.251 C 
ATOM     30  H   UNL A   1      34.632  29.966  29.659  1.00  0.00     0.163 HD
ATOM     31  O   UNL A   1      36.139  30.171  31.570  1.00  0.00    -0.269 OA
BRANCH  29  32
ATOM     32  C   UNL A   1      37.926  29.830  30.082  1.00  0.00     0.039 A 
ATOM     33  C   UNL A   1      38.787  29.256  31.020  1.00  0.00     0.014 A 
ATOM     34  C   UNL A   1      38.384  30.168  28.805  1.00  0.00     0.014 A 
ATOM     35  C   UNL A   1      40.092  28.942  30.645  1.00  0.00     0.010 A 
ATOM     36  C   UNL A   1      39.650  29.764  28.408  1.00  0.00     0.010 A 
ATOM     37  C   UNL A   1      40.519  29.149  29.323  1.00  0.00    -0.014 A 
BRANCH  37  38
ATOM     38  C   UNL A   1      41.873  28.747  28.870  1.00  0.00     0.031 A 
ATOM     39  C   UNL A   1      42.968  29.777  28.796  1.00  0.00     0.074 A 
ATOM     40  C   UNL A   1      42.094  27.486  28.448  1.00  0.00     0.049 A 
ATOM     41  N   UNL A   1      44.185  29.653  28.339  1.00  0.00    -0.248 NA
ATOM     42  C   UNL A   1      42.635  31.135  29.262  1.00  0.00     0.031 C 
ATOM     43  C   UNL A   1      41.099  26.409  28.418  1.00  0.00     0.029 A 
ATOM     44  N   UNL A   1      43.231  26.896  27.954  1.00  0.00    -0.354 N 
ATOM     45  C   UNL A   1      44.751  30.919  28.430  1.00  0.00     0.074 A 
ATOM     46  C   UNL A   1      43.729  31.807  28.937  1.00  0.00     0.031 C 
ATOM     47  C   UNL A   1      41.679  25.285  27.966  1.00  0.00     0.029 A 
ATOM     48  C   UNL A   1      43.073  25.567  27.637  1.00  0.00     0.049 A 
ATOM     49  H   UNL A   1      44.081  27.379  27.840  1.00  0.00     0.167 HD
ATOM     50  C   UNL A   1      46.015  31.306  28.140  1.00  0.00     0.031 A 
ATOM     51  C   UNL A   1      43.952  24.678  27.137  1.00  0.00     0.031 A 
ATOM     52  C   UNL A   1      47.040  30.413  27.676  1.00  0.00     0.049 A 
ATOM     53  C   UNL A   1      45.360  25.122  26.855  1.00  0.00     0.074 A 
ATOM     54  C   UNL A   1      48.373  30.687  27.426  1.00  0.00     0.029 A 
ATOM     55  N   UNL A   1      46.847  29.067  27.402  1.00  0.00    -0.354 N 
ATOM     56  N   UNL A   1      45.895  26.311  27.009  1.00  0.00    -0.248 NA
ATOM     57  C   UNL A   1      46.288  24.105  26.343  1.00  0.00     0.031 C 
ATOM     58  C   UNL A   1      48.980  29.514  26.966  1.00  0.00     0.029 A 
ATOM     59  C   UNL A   1      48.034  28.500  26.973  1.00  0.00     0.049 A 
ATOM     60  H   UNL A   1      45.994  28.587  27.498  1.00  0.00     0.167 HD
ATOM     61  C   UNL A   1      47.227  26.177  26.638  1.00  0.00     0.074 A 
ATOM     62  C   UNL A   1      47.420  24.791  26.263  1.00  0.00     0.031 C 
ATOM     63  C   UNL A   1      48.204  27.116  26.610  1.00  0.00     0.031 A 
BRANCH  50  64
ATOM     64  C   UNL A   1      46.354  32.762  28.323  1.00  0.00    -0.014 A 
ATOM     65  C   UNL A   1      46.336  33.653  27.236  1.00  0.00     0.010 A 
ATOM     66  C   UNL A   1      46.675  33.247  29.603  1.00  0.00     0.010 A 
ATOM     67  C   UNL A   1      46.678  34.996  27.416  1.00  0.00     0.020 A 
ATOM     68  C   UNL A   1      46.990  34.596  29.792  1.00  0.00     0.020 A 
ATOM     69  C   UNL A   1      47.008  35.457  28.694  1.00  0.00     0.054 A 
BRANCH  69  70
ATOM     70  S   UNL A   1      47.432  37.208  28.904  1.00  0.00     0.124 S 
ATOM     71  O   UNL A   1      48.221  37.180  30.133  1.00  0.00    -0.237 OA
ATOM     72  O   UNL A   1      48.179  37.507  27.684  1.00  0.00    -0.237 OA
ATOM     73  O   UNL A   1      46.133  37.867  29.012  1.00  0.00    -0.744 OA
ENDBRANCH  69  70
ENDBRANCH  50  64
BRANCH  51  74
ATOM     74  C   UNL A   1      43.536  23.268  26.902  1.00  0.00    -0.014 A 
ATOM     75  C   UNL A   1      43.522  22.742  25.597  1.00  0.00     0.010 A 
ATOM     76  C   UNL A   1      43.159  22.442  27.976  1.00  0.00     0.010 A 
ATOM     77  C   UNL A   1      43.121  21.423  25.370  1.00  0.00     0.020 A 
ATOM     78  C   UNL A   1      42.780  21.115  27.754  1.00  0.00     0.020 A 
ATOM     79  C   UNL A   1      42.751  20.618  26.450  1.00  0.00     0.054 A 
BRANCH  79  80
ATOM     80  S   UNL A   1      42.279  18.893  26.136  1.00  0.00     0.124 S 
ATOM     81  O   UNL A   1      42.459  18.285  27.450  1.00  0.00    -0.237 OA
ATOM     82  O   UNL A   1      40.896  19.020  25.681  1.00  0.00    -0.237 OA
ATOM     83  O   UNL A   1      43.226  18.463  25.109  1.00  0.00    -0.744 OA
ENDBRANCH  79  80
ENDBRANCH  51  74
BRANCH  63  84
ATOM     84  C   UNL A   1      49.579  26.670  26.195  1.00  0.00    -0.014 A 
ATOM     85  C   UNL A   1      50.041  26.869  24.883  1.00  0.00     0.010 A 
ATOM     86  C   UNL A   1      50.440  26.101  27.151  1.00  0.00     0.010 A 
ATOM     87  C   UNL A   1      51.335  26.481  24.526  1.00  0.00     0.020 A 
ATOM     88  C   UNL A   1      51.741  25.734  26.804  1.00  0.00     0.020 A 
ATOM     89  C   UNL A   1      52.177  25.914  25.489  1.00  0.00     0.054 A 
BRANCH  89  90
ATOM     90  S   UNL A   1      53.869  25.464  25.016  1.00  0.00     0.124 S 
ATOM     91  O   UNL A   1      54.661  26.171  26.019  1.00  0.00    -0.237 OA
ATOM     92  O   UNL A   1      53.860  24.008  25.134  1.00  0.00    -0.237 OA
ATOM     93  O   UNL A   1      53.992  25.972  23.652  1.00  0.00    -0.744 OA
ENDBRANCH  89  90
ENDBRANCH  63  84
ENDBRANCH  37  38
ENDBRANCH  29  32
ENDBRANCH  27  28
ENDBRANCH  26  27
ENDBRANCH   1  26
TORSDOF 17
ENDMDL
MODEL 3
REMARK VINA RESULT:     -10.1      4.491     10.343
REMARK SMILES C[C@H](CNC(=O)N1C[C@H]2CCCC[N@@H+]2C[C@@H]1C)C(=O)NCCCCNC(=O)c1ccc(-c2c3nc(c(-c4ccc(S(=O)(=O)[O-])cc4)c4ccc([nH]4)c(-c4ccc(S(=O)(=O)[O-])cc4)c4nc(c(-c5ccc(S(=O)(=O)[O-])cc5)c5ccc2[nH]5)C=C4)C=C3)cc1
REMARK SMILES IDX 22 1 21 2 20 3 18 4 19 5 2 7 1 8 3 9 4 10 5 11 6 13 7 14
REMARK SMILES IDX 8 15 16 16 9 17 15 18 17 19 10 20 14 21 11 22 13 23 12 25
REMARK SMILES IDX 23 26 24 27 25 28 26 29 27 31 28 32 29 33 87 34 30 35 86 36
REMARK SMILES IDX 31 37 32 38 33 39 80 40 34 41 85 42 79 43 81 44 35 45 84 46
REMARK SMILES IDX 78 47 77 48 36 50 66 51 47 52 65 53 48 54 51 55 64 56 82 57
REMARK SMILES IDX 49 58 50 59 63 61 83 62 52 63 37 64 38 65 46 66 39 67 45 68
REMARK SMILES IDX 40 69 41 70 42 71 43 72 44 73 67 74 68 75 76 76 69 77 75 78
REMARK SMILES IDX 70 79 71 80 72 81 73 82 74 83 53 84 54 85 62 86 55 87 61 88
REMARK SMILES IDX 56 89 57 90 58 91 59 92 60 93
REMARK H PARENT 20 6 4 12 14 24 25 30 81 49 51 60
REMARK Flexibility Score: inf
ROOT
ATOM      1  C   UNL A   1      40.709  21.287  27.391  1.00  0.00     0.023 C 
ENDROOT
BRANCH   1   2
ATOM      2  C   UNL A   1      39.701  21.408  26.250  1.00  0.00     0.116 C 
BRANCH   2   3
ATOM      3  N   UNL A   1      38.854  22.575  26.417  1.00  0.00    -0.356 N 
ATOM      4  C   UNL A   1      37.749  22.974  25.738  1.00  0.00     0.224 C 
ATOM      5  O   UNL A   1      37.248  24.057  26.056  1.00  0.00    -0.275 OA
ATOM      6  H   UNL A   1      39.127  23.178  27.147  1.00  0.00     0.163 HD
BRANCH   4   7
ATOM      7  C   UNL A   1      37.130  22.160  24.610  1.00  0.00     0.094 C 
ATOM      8  C   UNL A   1      36.718  22.975  23.387  1.00  0.00     0.020 C 
BRANCH   7   9
ATOM      9  C   UNL A   1      36.122  21.107  25.097  1.00  0.00     0.130 C 
BRANCH   9  10
ATOM     10  N   UNL A   1      35.466  21.354  26.374  1.00  0.00    -0.337 N 
ATOM     11  C   UNL A   1      34.470  22.213  26.726  1.00  0.00     0.318 C 
ATOM     12  H   UNL A   1      35.804  20.802  27.115  1.00  0.00     0.165 HD
ATOM     13  O   UNL A   1      34.364  22.550  27.901  1.00  0.00    -0.249 OA
BRANCH  11  14
ATOM     14  N   UNL A   1      33.649  22.662  25.732  1.00  0.00    -0.311 N 
ATOM     15  C   UNL A   1      33.880  24.017  25.249  1.00  0.00     0.186 C 
ATOM     16  C   UNL A   1      33.089  21.770  24.698  1.00  0.00     0.139 C 
ATOM     17  C   UNL A   1      32.546  24.630  24.836  1.00  0.00     0.203 C 
ATOM     18  C   UNL A   1      31.897  22.463  23.941  1.00  0.00     0.287 C 
ATOM     19  C   UNL A   1      32.563  20.434  25.249  1.00  0.00     0.037 C 
ATOM     20  C   UNL A   1      32.718  26.126  24.570  1.00  0.00     0.067 C 
ATOM     21  N   UNL A   1      32.026  23.917  23.648  1.00  0.00    -0.329 N 
ATOM     22  C   UNL A   1      31.384  26.738  24.169  1.00  0.00     0.012 C 
ATOM     23  C   UNL A   1      30.724  24.471  23.247  1.00  0.00     0.262 C 
ATOM     24  H   UNL A   1      32.683  24.042  22.879  1.00  0.00     0.348 HD
ATOM     25  C   UNL A   1      30.794  25.979  22.985  1.00  0.00     0.062 C 
ENDBRANCH  11  14
ENDBRANCH   9  10
ENDBRANCH   7   9
ENDBRANCH   4   7
ENDBRANCH   2   3
ENDBRANCH   1   2
BRANCH   1  26
ATOM     26  C   UNL A   1      42.127  21.721  27.052  1.00  0.00     0.023 C 
BRANCH  26  27
ATOM     27  C   UNL A   1      42.392  23.206  27.217  1.00  0.00     0.116 C 
BRANCH  27  28
ATOM     28  N   UNL A   1      41.987  24.005  26.066  1.00  0.00    -0.352 N 
ATOM     29  C   UNL A   1      41.560  25.312  26.045  1.00  0.00     0.251 C 
ATOM     30  H   UNL A   1      42.025  23.551  25.194  1.00  0.00     0.163 HD
ATOM     31  O   UNL A   1      41.169  25.830  25.004  1.00  0.00    -0.269 OA
BRANCH  29  32
ATOM     32  C   UNL A   1      41.535  26.064  27.314  1.00  0.00     0.039 A 
ATOM     33  C   UNL A   1      42.536  27.004  27.565  1.00  0.00     0.014 A 
ATOM     34  C   UNL A   1      40.461  25.910  28.196  1.00  0.00     0.014 A 
ATOM     35  C   UNL A   1      42.413  27.853  28.664  1.00  0.00     0.010 A 
ATOM     36  C   UNL A   1      40.294  26.821  29.229  1.00  0.00     0.010 A 
ATOM     37  C   UNL A   1      41.269  27.800  29.476  1.00  0.00    -0.014 A 
BRANCH  37  38
ATOM     38  C   UNL A   1      41.068  28.746  30.601  1.00  0.00     0.031 A 
ATOM     39  C   UNL A   1      41.939  28.641  31.824  1.00  0.00     0.074 A 
ATOM     40  C   UNL A   1      40.056  29.636  30.560  1.00  0.00     0.049 A 
ATOM     41  N   UNL A   1      41.864  29.304  32.948  1.00  0.00    -0.248 NA
ATOM     42  C   UNL A   1      43.010  27.630  31.792  1.00  0.00     0.031 C 
ATOM     43  C   UNL A   1      39.107  29.798  29.453  1.00  0.00     0.029 A 
ATOM     44  N   UNL A   1      39.652  30.571  31.479  1.00  0.00    -0.354 N 
ATOM     45  C   UNL A   1      42.852  28.768  33.766  1.00  0.00     0.074 A 
ATOM     46  C   UNL A   1      43.478  27.693  33.029  1.00  0.00     0.031 C 
ATOM     47  C   UNL A   1      38.256  30.795  29.745  1.00  0.00     0.029 A 
ATOM     48  C   UNL A   1      38.571  31.318  31.071  1.00  0.00     0.049 A 
ATOM     49  H   UNL A   1      40.095  30.696  32.349  1.00  0.00     0.167 HD
ATOM     50  C   UNL A   1      43.222  29.151  35.010  1.00  0.00     0.031 A 
ATOM     51  C   UNL A   1      37.909  32.310  31.696  1.00  0.00     0.031 A 
ATOM     52  C   UNL A   1      42.626  30.247  35.722  1.00  0.00     0.049 A 
ATOM     53  C   UNL A   1      38.360  32.741  33.063  1.00  0.00     0.074 A 
ATOM     54  C   UNL A   1      42.978  30.765  36.955  1.00  0.00     0.029 A 
ATOM     55  N   UNL A   1      41.558  31.000  35.258  1.00  0.00    -0.354 N 
ATOM     56  N   UNL A   1      39.340  32.265  33.795  1.00  0.00    -0.248 NA
ATOM     57  C   UNL A   1      37.626  33.850  33.686  1.00  0.00     0.031 C 
ATOM     58  C   UNL A   1      42.098  31.811  37.254  1.00  0.00     0.029 A 
ATOM     59  C   UNL A   1      41.228  31.971  36.186  1.00  0.00     0.049 A 
ATOM     60  H   UNL A   1      41.101  30.863  34.396  1.00  0.00     0.167 HD
ATOM     61  C   UNL A   1      39.356  33.034  34.952  1.00  0.00     0.074 A 
ATOM     62  C   UNL A   1      38.297  34.013  34.819  1.00  0.00     0.031 C 
ATOM     63  C   UNL A   1      40.173  32.940  36.029  1.00  0.00     0.031 A 
BRANCH  50  64
ATOM     64  C   UNL A   1      44.329  28.375  35.673  1.00  0.00    -0.014 A 
ATOM     65  C   UNL A   1      45.672  28.770  35.539  1.00  0.00     0.010 A 
ATOM     66  C   UNL A   1      44.020  27.249  36.457  1.00  0.00     0.010 A 
ATOM     67  C   UNL A   1      46.691  28.026  36.138  1.00  0.00     0.020 A 
ATOM     68  C   UNL A   1      45.035  26.518  37.081  1.00  0.00     0.020 A 
ATOM     69  C   UNL A   1      46.366  26.900  36.902  1.00  0.00     0.054 A 
BRANCH  69  70
ATOM     70  S   UNL A   1      47.706  25.962  37.683  1.00  0.00     0.124 S 
ATOM     71  O   UNL A   1      48.505  25.560  36.528  1.00  0.00    -0.237 OA
ATOM     72  O   UNL A   1      48.326  26.955  38.559  1.00  0.00    -0.237 OA
ATOM     73  O   UNL A   1      47.013  24.876  38.371  1.00  0.00    -0.744 OA
ENDBRANCH  69  70
ENDBRANCH  50  64
BRANCH  51  74
ATOM     74  C   UNL A   1      36.769  32.989  31.020  1.00  0.00    -0.014 A 
ATOM     75  C   UNL A   1      35.481  32.938  31.583  1.00  0.00     0.010 A 
ATOM     76  C   UNL A   1      36.964  33.693  29.818  1.00  0.00     0.010 A 
ATOM     77  C   UNL A   1      34.405  33.563  30.946  1.00  0.00     0.020 A 
ATOM     78  C   UNL A   1      35.894  34.339  29.192  1.00  0.00     0.020 A 
ATOM     79  C   UNL A   1      34.618  34.259  29.754  1.00  0.00     0.054 A 
BRANCH  79  80
ATOM     80  S   UNL A   1      33.215  35.103  28.969  1.00  0.00     0.124 S 
ATOM     81  O   UNL A   1      32.349  35.376  30.110  1.00  0.00    -0.237 OA
ATOM     82  O   UNL A   1      33.847  36.271  28.360  1.00  0.00    -0.237 OA
ATOM     83  O   UNL A   1      32.711  34.112  28.020  1.00  0.00    -0.744 OA
ENDBRANCH  79  80
ENDBRANCH  51  74
BRANCH  63  84
ATOM     84  C   UNL A   1      39.981  33.942  37.133  1.00  0.00    -0.014 A 
ATOM     85  C   UNL A   1      40.395  35.276  36.983  1.00  0.00     0.010 A 
ATOM     86  C   UNL A   1      39.319  33.554  38.313  1.00  0.00     0.010 A 
ATOM     87  C   UNL A   1      40.175  36.201  38.006  1.00  0.00     0.020 A 
ATOM     88  C   UNL A   1      39.076  34.481  39.327  1.00  0.00     0.020 A 
ATOM     89  C   UNL A   1      39.517  35.797  39.173  1.00  0.00     0.054 A 
BRANCH  89  90
ATOM     90  S   UNL A   1      39.196  37.027  40.467  1.00  0.00     0.124 S 
ATOM     91  O   UNL A   1      40.550  37.401  40.870  1.00  0.00    -0.237 OA
ATOM     92  O   UNL A   1      38.445  38.057  39.754  1.00  0.00    -0.237 OA
ATOM     93  O   UNL A   1      38.431  36.285  41.466  1.00  0.00    -0.744 OA
ENDBRANCH  89  90
ENDBRANCH  63  84
ENDBRANCH  37  38
ENDBRANCH  29  32
ENDBRANCH  27  28
ENDBRANCH  26  27
ENDBRANCH   1  26
TORSDOF 17
ENDMDL
