MODEL 1
REMARK VINA RESULT:     -12.4      0.000      0.000
REMARK SMILES O=C(NCCCCNC(=O)c1ccc(-c2c3nc(c(-c4ccc(S(=O)(=O)[O-])cc4)c4ccc([nH]4)c(-c4ccc(S(=O)(=O)[O-])cc4)c4nc(c(-c5ccc(S(=O)(=O)[O-])cc5)c5ccc2[nH]5)C=C4)C=C3)cc1)c1ccc(/C=C/c2ccc3cccc(O)c3n2)cc1
REMARK SMILES IDX 5 1 4 2 3 3 1 4 2 5 71 7 72 8 89 9 73 10 88 11 74 12 75 13
REMARK SMILES IDX 76 14 77 15 78 16 87 17 79 18 86 19 80 20 84 21 81 22 83 23
REMARK SMILES IDX 82 24 85 25 6 27 7 28 8 29 9 30 10 32 11 33 12 34 70 35
REMARK SMILES IDX 13 36 69 37 14 38 15 39 16 40 63 41 17 42 68 43 62 44 64 45
REMARK SMILES IDX 18 46 67 47 61 48 60 49 19 51 49 52 30 53 48 54 31 55 34 56
REMARK SMILES IDX 47 57 65 58 32 59 33 60 46 62 66 63 35 64 20 65 21 66 29 67
REMARK SMILES IDX 22 68 28 69 23 70 24 71 25 72 26 73 27 74 50 75 51 76 59 77
REMARK SMILES IDX 52 78 58 79 53 80 54 81 55 82 56 83 57 84 36 85 37 86 45 87
REMARK SMILES IDX 38 88 44 89 39 90 40 91 41 92 42 93 43 94
REMARK H PARENT 3 6 85 26 8 31 64 50 34 61
REMARK Flexibility Score: inf
ROOT
ATOM      1  C   UNL A   1      32.597  29.625  24.879  1.00  0.00     0.023 C 
ENDROOT
BRANCH   1   2
ATOM      2  C   UNL A   1      31.081  29.811  24.972  1.00  0.00     0.116 C 
BRANCH   2   3
ATOM      3  N   UNL A   1      30.454  29.851  23.666  1.00  0.00    -0.352 N 
ATOM      4  O   UNL A   1      29.988  29.197  21.567  1.00  0.00    -0.269 OA
ATOM      5  C   UNL A   1      30.407  28.899  22.683  1.00  0.00     0.251 C 
ATOM      6  H   UNL A   1      29.990  30.694  23.453  1.00  0.00     0.163 HD
BRANCH   5   7
ATOM      7  C   UNL A   1      30.873  27.520  22.927  1.00  0.00     0.039 A 
ATOM      8  C   UNL A   1      32.044  27.008  22.352  1.00  0.00     0.014 A 
ATOM      9  C   UNL A   1      30.163  26.757  23.851  1.00  0.00     0.014 A 
ATOM     10  C   UNL A   1      32.491  25.718  22.684  1.00  0.00     0.009 A 
ATOM     11  C   UNL A   1      30.612  25.479  24.180  1.00  0.00     0.009 A 
ATOM     12  C   UNL A   1      31.782  24.943  23.607  1.00  0.00    -0.026 A 
BRANCH  12  13
ATOM     13  C   UNL A   1      32.104  23.554  23.965  1.00  0.00     0.010 C 
ATOM     14  C   UNL A   1      32.306  22.461  23.200  1.00  0.00     0.029 C 
BRANCH  14  15
ATOM     15  C   UNL A   1      32.040  21.183  23.914  1.00  0.00     0.064 A 
ATOM     16  C   UNL A   1      32.606  21.186  25.186  1.00  0.00     0.029 A 
ATOM     17  N   UNL A   1      31.971  20.065  23.147  1.00  0.00    -0.245 NA
ATOM     18  C   UNL A   1      33.496  20.164  25.483  1.00  0.00     0.013 A 
ATOM     19  C   UNL A   1      32.764  19.024  23.501  1.00  0.00     0.113 A 
ATOM     20  C   UNL A   1      33.654  19.104  24.587  1.00  0.00     0.004 A 
ATOM     21  C   UNL A   1      32.782  17.846  22.754  1.00  0.00     0.141 A 
ATOM     22  C   UNL A   1      34.676  18.152  24.739  1.00  0.00     0.010 A 
ATOM     23  C   UNL A   1      33.746  16.857  22.939  1.00  0.00     0.048 A 
ATOM     24  C   UNL A   1      34.738  17.045  23.896  1.00  0.00     0.005 A 
BRANCH  21  25
ATOM     25  O   UNL A   1      31.820  17.633  21.796  1.00  0.00    -0.506 OA
ATOM     26  H   UNL A   1      31.108  18.235  21.707  1.00  0.00     0.293 HD
ENDBRANCH  21  25
ENDBRANCH  14  15
ENDBRANCH  12  13
ENDBRANCH   5   7
ENDBRANCH   2   3
ENDBRANCH   1   2
BRANCH   1  27
ATOM     27  C   UNL A   1      33.152  28.355  25.531  1.00  0.00     0.023 C 
BRANCH  27  28
ATOM     28  C   UNL A   1      33.920  28.556  26.832  1.00  0.00     0.116 C 
BRANCH  28  29
ATOM     29  N   UNL A   1      33.756  29.889  27.391  1.00  0.00    -0.352 N 
ATOM     30  C   UNL A   1      34.621  30.631  28.160  1.00  0.00     0.251 C 
ATOM     31  H   UNL A   1      32.896  30.325  27.188  1.00  0.00     0.163 HD
ATOM     32  O   UNL A   1      34.237  31.692  28.643  1.00  0.00    -0.269 OA
BRANCH  30  33
ATOM     33  C   UNL A   1      35.993  30.144  28.432  1.00  0.00     0.039 A 
ATOM     34  C   UNL A   1      36.936  30.182  27.401  1.00  0.00     0.014 A 
ATOM     35  C   UNL A   1      36.352  29.637  29.683  1.00  0.00     0.014 A 
ATOM     36  C   UNL A   1      38.249  29.768  27.642  1.00  0.00     0.010 A 
ATOM     37  C   UNL A   1      37.679  29.300  29.945  1.00  0.00     0.010 A 
ATOM     38  C   UNL A   1      38.641  29.351  28.925  1.00  0.00    -0.014 A 
BRANCH  38  39
ATOM     39  C   UNL A   1      40.044  28.943  29.205  1.00  0.00     0.031 A 
ATOM     40  C   UNL A   1      41.001  29.912  29.852  1.00  0.00     0.074 A 
ATOM     41  C   UNL A   1      40.472  27.714  28.848  1.00  0.00     0.049 A 
ATOM     42  N   UNL A   1      42.267  29.751  30.145  1.00  0.00    -0.248 NA
ATOM     43  C   UNL A   1      40.474  31.243  30.193  1.00  0.00     0.031 C 
ATOM     44  C   UNL A   1      39.660  26.696  28.176  1.00  0.00     0.029 A 
ATOM     45  N   UNL A   1      41.697  27.112  28.999  1.00  0.00    -0.354 N 
ATOM     46  C   UNL A   1      42.684  30.955  30.700  1.00  0.00     0.074 A 
ATOM     47  C   UNL A   1      41.558  31.860  30.640  1.00  0.00     0.031 C 
ATOM     48  C   UNL A   1      40.400  25.589  27.998  1.00  0.00     0.029 A 
ATOM     49  C   UNL A   1      41.747  25.829  28.508  1.00  0.00     0.049 A 
ATOM     50  H   UNL A   1      42.467  27.558  29.420  1.00  0.00     0.167 HD
ATOM     51  C   UNL A   1      43.885  31.274  31.242  1.00  0.00     0.031 A 
ATOM     52  C   UNL A   1      42.762  24.943  28.469  1.00  0.00     0.031 A 
ATOM     53  C   UNL A   1      45.006  30.375  31.305  1.00  0.00     0.049 A 
ATOM     54  C   UNL A   1      44.091  25.326  29.065  1.00  0.00     0.074 A 
ATOM     55  C   UNL A   1      46.259  30.596  31.852  1.00  0.00     0.029 A 
ATOM     56  N   UNL A   1      45.010  29.078  30.813  1.00  0.00    -0.354 N 
ATOM     57  N   UNL A   1      44.449  26.456  29.627  1.00  0.00    -0.248 NA
ATOM     58  C   UNL A   1      45.146  24.304  29.041  1.00  0.00     0.031 C 
ATOM     59  C   UNL A   1      47.032  29.448  31.652  1.00  0.00     0.029 A 
ATOM     60  C   UNL A   1      46.242  28.490  31.039  1.00  0.00     0.049 A 
ATOM     61  H   UNL A   1      44.248  28.642  30.368  1.00  0.00     0.167 HD
ATOM     62  C   UNL A   1      45.758  26.266  30.059  1.00  0.00     0.074 A 
ATOM     63  C   UNL A   1      46.120  24.907  29.708  1.00  0.00     0.031 C 
ATOM     64  C   UNL A   1      46.586  27.134  30.691  1.00  0.00     0.031 A 
BRANCH  51  65
ATOM     65  C   UNL A   1      44.038  32.655  31.826  1.00  0.00    -0.014 A 
ATOM     66  C   UNL A   1      44.489  33.727  31.032  1.00  0.00     0.010 A 
ATOM     67  C   UNL A   1      43.690  32.898  33.167  1.00  0.00     0.010 A 
ATOM     68  C   UNL A   1      44.627  35.005  31.578  1.00  0.00     0.020 A 
ATOM     69  C   UNL A   1      43.796  34.184  33.708  1.00  0.00     0.020 A 
ATOM     70  C   UNL A   1      44.279  35.226  32.914  1.00  0.00     0.054 A 
BRANCH  70  71
ATOM     71  S   UNL A   1      44.438  36.904  33.583  1.00  0.00     0.124 S 
ATOM     72  O   UNL A   1      43.039  37.285  33.774  1.00  0.00    -0.237 OA
ATOM     73  O   UNL A   1      45.201  36.688  34.810  1.00  0.00    -0.237 OA
ATOM     74  O   UNL A   1      45.143  37.632  32.533  1.00  0.00    -0.744 OA
ENDBRANCH  70  71
ENDBRANCH  51  65
BRANCH  52  75
ATOM     75  C   UNL A   1      42.566  23.601  27.852  1.00  0.00    -0.014 A 
ATOM     76  C   UNL A   1      42.070  22.525  28.610  1.00  0.00     0.010 A 
ATOM     77  C   UNL A   1      42.900  23.385  26.503  1.00  0.00     0.010 A 
ATOM     78  C   UNL A   1      41.951  21.252  28.044  1.00  0.00     0.020 A 
ATOM     79  C   UNL A   1      42.752  22.121  25.923  1.00  0.00     0.020 A 
ATOM     80  C   UNL A   1      42.296  21.058  26.703  1.00  0.00     0.054 A 
BRANCH  80  81
ATOM     81  S   UNL A   1      42.121  19.402  25.983  1.00  0.00     0.124 S 
ATOM     82  O   UNL A   1      40.682  19.323  25.753  1.00  0.00    -0.237 OA
ATOM     83  O   UNL A   1      42.951  19.490  24.784  1.00  0.00    -0.237 OA
ATOM     84  O   UNL A   1      42.639  18.521  27.026  1.00  0.00    -0.744 OA
ENDBRANCH  80  81
ENDBRANCH  52  75
BRANCH  64  85
ATOM     85  C   UNL A   1      47.944  26.623  31.097  1.00  0.00    -0.014 A 
ATOM     86  C   UNL A   1      48.164  26.029  32.352  1.00  0.00     0.010 A 
ATOM     87  C   UNL A   1      49.016  26.724  30.190  1.00  0.00     0.010 A 
ATOM     88  C   UNL A   1      49.443  25.595  32.714  1.00  0.00     0.020 A 
ATOM     89  C   UNL A   1      50.288  26.262  30.535  1.00  0.00     0.020 A 
ATOM     90  C   UNL A   1      50.499  25.720  31.805  1.00  0.00     0.054 A 
BRANCH  90  91
ATOM     91  S   UNL A   1      52.146  25.143  32.293  1.00  0.00     0.124 S 
ATOM     92  O   UNL A   1      52.980  25.654  31.209  1.00  0.00    -0.237 OA
ATOM     93  O   UNL A   1      52.341  25.785  33.591  1.00  0.00    -0.237 OA
ATOM     94  O   UNL A   1      52.006  23.690  32.338  1.00  0.00    -0.744 OA
ENDBRANCH  90  91
ENDBRANCH  64  85
ENDBRANCH  38  39
ENDBRANCH  30  33
ENDBRANCH  28  29
ENDBRANCH  27  28
ENDBRANCH   1  27
TORSDOF 17
ENDMDL
MODEL 2
REMARK VINA RESULT:     -12.3      4.468      7.811
REMARK SMILES O=C(NCCCCNC(=O)c1ccc(-c2c3nc(c(-c4ccc(S(=O)(=O)[O-])cc4)c4ccc([nH]4)c(-c4ccc(S(=O)(=O)[O-])cc4)c4nc(c(-c5ccc(S(=O)(=O)[O-])cc5)c5ccc2[nH]5)C=C4)C=C3)cc1)c1ccc(/C=C/c2ccc3cccc(O)c3n2)cc1
REMARK SMILES IDX 5 1 4 2 3 3 1 4 2 5 71 7 72 8 89 9 73 10 88 11 74 12 75 13
REMARK SMILES IDX 76 14 77 15 78 16 87 17 79 18 86 19 80 20 84 21 81 22 83 23
REMARK SMILES IDX 82 24 85 25 6 27 7 28 8 29 9 30 10 32 11 33 12 34 70 35
REMARK SMILES IDX 13 36 69 37 14 38 15 39 16 40 63 41 17 42 68 43 62 44 64 45
REMARK SMILES IDX 18 46 67 47 61 48 60 49 19 51 49 52 30 53 48 54 31 55 34 56
REMARK SMILES IDX 47 57 65 58 32 59 33 60 46 62 66 63 35 64 20 65 21 66 29 67
REMARK SMILES IDX 22 68 28 69 23 70 24 71 25 72 26 73 27 74 50 75 51 76 59 77
REMARK SMILES IDX 52 78 58 79 53 80 54 81 55 82 56 83 57 84 36 85 37 86 45 87
REMARK SMILES IDX 38 88 44 89 39 90 40 91 41 92 42 93 43 94
REMARK H PARENT 3 6 85 26 8 31 64 50 34 61
REMARK Flexibility Score: inf
ROOT
ATOM      1  C   UNL A   1      34.854  32.985  30.603  1.00  0.00     0.023 C 
ENDROOT
BRANCH   1   2
ATOM      2  C   UNL A   1      36.136  33.402  31.328  1.00  0.00     0.116 C 
BRANCH   2   3
ATOM      3  N   UNL A   1      35.866  33.959  32.639  1.00  0.00    -0.352 N 
ATOM      4  O   UNL A   1      35.924  34.114  34.880  1.00  0.00    -0.269 OA
ATOM      5  C   UNL A   1      36.426  33.665  33.853  1.00  0.00     0.251 C 
ATOM      6  H   UNL A   1      35.172  34.658  32.659  1.00  0.00     0.163 HD
BRANCH   5   7
ATOM      7  C   UNL A   1      37.615  32.794  33.959  1.00  0.00     0.039 A 
ATOM      8  C   UNL A   1      38.880  33.288  34.303  1.00  0.00     0.014 A 
ATOM      9  C   UNL A   1      37.420  31.423  33.812  1.00  0.00     0.014 A 
ATOM     10  C   UNL A   1      39.961  32.406  34.476  1.00  0.00     0.009 A 
ATOM     11  C   UNL A   1      38.495  30.553  33.988  1.00  0.00     0.009 A 
ATOM     12  C   UNL A   1      39.777  31.028  34.326  1.00  0.00    -0.026 A 
BRANCH  12  13
ATOM     13  C   UNL A   1      40.846  30.022  34.397  1.00  0.00     0.010 C 
ATOM     14  C   UNL A   1      40.830  28.689  34.188  1.00  0.00     0.029 C 
BRANCH  14  15
ATOM     15  C   UNL A   1      41.924  27.968  34.895  1.00  0.00     0.064 A 
ATOM     16  C   UNL A   1      43.172  28.330  34.396  1.00  0.00     0.029 A 
ATOM     17  N   UNL A   1      41.642  26.709  35.319  1.00  0.00    -0.245 NA
ATOM     18  C   UNL A   1      43.980  27.309  33.917  1.00  0.00     0.013 A 
ATOM     19  C   UNL A   1      42.493  25.725  34.939  1.00  0.00     0.113 A 
ATOM     20  C   UNL A   1      43.597  25.979  34.105  1.00  0.00     0.004 A 
ATOM     21  C   UNL A   1      42.268  24.397  35.303  1.00  0.00     0.141 A 
ATOM     22  C   UNL A   1      44.267  24.918  33.473  1.00  0.00     0.010 A 
ATOM     23  C   UNL A   1      42.972  23.336  34.740  1.00  0.00     0.048 A 
ATOM     24  C   UNL A   1      43.935  23.599  33.770  1.00  0.00     0.005 A 
BRANCH  21  25
ATOM     25  O   UNL A   1      41.319  24.105  36.254  1.00  0.00    -0.506 OA
ATOM     26  H   UNL A   1      40.426  23.978  36.000  1.00  0.00     0.293 HD
ENDBRANCH  21  25
ENDBRANCH  14  15
ENDBRANCH  12  13
ENDBRANCH   5   7
ENDBRANCH   2   3
ENDBRANCH   1   2
BRANCH   1  27
ATOM     27  C   UNL A   1      34.535  33.757  29.321  1.00  0.00     0.023 C 
BRANCH  27  28
ATOM     28  C   UNL A   1      34.767  33.005  28.015  1.00  0.00     0.116 C 
BRANCH  28  29
ATOM     29  N   UNL A   1      33.906  31.842  27.866  1.00  0.00    -0.352 N 
ATOM     30  C   UNL A   1      34.223  30.505  27.905  1.00  0.00     0.251 C 
ATOM     31  H   UNL A   1      32.954  32.044  27.715  1.00  0.00     0.163 HD
ATOM     32  O   UNL A   1      33.363  29.675  27.626  1.00  0.00    -0.269 OA
BRANCH  30  33
ATOM     33  C   UNL A   1      35.595  30.066  28.250  1.00  0.00     0.039 A 
ATOM     34  C   UNL A   1      36.572  30.069  27.251  1.00  0.00     0.014 A 
ATOM     35  C   UNL A   1      35.921  29.639  29.539  1.00  0.00     0.014 A 
ATOM     36  C   UNL A   1      37.884  29.699  27.559  1.00  0.00     0.010 A 
ATOM     37  C   UNL A   1      37.245  29.348  29.864  1.00  0.00     0.010 A 
ATOM     38  C   UNL A   1      38.241  29.364  28.876  1.00  0.00    -0.014 A 
BRANCH  38  39
ATOM     39  C   UNL A   1      39.641  29.005  29.225  1.00  0.00     0.031 A 
ATOM     40  C   UNL A   1      40.523  29.998  29.939  1.00  0.00     0.074 A 
ATOM     41  C   UNL A   1      40.135  27.801  28.871  1.00  0.00     0.049 A 
ATOM     42  N   UNL A   1      41.776  29.880  30.299  1.00  0.00    -0.248 NA
ATOM     43  C   UNL A   1      39.926  31.301  30.274  1.00  0.00     0.031 C 
ATOM     44  C   UNL A   1      39.402  26.764  28.139  1.00  0.00     0.029 A 
ATOM     45  N   UNL A   1      41.373  27.244  29.080  1.00  0.00    -0.354 N 
ATOM     46  C   UNL A   1      42.115  31.089  30.896  1.00  0.00     0.074 A 
ATOM     47  C   UNL A   1      40.959  31.950  30.790  1.00  0.00     0.031 C 
ATOM     48  C   UNL A   1      40.194  25.691  27.984  1.00  0.00     0.029 A 
ATOM     49  C   UNL A   1      41.500  25.972  28.570  1.00  0.00     0.049 A 
ATOM     50  H   UNL A   1      42.101  27.711  29.550  1.00  0.00     0.167 HD
ATOM     51  C   UNL A   1      43.271  31.443  31.508  1.00  0.00     0.031 A 
ATOM     52  C   UNL A   1      42.550  25.127  28.572  1.00  0.00     0.031 A 
ATOM     53  C   UNL A   1      44.422  30.587  31.617  1.00  0.00     0.049 A 
ATOM     54  C   UNL A   1      43.829  25.550  29.247  1.00  0.00     0.074 A 
ATOM     55  C   UNL A   1      45.634  30.846  32.236  1.00  0.00     0.029 A 
ATOM     56  N   UNL A   1      44.503  29.301  31.105  1.00  0.00    -0.354 N 
ATOM     57  N   UNL A   1      44.111  26.682  29.847  1.00  0.00    -0.248 NA
ATOM     58  C   UNL A   1      44.923  24.570  29.264  1.00  0.00     0.031 C 
ATOM     59  C   UNL A   1      46.461  29.732  32.060  1.00  0.00     0.029 A 
ATOM     60  C   UNL A   1      45.744  28.756  31.388  1.00  0.00     0.049 A 
ATOM     61  H   UNL A   1      43.784  28.844  30.612  1.00  0.00     0.167 HD
ATOM     62  C   UNL A   1      45.401  26.534  30.346  1.00  0.00     0.074 A 
ATOM     63  C   UNL A   1      45.835  25.197  29.993  1.00  0.00     0.031 C 
ATOM     64  C   UNL A   1      46.159  27.422  31.037  1.00  0.00     0.031 A 
BRANCH  51  65
ATOM     65  C   UNL A   1      43.338  32.818  32.123  1.00  0.00    -0.014 A 
ATOM     66  C   UNL A   1      43.116  33.002  33.501  1.00  0.00     0.010 A 
ATOM     67  C   UNL A   1      43.666  33.933  31.330  1.00  0.00     0.010 A 
ATOM     68  C   UNL A   1      43.182  34.277  34.066  1.00  0.00     0.020 A 
ATOM     69  C   UNL A   1      43.765  35.206  31.898  1.00  0.00     0.020 A 
ATOM     70  C   UNL A   1      43.506  35.373  33.261  1.00  0.00     0.054 A 
BRANCH  70  71
ATOM     71  S   UNL A   1      43.616  37.011  34.031  1.00  0.00     0.124 S 
ATOM     72  O   UNL A   1      44.830  36.884  34.836  1.00  0.00    -0.237 OA
ATOM     73  O   UNL A   1      43.719  37.900  32.877  1.00  0.00    -0.237 OA
ATOM     74  O   UNL A   1      42.375  37.121  34.792  1.00  0.00    -0.744 OA
ENDBRANCH  70  71
ENDBRANCH  51  65
BRANCH  52  75
ATOM     75  C   UNL A   1      42.441  23.790  27.924  1.00  0.00    -0.014 A 
ATOM     76  C   UNL A   1      42.184  22.638  28.687  1.00  0.00     0.010 A 
ATOM     77  C   UNL A   1      42.619  23.659  26.534  1.00  0.00     0.010 A 
ATOM     78  C   UNL A   1      42.148  21.378  28.082  1.00  0.00     0.020 A 
ATOM     79  C   UNL A   1      42.552  22.406  25.920  1.00  0.00     0.020 A 
ATOM     80  C   UNL A   1      42.336  21.270  26.701  1.00  0.00     0.054 A 
BRANCH  80  81
ATOM     81  S   UNL A   1      42.272  19.627  25.932  1.00  0.00     0.124 S 
ATOM     82  O   UNL A   1      42.510  18.749  27.073  1.00  0.00    -0.237 OA
ATOM     83  O   UNL A   1      40.921  19.592  25.376  1.00  0.00    -0.237 OA
ATOM     84  O   UNL A   1      43.344  19.674  24.941  1.00  0.00    -0.744 OA
ENDBRANCH  80  81
ENDBRANCH  52  75
BRANCH  64  85
ATOM     85  C   UNL A   1      47.512  26.955  31.508  1.00  0.00    -0.014 A 
ATOM     86  C   UNL A   1      47.679  26.297  32.740  1.00  0.00     0.010 A 
ATOM     87  C   UNL A   1      48.636  27.166  30.687  1.00  0.00     0.010 A 
ATOM     88  C   UNL A   1      48.952  25.906  33.165  1.00  0.00     0.020 A 
ATOM     89  C   UNL A   1      49.905  26.747  31.094  1.00  0.00     0.020 A 
ATOM     90  C   UNL A   1      50.059  26.141  32.342  1.00  0.00     0.054 A 
BRANCH  90  91
ATOM     91  S   UNL A   1      51.698  25.618  32.912  1.00  0.00     0.124 S 
ATOM     92  O   UNL A   1      51.387  24.398  33.651  1.00  0.00    -0.237 OA
ATOM     93  O   UNL A   1      52.427  25.425  31.660  1.00  0.00    -0.237 OA
ATOM     94  O   UNL A   1      52.157  26.740  33.727  1.00  0.00    -0.744 OA
ENDBRANCH  90  91
ENDBRANCH  64  85
ENDBRANCH  38  39
ENDBRANCH  30  33
ENDBRANCH  28  29
ENDBRANCH  27  28
ENDBRANCH   1  27
TORSDOF 17
ENDMDL
MODEL 3
REMARK VINA RESULT:     -12.3      2.743     10.001
REMARK SMILES O=C(NCCCCNC(=O)c1ccc(-c2c3nc(c(-c4ccc(S(=O)(=O)[O-])cc4)c4ccc([nH]4)c(-c4ccc(S(=O)(=O)[O-])cc4)c4nc(c(-c5ccc(S(=O)(=O)[O-])cc5)c5ccc2[nH]5)C=C4)C=C3)cc1)c1ccc(/C=C/c2ccc3cccc(O)c3n2)cc1
REMARK SMILES IDX 5 1 4 2 3 3 1 4 2 5 71 7 72 8 89 9 73 10 88 11 74 12 75 13
REMARK SMILES IDX 76 14 77 15 78 16 87 17 79 18 86 19 80 20 84 21 81 22 83 23
REMARK SMILES IDX 82 24 85 25 6 27 7 28 8 29 9 30 10 32 11 33 12 34 70 35
REMARK SMILES IDX 13 36 69 37 14 38 15 39 16 40 63 41 17 42 68 43 62 44 64 45
REMARK SMILES IDX 18 46 67 47 61 48 60 49 19 51 49 52 30 53 48 54 31 55 34 56
REMARK SMILES IDX 47 57 65 58 32 59 33 60 46 62 66 63 35 64 20 65 21 66 29 67
REMARK SMILES IDX 22 68 28 69 23 70 24 71 25 72 26 73 27 74 50 75 51 76 59 77
REMARK SMILES IDX 52 78 58 79 53 80 54 81 55 82 56 83 57 84 36 85 37 86 45 87
REMARK SMILES IDX 38 88 44 89 39 90 40 91 41 92 42 93 43 94
REMARK H PARENT 3 6 85 26 8 31 64 50 34 61
REMARK Flexibility Score: inf
ROOT
ATOM      1  C   UNL A   1      35.564  21.479  26.138  1.00  0.00     0.023 C 
ENDROOT
BRANCH   1   2
ATOM      2  C   UNL A   1      35.541  20.474  24.985  1.00  0.00     0.116 C 
BRANCH   2   3
ATOM      3  N   UNL A   1      34.388  19.597  25.048  1.00  0.00    -0.352 N 
ATOM      4  O   UNL A   1      32.229  19.022  25.290  1.00  0.00    -0.269 OA
ATOM      5  C   UNL A   1      33.052  19.897  25.034  1.00  0.00     0.251 C 
ATOM      6  H   UNL A   1      34.599  18.637  25.110  1.00  0.00     0.163 HD
BRANCH   5   7
ATOM      7  C   UNL A   1      32.575  21.263  24.739  1.00  0.00     0.039 A 
ATOM      8  C   UNL A   1      31.955  22.068  25.704  1.00  0.00     0.014 A 
ATOM      9  C   UNL A   1      32.861  21.785  23.480  1.00  0.00     0.014 A 
ATOM     10  C   UNL A   1      31.597  23.392  25.398  1.00  0.00     0.009 A 
ATOM     11  C   UNL A   1      32.507  23.100  23.183  1.00  0.00     0.009 A 
ATOM     12  C   UNL A   1      31.876  23.923  24.135  1.00  0.00    -0.026 A 
BRANCH  12  13
ATOM     13  C   UNL A   1      31.473  25.260  23.675  1.00  0.00     0.010 C 
ATOM     14  C   UNL A   1      30.467  26.069  24.064  1.00  0.00     0.029 C 
BRANCH  14  15
ATOM     15  C   UNL A   1      30.046  27.036  23.013  1.00  0.00     0.064 A 
ATOM     16  C   UNL A   1      31.113  27.830  22.601  1.00  0.00     0.029 A 
ATOM     17  N   UNL A   1      28.774  27.505  23.097  1.00  0.00    -0.245 NA
ATOM     18  C   UNL A   1      30.955  29.204  22.709  1.00  0.00     0.013 A 
ATOM     19  C   UNL A   1      28.612  28.850  23.095  1.00  0.00     0.113 A 
ATOM     20  C   UNL A   1      29.707  29.731  23.052  1.00  0.00     0.004 A 
ATOM     21  C   UNL A   1      27.344  29.423  23.206  1.00  0.00     0.141 A 
ATOM     22  C   UNL A   1      29.539  31.090  23.368  1.00  0.00     0.010 A 
ATOM     23  C   UNL A   1      27.155  30.781  23.448  1.00  0.00     0.048 A 
ATOM     24  C   UNL A   1      28.265  31.607  23.594  1.00  0.00     0.005 A 
BRANCH  21  25
ATOM     25  O   UNL A   1      26.228  28.633  23.074  1.00  0.00    -0.506 OA
ATOM     26  H   UNL A   1      26.079  28.161  22.277  1.00  0.00     0.293 HD
ENDBRANCH  21  25
ENDBRANCH  14  15
ENDBRANCH  12  13
ENDBRANCH   5   7
ENDBRANCH   2   3
ENDBRANCH   1   2
BRANCH   1  27
ATOM     27  C   UNL A   1      35.523  22.956  25.734  1.00  0.00     0.023 C 
BRANCH  27  28
ATOM     28  C   UNL A   1      36.872  23.608  25.455  1.00  0.00     0.116 C 
BRANCH  28  29
ATOM     29  N   UNL A   1      37.992  22.695  25.620  1.00  0.00    -0.352 N 
ATOM     30  C   UNL A   1      39.233  22.918  26.169  1.00  0.00     0.251 C 
ATOM     31  H   UNL A   1      37.838  21.780  25.289  1.00  0.00     0.163 HD
ATOM     32  O   UNL A   1      40.089  22.041  26.096  1.00  0.00    -0.269 OA
BRANCH  30  33
ATOM     33  C   UNL A   1      39.548  24.212  26.817  1.00  0.00     0.039 A 
ATOM     34  C   UNL A   1      39.118  24.430  28.128  1.00  0.00     0.014 A 
ATOM     35  C   UNL A   1      40.246  25.215  26.139  1.00  0.00     0.014 A 
ATOM     36  C   UNL A   1      39.438  25.626  28.777  1.00  0.00     0.010 A 
ATOM     37  C   UNL A   1      40.634  26.373  26.812  1.00  0.00     0.010 A 
ATOM     38  C   UNL A   1      40.225  26.597  28.136  1.00  0.00    -0.014 A 
BRANCH  38  39
ATOM     39  C   UNL A   1      40.604  27.858  28.828  1.00  0.00     0.031 A 
ATOM     40  C   UNL A   1      41.963  27.993  29.467  1.00  0.00     0.074 A 
ATOM     41  C   UNL A   1      39.718  28.871  28.913  1.00  0.00     0.049 A 
ATOM     42  N   UNL A   1      42.463  28.999  30.140  1.00  0.00    -0.248 NA
ATOM     43  C   UNL A   1      42.871  26.840  29.355  1.00  0.00     0.031 C 
ATOM     44  C   UNL A   1      38.354  28.854  28.376  1.00  0.00     0.029 A 
ATOM     45  N   UNL A   1      39.830  30.114  29.486  1.00  0.00    -0.354 N 
ATOM     46  C   UNL A   1      43.735  28.599  30.530  1.00  0.00     0.074 A 
ATOM     47  C   UNL A   1      43.906  27.236  30.080  1.00  0.00     0.031 C 
ATOM     48  C   UNL A   1      37.769  30.038  28.621  1.00  0.00     0.029 A 
ATOM     49  C   UNL A   1      38.697  30.885  29.364  1.00  0.00     0.049 A 
ATOM     50  H   UNL A   1      40.646  30.425  29.942  1.00  0.00     0.167 HD
ATOM     51  C   UNL A   1      44.691  29.310  31.177  1.00  0.00     0.031 A 
ATOM     52  C   UNL A   1      38.433  32.131  29.800  1.00  0.00     0.031 A 
ATOM     53  C   UNL A   1      44.525  30.667  31.624  1.00  0.00     0.049 A 
ATOM     54  C   UNL A   1      39.507  32.896  30.529  1.00  0.00     0.074 A 
ATOM     55  C   UNL A   1      45.440  31.480  32.270  1.00  0.00     0.029 A 
ATOM     56  N   UNL A   1      43.369  31.417  31.463  1.00  0.00    -0.354 N 
ATOM     57  N   UNL A   1      40.721  32.513  30.847  1.00  0.00    -0.248 NA
ATOM     58  C   UNL A   1      39.182  34.269  30.937  1.00  0.00     0.031 C 
ATOM     59  C   UNL A   1      44.824  32.707  32.538  1.00  0.00     0.029 A 
ATOM     60  C   UNL A   1      43.546  32.680  32.002  1.00  0.00     0.049 A 
ATOM     61  H   UNL A   1      42.545  31.098  31.031  1.00  0.00     0.167 HD
ATOM     62  C   UNL A   1      41.316  33.613  31.457  1.00  0.00     0.074 A 
ATOM     63  C   UNL A   1      40.334  34.679  31.447  1.00  0.00     0.031 C 
ATOM     64  C   UNL A   1      42.563  33.733  31.978  1.00  0.00     0.031 A 
BRANCH  51  65
ATOM     65  C   UNL A   1      46.014  28.630  31.424  1.00  0.00    -0.014 A 
ATOM     66  C   UNL A   1      46.188  27.774  32.529  1.00  0.00     0.010 A 
ATOM     67  C   UNL A   1      47.081  28.810  30.525  1.00  0.00     0.010 A 
ATOM     68  C   UNL A   1      47.415  27.145  32.752  1.00  0.00     0.020 A 
ATOM     69  C   UNL A   1      48.300  28.156  30.728  1.00  0.00     0.020 A 
ATOM     70  C   UNL A   1      48.464  27.339  31.849  1.00  0.00     0.054 A 
BRANCH  70  71
ATOM     71  S   UNL A   1      50.033  26.481  32.149  1.00  0.00     0.124 S 
ATOM     72  O   UNL A   1      49.590  25.280  32.854  1.00  0.00    -0.237 OA
ATOM     73  O   UNL A   1      50.541  26.262  30.797  1.00  0.00    -0.237 OA
ATOM     74  O   UNL A   1      50.799  27.428  32.954  1.00  0.00    -0.744 OA
ENDBRANCH  70  71
ENDBRANCH  51  65
BRANCH  52  75
ATOM     75  C   UNL A   1      37.098  32.747  29.556  1.00  0.00    -0.014 A 
ATOM     76  C   UNL A   1      36.829  33.433  28.358  1.00  0.00     0.010 A 
ATOM     77  C   UNL A   1      36.091  32.670  30.536  1.00  0.00     0.010 A 
ATOM     78  C   UNL A   1      35.597  34.066  28.163  1.00  0.00     0.020 A 
ATOM     79  C   UNL A   1      34.846  33.272  30.331  1.00  0.00     0.020 A 
ATOM     80  C   UNL A   1      34.614  33.983  29.153  1.00  0.00     0.054 A 
BRANCH  80  81
ATOM     81  S   UNL A   1      33.017  34.798  28.874  1.00  0.00     0.124 S 
ATOM     82  O   UNL A   1      32.450  34.821  30.218  1.00  0.00    -0.237 OA
ATOM     83  O   UNL A   1      33.415  36.095  28.331  1.00  0.00    -0.237 OA
ATOM     84  O   UNL A   1      32.346  33.913  27.924  1.00  0.00    -0.744 OA
ENDBRANCH  80  81
ENDBRANCH  52  75
BRANCH  64  85
ATOM     85  C   UNL A   1      42.957  35.081  32.525  1.00  0.00    -0.014 A 
ATOM     86  C   UNL A   1      42.648  35.462  33.842  1.00  0.00     0.010 A 
ATOM     87  C   UNL A   1      43.670  35.974  31.703  1.00  0.00     0.010 A 
ATOM     88  C   UNL A   1      42.997  36.732  34.310  1.00  0.00     0.020 A 
ATOM     89  C   UNL A   1      44.050  37.231  32.178  1.00  0.00     0.020 A 
ATOM     90  C   UNL A   1      43.690  37.612  33.472  1.00  0.00     0.054 A 
BRANCH  90  91
ATOM     91  S   UNL A   1      44.139  39.251  34.103  1.00  0.00     0.124 S 
ATOM     92  O   UNL A   1      45.327  39.564  33.314  1.00  0.00    -0.237 OA
ATOM     93  O   UNL A   1      42.954  40.049  33.799  1.00  0.00    -0.237 OA
ATOM     94  O   UNL A   1      44.380  39.021  35.526  1.00  0.00    -0.744 OA
ENDBRANCH  90  91
ENDBRANCH  64  85
ENDBRANCH  38  39
ENDBRANCH  30  33
ENDBRANCH  28  29
ENDBRANCH  27  28
ENDBRANCH   1  27
TORSDOF 17
ENDMDL
