MODEL 1
REMARK VINA RESULT:      -9.0      0.000      0.000
REMARK SMILES O=C(NCCCCNC(=O)c1cc(NC(=O)c2ccccc2Cl)ccc1N1CCC[C@H](C[NH+]2CCCC2)C1)c1ccc(-c2c3nc(c(-c4ccc(S(=O)(=O)[O-])cc4)c4ccc([nH]4)c(-c4ccc(S(=O)(=O)[O-])cc4)c4nc(c(-c5ccc(S(=O)(=O)[O-])cc5)c5ccc2[nH]5)C=C4)C=C3)cc1
REMARK SMILES IDX 5 1 4 2 3 3 1 4 2 5 39 7 40 8 98 9 41 10 97 11 42 12 43 13
REMARK SMILES IDX 44 14 91 15 45 16 96 17 90 18 92 19 46 20 95 21 89 22 88 23
REMARK SMILES IDX 47 25 77 26 58 27 76 28 59 29 62 30 75 31 93 32 60 33 61 34
REMARK SMILES IDX 74 36 94 37 63 38 48 39 49 40 57 41 50 42 56 43 51 44 52 45
REMARK SMILES IDX 53 46 54 47 55 48 78 49 79 50 87 51 80 52 86 53 81 54 82 55
REMARK SMILES IDX 83 56 84 57 85 58 64 59 65 60 73 61 66 62 72 63 67 64 68 65
REMARK SMILES IDX 69 66 70 67 71 68 6 69 7 70 8 71 9 72 10 74 11 75 12 76
REMARK SMILES IDX 26 77 13 78 25 79 24 80 27 81 28 82 38 83 29 84 31 85 30 86
REMARK SMILES IDX 32 87 33 88 34 89 37 90 35 92 36 93 14 94 15 95 16 97 17 98
REMARK SMILES IDX 18 99 22 100 19 101 21 102 23 103 20 104
REMARK H PARENT 3 6 92 24 62 35 8 73 33 91 14 96
REMARK Flexibility Score: inf
ROOT
ATOM      1  C   UNL A   1      48.010  24.856  26.514  1.00  0.00     0.023 C 
ENDROOT
BRANCH   1   2
ATOM      2  C   UNL A   1      47.361  25.067  25.151  1.00  0.00     0.116 C 
BRANCH   2   3
ATOM      3  N   UNL A   1      48.067  26.016  24.301  1.00  0.00    -0.352 N 
ATOM      4  O   UNL A   1      48.662  28.031  23.475  1.00  0.00    -0.269 OA
ATOM      5  C   UNL A   1      48.072  27.396  24.337  1.00  0.00     0.251 C 
ATOM      6  H   UNL A   1      48.625  25.613  23.596  1.00  0.00     0.163 HD
BRANCH   5   7
ATOM      7  C   UNL A   1      47.322  28.101  25.404  1.00  0.00     0.039 A 
ATOM      8  C   UNL A   1      48.002  28.783  26.410  1.00  0.00     0.014 A 
ATOM      9  C   UNL A   1      45.924  28.039  25.422  1.00  0.00     0.014 A 
ATOM     10  C   UNL A   1      47.310  29.213  27.534  1.00  0.00     0.010 A 
ATOM     11  C   UNL A   1      45.217  28.576  26.506  1.00  0.00     0.010 A 
ATOM     12  C   UNL A   1      45.907  29.124  27.598  1.00  0.00    -0.014 A 
BRANCH  12  13
ATOM     13  C   UNL A   1      45.216  29.653  28.804  1.00  0.00     0.031 A 
ATOM     14  C   UNL A   1      45.144  28.866  30.088  1.00  0.00     0.074 A 
ATOM     15  C   UNL A   1      44.728  30.910  28.759  1.00  0.00     0.049 A 
ATOM     16  N   UNL A   1      44.673  29.241  31.252  1.00  0.00    -0.248 NA
ATOM     17  C   UNL A   1      45.654  27.487  30.069  1.00  0.00     0.031 C 
ATOM     18  C   UNL A   1      44.720  31.765  27.568  1.00  0.00     0.029 A 
ATOM     19  N   UNL A   1      44.191  31.704  29.739  1.00  0.00    -0.354 N 
ATOM     20  C   UNL A   1      44.815  28.145  32.098  1.00  0.00     0.074 A 
ATOM     21  C   UNL A   1      45.394  27.081  31.306  1.00  0.00     0.031 C 
ATOM     22  C   UNL A   1      44.279  32.985  27.904  1.00  0.00     0.029 A 
ATOM     23  C   UNL A   1      43.910  32.982  29.314  1.00  0.00     0.049 A 
ATOM     24  H   UNL A   1      44.022  31.390  30.657  1.00  0.00     0.167 HD
ATOM     25  C   UNL A   1      44.501  28.039  33.412  1.00  0.00     0.031 A 
ATOM     26  C   UNL A   1      43.405  34.038  29.977  1.00  0.00     0.031 A 
ATOM     27  C   UNL A   1      43.925  29.101  34.199  1.00  0.00     0.049 A 
ATOM     28  C   UNL A   1      43.077  33.894  31.433  1.00  0.00     0.074 A 
ATOM     29  C   UNL A   1      43.572  29.088  35.538  1.00  0.00     0.029 A 
ATOM     30  N   UNL A   1      43.624  30.368  33.723  1.00  0.00    -0.354 N 
ATOM     31  N   UNL A   1      43.230  32.849  32.210  1.00  0.00    -0.248 NA
ATOM     32  C   UNL A   1      42.510  35.072  32.101  1.00  0.00     0.031 C 
ATOM     33  C   UNL A   1      43.024  30.334  35.862  1.00  0.00     0.029 A 
ATOM     34  C   UNL A   1      43.080  31.140  34.737  1.00  0.00     0.049 A 
ATOM     35  H   UNL A   1      43.774  30.674  32.799  1.00  0.00     0.167 HD
ATOM     36  C   UNL A   1      42.770  33.242  33.461  1.00  0.00     0.074 A 
ATOM     37  C   UNL A   1      42.375  34.631  33.344  1.00  0.00     0.031 C 
ATOM     38  C   UNL A   1      42.672  32.514  34.599  1.00  0.00     0.031 A 
BRANCH  25  39
ATOM     39  C   UNL A   1      44.759  26.718  34.092  1.00  0.00    -0.014 A 
ATOM     40  C   UNL A   1      43.887  25.629  33.912  1.00  0.00     0.010 A 
ATOM     41  C   UNL A   1      45.923  26.541  34.862  1.00  0.00     0.010 A 
ATOM     42  C   UNL A   1      44.160  24.396  34.511  1.00  0.00     0.020 A 
ATOM     43  C   UNL A   1      46.211  25.304  35.446  1.00  0.00     0.020 A 
ATOM     44  C   UNL A   1      45.320  24.242  35.277  1.00  0.00     0.054 A 
BRANCH  44  45
ATOM     45  S   UNL A   1      45.668  22.620  36.015  1.00  0.00     0.124 S 
ATOM     46  O   UNL A   1      47.066  22.415  35.640  1.00  0.00    -0.237 OA
ATOM     47  O   UNL A   1      45.428  22.855  37.435  1.00  0.00    -0.237 OA
ATOM     48  O   UNL A   1      44.712  21.730  35.362  1.00  0.00    -0.744 OA
ENDBRANCH  44  45
ENDBRANCH  25  39
BRANCH  26  49
ATOM     49  C   UNL A   1      43.158  35.311  29.251  1.00  0.00    -0.014 A 
ATOM     50  C   UNL A   1      41.980  35.505  28.511  1.00  0.00     0.010 A 
ATOM     51  C   UNL A   1      44.102  36.353  29.325  1.00  0.00     0.010 A 
ATOM     52  C   UNL A   1      41.757  36.715  27.845  1.00  0.00     0.020 A 
ATOM     53  C   UNL A   1      43.869  37.572  28.688  1.00  0.00     0.020 A 
ATOM     54  C   UNL A   1      42.702  37.741  27.939  1.00  0.00     0.054 A 
BRANCH  54  55
ATOM     55  S   UNL A   1      42.373  39.325  27.120  1.00  0.00     0.124 S 
ATOM     56  O   UNL A   1      42.086  40.197  28.255  1.00  0.00    -0.237 OA
ATOM     57  O   UNL A   1      43.627  39.588  26.418  1.00  0.00    -0.237 OA
ATOM     58  O   UNL A   1      41.236  39.027  26.252  1.00  0.00    -0.744 OA
ENDBRANCH  54  55
ENDBRANCH  26  49
BRANCH  38  59
ATOM     59  C   UNL A   1      42.113  33.219  35.805  1.00  0.00    -0.014 A 
ATOM     60  C   UNL A   1      40.740  33.161  36.103  1.00  0.00     0.010 A 
ATOM     61  C   UNL A   1      42.971  33.946  36.648  1.00  0.00     0.010 A 
ATOM     62  C   UNL A   1      40.225  33.860  37.196  1.00  0.00     0.020 A 
ATOM     63  C   UNL A   1      42.463  34.627  37.759  1.00  0.00     0.020 A 
ATOM     64  C   UNL A   1      41.089  34.598  38.012  1.00  0.00     0.054 A 
BRANCH  64  65
ATOM     65  S   UNL A   1      40.401  35.497  39.427  1.00  0.00     0.124 S 
ATOM     66  O   UNL A   1      40.877  34.699  40.554  1.00  0.00    -0.237 OA
ATOM     67  O   UNL A   1      41.006  36.821  39.296  1.00  0.00    -0.237 OA
ATOM     68  O   UNL A   1      38.959  35.453  39.196  1.00  0.00    -0.744 OA
ENDBRANCH  64  65
ENDBRANCH  38  59
ENDBRANCH  12  13
ENDBRANCH   5   7
ENDBRANCH   2   3
ENDBRANCH   1   2
BRANCH   1  69
ATOM     69  C   UNL A   1      47.131  25.147  27.726  1.00  0.00     0.023 C 
BRANCH  69  70
ATOM     70  C   UNL A   1      45.775  24.457  27.738  1.00  0.00     0.116 C 
BRANCH  70  71
ATOM     71  N   UNL A   1      45.310  24.020  29.037  1.00  0.00    -0.352 N 
ATOM     72  C   UNL A   1      44.003  23.970  29.470  1.00  0.00     0.253 C 
ATOM     73  H   UNL A   1      45.998  23.728  29.677  1.00  0.00     0.163 HD
ATOM     74  O   UNL A   1      43.724  23.446  30.545  1.00  0.00    -0.269 OA
BRANCH  72  75
ATOM     75  C   UNL A   1      42.948  24.668  28.697  1.00  0.00     0.065 A 
ATOM     76  C   UNL A   1      42.861  26.039  28.994  1.00  0.00     0.042 A 
ATOM     77  C   UNL A   1      42.171  24.080  27.681  1.00  0.00     0.050 A 
ATOM     78  C   UNL A   1      42.110  26.898  28.204  1.00  0.00     0.042 A 
ATOM     79  C   UNL A   1      41.368  24.959  26.935  1.00  0.00     0.029 A 
ATOM     80  C   UNL A   1      41.340  26.340  27.184  1.00  0.00     0.028 A 
BRANCH  77  81
ATOM     81  N   UNL A   1      42.102  22.721  27.420  1.00  0.00    -0.370 N 
ATOM     82  C   UNL A   1      43.193  22.017  26.741  1.00  0.00     0.116 C 
ATOM     83  C   UNL A   1      41.041  21.920  28.037  1.00  0.00     0.126 C 
ATOM     84  C   UNL A   1      42.657  20.966  25.773  1.00  0.00     0.022 C 
ATOM     85  C   UNL A   1      40.425  20.982  26.983  1.00  0.00     0.064 C 
ATOM     86  C   UNL A   1      41.558  20.116  26.411  1.00  0.00     0.013 C 
BRANCH  85  87
ATOM     87  C   UNL A   1      39.634  21.827  25.944  1.00  0.00     0.267 C 
BRANCH  87  88
ATOM     88  N   UNL A   1      38.212  22.120  26.151  1.00  0.00    -0.335 N 
ATOM     89  C   UNL A   1      37.297  21.375  25.290  1.00  0.00     0.262 C 
ATOM     90  C   UNL A   1      37.822  23.526  26.111  1.00  0.00     0.262 C 
ATOM     91  H   UNL A   1      38.114  21.798  27.114  1.00  0.00     0.348 HD
ATOM     92  C   UNL A   1      36.876  22.354  24.214  1.00  0.00     0.067 C 
ATOM     93  C   UNL A   1      36.879  23.696  24.925  1.00  0.00     0.067 C 
ENDBRANCH  87  88
ENDBRANCH  85  87
ENDBRANCH  77  81
BRANCH  78  94
ATOM     94  N   UNL A   1      42.082  28.299  28.348  1.00  0.00    -0.322 N 
ATOM     95  C   UNL A   1      41.387  29.130  29.201  1.00  0.00     0.257 C 
ATOM     96  H   UNL A   1      42.671  28.774  27.720  1.00  0.00     0.170 HD
ATOM     97  O   UNL A   1      41.438  30.350  29.042  1.00  0.00    -0.269 OA
BRANCH  95  98
ATOM     98  C   UNL A   1      40.577  28.610  30.315  1.00  0.00     0.058 A 
ATOM     99  C   UNL A   1      41.172  28.606  31.585  1.00  0.00     0.015 A 
ATOM    100  C   UNL A   1      39.257  28.168  30.153  1.00  0.00     0.053 A 
ATOM    101  C   UNL A   1      40.422  28.235  32.702  1.00  0.00     0.001 A 
ATOM    102  C   UNL A   1      38.511  27.810  31.280  1.00  0.00     0.021 A 
ATOM    103  Cl  UNL A   1      38.487  28.065  28.611  1.00  0.00    -0.083 Cl
ATOM    104  C   UNL A   1      39.089  27.857  32.551  1.00  0.00     0.002 A 
ENDBRANCH  95  98
ENDBRANCH  78  94
ENDBRANCH  72  75
ENDBRANCH  70  71
ENDBRANCH  69  70
ENDBRANCH   1  69
TORSDOF 19
ENDMDL
MODEL 2
REMARK VINA RESULT:      -8.4      5.741     11.640
REMARK SMILES O=C(NCCCCNC(=O)c1cc(NC(=O)c2ccccc2Cl)ccc1N1CCC[C@H](C[NH+]2CCCC2)C1)c1ccc(-c2c3nc(c(-c4ccc(S(=O)(=O)[O-])cc4)c4ccc([nH]4)c(-c4ccc(S(=O)(=O)[O-])cc4)c4nc(c(-c5ccc(S(=O)(=O)[O-])cc5)c5ccc2[nH]5)C=C4)C=C3)cc1
REMARK SMILES IDX 5 1 4 2 3 3 1 4 2 5 39 7 40 8 98 9 41 10 97 11 42 12 43 13
REMARK SMILES IDX 44 14 91 15 45 16 96 17 90 18 92 19 46 20 95 21 89 22 88 23
REMARK SMILES IDX 47 25 77 26 58 27 76 28 59 29 62 30 75 31 93 32 60 33 61 34
REMARK SMILES IDX 74 36 94 37 63 38 48 39 49 40 57 41 50 42 56 43 51 44 52 45
REMARK SMILES IDX 53 46 54 47 55 48 78 49 79 50 87 51 80 52 86 53 81 54 82 55
REMARK SMILES IDX 83 56 84 57 85 58 64 59 65 60 73 61 66 62 72 63 67 64 68 65
REMARK SMILES IDX 69 66 70 67 71 68 6 69 7 70 8 71 9 72 10 74 11 75 12 76
REMARK SMILES IDX 26 77 13 78 25 79 24 80 27 81 28 82 38 83 29 84 31 85 30 86
REMARK SMILES IDX 32 87 33 88 34 89 37 90 35 92 36 93 14 94 15 95 16 97 17 98
REMARK SMILES IDX 18 99 22 100 19 101 21 102 23 103 20 104
REMARK H PARENT 3 6 92 24 62 35 8 73 33 91 14 96
REMARK Flexibility Score: inf
ROOT
ATOM      1  C   UNL A   1      34.032  28.487  26.304  1.00  0.00     0.023 C 
ENDROOT
BRANCH   1   2
ATOM      2  C   UNL A   1      35.079  29.484  26.790  1.00  0.00     0.116 C 
BRANCH   2   3
ATOM      3  N   UNL A   1      34.522  30.755  27.234  1.00  0.00    -0.352 N 
ATOM      4  O   UNL A   1      34.292  32.588  28.530  1.00  0.00    -0.269 OA
ATOM      5  C   UNL A   1      34.947  31.597  28.243  1.00  0.00     0.251 C 
ATOM      6  H   UNL A   1      33.726  31.059  26.741  1.00  0.00     0.163 HD
BRANCH   5   7
ATOM      7  C   UNL A   1      36.178  31.268  28.999  1.00  0.00     0.039 A 
ATOM      8  C   UNL A   1      37.349  31.994  28.790  1.00  0.00     0.014 A 
ATOM      9  C   UNL A   1      36.173  30.192  29.893  1.00  0.00     0.014 A 
ATOM     10  C   UNL A   1      38.549  31.519  29.302  1.00  0.00     0.010 A 
ATOM     11  C   UNL A   1      37.369  29.784  30.499  1.00  0.00     0.010 A 
ATOM     12  C   UNL A   1      38.578  30.412  30.169  1.00  0.00    -0.014 A 
BRANCH  12  13
ATOM     13  C   UNL A   1      39.888  29.985  30.731  1.00  0.00     0.031 A 
ATOM     14  C   UNL A   1      40.436  30.574  32.006  1.00  0.00     0.074 A 
ATOM     15  C   UNL A   1      40.544  28.976  30.121  1.00  0.00     0.049 A 
ATOM     16  N   UNL A   1      41.508  30.225  32.674  1.00  0.00    -0.248 NA
ATOM     17  C   UNL A   1      39.701  31.699  32.605  1.00  0.00     0.031 C 
ATOM     18  C   UNL A   1      40.126  28.337  28.869  1.00  0.00     0.029 A 
ATOM     19  N   UNL A   1      41.668  28.282  30.487  1.00  0.00    -0.354 N 
ATOM     20  C   UNL A   1      41.585  31.090  33.761  1.00  0.00     0.074 A 
ATOM     21  C   UNL A   1      40.465  31.999  33.649  1.00  0.00     0.031 C 
ATOM     22  C   UNL A   1      40.931  27.298  28.614  1.00  0.00     0.029 A 
ATOM     23  C   UNL A   1      41.962  27.236  29.643  1.00  0.00     0.049 A 
ATOM     24  H   UNL A   1      42.211  28.508  31.276  1.00  0.00     0.167 HD
ATOM     25  C   UNL A   1      42.499  31.119  34.762  1.00  0.00     0.031 A 
ATOM     26  C   UNL A   1      42.954  26.326  29.682  1.00  0.00     0.031 A 
ATOM     27  C   UNL A   1      43.613  30.212  34.872  1.00  0.00     0.049 A 
ATOM     28  C   UNL A   1      43.943  26.376  30.807  1.00  0.00     0.074 A 
ATOM     29  C   UNL A   1      44.592  30.163  35.851  1.00  0.00     0.029 A 
ATOM     30  N   UNL A   1      43.895  29.189  33.978  1.00  0.00    -0.354 N 
ATOM     31  N   UNL A   1      43.987  27.200  31.826  1.00  0.00    -0.248 NA
ATOM     32  C   UNL A   1      45.015  25.373  30.788  1.00  0.00     0.031 C 
ATOM     33  C   UNL A   1      45.486  29.136  35.529  1.00  0.00     0.029 A 
ATOM     34  C   UNL A   1      45.038  28.513  34.376  1.00  0.00     0.049 A 
ATOM     35  H   UNL A   1      43.362  28.976  33.178  1.00  0.00     0.167 HD
ATOM     36  C   UNL A   1      45.097  26.818  32.568  1.00  0.00     0.074 A 
ATOM     37  C   UNL A   1      45.670  25.665  31.903  1.00  0.00     0.031 C 
ATOM     38  C   UNL A   1      45.606  27.381  33.691  1.00  0.00     0.031 A 
BRANCH  25  39
ATOM     39  C   UNL A   1      42.345  32.179  35.823  1.00  0.00    -0.014 A 
ATOM     40  C   UNL A   1      42.900  33.460  35.652  1.00  0.00     0.010 A 
ATOM     41  C   UNL A   1      41.578  31.915  36.972  1.00  0.00     0.010 A 
ATOM     42  C   UNL A   1      42.713  34.449  36.623  1.00  0.00     0.020 A 
ATOM     43  C   UNL A   1      41.370  32.907  37.936  1.00  0.00     0.020 A 
ATOM     44  C   UNL A   1      41.951  34.165  37.761  1.00  0.00     0.054 A 
BRANCH  44  45
ATOM     45  S   UNL A   1      41.695  35.478  38.988  1.00  0.00     0.124 S 
ATOM     46  O   UNL A   1      40.518  36.160  38.455  1.00  0.00    -0.237 OA
ATOM     47  O   UNL A   1      41.479  34.727  40.221  1.00  0.00    -0.237 OA
ATOM     48  O   UNL A   1      42.936  36.247  38.938  1.00  0.00    -0.744 OA
ENDBRANCH  44  45
ENDBRANCH  25  39
BRANCH  26  49
ATOM     49  C   UNL A   1      43.063  25.313  28.599  1.00  0.00    -0.014 A 
ATOM     50  C   UNL A   1      43.713  25.613  27.391  1.00  0.00     0.010 A 
ATOM     51  C   UNL A   1      42.536  24.023  28.794  1.00  0.00     0.010 A 
ATOM     52  C   UNL A   1      43.820  24.644  26.388  1.00  0.00     0.020 A 
ATOM     53  C   UNL A   1      42.668  23.044  27.808  1.00  0.00     0.020 A 
ATOM     54  C   UNL A   1      43.298  23.366  26.604  1.00  0.00     0.054 A 
BRANCH  54  55
ATOM     55  S   UNL A   1      43.496  22.100  25.319  1.00  0.00     0.124 S 
ATOM     56  O   UNL A   1      43.433  22.898  24.099  1.00  0.00    -0.237 OA
ATOM     57  O   UNL A   1      44.800  21.525  25.636  1.00  0.00    -0.237 OA
ATOM     58  O   UNL A   1      42.360  21.207  25.547  1.00  0.00    -0.744 OA
ENDBRANCH  54  55
ENDBRANCH  26  49
BRANCH  38  59
ATOM     59  C   UNL A   1      46.843  26.746  34.264  1.00  0.00    -0.014 A 
ATOM     60  C   UNL A   1      46.751  25.698  35.197  1.00  0.00     0.010 A 
ATOM     61  C   UNL A   1      48.111  27.201  33.864  1.00  0.00     0.010 A 
ATOM     62  C   UNL A   1      47.905  25.150  35.760  1.00  0.00     0.020 A 
ATOM     63  C   UNL A   1      49.270  26.638  34.406  1.00  0.00     0.020 A 
ATOM     64  C   UNL A   1      49.159  25.632  35.368  1.00  0.00     0.054 A 
BRANCH  64  65
ATOM     65  S   UNL A   1      50.646  24.906  36.108  1.00  0.00     0.124 S 
ATOM     66  O   UNL A   1      51.639  25.112  35.058  1.00  0.00    -0.237 OA
ATOM     67  O   UNL A   1      50.832  25.708  37.315  1.00  0.00    -0.237 OA
ATOM     68  O   UNL A   1      50.268  23.514  36.346  1.00  0.00    -0.744 OA
ENDBRANCH  64  65
ENDBRANCH  38  59
ENDBRANCH  12  13
ENDBRANCH   5   7
ENDBRANCH   2   3
ENDBRANCH   1   2
BRANCH   1  69
ATOM     69  C   UNL A   1      33.013  28.026  27.340  1.00  0.00     0.023 C 
BRANCH  69  70
ATOM     70  C   UNL A   1      31.553  28.146  26.926  1.00  0.00     0.116 C 
BRANCH  70  71
ATOM     71  N   UNL A   1      30.793  26.915  26.965  1.00  0.00    -0.352 N 
ATOM     72  C   UNL A   1      30.769  25.930  26.002  1.00  0.00     0.253 C 
ATOM     73  H   UNL A   1      30.234  26.765  27.762  1.00  0.00     0.163 HD
ATOM     74  O   UNL A   1      30.194  24.866  26.214  1.00  0.00    -0.269 OA
BRANCH  72  75
ATOM     75  C   UNL A   1      31.328  26.208  24.657  1.00  0.00     0.065 A 
ATOM     76  C   UNL A   1      32.569  25.588  24.435  1.00  0.00     0.042 A 
ATOM     77  C   UNL A   1      30.664  26.920  23.640  1.00  0.00     0.050 A 
ATOM     78  C   UNL A   1      33.125  25.530  23.165  1.00  0.00     0.042 A 
ATOM     79  C   UNL A   1      31.278  26.904  22.377  1.00  0.00     0.029 A 
ATOM     80  C   UNL A   1      32.480  26.219  22.138  1.00  0.00     0.028 A 
BRANCH  77  81
ATOM     81  N   UNL A   1      29.510  27.668  23.818  1.00  0.00    -0.370 N 
ATOM     82  C   UNL A   1      28.188  27.039  23.838  1.00  0.00     0.116 C 
ATOM     83  C   UNL A   1      29.615  29.071  24.231  1.00  0.00     0.126 C 
ATOM     84  C   UNL A   1      27.151  27.905  23.129  1.00  0.00     0.022 C 
ATOM     85  C   UNL A   1      28.662  29.931  23.381  1.00  0.00     0.064 C 
ATOM     86  C   UNL A   1      27.243  29.369  23.562  1.00  0.00     0.013 C 
BRANCH  85  87
ATOM     87  C   UNL A   1      29.183  29.982  21.917  1.00  0.00     0.267 C 
BRANCH  87  88
ATOM     88  N   UNL A   1      29.326  31.266  21.223  1.00  0.00    -0.335 N 
ATOM     89  C   UNL A   1      29.335  32.439  22.093  1.00  0.00     0.262 C 
ATOM     90  C   UNL A   1      28.395  31.525  20.129  1.00  0.00     0.262 C 
ATOM     91  H   UNL A   1      30.253  31.134  20.817  1.00  0.00     0.348 HD
ATOM     92  C   UNL A   1      27.951  33.041  21.966  1.00  0.00     0.067 C 
ATOM     93  C   UNL A   1      27.551  32.729  20.534  1.00  0.00     0.067 C 
ENDBRANCH  87  88
ENDBRANCH  85  87
ENDBRANCH  77  81
BRANCH  78  94
ATOM     94  N   UNL A   1      34.289  24.810  22.833  1.00  0.00    -0.322 N 
ATOM     95  C   UNL A   1      34.731  23.550  23.179  1.00  0.00     0.257 C 
ATOM     96  H   UNL A   1      34.904  25.299  22.242  1.00  0.00     0.170 HD
ATOM     97  O   UNL A   1      35.864  23.189  22.858  1.00  0.00    -0.269 OA
BRANCH  95  98
ATOM     98  C   UNL A   1      33.887  22.602  23.925  1.00  0.00     0.058 A 
ATOM     99  C   UNL A   1      32.933  21.885  23.188  1.00  0.00     0.015 A 
ATOM    100  C   UNL A   1      34.032  22.374  25.300  1.00  0.00     0.053 A 
ATOM    101  C   UNL A   1      32.180  20.889  23.810  1.00  0.00     0.001 A 
ATOM    102  C   UNL A   1      33.282  21.364  25.911  1.00  0.00     0.021 A 
ATOM    103  Cl  UNL A   1      35.126  23.276  26.287  1.00  0.00    -0.083 Cl
ATOM    104  C   UNL A   1      32.369  20.616  25.164  1.00  0.00     0.002 A 
ENDBRANCH  95  98
ENDBRANCH  78  94
ENDBRANCH  72  75
ENDBRANCH  70  71
ENDBRANCH  69  70
ENDBRANCH   1  69
TORSDOF 19
ENDMDL
MODEL 3
REMARK VINA RESULT:      -8.3      5.121      8.292
REMARK SMILES O=C(NCCCCNC(=O)c1cc(NC(=O)c2ccccc2Cl)ccc1N1CCC[C@H](C[NH+]2CCCC2)C1)c1ccc(-c2c3nc(c(-c4ccc(S(=O)(=O)[O-])cc4)c4ccc([nH]4)c(-c4ccc(S(=O)(=O)[O-])cc4)c4nc(c(-c5ccc(S(=O)(=O)[O-])cc5)c5ccc2[nH]5)C=C4)C=C3)cc1
REMARK SMILES IDX 5 1 4 2 3 3 1 4 2 5 39 7 40 8 98 9 41 10 97 11 42 12 43 13
REMARK SMILES IDX 44 14 91 15 45 16 96 17 90 18 92 19 46 20 95 21 89 22 88 23
REMARK SMILES IDX 47 25 77 26 58 27 76 28 59 29 62 30 75 31 93 32 60 33 61 34
REMARK SMILES IDX 74 36 94 37 63 38 48 39 49 40 57 41 50 42 56 43 51 44 52 45
REMARK SMILES IDX 53 46 54 47 55 48 78 49 79 50 87 51 80 52 86 53 81 54 82 55
REMARK SMILES IDX 83 56 84 57 85 58 64 59 65 60 73 61 66 62 72 63 67 64 68 65
REMARK SMILES IDX 69 66 70 67 71 68 6 69 7 70 8 71 9 72 10 74 11 75 12 76
REMARK SMILES IDX 26 77 13 78 25 79 24 80 27 81 28 82 38 83 29 84 31 85 30 86
REMARK SMILES IDX 32 87 33 88 34 89 37 90 35 92 36 93 14 94 15 95 16 97 17 98
REMARK SMILES IDX 18 99 22 100 19 101 21 102 23 103 20 104
REMARK H PARENT 3 6 92 24 62 35 8 73 33 91 14 96
REMARK Flexibility Score: inf
ROOT
ATOM      1  C   UNL A   1      38.260  24.065  25.841  1.00  0.00     0.023 C 
ENDROOT
BRANCH   1   2
ATOM      2  C   UNL A   1      39.022  23.192  26.831  1.00  0.00     0.116 C 
BRANCH   2   3
ATOM      3  N   UNL A   1      40.059  22.372  26.220  1.00  0.00    -0.352 N 
ATOM      4  O   UNL A   1      42.126  21.828  25.494  1.00  0.00    -0.269 OA
ATOM      5  C   UNL A   1      41.420  22.595  26.131  1.00  0.00     0.251 C 
ATOM      6  H   UNL A   1      39.744  21.535  25.809  1.00  0.00     0.163 HD
BRANCH   5   7
ATOM      7  C   UNL A   1      42.007  23.791  26.779  1.00  0.00     0.039 A 
ATOM      8  C   UNL A   1      42.316  23.777  28.137  1.00  0.00     0.014 A 
ATOM      9  C   UNL A   1      42.208  24.955  26.028  1.00  0.00     0.014 A 
ATOM     10  C   UNL A   1      42.618  24.968  28.783  1.00  0.00     0.010 A 
ATOM     11  C   UNL A   1      42.624  26.132  26.665  1.00  0.00     0.010 A 
ATOM     12  C   UNL A   1      42.783  26.162  28.058  1.00  0.00    -0.014 A 
BRANCH  12  13
ATOM     13  C   UNL A   1      43.162  27.396  28.799  1.00  0.00     0.031 A 
ATOM     14  C   UNL A   1      44.602  27.745  29.077  1.00  0.00     0.074 A 
ATOM     15  C   UNL A   1      42.184  28.260  29.141  1.00  0.00     0.049 A 
ATOM     16  N   UNL A   1      45.091  28.836  29.613  1.00  0.00    -0.248 NA
ATOM     17  C   UNL A   1      45.624  26.748  28.720  1.00  0.00     0.031 C 
ATOM     18  C   UNL A   1      40.750  28.026  28.943  1.00  0.00     0.029 A 
ATOM     19  N   UNL A   1      42.242  29.519  29.679  1.00  0.00    -0.354 N 
ATOM     20  C   UNL A   1      46.469  28.654  29.671  1.00  0.00     0.074 A 
ATOM     21  C   UNL A   1      46.738  27.336  29.139  1.00  0.00     0.031 C 
ATOM     22  C   UNL A   1      40.072  29.132  29.279  1.00  0.00     0.029 A 
ATOM     23  C   UNL A   1      41.012  30.128  29.778  1.00  0.00     0.049 A 
ATOM     24  H   UNL A   1      43.081  29.946  29.967  1.00  0.00     0.167 HD
ATOM     25  C   UNL A   1      47.422  29.510  30.119  1.00  0.00     0.031 A 
ATOM     26  C   UNL A   1      40.669  31.350  30.226  1.00  0.00     0.031 A 
ATOM     27  C   UNL A   1      47.151  30.823  30.647  1.00  0.00     0.049 A 
ATOM     28  C   UNL A   1      41.745  32.278  30.703  1.00  0.00     0.074 A 
ATOM     29  C   UNL A   1      48.051  31.762  31.125  1.00  0.00     0.029 A 
ATOM     30  N   UNL A   1      45.890  31.388  30.763  1.00  0.00    -0.354 N 
ATOM     31  N   UNL A   1      43.042  32.083  30.740  1.00  0.00    -0.248 NA
ATOM     32  C   UNL A   1      41.312  33.590  31.200  1.00  0.00     0.031 C 
ATOM     33  C   UNL A   1      47.331  32.879  31.562  1.00  0.00     0.029 A 
ATOM     34  C   UNL A   1      45.986  32.657  31.314  1.00  0.00     0.049 A 
ATOM     35  H   UNL A   1      45.049  30.952  30.493  1.00  0.00     0.167 HD
ATOM     36  C   UNL A   1      43.580  33.249  31.270  1.00  0.00     0.074 A 
ATOM     37  C   UNL A   1      42.473  34.156  31.500  1.00  0.00     0.031 C 
ATOM     38  C   UNL A   1      44.873  33.537  31.555  1.00  0.00     0.031 A 
BRANCH  25  39
ATOM     39  C   UNL A   1      48.856  29.050  30.071  1.00  0.00    -0.014 A 
ATOM     40  C   UNL A   1      49.442  28.392  31.167  1.00  0.00     0.010 A 
ATOM     41  C   UNL A   1      49.607  29.215  28.893  1.00  0.00     0.010 A 
ATOM     42  C   UNL A   1      50.760  27.931  31.095  1.00  0.00     0.020 A 
ATOM     43  C   UNL A   1      50.918  28.737  28.809  1.00  0.00     0.020 A 
ATOM     44  C   UNL A   1      51.491  28.108  29.917  1.00  0.00     0.054 A 
BRANCH  44  45
ATOM     45  S   UNL A   1      53.188  27.468  29.839  1.00  0.00     0.124 S 
ATOM     46  O   UNL A   1      53.920  28.622  29.318  1.00  0.00    -0.237 OA
ATOM     47  O   UNL A   1      53.467  27.126  31.230  1.00  0.00    -0.237 OA
ATOM     48  O   UNL A   1      53.089  26.332  28.928  1.00  0.00    -0.744 OA
ENDBRANCH  44  45
ENDBRANCH  25  39
BRANCH  26  49
ATOM     49  C   UNL A   1      39.236  31.742  30.263  1.00  0.00    -0.014 A 
ATOM     50  C   UNL A   1      38.639  32.406  29.178  1.00  0.00     0.010 A 
ATOM     51  C   UNL A   1      38.453  31.422  31.388  1.00  0.00     0.010 A 
ATOM     52  C   UNL A   1      37.285  32.755  29.224  1.00  0.00     0.020 A 
ATOM     53  C   UNL A   1      37.095  31.741  31.424  1.00  0.00     0.020 A 
ATOM     54  C   UNL A   1      36.522  32.419  30.346  1.00  0.00     0.054 A 
BRANCH  54  55
ATOM     55  S   UNL A   1      34.754  32.825  30.367  1.00  0.00     0.124 S 
ATOM     56  O   UNL A   1      34.269  32.119  29.186  1.00  0.00    -0.237 OA
ATOM     57  O   UNL A   1      34.319  32.286  31.653  1.00  0.00    -0.237 OA
ATOM     58  O   UNL A   1      34.742  34.284  30.278  1.00  0.00    -0.744 OA
ENDBRANCH  54  55
ENDBRANCH  26  49
BRANCH  38  59
ATOM     59  C   UNL A   1      45.149  34.893  32.145  1.00  0.00    -0.014 A 
ATOM     60  C   UNL A   1      45.393  36.004  31.318  1.00  0.00     0.010 A 
ATOM     61  C   UNL A   1      45.163  35.058  33.540  1.00  0.00     0.010 A 
ATOM     62  C   UNL A   1      45.697  37.247  31.876  1.00  0.00     0.020 A 
ATOM     63  C   UNL A   1      45.443  36.306  34.104  1.00  0.00     0.020 A 
ATOM     64  C   UNL A   1      45.730  37.387  33.268  1.00  0.00     0.054 A 
BRANCH  64  65
ATOM     65  S   UNL A   1      46.125  39.010  33.974  1.00  0.00     0.124 S 
ATOM     66  O   UNL A   1      47.220  38.685  34.884  1.00  0.00    -0.237 OA
ATOM     67  O   UNL A   1      46.496  39.793  32.798  1.00  0.00    -0.237 OA
ATOM     68  O   UNL A   1      44.878  39.418  34.618  1.00  0.00    -0.744 OA
ENDBRANCH  64  65
ENDBRANCH  38  59
ENDBRANCH  12  13
ENDBRANCH   5   7
ENDBRANCH   2   3
ENDBRANCH   1   2
BRANCH   1  69
ATOM     69  C   UNL A   1      36.749  23.861  25.792  1.00  0.00     0.023 C 
BRANCH  69  70
ATOM     70  C   UNL A   1      36.269  22.699  24.934  1.00  0.00     0.116 C 
BRANCH  70  71
ATOM     71  N   UNL A   1      35.688  23.065  23.660  1.00  0.00    -0.352 N 
ATOM     72  C   UNL A   1      34.369  23.379  23.415  1.00  0.00     0.253 C 
ATOM     73  H   UNL A   1      36.299  23.093  22.888  1.00  0.00     0.163 HD
ATOM     74  O   UNL A   1      34.025  23.811  22.319  1.00  0.00    -0.269 OA
BRANCH  72  75
ATOM     75  C   UNL A   1      33.342  23.069  24.438  1.00  0.00     0.065 A 
ATOM     76  C   UNL A   1      33.059  24.155  25.284  1.00  0.00     0.042 A 
ATOM     77  C   UNL A   1      32.621  21.862  24.516  1.00  0.00     0.050 A 
ATOM     78  C   UNL A   1      31.962  24.135  26.135  1.00  0.00     0.042 A 
ATOM     79  C   UNL A   1      31.554  21.841  25.431  1.00  0.00     0.029 A 
ATOM     80  C   UNL A   1      31.225  22.954  26.221  1.00  0.00     0.028 A 
BRANCH  77  81
ATOM     81  N   UNL A   1      32.927  20.707  23.814  1.00  0.00    -0.370 N 
ATOM     82  C   UNL A   1      32.219  20.352  22.581  1.00  0.00     0.116 C 
ATOM     83  C   UNL A   1      34.130  19.947  24.163  1.00  0.00     0.126 C 
ATOM     84  C   UNL A   1      31.970  18.849  22.499  1.00  0.00     0.022 C 
ATOM     85  C   UNL A   1      33.794  18.446  24.218  1.00  0.00     0.064 C 
ATOM     86  C   UNL A   1      33.223  18.047  22.849  1.00  0.00     0.013 C 
BRANCH  85  87
ATOM     87  C   UNL A   1      32.869  18.171  25.438  1.00  0.00     0.267 C 
BRANCH  87  88
ATOM     88  N   UNL A   1      32.996  16.926  26.203  1.00  0.00    -0.335 N 
ATOM     89  C   UNL A   1      34.237  16.190  25.978  1.00  0.00     0.262 C 
ATOM     90  C   UNL A   1      31.888  15.981  26.101  1.00  0.00     0.262 C 
ATOM     91  H   UNL A   1      32.991  17.310  27.148  1.00  0.00     0.348 HD
ATOM     92  C   UNL A   1      33.863  15.051  25.053  1.00  0.00     0.067 C 
ATOM     93  C   UNL A   1      32.436  14.717  25.448  1.00  0.00     0.067 C 
ENDBRANCH  87  88
ENDBRANCH  85  87
ENDBRANCH  77  81
BRANCH  78  94
ATOM     94  N   UNL A   1      31.529  25.230  26.907  1.00  0.00    -0.322 N 
ATOM     95  C   UNL A   1      31.212  26.531  26.578  1.00  0.00     0.257 C 
ATOM     96  H   UNL A   1      31.433  25.027  27.865  1.00  0.00     0.170 HD
ATOM     97  O   UNL A   1      30.977  27.348  27.468  1.00  0.00    -0.269 OA
BRANCH  95  98
ATOM     98  C   UNL A   1      31.140  26.989  25.180  1.00  0.00     0.058 A 
ATOM     99  C   UNL A   1      29.948  26.725  24.487  1.00  0.00     0.015 A 
ATOM    100  C   UNL A   1      32.177  27.692  24.555  1.00  0.00     0.053 A 
ATOM    101  C   UNL A   1      29.768  27.231  23.199  1.00  0.00     0.001 A 
ATOM    102  C   UNL A   1      31.982  28.205  23.269  1.00  0.00     0.021 A 
ATOM    103  Cl  UNL A   1      33.702  27.980  25.314  1.00  0.00    -0.083 Cl
ATOM    104  C   UNL A   1      30.775  27.986  22.600  1.00  0.00     0.002 A 
ENDBRANCH  95  98
ENDBRANCH  78  94
ENDBRANCH  72  75
ENDBRANCH  70  71
ENDBRANCH  69  70
ENDBRANCH   1  69
TORSDOF 19
ENDMDL
