MODEL 1
REMARK VINA RESULT:      -9.6      0.000      0.000
REMARK SMILES O=C(C[N@@H+](Cc1nc(-c2ccco2)no1)CC(F)(F)F)NCCCCNC(=O)c1ccc(-c2c3nc(c(-c4ccc(S(=O)(=O)[O-])cc4)c4ccc([nH]4)c(-c4ccc(S(=O)(=O)[O-])cc4)c4nc(c(-c5ccc(S(=O)(=O)[O-])cc5)c5ccc2[nH]5)C=C4)C=C3)cc1
REMARK SMILES IDX 23 1 22 2 21 3 1 4 2 5 3 7 4 8 5 10 6 11 7 12 15 13 8 14
REMARK SMILES IDX 14 15 9 16 10 17 13 18 11 19 12 20 16 21 17 22 18 23 19 24
REMARK SMILES IDX 20 25 24 26 25 27 26 28 27 29 28 31 29 32 30 33 88 34 31 35
REMARK SMILES IDX 87 36 32 37 33 38 34 39 81 40 35 41 86 42 80 43 82 44 36 45
REMARK SMILES IDX 85 46 79 47 78 48 37 50 67 51 48 52 66 53 49 54 52 55 65 56
REMARK SMILES IDX 83 57 50 58 51 59 64 61 84 62 53 63 38 64 39 65 47 66 40 67
REMARK SMILES IDX 46 68 41 69 42 70 43 71 44 72 45 73 68 74 69 75 77 76 70 77
REMARK SMILES IDX 76 78 71 79 72 80 73 81 74 82 75 83 54 84 55 85 63 86 56 87
REMARK SMILES IDX 62 88 57 89 58 90 59 91 60 92 61 93
REMARK H PARENT 21 6 4 9 26 30 82 49 52 60
REMARK Flexibility Score: inf
ROOT
ATOM      1  C   UNL A   1      34.733  22.114  26.617  1.00  0.00     0.023 C 
ENDROOT
BRANCH   1   2
ATOM      2  C   UNL A   1      33.974  21.183  25.676  1.00  0.00     0.116 C 
BRANCH   2   3
ATOM      3  N   UNL A   1      33.249  21.900  24.644  1.00  0.00    -0.351 N 
ATOM      4  O   UNL A   1      31.191  21.706  25.645  1.00  0.00    -0.269 OA
ATOM      5  C   UNL A   1      31.890  22.124  24.725  1.00  0.00     0.275 C 
ATOM      6  H   UNL A   1      33.742  22.237  23.861  1.00  0.00     0.163 HD
BRANCH   5   7
ATOM      7  C   UNL A   1      31.298  22.946  23.573  1.00  0.00     0.364 C 
BRANCH   7   8
ATOM      8  N   UNL A   1      31.399  24.406  23.799  1.00  0.00    -0.312 N 
ATOM      9  H   UNL A   1      31.470  24.520  24.810  1.00  0.00     0.349 HD
BRANCH   8  10
ATOM     10  C   UNL A   1      32.641  24.965  23.215  1.00  0.00     0.364 C 
BRANCH  10  11
ATOM     11  C   UNL A   1      33.189  26.245  23.772  1.00  0.00     0.282 A 
ATOM     12  N   UNL A   1      33.139  26.737  24.994  1.00  0.00    -0.183 NA
ATOM     13  O   UNL A   1      33.726  27.110  22.867  1.00  0.00    -0.333 OA
ATOM     14  C   UNL A   1      33.655  28.006  24.815  1.00  0.00     0.238 A 
ATOM     15  N   UNL A   1      34.050  28.267  23.560  1.00  0.00    -0.053 NA
BRANCH  14  16
ATOM     16  C   UNL A   1      33.705  29.052  25.880  1.00  0.00     0.174 A 
ATOM     17  C   UNL A   1      34.780  29.358  26.695  1.00  0.00     0.054 A 
ATOM     18  O   UNL A   1      32.643  29.848  26.227  1.00  0.00    -0.461 OA
ATOM     19  C   UNL A   1      34.345  30.374  27.586  1.00  0.00     0.043 A 
ATOM     20  C   UNL A   1      33.035  30.629  27.264  1.00  0.00     0.196 A 
ENDBRANCH  14  16
ENDBRANCH  10  11
ENDBRANCH   8  10
BRANCH   8  21
ATOM     21  C   UNL A   1      30.171  25.182  23.466  1.00  0.00     0.380 C 
BRANCH  21  22
ATOM     22  C   UNL A   1      29.523  26.215  24.416  1.00  0.00     0.438 C 
ATOM     23  F   UNL A   1      29.674  25.893  25.714  1.00  0.00    -0.165 F 
ATOM     24  F   UNL A   1      30.072  27.437  24.225  1.00  0.00    -0.165 F 
ATOM     25  F   UNL A   1      28.201  26.333  24.162  1.00  0.00    -0.165 F 
ENDBRANCH  21  22
ENDBRANCH   8  21
ENDBRANCH   7   8
ENDBRANCH   5   7
ENDBRANCH   2   3
ENDBRANCH   1   2
BRANCH   1  26
ATOM     26  C   UNL A   1      34.832  23.566  26.147  1.00  0.00     0.023 C 
BRANCH  26  27
ATOM     27  C   UNL A   1      36.248  24.083  25.904  1.00  0.00     0.116 C 
BRANCH  27  28
ATOM     28  N   UNL A   1      37.232  23.019  25.778  1.00  0.00    -0.352 N 
ATOM     29  C   UNL A   1      38.565  23.019  26.116  1.00  0.00     0.251 C 
ATOM     30  H   UNL A   1      36.894  22.177  25.396  1.00  0.00     0.163 HD
ATOM     31  O   UNL A   1      39.272  22.064  25.804  1.00  0.00    -0.269 OA
BRANCH  29  32
ATOM     32  C   UNL A   1      39.158  24.178  26.822  1.00  0.00     0.039 A 
ATOM     33  C   UNL A   1      39.990  25.048  26.112  1.00  0.00     0.014 A 
ATOM     34  C   UNL A   1      38.897  24.413  28.175  1.00  0.00     0.014 A 
ATOM     35  C   UNL A   1      40.496  26.191  26.738  1.00  0.00     0.010 A 
ATOM     36  C   UNL A   1      39.338  25.591  28.773  1.00  0.00     0.010 A 
ATOM     37  C   UNL A   1      40.141  26.496  28.061  1.00  0.00    -0.014 A 
BRANCH  37  38
ATOM     38  C   UNL A   1      40.583  27.760  28.710  1.00  0.00     0.031 A 
ATOM     39  C   UNL A   1      41.963  27.869  29.307  1.00  0.00     0.074 A 
ATOM     40  C   UNL A   1      39.722  28.792  28.819  1.00  0.00     0.049 A 
ATOM     41  N   UNL A   1      42.502  28.867  29.957  1.00  0.00    -0.248 NA
ATOM     42  C   UNL A   1      42.839  26.694  29.177  1.00  0.00     0.031 C 
ATOM     43  C   UNL A   1      38.347  28.805  28.316  1.00  0.00     0.029 A 
ATOM     44  N   UNL A   1      39.873  30.030  29.394  1.00  0.00    -0.354 N 
ATOM     45  C   UNL A   1      43.772  28.438  30.328  1.00  0.00     0.074 A 
ATOM     46  C   UNL A   1      43.903  27.071  29.874  1.00  0.00     0.031 C 
ATOM     47  C   UNL A   1      37.794  30.001  28.574  1.00  0.00     0.029 A 
ATOM     48  C   UNL A   1      38.753  30.824  29.304  1.00  0.00     0.049 A 
ATOM     49  H   UNL A   1      40.706  30.323  29.831  1.00  0.00     0.167 HD
ATOM     50  C   UNL A   1      44.747  29.123  30.974  1.00  0.00     0.031 A 
ATOM     51  C   UNL A   1      38.517  32.070  29.760  1.00  0.00     0.031 A 
ATOM     52  C   UNL A   1      44.617  30.487  31.417  1.00  0.00     0.049 A 
ATOM     53  C   UNL A   1      39.608  32.800  30.495  1.00  0.00     0.074 A 
ATOM     54  C   UNL A   1      45.570  31.286  32.026  1.00  0.00     0.029 A 
ATOM     55  N   UNL A   1      43.465  31.252  31.308  1.00  0.00    -0.354 N 
ATOM     56  N   UNL A   1      40.826  32.400  30.775  1.00  0.00    -0.248 NA
ATOM     57  C   UNL A   1      39.296  34.157  30.968  1.00  0.00     0.031 C 
ATOM     58  C   UNL A   1      44.975  32.511  32.344  1.00  0.00     0.029 A 
ATOM     59  C   UNL A   1      43.674  32.502  31.869  1.00  0.00     0.049 A 
ATOM     60  H   UNL A   1      42.624  30.951  30.894  1.00  0.00     0.167 HD
ATOM     61  C   UNL A   1      41.435  33.467  31.427  1.00  0.00     0.074 A 
ATOM     62  C   UNL A   1      40.456  34.533  31.487  1.00  0.00     0.031 C 
ATOM     63  C   UNL A   1      42.692  33.557  31.926  1.00  0.00     0.031 A 
BRANCH  50  64
ATOM     64  C   UNL A   1      46.041  28.403  31.253  1.00  0.00    -0.014 A 
ATOM     65  C   UNL A   1      47.149  28.528  30.395  1.00  0.00     0.010 A 
ATOM     66  C   UNL A   1      46.168  27.625  32.419  1.00  0.00     0.010 A 
ATOM     67  C   UNL A   1      48.342  27.855  30.674  1.00  0.00     0.020 A 
ATOM     68  C   UNL A   1      47.369  26.976  32.719  1.00  0.00     0.020 A 
ATOM     69  C   UNL A   1      48.444  27.082  31.834  1.00  0.00     0.054 A 
BRANCH  69  70
ATOM     70  S   UNL A   1      50.011  26.239  32.180  1.00  0.00     0.124 S 
ATOM     71  O   UNL A   1      50.986  27.293  31.909  1.00  0.00    -0.237 OA
ATOM     72  O   UNL A   1      49.868  25.863  33.584  1.00  0.00    -0.237 OA
ATOM     73  O   UNL A   1      50.022  25.123  31.237  1.00  0.00    -0.744 OA
ENDBRANCH  69  70
ENDBRANCH  50  64
BRANCH  51  74
ATOM     74  C   UNL A   1      37.195  32.713  29.525  1.00  0.00    -0.014 A 
ATOM     75  C   UNL A   1      36.177  32.627  30.492  1.00  0.00     0.010 A 
ATOM     76  C   UNL A   1      36.946  33.421  28.335  1.00  0.00     0.010 A 
ATOM     77  C   UNL A   1      34.930  33.219  30.264  1.00  0.00     0.020 A 
ATOM     78  C   UNL A   1      35.713  34.041  28.117  1.00  0.00     0.020 A 
ATOM     79  C   UNL A   1      34.708  33.925  29.080  1.00  0.00     0.054 A 
BRANCH  79  80
ATOM     80  S   UNL A   1      33.099  34.726  28.828  1.00  0.00     0.124 S 
ATOM     81  O   UNL A   1      32.466  33.838  27.859  1.00  0.00    -0.237 OA
ATOM     82  O   UNL A   1      32.527  34.712  30.172  1.00  0.00    -0.237 OA
ATOM     83  O   UNL A   1      33.453  36.053  28.324  1.00  0.00    -0.744 OA
ENDBRANCH  79  80
ENDBRANCH  51  74
BRANCH  63  84
ATOM     84  C   UNL A   1      43.103  34.865  32.550  1.00  0.00    -0.014 A 
ATOM     85  C   UNL A   1      43.662  35.901  31.783  1.00  0.00     0.010 A 
ATOM     86  C   UNL A   1      42.873  35.078  33.923  1.00  0.00     0.010 A 
ATOM     87  C   UNL A   1      44.013  37.115  32.381  1.00  0.00     0.020 A 
ATOM     88  C   UNL A   1      43.192  36.301  34.518  1.00  0.00     0.020 A 
ATOM     89  C   UNL A   1      43.775  37.306  33.745  1.00  0.00     0.054 A 
BRANCH  89  90
ATOM     90  S   UNL A   1      44.198  38.907  34.488  1.00  0.00     0.124 S 
ATOM     91  O   UNL A   1      45.541  39.140  33.963  1.00  0.00    -0.237 OA
ATOM     92  O   UNL A   1      43.156  39.787  33.964  1.00  0.00    -0.237 OA
ATOM     93  O   UNL A   1      44.127  38.652  35.925  1.00  0.00    -0.744 OA
ENDBRANCH  89  90
ENDBRANCH  63  84
ENDBRANCH  37  38
ENDBRANCH  29  32
ENDBRANCH  27  28
ENDBRANCH  26  27
ENDBRANCH   1  26
TORSDOF 20
ENDMDL
MODEL 2
REMARK VINA RESULT:      -9.5      1.800      2.558
REMARK SMILES O=C(C[N@@H+](Cc1nc(-c2ccco2)no1)CC(F)(F)F)NCCCCNC(=O)c1ccc(-c2c3nc(c(-c4ccc(S(=O)(=O)[O-])cc4)c4ccc([nH]4)c(-c4ccc(S(=O)(=O)[O-])cc4)c4nc(c(-c5ccc(S(=O)(=O)[O-])cc5)c5ccc2[nH]5)C=C4)C=C3)cc1
REMARK SMILES IDX 23 1 22 2 21 3 1 4 2 5 3 7 4 8 5 10 6 11 7 12 15 13 8 14
REMARK SMILES IDX 14 15 9 16 10 17 13 18 11 19 12 20 16 21 17 22 18 23 19 24
REMARK SMILES IDX 20 25 24 26 25 27 26 28 27 29 28 31 29 32 30 33 88 34 31 35
REMARK SMILES IDX 87 36 32 37 33 38 34 39 81 40 35 41 86 42 80 43 82 44 36 45
REMARK SMILES IDX 85 46 79 47 78 48 37 50 67 51 48 52 66 53 49 54 52 55 65 56
REMARK SMILES IDX 83 57 50 58 51 59 64 61 84 62 53 63 38 64 39 65 47 66 40 67
REMARK SMILES IDX 46 68 41 69 42 70 43 71 44 72 45 73 68 74 69 75 77 76 70 77
REMARK SMILES IDX 76 78 71 79 72 80 73 81 74 82 75 83 54 84 55 85 63 86 56 87
REMARK SMILES IDX 62 88 57 89 58 90 59 91 60 92 61 93
REMARK H PARENT 21 6 4 9 26 30 82 49 52 60
REMARK Flexibility Score: inf
ROOT
ATOM      1  C   UNL A   1      34.657  22.148  27.426  1.00  0.00     0.023 C 
ENDROOT
BRANCH   1   2
ATOM      2  C   UNL A   1      33.138  22.138  27.563  1.00  0.00     0.116 C 
BRANCH   2   3
ATOM      3  N   UNL A   1      32.463  22.545  26.346  1.00  0.00    -0.351 N 
ATOM      4  O   UNL A   1      30.744  23.644  27.401  1.00  0.00    -0.269 OA
ATOM      5  C   UNL A   1      31.306  23.297  26.365  1.00  0.00     0.275 C 
ATOM      6  H   UNL A   1      32.842  22.275  25.478  1.00  0.00     0.163 HD
BRANCH   5   7
ATOM      7  C   UNL A   1      30.760  23.683  24.985  1.00  0.00     0.364 C 
BRANCH   7   8
ATOM      8  N   UNL A   1      31.585  24.709  24.307  1.00  0.00    -0.312 N 
ATOM      9  H   UNL A   1      31.017  25.043  23.528  1.00  0.00     0.349 HD
BRANCH   8  10
ATOM     10  C   UNL A   1      31.838  25.875  25.186  1.00  0.00     0.364 C 
BRANCH  10  11
ATOM     11  C   UNL A   1      31.258  27.204  24.808  1.00  0.00     0.282 A 
ATOM     12  N   UNL A   1      30.232  27.502  24.037  1.00  0.00    -0.183 NA
ATOM     13  O   UNL A   1      31.956  28.300  25.219  1.00  0.00    -0.333 OA
ATOM     14  C   UNL A   1      30.328  28.877  23.945  1.00  0.00     0.238 A 
ATOM     15  N   UNL A   1      31.330  29.407  24.662  1.00  0.00    -0.053 NA
BRANCH  14  16
ATOM     16  C   UNL A   1      29.466  29.725  23.067  1.00  0.00     0.174 A 
ATOM     17  C   UNL A   1      28.898  30.944  23.388  1.00  0.00     0.054 A 
ATOM     18  O   UNL A   1      29.081  29.375  21.798  1.00  0.00    -0.461 OA
ATOM     19  C   UNL A   1      28.121  31.344  22.269  1.00  0.00     0.043 A 
ATOM     20  C   UNL A   1      28.260  30.349  21.334  1.00  0.00     0.196 A 
ENDBRANCH  14  16
ENDBRANCH  10  11
ENDBRANCH   8  10
BRANCH   8  21
ATOM     21  C   UNL A   1      32.803  24.188  23.625  1.00  0.00     0.380 C 
BRANCH  21  22
ATOM     22  C   UNL A   1      34.098  25.011  23.432  1.00  0.00     0.438 C 
ATOM     23  F   UNL A   1      34.570  25.514  24.588  1.00  0.00    -0.165 F 
ATOM     24  F   UNL A   1      35.068  24.240  22.888  1.00  0.00    -0.165 F 
ATOM     25  F   UNL A   1      33.887  26.038  22.581  1.00  0.00    -0.165 F 
ENDBRANCH  21  22
ENDBRANCH   8  21
ENDBRANCH   7   8
ENDBRANCH   5   7
ENDBRANCH   2   3
ENDBRANCH   1   2
BRANCH   1  26
ATOM     26  C   UNL A   1      35.176  22.504  26.031  1.00  0.00     0.023 C 
BRANCH  26  27
ATOM     27  C   UNL A   1      36.473  23.307  25.998  1.00  0.00     0.116 C 
BRANCH  27  28
ATOM     28  N   UNL A   1      37.664  22.472  25.963  1.00  0.00    -0.352 N 
ATOM     29  C   UNL A   1      38.961  22.786  26.298  1.00  0.00     0.251 C 
ATOM     30  H   UNL A   1      37.520  21.548  25.656  1.00  0.00     0.163 HD
ATOM     31  O   UNL A   1      39.860  21.981  26.069  1.00  0.00    -0.269 OA
BRANCH  29  32
ATOM     32  C   UNL A   1      39.280  24.100  26.900  1.00  0.00     0.039 A 
ATOM     33  C   UNL A   1      38.863  24.364  28.208  1.00  0.00     0.014 A 
ATOM     34  C   UNL A   1      39.989  25.070  26.186  1.00  0.00     0.014 A 
ATOM     35  C   UNL A   1      39.223  25.567  28.823  1.00  0.00     0.010 A 
ATOM     36  C   UNL A   1      40.412  26.233  26.826  1.00  0.00     0.010 A 
ATOM     37  C   UNL A   1      40.036  26.495  28.153  1.00  0.00    -0.014 A 
BRANCH  37  38
ATOM     38  C   UNL A   1      40.516  27.732  28.827  1.00  0.00     0.031 A 
ATOM     39  C   UNL A   1      41.898  27.788  29.424  1.00  0.00     0.074 A 
ATOM     40  C   UNL A   1      39.685  28.786  28.959  1.00  0.00     0.049 A 
ATOM     41  N   UNL A   1      42.467  28.757  30.095  1.00  0.00    -0.248 NA
ATOM     42  C   UNL A   1      42.740  26.592  29.269  1.00  0.00     0.031 C 
ATOM     43  C   UNL A   1      38.310  28.849  28.458  1.00  0.00     0.029 A 
ATOM     44  N   UNL A   1      39.872  30.007  29.560  1.00  0.00    -0.354 N 
ATOM     45  C   UNL A   1      43.724  28.284  30.455  1.00  0.00     0.074 A 
ATOM     46  C   UNL A   1      43.815  26.923  29.972  1.00  0.00     0.031 C 
ATOM     47  C   UNL A   1      37.792  30.054  28.741  1.00  0.00     0.029 A 
ATOM     48  C   UNL A   1      38.775  30.834  29.487  1.00  0.00     0.049 A 
ATOM     49  H   UNL A   1      40.713  30.266  30.002  1.00  0.00     0.167 HD
ATOM     50  C   UNL A   1      44.718  28.927  31.113  1.00  0.00     0.031 A 
ATOM     51  C   UNL A   1      38.575  32.076  29.970  1.00  0.00     0.031 A 
ATOM     52  C   UNL A   1      44.629  30.284  31.585  1.00  0.00     0.049 A 
ATOM     53  C   UNL A   1      39.688  32.759  30.719  1.00  0.00     0.074 A 
ATOM     54  C   UNL A   1      45.604  31.042  32.210  1.00  0.00     0.029 A 
ATOM     55  N   UNL A   1      43.499  31.083  31.494  1.00  0.00    -0.354 N 
ATOM     56  N   UNL A   1      40.893  32.319  30.989  1.00  0.00    -0.248 NA
ATOM     57  C   UNL A   1      39.415  34.114  31.221  1.00  0.00     0.031 C 
ATOM     58  C   UNL A   1      45.046  32.276  32.554  1.00  0.00     0.029 A 
ATOM     59  C   UNL A   1      43.744  32.315  32.081  1.00  0.00     0.049 A 
ATOM     60  H   UNL A   1      42.649  30.816  31.075  1.00  0.00     0.167 HD
ATOM     61  C   UNL A   1      41.533  33.354  31.662  1.00  0.00     0.074 A 
ATOM     62  C   UNL A   1      40.586  34.446  31.746  1.00  0.00     0.031 C 
ATOM     63  C   UNL A   1      42.793  33.397  32.161  1.00  0.00     0.031 A 
BRANCH  50  64
ATOM     64  C   UNL A   1      45.992  28.164  31.376  1.00  0.00    -0.014 A 
ATOM     65  C   UNL A   1      46.182  27.446  32.571  1.00  0.00     0.010 A 
ATOM     66  C   UNL A   1      46.997  28.126  30.392  1.00  0.00     0.010 A 
ATOM     67  C   UNL A   1      47.368  26.742  32.794  1.00  0.00     0.020 A 
ATOM     68  C   UNL A   1      48.171  27.396  30.597  1.00  0.00     0.020 A 
ATOM     69  C   UNL A   1      48.356  26.722  31.805  1.00  0.00     0.054 A 
BRANCH  69  70
ATOM     70  S   UNL A   1      49.875  25.782  32.114  1.00  0.00     0.124 S 
ATOM     71  O   UNL A   1      50.821  26.841  32.457  1.00  0.00    -0.237 OA
ATOM     72  O   UNL A   1      49.490  24.905  33.216  1.00  0.00    -0.237 OA
ATOM     73  O   UNL A   1      50.131  25.106  30.844  1.00  0.00    -0.744 OA
ENDBRANCH  69  70
ENDBRANCH  50  64
BRANCH  51  74
ATOM     74  C   UNL A   1      37.272  32.762  29.751  1.00  0.00    -0.014 A 
ATOM     75  C   UNL A   1      37.027  33.467  28.558  1.00  0.00     0.010 A 
ATOM     76  C   UNL A   1      36.263  32.710  30.731  1.00  0.00     0.010 A 
ATOM     77  C   UNL A   1      35.808  34.123  28.359  1.00  0.00     0.020 A 
ATOM     78  C   UNL A   1      35.032  33.337  30.523  1.00  0.00     0.020 A 
ATOM     79  C   UNL A   1      34.817  34.051  29.341  1.00  0.00     0.054 A 
BRANCH  79  80
ATOM     80  S   UNL A   1      33.226  34.868  29.039  1.00  0.00     0.124 S 
ATOM     81  O   UNL A   1      32.611  34.833  30.362  1.00  0.00    -0.237 OA
ATOM     82  O   UNL A   1      33.635  36.187  28.564  1.00  0.00    -0.237 OA
ATOM     83  O   UNL A   1      32.592  34.020  28.031  1.00  0.00    -0.744 OA
ENDBRANCH  79  80
ENDBRANCH  51  74
BRANCH  63  84
ATOM     84  C   UNL A   1      43.242  34.679  32.812  1.00  0.00    -0.014 A 
ATOM     85  C   UNL A   1      43.101  34.888  34.195  1.00  0.00     0.010 A 
ATOM     86  C   UNL A   1      43.868  35.668  32.030  1.00  0.00     0.010 A 
ATOM     87  C   UNL A   1      43.548  36.078  34.779  1.00  0.00     0.020 A 
ATOM     88  C   UNL A   1      44.345  36.844  32.615  1.00  0.00     0.020 A 
ATOM     89  C   UNL A   1      44.168  37.047  33.985  1.00  0.00     0.054 A 
BRANCH  89  90
ATOM     90  S   UNL A   1      44.780  38.561  34.776  1.00  0.00     0.124 S 
ATOM     91  O   UNL A   1      44.314  39.594  33.855  1.00  0.00    -0.237 OA
ATOM     92  O   UNL A   1      44.117  38.532  36.077  1.00  0.00    -0.237 OA
ATOM     93  O   UNL A   1      46.228  38.371  34.815  1.00  0.00    -0.744 OA
ENDBRANCH  89  90
ENDBRANCH  63  84
ENDBRANCH  37  38
ENDBRANCH  29  32
ENDBRANCH  27  28
ENDBRANCH  26  27
ENDBRANCH   1  26
TORSDOF 20
ENDMDL
MODEL 3
REMARK VINA RESULT:      -9.4      4.459      9.915
REMARK SMILES O=C(C[N@@H+](Cc1nc(-c2ccco2)no1)CC(F)(F)F)NCCCCNC(=O)c1ccc(-c2c3nc(c(-c4ccc(S(=O)(=O)[O-])cc4)c4ccc([nH]4)c(-c4ccc(S(=O)(=O)[O-])cc4)c4nc(c(-c5ccc(S(=O)(=O)[O-])cc5)c5ccc2[nH]5)C=C4)C=C3)cc1
REMARK SMILES IDX 23 1 22 2 21 3 1 4 2 5 3 7 4 8 5 10 6 11 7 12 15 13 8 14
REMARK SMILES IDX 14 15 9 16 10 17 13 18 11 19 12 20 16 21 17 22 18 23 19 24
REMARK SMILES IDX 20 25 24 26 25 27 26 28 27 29 28 31 29 32 30 33 88 34 31 35
REMARK SMILES IDX 87 36 32 37 33 38 34 39 81 40 35 41 86 42 80 43 82 44 36 45
REMARK SMILES IDX 85 46 79 47 78 48 37 50 67 51 48 52 66 53 49 54 52 55 65 56
REMARK SMILES IDX 83 57 50 58 51 59 64 61 84 62 53 63 38 64 39 65 47 66 40 67
REMARK SMILES IDX 46 68 41 69 42 70 43 71 44 72 45 73 68 74 69 75 77 76 70 77
REMARK SMILES IDX 76 78 71 79 72 80 73 81 74 82 75 83 54 84 55 85 63 86 56 87
REMARK SMILES IDX 62 88 57 89 58 90 59 91 60 92 61 93
REMARK H PARENT 21 6 4 9 26 30 82 49 52 60
REMARK Flexibility Score: inf
ROOT
ATOM      1  C   UNL A   1      33.830  30.088  27.189  1.00  0.00     0.023 C 
ENDROOT
BRANCH   1   2
ATOM      2  C   UNL A   1      32.323  30.122  26.948  1.00  0.00     0.116 C 
BRANCH   2   3
ATOM      3  N   UNL A   1      31.835  28.927  26.287  1.00  0.00    -0.351 N 
ATOM      4  O   UNL A   1      31.421  27.758  28.219  1.00  0.00    -0.269 OA
ATOM      5  C   UNL A   1      31.397  27.826  26.993  1.00  0.00     0.275 C 
ATOM      6  H   UNL A   1      31.816  28.900  25.303  1.00  0.00     0.163 HD
BRANCH   5   7
ATOM      7  C   UNL A   1      30.864  26.673  26.133  1.00  0.00     0.364 C 
BRANCH   7   8
ATOM      8  N   UNL A   1      31.849  25.581  25.962  1.00  0.00    -0.312 N 
ATOM      9  H   UNL A   1      32.647  25.842  26.541  1.00  0.00     0.349 HD
BRANCH   8  10
ATOM     10  C   UNL A   1      31.337  24.295  26.491  1.00  0.00     0.364 C 
BRANCH  10  11
ATOM     11  C   UNL A   1      32.165  23.059  26.312  1.00  0.00     0.282 A 
ATOM     12  N   UNL A   1      32.010  22.037  25.493  1.00  0.00    -0.183 NA
ATOM     13  O   UNL A   1      33.177  22.881  27.206  1.00  0.00    -0.333 OA
ATOM     14  C   UNL A   1      32.980  21.159  25.941  1.00  0.00     0.238 A 
ATOM     15  N   UNL A   1      33.727  21.633  26.949  1.00  0.00    -0.053 NA
BRANCH  14  16
ATOM     16  C   UNL A   1      33.154  19.766  25.431  1.00  0.00     0.174 A 
ATOM     17  C   UNL A   1      34.145  19.310  24.581  1.00  0.00     0.054 A 
ATOM     18  O   UNL A   1      32.303  18.729  25.719  1.00  0.00    -0.461 OA
ATOM     19  C   UNL A   1      33.874  17.939  24.330  1.00  0.00     0.043 A 
ATOM     20  C   UNL A   1      32.737  17.640  25.039  1.00  0.00     0.196 A 
ENDBRANCH  14  16
ENDBRANCH  10  11
ENDBRANCH   8  10
BRANCH   8  21
ATOM     21  C   UNL A   1      32.448  25.481  24.602  1.00  0.00     0.380 C 
BRANCH  21  22
ATOM     22  C   UNL A   1      33.960  25.633  24.315  1.00  0.00     0.438 C 
ATOM     23  F   UNL A   1      34.397  24.778  23.371  1.00  0.00    -0.165 F 
ATOM     24  F   UNL A   1      34.234  26.890  23.896  1.00  0.00    -0.165 F 
ATOM     25  F   UNL A   1      34.681  25.425  25.438  1.00  0.00    -0.165 F 
ENDBRANCH  21  22
ENDBRANCH   8  21
ENDBRANCH   7   8
ENDBRANCH   5   7
ENDBRANCH   2   3
ENDBRANCH   1   2
BRANCH   1  26
ATOM     26  C   UNL A   1      34.437  31.413  27.657  1.00  0.00     0.023 C 
BRANCH  26  27
ATOM     27  C   UNL A   1      35.773  31.301  28.385  1.00  0.00     0.116 C 
BRANCH  27  28
ATOM     28  N   UNL A   1      35.663  30.669  29.691  1.00  0.00    -0.352 N 
ATOM     29  C   UNL A   1      36.595  29.935  30.388  1.00  0.00     0.251 C 
ATOM     30  H   UNL A   1      34.795  30.784  30.142  1.00  0.00     0.163 HD
ATOM     31  O   UNL A   1      36.267  29.361  31.423  1.00  0.00    -0.269 OA
BRANCH  29  32
ATOM     32  C   UNL A   1      37.978  29.806  29.877  1.00  0.00     0.039 A 
ATOM     33  C   UNL A   1      39.035  29.767  30.791  1.00  0.00     0.014 A 
ATOM     34  C   UNL A   1      38.239  29.721  28.506  1.00  0.00     0.014 A 
ATOM     35  C   UNL A   1      40.341  29.565  30.335  1.00  0.00     0.010 A 
ATOM     36  C   UNL A   1      39.529  29.443  28.061  1.00  0.00     0.010 A 
ATOM     37  C   UNL A   1      40.596  29.359  28.969  1.00  0.00    -0.014 A 
BRANCH  37  38
ATOM     38  C   UNL A   1      41.963  29.040  28.477  1.00  0.00     0.031 A 
ATOM     39  C   UNL A   1      42.314  27.637  28.054  1.00  0.00     0.074 A 
ATOM     40  C   UNL A   1      42.912  29.999  28.470  1.00  0.00     0.049 A 
ATOM     41  N   UNL A   1      43.464  27.161  27.652  1.00  0.00    -0.248 NA
ATOM     42  C   UNL A   1      41.238  26.635  28.115  1.00  0.00     0.031 C 
ATOM     43  C   UNL A   1      42.715  31.389  28.888  1.00  0.00     0.029 A 
ATOM     44  N   UNL A   1      44.235  29.951  28.104  1.00  0.00    -0.354 N 
ATOM     45  C   UNL A   1      43.257  25.804  27.426  1.00  0.00     0.074 A 
ATOM     46  C   UNL A   1      41.884  25.524  27.787  1.00  0.00     0.031 C 
ATOM     47  C   UNL A   1      43.862  32.066  28.722  1.00  0.00     0.029 A 
ATOM     48  C   UNL A   1      44.891  31.153  28.235  1.00  0.00     0.049 A 
ATOM     49  H   UNL A   1      44.674  29.131  27.778  1.00  0.00     0.167 HD
ATOM     50  C   UNL A   1      44.124  24.879  26.950  1.00  0.00     0.031 A 
ATOM     51  C   UNL A   1      46.175  31.486  27.999  1.00  0.00     0.031 A 
ATOM     52  C   UNL A   1      45.487  25.162  26.584  1.00  0.00     0.049 A 
ATOM     53  C   UNL A   1      47.124  30.433  27.493  1.00  0.00     0.074 A 
ATOM     54  C   UNL A   1      46.425  24.305  26.035  1.00  0.00     0.029 A 
ATOM     55  N   UNL A   1      46.111  26.391  26.737  1.00  0.00    -0.354 N 
ATOM     56  N   UNL A   1      46.889  29.172  27.222  1.00  0.00    -0.248 NA
ATOM     57  C   UNL A   1      48.512  30.854  27.250  1.00  0.00     0.031 C 
ATOM     58  C   UNL A   1      47.634  24.996  25.916  1.00  0.00     0.029 A 
ATOM     59  C   UNL A   1      47.431  26.305  26.323  1.00  0.00     0.049 A 
ATOM     60  H   UNL A   1      45.680  27.204  27.087  1.00  0.00     0.167 HD
ATOM     61  C   UNL A   1      48.090  28.656  26.746  1.00  0.00     0.074 A 
ATOM     62  C   UNL A   1      49.045  29.746  26.753  1.00  0.00     0.031 C 
ATOM     63  C   UNL A   1      48.375  27.396  26.336  1.00  0.00     0.031 A 
BRANCH  50  64
ATOM     64  C   UNL A   1      43.628  23.462  26.807  1.00  0.00    -0.014 A 
ATOM     65  C   UNL A   1      43.166  22.733  27.918  1.00  0.00     0.010 A 
ATOM     66  C   UNL A   1      43.578  22.867  25.533  1.00  0.00     0.010 A 
ATOM     67  C   UNL A   1      42.707  21.422  27.764  1.00  0.00     0.020 A 
ATOM     68  C   UNL A   1      43.089  21.568  25.369  1.00  0.00     0.020 A 
ATOM     69  C   UNL A   1      42.672  20.847  26.490  1.00  0.00     0.054 A 
BRANCH  69  70
ATOM     70  S   UNL A   1      42.050  19.153  26.319  1.00  0.00     0.124 S 
ATOM     71  O   UNL A   1      42.221  18.631  27.673  1.00  0.00    -0.237 OA
ATOM     72  O   UNL A   1      40.667  19.361  25.897  1.00  0.00    -0.237 OA
ATOM     73  O   UNL A   1      42.925  18.561  25.309  1.00  0.00    -0.744 OA
ENDBRANCH  69  70
ENDBRANCH  50  64
BRANCH  51  74
ATOM     74  C   UNL A   1      46.638  32.882  28.227  1.00  0.00    -0.014 A 
ATOM     75  C   UNL A   1      47.163  33.266  29.474  1.00  0.00     0.010 A 
ATOM     76  C   UNL A   1      46.562  33.838  27.196  1.00  0.00     0.010 A 
ATOM     77  C   UNL A   1      47.585  34.582  29.692  1.00  0.00     0.020 A 
ATOM     78  C   UNL A   1      47.012  35.144  27.399  1.00  0.00     0.020 A 
ATOM     79  C   UNL A   1      47.509  35.512  28.652  1.00  0.00     0.054 A 
BRANCH  79  80
ATOM     80  S   UNL A   1      48.108  37.200  28.943  1.00  0.00     0.124 S 
ATOM     81  O   UNL A   1      49.371  37.204  28.213  1.00  0.00    -0.237 OA
ATOM     82  O   UNL A   1      47.040  38.015  28.371  1.00  0.00    -0.237 OA
ATOM     83  O   UNL A   1      48.226  37.274  30.399  1.00  0.00    -0.744 OA
ENDBRANCH  79  80
ENDBRANCH  51  74
BRANCH  63  84
ATOM     84  C   UNL A   1      49.765  27.127  25.822  1.00  0.00    -0.014 A 
ATOM     85  C   UNL A   1      50.748  26.540  26.637  1.00  0.00     0.010 A 
ATOM     86  C   UNL A   1      50.074  27.417  24.479  1.00  0.00     0.010 A 
ATOM     87  C   UNL A   1      52.024  26.278  26.130  1.00  0.00     0.020 A 
ATOM     88  C   UNL A   1      51.337  27.127  23.959  1.00  0.00     0.020 A 
ATOM     89  C   UNL A   1      52.310  26.573  24.793  1.00  0.00     0.054 A 
BRANCH  89  90
ATOM     90  S   UNL A   1      53.960  26.181  24.147  1.00  0.00     0.124 S 
ATOM     91  O   UNL A   1      54.736  27.343  24.571  1.00  0.00    -0.237 OA
ATOM     92  O   UNL A   1      54.279  24.928  24.827  1.00  0.00    -0.237 OA
ATOM     93  O   UNL A   1      53.749  26.066  22.705  1.00  0.00    -0.744 OA
ENDBRANCH  89  90
ENDBRANCH  63  84
ENDBRANCH  37  38
ENDBRANCH  29  32
ENDBRANCH  27  28
ENDBRANCH  26  27
ENDBRANCH   1  26
TORSDOF 20
ENDMDL
