MODEL 1
REMARK VINA RESULT:     -12.0      0.000      0.000
REMARK SMILES Cc1cccc2nc(C(=O)NCC(=O)NCCCCNC(=O)c3ccc(-c4c5nc(c(-c6ccc(S(=O)(=O)[O-])cc6)c6ccc([nH]6)c(-c6ccc(S(=O)(=O)[O-])cc6)c6nc(c(-c7ccc(S(=O)(=O)[O-])cc7)c7ccc4[nH]7)C=C6)C=C5)cc3)cn12
REMARK SMILES IDX 18 1 17 2 16 3 15 4 13 5 14 6 12 8 11 9 9 10 10 11 8 13 1 14
REMARK SMILES IDX 2 15 3 16 84 17 4 18 6 19 83 20 5 21 7 22 19 23 20 24 21 25
REMARK SMILES IDX 22 27 23 28 24 29 82 30 25 31 81 32 26 33 27 34 28 35 75 36
REMARK SMILES IDX 29 37 80 38 74 39 76 40 30 41 79 42 73 43 72 44 31 46 61 47
REMARK SMILES IDX 42 48 60 49 43 50 46 51 59 52 77 53 44 54 45 55 58 57 78 58
REMARK SMILES IDX 47 59 32 60 33 61 41 62 34 63 40 64 35 65 36 66 37 67 38 68
REMARK SMILES IDX 39 69 62 70 63 71 71 72 64 73 70 74 65 75 66 76 67 77 68 78
REMARK SMILES IDX 69 79 48 80 49 81 57 82 50 83 56 84 51 85 52 86 53 87 54 88
REMARK SMILES IDX 55 89
REMARK H PARENT 15 7 11 12 20 26 76 45 46 56
REMARK Flexibility Score: inf
ROOT
ATOM      1  C   UNL A   1      38.861  22.196  25.870  1.00  0.00     0.023 C 
ENDROOT
BRANCH   1   2
ATOM      2  C   UNL A   1      38.196  23.543  26.199  1.00  0.00     0.023 C 
BRANCH   2   3
ATOM      3  C   UNL A   1      36.709  23.611  25.849  1.00  0.00     0.116 C 
BRANCH   3   4
ATOM      4  N   UNL A   1      35.987  22.469  26.368  1.00  0.00    -0.355 N 
ATOM      5  C   UNL A   1      34.669  22.349  26.695  1.00  0.00     0.239 C 
ATOM      6  O   UNL A   1      34.274  21.244  27.081  1.00  0.00    -0.273 OA
ATOM      7  H   UNL A   1      36.528  21.659  26.505  1.00  0.00     0.163 HD
BRANCH   5   8
ATOM      8  C   UNL A   1      33.676  23.498  26.476  1.00  0.00     0.216 C 
BRANCH   8   9
ATOM      9  N   UNL A   1      32.336  23.261  26.999  1.00  0.00    -0.342 N 
ATOM     10  C   UNL A   1      31.136  23.877  26.743  1.00  0.00     0.271 C 
ATOM     11  O   UNL A   1      30.144  23.455  27.339  1.00  0.00    -0.267 OA
ATOM     12  H   UNL A   1      32.282  22.526  27.653  1.00  0.00     0.164 HD
BRANCH  10  13
ATOM     13  C   UNL A   1      31.050  25.031  25.838  1.00  0.00     0.147 A 
ATOM     14  C   UNL A   1      31.759  29.356  26.005  1.00  0.00     0.065 C 
ATOM     15  C   UNL A   1      31.400  28.475  24.848  1.00  0.00     0.021 A 
ATOM     16  C   UNL A   1      31.253  28.954  23.594  1.00  0.00     0.022 A 
ATOM     17  N   UNL A   1      31.212  27.096  25.053  1.00  0.00    -0.304 N 
ATOM     18  C   UNL A   1      30.923  28.044  22.507  1.00  0.00     0.006 A 
ATOM     19  C   UNL A   1      30.885  26.205  24.035  1.00  0.00     0.137 A 
ATOM     20  C   UNL A   1      31.307  26.344  26.199  1.00  0.00     0.127 A 
ATOM     21  C   UNL A   1      30.747  26.727  22.721  1.00  0.00     0.048 A 
ATOM     22  N   UNL A   1      30.773  24.976  24.487  1.00  0.00    -0.223 NA
ENDBRANCH  10  13
ENDBRANCH   8   9
ENDBRANCH   5   8
ENDBRANCH   3   4
ENDBRANCH   2   3
ENDBRANCH   1   2
BRANCH   1  23
ATOM     23  C   UNL A   1      40.048  21.858  26.767  1.00  0.00     0.116 C 
BRANCH  23  24
ATOM     24  N   UNL A   1      41.300  21.841  26.023  1.00  0.00    -0.352 N 
ATOM     25  C   UNL A   1      42.067  22.913  25.622  1.00  0.00     0.251 C 
ATOM     26  H   UNL A   1      41.642  20.952  25.777  1.00  0.00     0.163 HD
ATOM     27  O   UNL A   1      42.852  22.791  24.692  1.00  0.00    -0.269 OA
BRANCH  25  28
ATOM     28  C   UNL A   1      41.963  24.197  26.343  1.00  0.00     0.039 A 
ATOM     29  C   UNL A   1      41.307  25.285  25.752  1.00  0.00     0.014 A 
ATOM     30  C   UNL A   1      42.604  24.334  27.575  1.00  0.00     0.014 A 
ATOM     31  C   UNL A   1      41.265  26.502  26.427  1.00  0.00     0.010 A 
ATOM     32  C   UNL A   1      42.514  25.519  28.270  1.00  0.00     0.010 A 
ATOM     33  C   UNL A   1      41.873  26.608  27.683  1.00  0.00    -0.014 A 
BRANCH  33  34
ATOM     34  C   UNL A   1      41.729  27.818  28.482  1.00  0.00     0.031 A 
ATOM     35  C   UNL A   1      42.833  28.801  28.284  1.00  0.00     0.074 A 
ATOM     36  C   UNL A   1      40.570  28.122  29.102  1.00  0.00     0.049 A 
ATOM     37  N   UNL A   1      43.688  29.233  29.150  1.00  0.00    -0.248 NA
ATOM     38  C   UNL A   1      43.108  29.253  26.905  1.00  0.00     0.031 C 
ATOM     39  C   UNL A   1      39.306  27.377  29.057  1.00  0.00     0.029 A 
ATOM     40  N   UNL A   1      40.226  29.239  29.798  1.00  0.00    -0.354 N 
ATOM     41  C   UNL A   1      44.475  30.164  28.475  1.00  0.00     0.074 A 
ATOM     42  C   UNL A   1      44.211  29.982  27.071  1.00  0.00     0.031 C 
ATOM     43  C   UNL A   1      38.297  28.172  29.479  1.00  0.00     0.029 A 
ATOM     44  C   UNL A   1      38.853  29.428  29.954  1.00  0.00     0.049 A 
ATOM     45  H   UNL A   1      40.894  29.864  30.162  1.00  0.00     0.167 HD
ATOM     46  C   UNL A   1      45.090  31.199  29.112  1.00  0.00     0.031 A 
ATOM     47  C   UNL A   1      38.233  30.563  30.380  1.00  0.00     0.031 A 
ATOM     48  C   UNL A   1      45.105  31.020  30.535  1.00  0.00     0.049 A 
ATOM     49  C   UNL A   1      39.272  31.376  31.064  1.00  0.00     0.074 A 
ATOM     50  C   UNL A   1      45.650  30.079  31.385  1.00  0.00     0.029 A 
ATOM     51  N   UNL A   1      44.120  31.661  31.249  1.00  0.00    -0.354 N 
ATOM     52  N   UNL A   1      39.879  31.003  32.156  1.00  0.00    -0.248 NA
ATOM     53  C   UNL A   1      39.961  32.387  30.277  1.00  0.00     0.031 C 
ATOM     54  C   UNL A   1      44.657  29.876  32.386  1.00  0.00     0.029 A 
ATOM     55  C   UNL A   1      43.602  30.759  32.143  1.00  0.00     0.049 A 
ATOM     56  H   UNL A   1      43.836  32.597  31.138  1.00  0.00     0.167 HD
ATOM     57  C   UNL A   1      41.196  31.403  31.981  1.00  0.00     0.074 A 
ATOM     58  C   UNL A   1      41.169  32.321  30.845  1.00  0.00     0.031 C 
ATOM     59  C   UNL A   1      42.223  30.738  32.585  1.00  0.00     0.031 A 
BRANCH  46  60
ATOM     60  C   UNL A   1      45.322  32.540  28.464  1.00  0.00    -0.014 A 
ATOM     61  C   UNL A   1      46.622  33.075  28.404  1.00  0.00     0.010 A 
ATOM     62  C   UNL A   1      44.257  33.404  28.129  1.00  0.00     0.010 A 
ATOM     63  C   UNL A   1      46.840  34.410  28.029  1.00  0.00     0.020 A 
ATOM     64  C   UNL A   1      44.464  34.717  27.709  1.00  0.00     0.020 A 
ATOM     65  C   UNL A   1      45.757  35.219  27.678  1.00  0.00     0.054 A 
BRANCH  65  66
ATOM     66  S   UNL A   1      46.042  36.954  27.248  1.00  0.00     0.124 S 
ATOM     67  O   UNL A   1      46.676  37.470  28.457  1.00  0.00    -0.237 OA
ATOM     68  O   UNL A   1      46.908  36.838  26.077  1.00  0.00    -0.237 OA
ATOM     69  O   UNL A   1      44.701  37.467  26.977  1.00  0.00    -0.744 OA
ENDBRANCH  65  66
ENDBRANCH  46  60
BRANCH  47  70
ATOM     70  C   UNL A   1      36.935  31.153  29.935  1.00  0.00    -0.014 A 
ATOM     71  C   UNL A   1      36.039  31.709  30.876  1.00  0.00     0.010 A 
ATOM     72  C   UNL A   1      36.701  31.447  28.577  1.00  0.00     0.010 A 
ATOM     73  C   UNL A   1      35.022  32.600  30.484  1.00  0.00     0.020 A 
ATOM     74  C   UNL A   1      35.681  32.325  28.177  1.00  0.00     0.020 A 
ATOM     75  C   UNL A   1      34.873  32.929  29.137  1.00  0.00     0.054 A 
BRANCH  75  76
ATOM     76  S   UNL A   1      33.698  34.232  28.658  1.00  0.00     0.124 S 
ATOM     77  O   UNL A   1      33.080  34.588  29.932  1.00  0.00    -0.237 OA
ATOM     78  O   UNL A   1      34.575  35.243  28.076  1.00  0.00    -0.237 OA
ATOM     79  O   UNL A   1      32.811  33.564  27.707  1.00  0.00    -0.744 OA
ENDBRANCH  75  76
ENDBRANCH  47  70
BRANCH  59  80
ATOM     80  C   UNL A   1      41.903  29.724  33.660  1.00  0.00    -0.014 A 
ATOM     81  C   UNL A   1      41.475  28.407  33.394  1.00  0.00     0.010 A 
ATOM     82  C   UNL A   1      42.289  30.055  34.970  1.00  0.00     0.010 A 
ATOM     83  C   UNL A   1      41.463  27.441  34.415  1.00  0.00     0.020 A 
ATOM     84  C   UNL A   1      42.295  29.095  35.984  1.00  0.00     0.020 A 
ATOM     85  C   UNL A   1      41.895  27.789  35.700  1.00  0.00     0.054 A 
BRANCH  85  86
ATOM     86  S   UNL A   1      41.991  26.516  36.993  1.00  0.00     0.124 S 
ATOM     87  O   UNL A   1      43.096  26.984  37.825  1.00  0.00    -0.237 OA
ATOM     88  O   UNL A   1      40.667  26.585  37.607  1.00  0.00    -0.237 OA
ATOM     89  O   UNL A   1      42.258  25.285  36.251  1.00  0.00    -0.744 OA
ENDBRANCH  85  86
ENDBRANCH  59  80
ENDBRANCH  33  34
ENDBRANCH  25  28
ENDBRANCH  23  24
ENDBRANCH   1  23
TORSDOF 16
ENDMDL
MODEL 2
REMARK VINA RESULT:     -11.7      1.034      1.634
REMARK SMILES Cc1cccc2nc(C(=O)NCC(=O)NCCCCNC(=O)c3ccc(-c4c5nc(c(-c6ccc(S(=O)(=O)[O-])cc6)c6ccc([nH]6)c(-c6ccc(S(=O)(=O)[O-])cc6)c6nc(c(-c7ccc(S(=O)(=O)[O-])cc7)c7ccc4[nH]7)C=C6)C=C5)cc3)cn12
REMARK SMILES IDX 18 1 17 2 16 3 15 4 13 5 14 6 12 8 11 9 9 10 10 11 8 13 1 14
REMARK SMILES IDX 2 15 3 16 84 17 4 18 6 19 83 20 5 21 7 22 19 23 20 24 21 25
REMARK SMILES IDX 22 27 23 28 24 29 82 30 25 31 81 32 26 33 27 34 28 35 75 36
REMARK SMILES IDX 29 37 80 38 74 39 76 40 30 41 79 42 73 43 72 44 31 46 61 47
REMARK SMILES IDX 42 48 60 49 43 50 46 51 59 52 77 53 44 54 45 55 58 57 78 58
REMARK SMILES IDX 47 59 32 60 33 61 41 62 34 63 40 64 35 65 36 66 37 67 38 68
REMARK SMILES IDX 39 69 62 70 63 71 71 72 64 73 70 74 65 75 66 76 67 77 68 78
REMARK SMILES IDX 69 79 48 80 49 81 57 82 50 83 56 84 51 85 52 86 53 87 54 88
REMARK SMILES IDX 55 89
REMARK H PARENT 15 7 11 12 20 26 76 45 46 56
REMARK Flexibility Score: inf
ROOT
ATOM      1  C   UNL A   1      38.164  21.100  25.179  1.00  0.00     0.023 C 
ENDROOT
BRANCH   1   2
ATOM      2  C   UNL A   1      37.013  21.987  24.678  1.00  0.00     0.023 C 
BRANCH   2   3
ATOM      3  C   UNL A   1      35.619  21.444  24.993  1.00  0.00     0.116 C 
BRANCH   3   4
ATOM      4  N   UNL A   1      35.235  21.721  26.360  1.00  0.00    -0.355 N 
ATOM      5  C   UNL A   1      34.002  21.973  26.884  1.00  0.00     0.239 C 
ATOM      6  O   UNL A   1      33.922  22.137  28.105  1.00  0.00    -0.273 OA
ATOM      7  H   UNL A   1      35.975  21.728  27.009  1.00  0.00     0.163 HD
BRANCH   5   8
ATOM      8  C   UNL A   1      32.735  21.929  26.020  1.00  0.00     0.216 C 
BRANCH   8   9
ATOM      9  N   UNL A   1      31.489  22.152  26.743  1.00  0.00    -0.342 N 
ATOM     10  C   UNL A   1      30.671  23.252  26.830  1.00  0.00     0.271 C 
ATOM     11  O   UNL A   1      29.659  23.151  27.525  1.00  0.00    -0.267 OA
ATOM     12  H   UNL A   1      31.178  21.375  27.261  1.00  0.00     0.164 HD
BRANCH  10  13
ATOM     13  C   UNL A   1      31.019  24.515  26.166  1.00  0.00     0.147 A 
ATOM     14  C   UNL A   1      31.636  25.979  22.078  1.00  0.00     0.065 C 
ATOM     15  C   UNL A   1      31.623  26.717  23.382  1.00  0.00     0.021 A 
ATOM     16  C   UNL A   1      31.801  28.053  23.457  1.00  0.00     0.022 A 
ATOM     17  N   UNL A   1      31.411  26.011  24.580  1.00  0.00    -0.304 N 
ATOM     18  C   UNL A   1      31.757  28.716  24.752  1.00  0.00     0.006 A 
ATOM     19  C   UNL A   1      31.375  26.617  25.832  1.00  0.00     0.137 A 
ATOM     20  C   UNL A   1      31.192  24.672  24.800  1.00  0.00     0.127 A 
ATOM     21  C   UNL A   1      31.553  28.025  25.888  1.00  0.00     0.048 A 
ATOM     22  N   UNL A   1      31.156  25.740  26.786  1.00  0.00    -0.223 NA
ENDBRANCH  10  13
ENDBRANCH   8   9
ENDBRANCH   5   8
ENDBRANCH   3   4
ENDBRANCH   2   3
ENDBRANCH   1   2
BRANCH   1  23
ATOM     23  C   UNL A   1      39.111  21.804  26.146  1.00  0.00     0.116 C 
BRANCH  23  24
ATOM     24  N   UNL A   1      40.487  21.361  25.975  1.00  0.00    -0.352 N 
ATOM     25  C   UNL A   1      41.634  22.125  25.980  1.00  0.00     0.251 C 
ATOM     26  H   UNL A   1      40.614  20.395  25.839  1.00  0.00     0.163 HD
ATOM     27  O   UNL A   1      42.651  21.706  25.444  1.00  0.00    -0.269 OA
BRANCH  25  28
ATOM     28  C   UNL A   1      41.640  23.430  26.667  1.00  0.00     0.039 A 
ATOM     29  C   UNL A   1      41.166  24.574  26.011  1.00  0.00     0.014 A 
ATOM     30  C   UNL A   1      42.206  23.522  27.940  1.00  0.00     0.014 A 
ATOM     31  C   UNL A   1      41.228  25.804  26.658  1.00  0.00     0.010 A 
ATOM     32  C   UNL A   1      42.215  24.727  28.605  1.00  0.00     0.010 A 
ATOM     33  C   UNL A   1      41.756  25.870  27.952  1.00  0.00    -0.014 A 
BRANCH  33  34
ATOM     34  C   UNL A   1      41.708  27.110  28.716  1.00  0.00     0.031 A 
ATOM     35  C   UNL A   1      42.880  28.003  28.484  1.00  0.00     0.074 A 
ATOM     36  C   UNL A   1      40.578  27.517  29.333  1.00  0.00     0.049 A 
ATOM     37  N   UNL A   1      43.771  28.395  29.334  1.00  0.00    -0.248 NA
ATOM     38  C   UNL A   1      43.178  28.393  27.091  1.00  0.00     0.031 C 
ATOM     39  C   UNL A   1      39.263  26.867  29.315  1.00  0.00     0.029 A 
ATOM     40  N   UNL A   1      40.323  28.676  29.998  1.00  0.00    -0.354 N 
ATOM     41  C   UNL A   1      44.619  29.245  28.628  1.00  0.00     0.074 A 
ATOM     42  C   UNL A   1      44.333  29.043  27.231  1.00  0.00     0.031 C 
ATOM     43  C   UNL A   1      38.318  27.747  29.719  1.00  0.00     0.029 A 
ATOM     44  C   UNL A   1      38.969  28.971  30.155  1.00  0.00     0.049 A 
ATOM     45  H   UNL A   1      41.038  29.260  30.340  1.00  0.00     0.167 HD
ATOM     46  C   UNL A   1      45.314  30.250  29.231  1.00  0.00     0.031 A 
ATOM     47  C   UNL A   1      38.437  30.160  30.550  1.00  0.00     0.031 A 
ATOM     48  C   UNL A   1      45.326  30.111  30.659  1.00  0.00     0.049 A 
ATOM     49  C   UNL A   1      39.539  30.913  31.205  1.00  0.00     0.074 A 
ATOM     50  C   UNL A   1      45.805  29.157  31.533  1.00  0.00     0.029 A 
ATOM     51  N   UNL A   1      44.395  30.844  31.359  1.00  0.00    -0.354 N 
ATOM     52  N   UNL A   1      40.124  30.529  32.304  1.00  0.00    -0.248 NA
ATOM     53  C   UNL A   1      40.295  31.847  30.385  1.00  0.00     0.031 C 
ATOM     54  C   UNL A   1      44.807  29.057  32.545  1.00  0.00     0.029 A 
ATOM     55  C   UNL A   1      43.819  30.009  32.281  1.00  0.00     0.049 A 
ATOM     56  H   UNL A   1      44.181  31.794  31.221  1.00  0.00     0.167 HD
ATOM     57  C   UNL A   1      41.466  30.824  32.112  1.00  0.00     0.074 A 
ATOM     58  C   UNL A   1      41.498  31.709  30.949  1.00  0.00     0.031 C 
ATOM     59  C   UNL A   1      42.444  30.102  32.730  1.00  0.00     0.031 A 
BRANCH  46  60
ATOM     60  C   UNL A   1      45.640  31.550  28.543  1.00  0.00    -0.014 A 
ATOM     61  C   UNL A   1      44.605  32.433  28.183  1.00  0.00     0.010 A 
ATOM     62  C   UNL A   1      46.923  31.820  28.020  1.00  0.00     0.010 A 
ATOM     63  C   UNL A   1      44.846  33.526  27.337  1.00  0.00     0.020 A 
ATOM     64  C   UNL A   1      47.185  32.930  27.219  1.00  0.00     0.020 A 
ATOM     65  C   UNL A   1      46.138  33.770  26.867  1.00  0.00     0.054 A 
BRANCH  65  66
ATOM     66  S   UNL A   1      46.430  35.151  25.734  1.00  0.00     0.124 S 
ATOM     67  O   UNL A   1      47.887  35.218  25.700  1.00  0.00    -0.237 OA
ATOM     68  O   UNL A   1      45.786  34.681  24.510  1.00  0.00    -0.237 OA
ATOM     69  O   UNL A   1      45.768  36.279  26.387  1.00  0.00    -0.744 OA
ENDBRANCH  65  66
ENDBRANCH  46  60
BRANCH  47  70
ATOM     70  C   UNL A   1      37.183  30.832  30.094  1.00  0.00    -0.014 A 
ATOM     71  C   UNL A   1      36.241  31.307  31.034  1.00  0.00     0.010 A 
ATOM     72  C   UNL A   1      37.044  31.280  28.765  1.00  0.00     0.010 A 
ATOM     73  C   UNL A   1      35.270  32.264  30.681  1.00  0.00     0.020 A 
ATOM     74  C   UNL A   1      36.071  32.225  28.403  1.00  0.00     0.020 A 
ATOM     75  C   UNL A   1      35.216  32.743  29.372  1.00  0.00     0.054 A 
BRANCH  75  76
ATOM     76  S   UNL A   1      34.102  34.123  28.970  1.00  0.00     0.124 S 
ATOM     77  O   UNL A   1      35.022  35.140  28.470  1.00  0.00    -0.237 OA
ATOM     78  O   UNL A   1      33.216  33.527  27.975  1.00  0.00    -0.237 OA
ATOM     79  O   UNL A   1      33.468  34.439  30.249  1.00  0.00    -0.744 OA
ENDBRANCH  75  76
ENDBRANCH  47  70
BRANCH  59  80
ATOM     80  C   UNL A   1      42.058  29.147  33.836  1.00  0.00    -0.014 A 
ATOM     81  C   UNL A   1      41.554  27.850  33.611  1.00  0.00     0.010 A 
ATOM     82  C   UNL A   1      42.455  29.498  35.137  1.00  0.00     0.010 A 
ATOM     83  C   UNL A   1      41.478  26.921  34.663  1.00  0.00     0.020 A 
ATOM     84  C   UNL A   1      42.398  28.575  36.182  1.00  0.00     0.020 A 
ATOM     85  C   UNL A   1      41.921  27.287  35.940  1.00  0.00     0.054 A 
BRANCH  85  86
ATOM     86  S   UNL A   1      41.934  26.054  37.275  1.00  0.00     0.124 S 
ATOM     87  O   UNL A   1      40.553  26.081  37.750  1.00  0.00    -0.237 OA
ATOM     88  O   UNL A   1      42.336  24.834  36.578  1.00  0.00    -0.237 OA
ATOM     89  O   UNL A   1      42.921  26.573  38.220  1.00  0.00    -0.744 OA
ENDBRANCH  85  86
ENDBRANCH  59  80
ENDBRANCH  33  34
ENDBRANCH  25  28
ENDBRANCH  23  24
ENDBRANCH   1  23
TORSDOF 16
ENDMDL
MODEL 3
REMARK VINA RESULT:     -11.5      2.364      9.484
REMARK SMILES Cc1cccc2nc(C(=O)NCC(=O)NCCCCNC(=O)c3ccc(-c4c5nc(c(-c6ccc(S(=O)(=O)[O-])cc6)c6ccc([nH]6)c(-c6ccc(S(=O)(=O)[O-])cc6)c6nc(c(-c7ccc(S(=O)(=O)[O-])cc7)c7ccc4[nH]7)C=C6)C=C5)cc3)cn12
REMARK SMILES IDX 18 1 17 2 16 3 15 4 13 5 14 6 12 8 11 9 9 10 10 11 8 13 1 14
REMARK SMILES IDX 2 15 3 16 84 17 4 18 6 19 83 20 5 21 7 22 19 23 20 24 21 25
REMARK SMILES IDX 22 27 23 28 24 29 82 30 25 31 81 32 26 33 27 34 28 35 75 36
REMARK SMILES IDX 29 37 80 38 74 39 76 40 30 41 79 42 73 43 72 44 31 46 61 47
REMARK SMILES IDX 42 48 60 49 43 50 46 51 59 52 77 53 44 54 45 55 58 57 78 58
REMARK SMILES IDX 47 59 32 60 33 61 41 62 34 63 40 64 35 65 36 66 37 67 38 68
REMARK SMILES IDX 39 69 62 70 63 71 71 72 64 73 70 74 65 75 66 76 67 77 68 78
REMARK SMILES IDX 69 79 48 80 49 81 57 82 50 83 56 84 51 85 52 86 53 87 54 88
REMARK SMILES IDX 55 89
REMARK H PARENT 15 7 11 12 20 26 76 45 46 56
REMARK Flexibility Score: inf
ROOT
ATOM      1  C   UNL A   1      32.285  28.898  26.660  1.00  0.00     0.023 C 
ENDROOT
BRANCH   1   2
ATOM      2  C   UNL A   1      31.950  27.470  27.121  1.00  0.00     0.023 C 
BRANCH   2   3
ATOM      3  C   UNL A   1      31.270  26.609  26.056  1.00  0.00     0.116 C 
BRANCH   3   4
ATOM      4  N   UNL A   1      30.764  25.373  26.612  1.00  0.00    -0.355 N 
ATOM      5  C   UNL A   1      31.376  24.162  26.740  1.00  0.00     0.239 C 
ATOM      6  O   UNL A   1      30.745  23.258  27.297  1.00  0.00    -0.273 OA
ATOM      7  H   UNL A   1      29.840  25.413  26.950  1.00  0.00     0.163 HD
BRANCH   5   8
ATOM      8  C   UNL A   1      32.838  23.950  26.328  1.00  0.00     0.216 C 
BRANCH   8   9
ATOM      9  N   UNL A   1      33.116  24.168  24.914  1.00  0.00    -0.342 N 
ATOM     10  C   UNL A   1      34.264  24.011  24.176  1.00  0.00     0.271 C 
ATOM     11  O   UNL A   1      34.205  24.270  22.973  1.00  0.00    -0.267 OA
ATOM     12  H   UNL A   1      32.342  24.484  24.394  1.00  0.00     0.164 HD
BRANCH  10  13
ATOM     13  C   UNL A   1      35.526  23.605  24.809  1.00  0.00     0.147 A 
ATOM     14  C   UNL A   1      38.127  20.075  24.906  1.00  0.00     0.065 C 
ATOM     15  C   UNL A   1      38.315  21.436  25.504  1.00  0.00     0.021 A 
ATOM     16  C   UNL A   1      39.423  21.773  26.197  1.00  0.00     0.022 A 
ATOM     17  N   UNL A   1      37.315  22.412  25.341  1.00  0.00    -0.304 N 
ATOM     18  C   UNL A   1      39.556  23.118  26.736  1.00  0.00     0.006 A 
ATOM     19  C   UNL A   1      37.412  23.702  25.854  1.00  0.00     0.137 A 
ATOM     20  C   UNL A   1      36.110  22.354  24.684  1.00  0.00     0.127 A 
ATOM     21  C   UNL A   1      38.591  24.041  26.570  1.00  0.00     0.048 A 
ATOM     22  N   UNL A   1      36.351  24.419  25.557  1.00  0.00    -0.223 NA
ENDBRANCH  10  13
ENDBRANCH   8   9
ENDBRANCH   5   8
ENDBRANCH   3   4
ENDBRANCH   2   3
ENDBRANCH   1   2
BRANCH   1  23
ATOM     23  C   UNL A   1      33.645  29.398  27.137  1.00  0.00     0.116 C 
BRANCH  23  24
ATOM     24  N   UNL A   1      33.646  30.837  27.353  1.00  0.00    -0.352 N 
ATOM     25  C   UNL A   1      34.514  31.582  28.122  1.00  0.00     0.251 C 
ATOM     26  H   UNL A   1      32.939  31.342  26.892  1.00  0.00     0.163 HD
ATOM     27  O   UNL A   1      34.179  32.686  28.529  1.00  0.00    -0.269 OA
BRANCH  25  28
ATOM     28  C   UNL A   1      35.862  31.059  28.417  1.00  0.00     0.039 A 
ATOM     29  C   UNL A   1      36.078  29.677  28.498  1.00  0.00     0.014 A 
ATOM     30  C   UNL A   1      36.890  31.959  28.704  1.00  0.00     0.014 A 
ATOM     31  C   UNL A   1      37.345  29.204  28.829  1.00  0.00     0.010 A 
ATOM     32  C   UNL A   1      38.157  31.494  28.975  1.00  0.00     0.010 A 
ATOM     33  C   UNL A   1      38.375  30.121  29.067  1.00  0.00    -0.014 A 
BRANCH  33  34
ATOM     34  C   UNL A   1      39.744  29.668  29.276  1.00  0.00     0.031 A 
ATOM     35  C   UNL A   1      40.168  29.680  30.706  1.00  0.00     0.074 A 
ATOM     36  C   UNL A   1      40.435  29.034  28.305  1.00  0.00     0.049 A 
ATOM     37  N   UNL A   1      41.110  30.370  31.258  1.00  0.00    -0.248 NA
ATOM     38  C   UNL A   1      39.338  28.931  31.672  1.00  0.00     0.031 C 
ATOM     39  C   UNL A   1      39.963  28.661  26.966  1.00  0.00     0.029 A 
ATOM     40  N   UNL A   1      41.668  28.462  28.351  1.00  0.00    -0.354 N 
ATOM     41  C   UNL A   1      41.125  29.986  32.598  1.00  0.00     0.074 A 
ATOM     42  C   UNL A   1      39.899  29.268  32.833  1.00  0.00     0.031 C 
ATOM     43  C   UNL A   1      40.791  27.731  26.438  1.00  0.00     0.029 A 
ATOM     44  C   UNL A   1      41.922  27.544  27.332  1.00  0.00     0.049 A 
ATOM     45  H   UNL A   1      42.328  28.678  29.048  1.00  0.00     0.167 HD
ATOM     46  C   UNL A   1      42.251  30.048  33.362  1.00  0.00     0.031 A 
ATOM     47  C   UNL A   1      42.953  26.657  27.276  1.00  0.00     0.031 A 
ATOM     48  C   UNL A   1      43.277  30.836  32.743  1.00  0.00     0.049 A 
ATOM     49  C   UNL A   1      43.977  27.146  28.235  1.00  0.00     0.074 A 
ATOM     50  C   UNL A   1      43.380  32.157  32.357  1.00  0.00     0.029 A 
ATOM     51  N   UNL A   1      44.244  30.153  32.044  1.00  0.00    -0.354 N 
ATOM     52  N   UNL A   1      44.616  28.274  28.098  1.00  0.00    -0.248 NA
ATOM     53  C   UNL A   1      43.953  26.600  29.583  1.00  0.00     0.031 C 
ATOM     54  C   UNL A   1      44.066  32.119  31.109  1.00  0.00     0.029 A 
ATOM     55  C   UNL A   1      44.418  30.793  30.843  1.00  0.00     0.049 A 
ATOM     56  H   UNL A   1      44.723  29.350  32.348  1.00  0.00     0.167 HD
ATOM     57  C   UNL A   1      44.704  28.789  29.383  1.00  0.00     0.074 A 
ATOM     58  C   UNL A   1      44.353  27.677  30.264  1.00  0.00     0.031 C 
ATOM     59  C   UNL A   1      44.772  30.134  29.603  1.00  0.00     0.031 A 
BRANCH  46  60
ATOM     60  C   UNL A   1      42.541  29.074  34.474  1.00  0.00    -0.014 A 
ATOM     61  C   UNL A   1      43.188  29.516  35.643  1.00  0.00     0.010 A 
ATOM     62  C   UNL A   1      42.414  27.679  34.301  1.00  0.00     0.010 A 
ATOM     63  C   UNL A   1      43.685  28.603  36.586  1.00  0.00     0.020 A 
ATOM     64  C   UNL A   1      42.860  26.764  35.253  1.00  0.00     0.020 A 
ATOM     65  C   UNL A   1      43.510  27.232  36.387  1.00  0.00     0.054 A 
BRANCH  65  66
ATOM     66  S   UNL A   1      44.201  26.060  37.581  1.00  0.00     0.124 S 
ATOM     67  O   UNL A   1      43.569  26.483  38.826  1.00  0.00    -0.237 OA
ATOM     68  O   UNL A   1      43.752  24.779  37.043  1.00  0.00    -0.237 OA
ATOM     69  O   UNL A   1      45.641  26.294  37.499  1.00  0.00    -0.744 OA
ENDBRANCH  65  66
ENDBRANCH  46  60
BRANCH  47  70
ATOM     70  C   UNL A   1      42.969  25.259  26.748  1.00  0.00    -0.014 A 
ATOM     71  C   UNL A   1      42.969  25.017  25.357  1.00  0.00     0.010 A 
ATOM     72  C   UNL A   1      43.288  24.173  27.587  1.00  0.00     0.010 A 
ATOM     73  C   UNL A   1      43.370  23.776  24.827  1.00  0.00     0.020 A 
ATOM     74  C   UNL A   1      43.677  22.928  27.067  1.00  0.00     0.020 A 
ATOM     75  C   UNL A   1      43.755  22.749  25.689  1.00  0.00     0.054 A 
BRANCH  75  76
ATOM     76  S   UNL A   1      44.466  21.222  25.001  1.00  0.00     0.124 S 
ATOM     77  O   UNL A   1      44.526  21.515  23.572  1.00  0.00    -0.237 OA
ATOM     78  O   UNL A   1      45.752  21.143  25.686  1.00  0.00    -0.237 OA
ATOM     79  O   UNL A   1      43.501  20.192  25.381  1.00  0.00    -0.744 OA
ENDBRANCH  75  76
ENDBRANCH  47  70
BRANCH  59  80
ATOM     80  C   UNL A   1      45.021  31.053  28.429  1.00  0.00    -0.014 A 
ATOM     81  C   UNL A   1      43.994  31.649  27.668  1.00  0.00     0.010 A 
ATOM     82  C   UNL A   1      46.337  31.513  28.259  1.00  0.00     0.010 A 
ATOM     83  C   UNL A   1      44.282  32.699  26.779  1.00  0.00     0.020 A 
ATOM     84  C   UNL A   1      46.627  32.566  27.390  1.00  0.00     0.020 A 
ATOM     85  C   UNL A   1      45.597  33.164  26.663  1.00  0.00     0.054 A 
BRANCH  85  86
ATOM     86  S   UNL A   1      45.954  34.596  25.604  1.00  0.00     0.124 S 
ATOM     87  O   UNL A   1      47.397  34.497  25.403  1.00  0.00    -0.237 OA
ATOM     88  O   UNL A   1      45.135  34.332  24.424  1.00  0.00    -0.237 OA
ATOM     89  O   UNL A   1      45.522  35.740  26.406  1.00  0.00    -0.744 OA
ENDBRANCH  85  86
ENDBRANCH  59  80
ENDBRANCH  33  34
ENDBRANCH  25  28
ENDBRANCH  23  24
ENDBRANCH   1  23
TORSDOF 16
ENDMDL
