MODEL 1
REMARK VINA RESULT:     -10.1      0.000      0.000
REMARK SMILES CC1=C[C@H](C)[C@H](CN2C[C@]34C=C[C@H](O3)[C@H](C(=O)NCCCCNC(=O)c3ccc(-c5c6nc(c(-c7ccc(S(=O)(=O)[O-])cc7)c7ccc([nH]7)c(-c7ccc(S(=O)(=O)[O-])cc7)c7nc(c(-c8ccc(S(=O)(=O)[O-])cc8)c8ccc5[nH]8)C=C7)C=C6)cc3)[C@@H]4C2=O)[C@H](C)C1
REMARK SMILES IDX 21 1 20 2 19 3 18 4 16 5 17 6 15 8 8 9 9 10 87 11 10 12
REMARK SMILES IDX 86 13 88 14 11 15 14 16 12 17 13 18 7 19 6 20 1 21 2 22 3 23
REMARK SMILES IDX 91 24 4 25 89 26 5 27 90 28 22 29 23 30 24 31 25 33 26 34
REMARK SMILES IDX 27 35 85 36 28 37 84 38 29 39 30 40 31 41 78 42 32 43 83 44
REMARK SMILES IDX 77 45 79 46 33 47 82 48 76 49 75 50 34 52 64 53 45 54 63 55
REMARK SMILES IDX 46 56 49 57 62 58 80 59 47 60 48 61 61 63 81 64 50 65 35 66
REMARK SMILES IDX 36 67 44 68 37 69 43 70 38 71 39 72 40 73 41 74 42 75 65 76
REMARK SMILES IDX 66 77 74 78 67 79 73 80 68 81 69 82 70 83 71 84 72 85 51 86
REMARK SMILES IDX 52 87 60 88 53 89 59 90 54 91 55 92 56 93 57 94 58 95
REMARK H PARENT 18 7 23 32 79 51 49 62
REMARK Flexibility Score: inf
ROOT
ATOM      1  C   UNL A   1      35.339  33.051  30.255  1.00  0.00     0.023 C 
ENDROOT
BRANCH   1   2
ATOM      2  C   UNL A   1      36.571  32.541  30.998  1.00  0.00     0.023 C 
BRANCH   2   3
ATOM      3  C   UNL A   1      36.395  32.384  32.514  1.00  0.00     0.116 C 
BRANCH   3   4
ATOM      4  N   UNL A   1      36.402  30.991  32.852  1.00  0.00    -0.356 N 
ATOM      5  C   UNL A   1      37.438  30.226  33.245  1.00  0.00     0.227 C 
ATOM      6  O   UNL A   1      37.264  29.005  33.122  1.00  0.00    -0.275 OA
ATOM      7  H   UNL A   1      35.534  30.532  32.786  1.00  0.00     0.163 HD
BRANCH   5   8
ATOM      8  C   UNL A   1      38.655  30.712  34.013  1.00  0.00     0.127 C 
ATOM      9  N   UNL A   1      41.636  28.866  35.266  1.00  0.00    -0.339 N 
ATOM     10  C   UNL A   1      41.811  30.175  35.836  1.00  0.00     0.160 C 
ATOM     11  C   UNL A   1      40.800  28.956  34.138  1.00  0.00     0.230 C 
ATOM     12  C   UNL A   1      40.451  30.759  35.533  1.00  0.00     0.117 C 
ATOM     13  C   UNL A   1      40.169  30.374  34.060  1.00  0.00     0.132 C 
ATOM     14  O   UNL A   1      40.689  28.052  33.331  1.00  0.00    -0.274 OA
ATOM     15  C   UNL A   1      40.030  32.099  36.051  1.00  0.00     0.009 C 
ATOM     16  O   UNL A   1      39.343  29.987  36.102  1.00  0.00    -0.360 OA
ATOM     17  C   UNL A   1      38.687  32.070  36.099  1.00  0.00     0.004 C 
ATOM     18  C   UNL A   1      38.275  30.754  35.519  1.00  0.00     0.155 C 
BRANCH   9  19
ATOM     19  C   UNL A   1      41.940  27.589  35.934  1.00  0.00     0.124 C 
BRANCH  19  20
ATOM     20  C   UNL A   1      42.468  26.415  35.038  1.00  0.00     0.018 C 
ATOM     21  C   UNL A   1      44.555  22.981  33.191  1.00  0.00     0.039 C 
ATOM     22  C   UNL A   1      43.884  24.103  33.922  1.00  0.00    -0.077 C 
ATOM     23  C   UNL A   1      44.414  25.328  33.876  1.00  0.00    -0.025 C 
ATOM     24  C   UNL A   1      42.745  23.790  34.859  1.00  0.00     0.034 C 
ATOM     25  C   UNL A   1      44.002  26.368  34.867  1.00  0.00     0.014 C 
ATOM     26  C   UNL A   1      41.911  24.998  35.414  1.00  0.00    -0.005 C 
ATOM     27  C   UNL A   1      44.786  26.147  36.162  1.00  0.00     0.012 C 
ATOM     28  C   UNL A   1      41.657  24.786  36.912  1.00  0.00     0.008 C 
ENDBRANCH  19  20
ENDBRANCH   9  19
ENDBRANCH   5   8
ENDBRANCH   3   4
ENDBRANCH   2   3
ENDBRANCH   1   2
BRANCH   1  29
ATOM     29  C   UNL A   1      35.434  32.920  28.740  1.00  0.00     0.116 C 
BRANCH  29  30
ATOM     30  N   UNL A   1      34.411  32.066  28.144  1.00  0.00    -0.352 N 
ATOM     31  C   UNL A   1      34.507  30.729  27.852  1.00  0.00     0.251 C 
ATOM     32  H   UNL A   1      33.554  32.500  27.927  1.00  0.00     0.163 HD
ATOM     33  O   UNL A   1      33.585  30.120  27.321  1.00  0.00    -0.269 OA
BRANCH  31  34
ATOM     34  C   UNL A   1      35.787  30.066  28.141  1.00  0.00     0.039 A 
ATOM     35  C   UNL A   1      36.817  30.183  27.209  1.00  0.00     0.014 A 
ATOM     36  C   UNL A   1      35.998  29.476  29.388  1.00  0.00     0.014 A 
ATOM     37  C   UNL A   1      38.097  29.766  27.562  1.00  0.00     0.010 A 
ATOM     38  C   UNL A   1      37.288  29.135  29.765  1.00  0.00     0.010 A 
ATOM     39  C   UNL A   1      38.348  29.282  28.857  1.00  0.00    -0.014 A 
BRANCH  39  40
ATOM     40  C   UNL A   1      39.719  28.918  29.280  1.00  0.00     0.031 A 
ATOM     41  C   UNL A   1      40.548  29.915  30.039  1.00  0.00     0.074 A 
ATOM     42  C   UNL A   1      40.231  27.723  28.930  1.00  0.00     0.049 A 
ATOM     43  N   UNL A   1      41.787  29.815  30.444  1.00  0.00    -0.248 NA
ATOM     44  C   UNL A   1      39.910  31.204  30.358  1.00  0.00     0.031 C 
ATOM     45  C   UNL A   1      39.536  26.696  28.146  1.00  0.00     0.029 A 
ATOM     46  N   UNL A   1      41.460  27.169  29.182  1.00  0.00    -0.354 N 
ATOM     47  C   UNL A   1      42.078  31.028  31.056  1.00  0.00     0.074 A 
ATOM     48  C   UNL A   1      40.911  31.869  30.914  1.00  0.00     0.031 C 
ATOM     49  C   UNL A   1      40.343  25.631  28.002  1.00  0.00     0.029 A 
ATOM     50  C   UNL A   1      41.618  25.910  28.652  1.00  0.00     0.049 A 
ATOM     51  H   UNL A   1      42.163  27.630  29.694  1.00  0.00     0.167 HD
ATOM     52  C   UNL A   1      43.207  31.397  31.705  1.00  0.00     0.031 A 
ATOM     53  C   UNL A   1      42.676  25.077  28.685  1.00  0.00     0.031 A 
ATOM     54  C   UNL A   1      44.360  30.551  31.853  1.00  0.00     0.049 A 
ATOM     55  C   UNL A   1      43.916  25.507  29.419  1.00  0.00     0.074 A 
ATOM     56  C   UNL A   1      45.541  30.815  32.520  1.00  0.00     0.029 A 
ATOM     57  N   UNL A   1      44.469  29.270  31.332  1.00  0.00    -0.354 N 
ATOM     58  N   UNL A   1      44.155  26.639  30.040  1.00  0.00    -0.248 NA
ATOM     59  C   UNL A   1      45.025  24.544  29.472  1.00  0.00     0.031 C 
ATOM     60  C   UNL A   1      46.380  29.706  32.373  1.00  0.00     0.029 A 
ATOM     61  C   UNL A   1      45.701  28.733  31.657  1.00  0.00     0.049 A 
ATOM     62  H   UNL A   1      43.772  28.812  30.809  1.00  0.00     0.167 HD
ATOM     63  C   UNL A   1      45.432  26.513  30.577  1.00  0.00     0.074 A 
ATOM     64  C   UNL A   1      45.905  25.190  30.224  1.00  0.00     0.031 C 
ATOM     65  C   UNL A   1      46.148  27.411  31.298  1.00  0.00     0.031 A 
BRANCH  52  66
ATOM     66  C   UNL A   1      43.233  32.773  32.311  1.00  0.00    -0.014 A 
ATOM     67  C   UNL A   1      43.539  33.899  31.523  1.00  0.00     0.010 A 
ATOM     68  C   UNL A   1      42.931  32.952  33.672  1.00  0.00     0.010 A 
ATOM     69  C   UNL A   1      43.584  35.172  32.096  1.00  0.00     0.020 A 
ATOM     70  C   UNL A   1      42.948  34.227  34.242  1.00  0.00     0.020 A 
ATOM     71  C   UNL A   1      43.291  35.328  33.453  1.00  0.00     0.054 A 
BRANCH  71  72
ATOM     72  S   UNL A   1      43.337  36.996  34.165  1.00  0.00     0.124 S 
ATOM     73  O   UNL A   1      43.809  37.791  33.035  1.00  0.00    -0.237 OA
ATOM     74  O   UNL A   1      41.946  37.217  34.552  1.00  0.00    -0.237 OA
ATOM     75  O   UNL A   1      44.277  36.871  35.276  1.00  0.00    -0.744 OA
ENDBRANCH  71  72
ENDBRANCH  52  66
BRANCH  53  76
ATOM     76  C   UNL A   1      42.604  23.750  28.015  1.00  0.00    -0.014 A 
ATOM     77  C   UNL A   1      43.048  23.592  26.690  1.00  0.00     0.010 A 
ATOM     78  C   UNL A   1      42.088  22.635  28.701  1.00  0.00     0.010 A 
ATOM     79  C   UNL A   1      42.951  22.351  26.054  1.00  0.00     0.020 A 
ATOM     80  C   UNL A   1      42.014  21.387  28.076  1.00  0.00     0.020 A 
ATOM     81  C   UNL A   1      42.432  21.256  26.750  1.00  0.00     0.054 A 
BRANCH  81  82
ATOM     82  S   UNL A   1      42.346  19.646  25.918  1.00  0.00     0.124 S 
ATOM     83  O   UNL A   1      42.686  18.727  27.000  1.00  0.00    -0.237 OA
ATOM     84  O   UNL A   1      40.959  19.599  25.460  1.00  0.00    -0.237 OA
ATOM     85  O   UNL A   1      43.340  19.759  24.854  1.00  0.00    -0.744 OA
ENDBRANCH  81  82
ENDBRANCH  53  76
BRANCH  65  86
ATOM     86  C   UNL A   1      47.505  26.981  31.780  1.00  0.00    -0.014 A 
ATOM     87  C   UNL A   1      47.662  26.307  33.004  1.00  0.00     0.010 A 
ATOM     88  C   UNL A   1      48.631  27.203  30.966  1.00  0.00     0.010 A 
ATOM     89  C   UNL A   1      48.929  25.888  33.419  1.00  0.00     0.020 A 
ATOM     90  C   UNL A   1      49.894  26.762  31.365  1.00  0.00     0.020 A 
ATOM     91  C   UNL A   1      50.037  26.119  32.596  1.00  0.00     0.054 A 
BRANCH  91  92
ATOM     92  S   UNL A   1      51.663  25.521  33.133  1.00  0.00     0.124 S 
ATOM     93  O   UNL A   1      51.434  25.252  34.551  1.00  0.00    -0.237 OA
ATOM     94  O   UNL A   1      51.865  24.343  32.295  1.00  0.00    -0.237 OA
ATOM     95  O   UNL A   1      52.555  26.642  32.848  1.00  0.00    -0.744 OA
ENDBRANCH  91  92
ENDBRANCH  65  86
ENDBRANCH  39  40
ENDBRANCH  31  34
ENDBRANCH  29  30
ENDBRANCH   1  29
TORSDOF 16
ENDMDL
MODEL 2
REMARK VINA RESULT:     -10.0      4.751     12.327
REMARK SMILES CC1=C[C@H](C)[C@H](CN2C[C@]34C=C[C@H](O3)[C@H](C(=O)NCCCCNC(=O)c3ccc(-c5c6nc(c(-c7ccc(S(=O)(=O)[O-])cc7)c7ccc([nH]7)c(-c7ccc(S(=O)(=O)[O-])cc7)c7nc(c(-c8ccc(S(=O)(=O)[O-])cc8)c8ccc5[nH]8)C=C7)C=C6)cc3)[C@@H]4C2=O)[C@H](C)C1
REMARK SMILES IDX 21 1 20 2 19 3 18 4 16 5 17 6 15 8 8 9 9 10 87 11 10 12
REMARK SMILES IDX 86 13 88 14 11 15 14 16 12 17 13 18 7 19 6 20 1 21 2 22 3 23
REMARK SMILES IDX 91 24 4 25 89 26 5 27 90 28 22 29 23 30 24 31 25 33 26 34
REMARK SMILES IDX 27 35 85 36 28 37 84 38 29 39 30 40 31 41 78 42 32 43 83 44
REMARK SMILES IDX 77 45 79 46 33 47 82 48 76 49 75 50 34 52 64 53 45 54 63 55
REMARK SMILES IDX 46 56 49 57 62 58 80 59 47 60 48 61 61 63 81 64 50 65 35 66
REMARK SMILES IDX 36 67 44 68 37 69 43 70 38 71 39 72 40 73 41 74 42 75 65 76
REMARK SMILES IDX 66 77 74 78 67 79 73 80 68 81 69 82 70 83 71 84 72 85 51 86
REMARK SMILES IDX 52 87 60 88 53 89 59 90 54 91 55 92 56 93 57 94 58 95
REMARK H PARENT 18 7 23 32 79 51 49 62
REMARK Flexibility Score: inf
ROOT
ATOM      1  C   UNL A   1      39.897  22.381  27.386  1.00  0.00     0.023 C 
ENDROOT
BRANCH   1   2
ATOM      2  C   UNL A   1      39.531  21.719  26.060  1.00  0.00     0.023 C 
BRANCH   2   3
ATOM      3  C   UNL A   1      38.033  21.708  25.732  1.00  0.00     0.116 C 
BRANCH   3   4
ATOM      4  N   UNL A   1      37.789  22.548  24.596  1.00  0.00    -0.356 N 
ATOM      5  C   UNL A   1      36.672  22.654  23.851  1.00  0.00     0.227 C 
ATOM      6  O   UNL A   1      36.835  23.163  22.732  1.00  0.00    -0.275 OA
ATOM      7  H   UNL A   1      38.539  23.125  24.323  1.00  0.00     0.163 HD
BRANCH   5   8
ATOM      8  C   UNL A   1      35.255  22.424  24.345  1.00  0.00     0.127 C 
ATOM      9  N   UNL A   1      32.035  23.979  23.307  1.00  0.00    -0.339 N 
ATOM     10  C   UNL A   1      31.653  23.193  24.449  1.00  0.00     0.160 C 
ATOM     11  C   UNL A   1      33.226  23.464  22.763  1.00  0.00     0.230 C 
ATOM     12  C   UNL A   1      33.026  22.840  24.974  1.00  0.00     0.117 C 
ATOM     13  C   UNL A   1      33.832  22.406  23.726  1.00  0.00     0.132 C 
ATOM     14  O   UNL A   1      33.633  23.779  21.660  1.00  0.00    -0.274 OA
ATOM     15  C   UNL A   1      33.217  22.126  26.276  1.00  0.00     0.009 C 
ATOM     16  O   UNL A   1      33.852  24.010  25.285  1.00  0.00    -0.360 OA
ATOM     17  C   UNL A   1      34.448  22.458  26.701  1.00  0.00     0.004 C 
ATOM     18  C   UNL A   1      35.054  23.294  25.618  1.00  0.00     0.155 C 
BRANCH   9  19
ATOM     19  C   UNL A   1      31.516  25.316  22.969  1.00  0.00     0.124 C 
BRANCH  19  20
ATOM     20  C   UNL A   1      31.813  26.479  23.977  1.00  0.00     0.018 C 
ATOM     21  C   UNL A   1      32.973  30.193  26.081  1.00  0.00     0.039 C 
ATOM     22  C   UNL A   1      32.571  29.000  25.269  1.00  0.00    -0.077 C 
ATOM     23  C   UNL A   1      33.487  28.082  24.951  1.00  0.00    -0.025 C 
ATOM     24  C   UNL A   1      31.195  28.961  24.656  1.00  0.00     0.034 C 
ATOM     25  C   UNL A   1      33.223  27.097  23.858  1.00  0.00     0.014 C 
ATOM     26  C   UNL A   1      30.721  27.604  24.026  1.00  0.00    -0.005 C 
ATOM     27  C   UNL A   1      33.521  27.767  22.515  1.00  0.00     0.012 C 
ATOM     28  C   UNL A   1      30.033  27.887  22.684  1.00  0.00     0.008 C 
ENDBRANCH  19  20
ENDBRANCH   9  19
ENDBRANCH   5   8
ENDBRANCH   3   4
ENDBRANCH   2   3
ENDBRANCH   1   2
BRANCH   1  29
ATOM     29  C   UNL A   1      41.150  23.244  27.319  1.00  0.00     0.116 C 
BRANCH  29  30
ATOM     30  N   UNL A   1      41.224  24.107  26.144  1.00  0.00    -0.352 N 
ATOM     31  C   UNL A   1      41.275  25.478  26.119  1.00  0.00     0.251 C 
ATOM     32  H   UNL A   1      41.238  23.653  25.270  1.00  0.00     0.163 HD
ATOM     33  O   UNL A   1      41.305  26.101  25.063  1.00  0.00    -0.269 OA
BRANCH  31  34
ATOM     34  C   UNL A   1      41.226  26.179  27.410  1.00  0.00     0.039 A 
ATOM     35  C   UNL A   1      42.311  26.976  27.772  1.00  0.00     0.014 A 
ATOM     36  C   UNL A   1      40.051  26.163  28.164  1.00  0.00     0.014 A 
ATOM     37  C   UNL A   1      42.189  27.825  28.868  1.00  0.00     0.010 A 
ATOM     38  C   UNL A   1      39.906  27.067  29.206  1.00  0.00     0.010 A 
ATOM     39  C   UNL A   1      40.971  27.908  29.563  1.00  0.00    -0.014 A 
BRANCH  39  40
ATOM     40  C   UNL A   1      40.794  28.870  30.675  1.00  0.00     0.031 A 
ATOM     41  C   UNL A   1      41.645  28.744  31.906  1.00  0.00     0.074 A 
ATOM     42  C   UNL A   1      39.831  29.808  30.596  1.00  0.00     0.049 A 
ATOM     43  N   UNL A   1      41.602  29.443  33.009  1.00  0.00    -0.248 NA
ATOM     44  C   UNL A   1      42.656  27.672  31.908  1.00  0.00     0.031 C 
ATOM     45  C   UNL A   1      38.908  29.990  29.471  1.00  0.00     0.029 A 
ATOM     46  N   UNL A   1      39.463  30.786  31.485  1.00  0.00    -0.354 N 
ATOM     47  C   UNL A   1      42.571  28.892  33.837  1.00  0.00     0.074 A 
ATOM     48  C   UNL A   1      43.142  27.763  33.136  1.00  0.00     0.031 C 
ATOM     49  C   UNL A   1      38.097  31.029  29.731  1.00  0.00     0.029 A 
ATOM     50  C   UNL A   1      38.418  31.565  31.048  1.00  0.00     0.049 A 
ATOM     51  H   UNL A   1      39.906  30.917  32.355  1.00  0.00     0.167 HD
ATOM     52  C   UNL A   1      42.972  29.308  35.061  1.00  0.00     0.031 A 
ATOM     53  C   UNL A   1      37.790  32.596  31.646  1.00  0.00     0.031 A 
ATOM     54  C   UNL A   1      42.410  30.438  35.748  1.00  0.00     0.049 A 
ATOM     55  C   UNL A   1      38.258  33.043  33.003  1.00  0.00     0.074 A 
ATOM     56  C   UNL A   1      42.767  30.964  36.976  1.00  0.00     0.029 A 
ATOM     57  N   UNL A   1      41.377  31.224  35.258  1.00  0.00    -0.354 N 
ATOM     58  N   UNL A   1      39.215  32.544  33.750  1.00  0.00    -0.248 NA
ATOM     59  C   UNL A   1      37.575  34.204  33.592  1.00  0.00     0.031 C 
ATOM     60  C   UNL A   1      41.924  32.048  37.245  1.00  0.00     0.029 A 
ATOM     61  C   UNL A   1      41.078  32.226  36.162  1.00  0.00     0.049 A 
ATOM     62  H   UNL A   1      40.925  31.087  34.394  1.00  0.00     0.167 HD
ATOM     63  C   UNL A   1      39.264  33.343  34.886  1.00  0.00     0.074 A 
ATOM     64  C   UNL A   1      38.255  34.370  34.719  1.00  0.00     0.031 C 
ATOM     65  C   UNL A   1      40.072  33.239  35.971  1.00  0.00     0.031 A 
BRANCH  52  66
ATOM     66  C   UNL A   1      44.082  28.536  35.721  1.00  0.00    -0.014 A 
ATOM     67  C   UNL A   1      43.796  27.444  36.562  1.00  0.00     0.010 A 
ATOM     68  C   UNL A   1      45.423  28.885  35.485  1.00  0.00     0.010 A 
ATOM     69  C   UNL A   1      44.829  26.745  37.190  1.00  0.00     0.020 A 
ATOM     70  C   UNL A   1      46.460  28.170  36.090  1.00  0.00     0.020 A 
ATOM     71  C   UNL A   1      46.155  27.114  36.952  1.00  0.00     0.054 A 
BRANCH  71  72
ATOM     72  S   UNL A   1      47.477  26.174  37.764  1.00  0.00     0.124 S 
ATOM     73  O   UNL A   1      48.428  25.987  36.672  1.00  0.00    -0.237 OA
ATOM     74  O   UNL A   1      47.910  27.081  38.825  1.00  0.00    -0.237 OA
ATOM     75  O   UNL A   1      46.806  24.960  38.223  1.00  0.00    -0.744 OA
ENDBRANCH  71  72
ENDBRANCH  52  66
BRANCH  53  76
ATOM     76  C   UNL A   1      36.659  33.281  30.962  1.00  0.00    -0.014 A 
ATOM     77  C   UNL A   1      36.835  33.861  29.694  1.00  0.00     0.010 A 
ATOM     78  C   UNL A   1      35.397  33.356  31.579  1.00  0.00     0.010 A 
ATOM     79  C   UNL A   1      35.779  34.529  29.067  1.00  0.00     0.020 A 
ATOM     80  C   UNL A   1      34.331  34.000  30.943  1.00  0.00     0.020 A 
ATOM     81  C   UNL A   1      34.533  34.597  29.697  1.00  0.00     0.054 A 
BRANCH  81  82
ATOM     82  S   UNL A   1      33.166  35.439  28.852  1.00  0.00     0.124 S 
ATOM     83  O   UNL A   1      33.870  36.454  28.076  1.00  0.00    -0.237 OA
ATOM     84  O   UNL A   1      32.557  34.359  28.079  1.00  0.00    -0.237 OA
ATOM     85  O   UNL A   1      32.347  35.944  29.952  1.00  0.00    -0.744 OA
ENDBRANCH  81  82
ENDBRANCH  53  76
BRANCH  65  86
ATOM     86  C   UNL A   1      39.919  34.279  37.046  1.00  0.00    -0.014 A 
ATOM     87  C   UNL A   1      40.615  35.498  36.982  1.00  0.00     0.010 A 
ATOM     88  C   UNL A   1      39.018  34.054  38.103  1.00  0.00     0.010 A 
ATOM     89  C   UNL A   1      40.434  36.465  37.975  1.00  0.00     0.020 A 
ATOM     90  C   UNL A   1      38.815  35.028  39.083  1.00  0.00     0.020 A 
ATOM     91  C   UNL A   1      39.536  36.223  39.019  1.00  0.00     0.054 A 
BRANCH  91  92
ATOM     92  S   UNL A   1      39.281  37.512  40.269  1.00  0.00     0.124 S 
ATOM     93  O   UNL A   1      38.831  36.734  41.420  1.00  0.00    -0.237 OA
ATOM     94  O   UNL A   1      40.610  38.106  40.393  1.00  0.00    -0.237 OA
ATOM     95  O   UNL A   1      38.271  38.381  39.669  1.00  0.00    -0.744 OA
ENDBRANCH  91  92
ENDBRANCH  65  86
ENDBRANCH  39  40
ENDBRANCH  31  34
ENDBRANCH  29  30
ENDBRANCH   1  29
TORSDOF 16
ENDMDL
MODEL 3
REMARK VINA RESULT:      -9.6      3.609     10.795
REMARK SMILES CC1=C[C@H](C)[C@H](CN2C[C@]34C=C[C@H](O3)[C@H](C(=O)NCCCCNC(=O)c3ccc(-c5c6nc(c(-c7ccc(S(=O)(=O)[O-])cc7)c7ccc([nH]7)c(-c7ccc(S(=O)(=O)[O-])cc7)c7nc(c(-c8ccc(S(=O)(=O)[O-])cc8)c8ccc5[nH]8)C=C7)C=C6)cc3)[C@@H]4C2=O)[C@H](C)C1
REMARK SMILES IDX 21 1 20 2 19 3 18 4 16 5 17 6 15 8 8 9 9 10 87 11 10 12
REMARK SMILES IDX 86 13 88 14 11 15 14 16 12 17 13 18 7 19 6 20 1 21 2 22 3 23
REMARK SMILES IDX 91 24 4 25 89 26 5 27 90 28 22 29 23 30 24 31 25 33 26 34
REMARK SMILES IDX 27 35 85 36 28 37 84 38 29 39 30 40 31 41 78 42 32 43 83 44
REMARK SMILES IDX 77 45 79 46 33 47 82 48 76 49 75 50 34 52 64 53 45 54 63 55
REMARK SMILES IDX 46 56 49 57 62 58 80 59 47 60 48 61 61 63 81 64 50 65 35 66
REMARK SMILES IDX 36 67 44 68 37 69 43 70 38 71 39 72 40 73 41 74 42 75 65 76
REMARK SMILES IDX 66 77 74 78 67 79 73 80 68 81 69 82 70 83 71 84 72 85 51 86
REMARK SMILES IDX 52 87 60 88 53 89 59 90 54 91 55 92 56 93 57 94 58 95
REMARK H PARENT 18 7 23 32 79 51 49 62
REMARK Flexibility Score: inf
ROOT
ATOM      1  C   UNL A   1      42.581  22.931  25.365  1.00  0.00     0.023 C 
ENDROOT
BRANCH   1   2
ATOM      2  C   UNL A   1      44.067  22.766  25.675  1.00  0.00     0.023 C 
BRANCH   2   3
ATOM      3  C   UNL A   1      44.865  24.074  25.742  1.00  0.00     0.116 C 
BRANCH   3   4
ATOM      4  N   UNL A   1      44.155  25.101  25.037  1.00  0.00    -0.356 N 
ATOM      5  C   UNL A   1      44.117  26.423  25.288  1.00  0.00     0.227 C 
ATOM      6  O   UNL A   1      43.164  27.027  24.775  1.00  0.00    -0.275 OA
ATOM      7  H   UNL A   1      43.622  24.798  24.265  1.00  0.00     0.163 HD
BRANCH   5   8
ATOM      8  C   UNL A   1      45.232  27.234  25.925  1.00  0.00     0.127 C 
ATOM      9  N   UNL A   1      45.510  30.888  26.582  1.00  0.00    -0.339 N 
ATOM     10  C   UNL A   1      46.820  30.404  26.928  1.00  0.00     0.160 C 
ATOM     11  C   UNL A   1      44.586  29.831  26.659  1.00  0.00     0.230 C 
ATOM     12  C   UNL A   1      46.719  29.003  26.369  1.00  0.00     0.117 C 
ATOM     13  C   UNL A   1      45.339  28.483  26.839  1.00  0.00     0.132 C 
ATOM     14  O   UNL A   1      43.383  30.012  26.661  1.00  0.00    -0.274 OA
ATOM     15  C   UNL A   1      47.895  28.078  26.331  1.00  0.00     0.009 C 
ATOM     16  O   UNL A   1      46.411  28.966  24.937  1.00  0.00    -0.360 OA
ATOM     17  C   UNL A   1      47.650  27.212  25.333  1.00  0.00     0.004 C 
ATOM     18  C   UNL A   1      46.283  27.538  24.821  1.00  0.00     0.155 C 
BRANCH   9  19
ATOM     19  C   UNL A   1      45.217  32.157  25.893  1.00  0.00     0.124 C 
BRANCH  19  20
ATOM     20  C   UNL A   1      44.149  33.101  26.546  1.00  0.00     0.018 C 
ATOM     21  C   UNL A   1      41.851  36.311  28.541  1.00  0.00     0.039 C 
ATOM     22  C   UNL A   1      42.710  35.306  27.835  1.00  0.00    -0.077 C 
ATOM     23  C   UNL A   1      43.419  34.429  28.551  1.00  0.00    -0.025 C 
ATOM     24  C   UNL A   1      42.918  35.434  26.348  1.00  0.00     0.034 C 
ATOM     25  C   UNL A   1      44.546  33.675  27.923  1.00  0.00     0.014 C 
ATOM     26  C   UNL A   1      43.612  34.237  25.608  1.00  0.00    -0.005 C 
ATOM     27  C   UNL A   1      45.786  34.572  27.913  1.00  0.00     0.012 C 
ATOM     28  C   UNL A   1      44.645  34.791  24.618  1.00  0.00     0.008 C 
ENDBRANCH  19  20
ENDBRANCH   9  19
ENDBRANCH   5   8
ENDBRANCH   3   4
ENDBRANCH   2   3
ENDBRANCH   1   2
BRANCH   1  29
ATOM     29  C   UNL A   1      41.663  22.489  26.496  1.00  0.00     0.116 C 
BRANCH  29  30
ATOM     30  N   UNL A   1      40.302  22.169  26.076  1.00  0.00    -0.352 N 
ATOM     31  C   UNL A   1      39.194  22.974  26.156  1.00  0.00     0.251 C 
ATOM     32  H   UNL A   1      40.163  21.272  25.692  1.00  0.00     0.163 HD
ATOM     33  O   UNL A   1      38.088  22.583  25.798  1.00  0.00    -0.269 OA
BRANCH  31  34
ATOM     34  C   UNL A   1      39.369  24.306  26.754  1.00  0.00     0.039 A 
ATOM     35  C   UNL A   1      39.048  24.474  28.100  1.00  0.00     0.014 A 
ATOM     36  C   UNL A   1      39.990  25.319  26.021  1.00  0.00     0.014 A 
ATOM     37  C   UNL A   1      39.422  25.652  28.740  1.00  0.00     0.010 A 
ATOM     38  C   UNL A   1      40.430  26.456  26.681  1.00  0.00     0.010 A 
ATOM     39  C   UNL A   1      40.154  26.630  28.047  1.00  0.00    -0.014 A 
BRANCH  39  40
ATOM     40  C   UNL A   1      40.638  27.848  28.734  1.00  0.00     0.031 A 
ATOM     41  C   UNL A   1      42.037  27.883  29.280  1.00  0.00     0.074 A 
ATOM     42  C   UNL A   1      39.802  28.888  28.917  1.00  0.00     0.049 A 
ATOM     43  N   UNL A   1      42.628  28.826  29.965  1.00  0.00    -0.248 NA
ATOM     44  C   UNL A   1      42.871  26.690  29.050  1.00  0.00     0.031 C 
ATOM     45  C   UNL A   1      38.404  28.944  28.477  1.00  0.00     0.029 A 
ATOM     46  N   UNL A   1      40.004  30.100  29.527  1.00  0.00    -0.354 N 
ATOM     47  C   UNL A   1      43.896  28.337  30.255  1.00  0.00     0.074 A 
ATOM     48  C   UNL A   1      43.967  26.993  29.727  1.00  0.00     0.031 C 
ATOM     49  C   UNL A   1      37.884  30.136  28.814  1.00  0.00     0.029 A 
ATOM     50  C   UNL A   1      38.896  30.914  29.518  1.00  0.00     0.049 A 
ATOM     51  H   UNL A   1      40.862  30.361  29.933  1.00  0.00     0.167 HD
ATOM     52  C   UNL A   1      44.921  28.964  30.879  1.00  0.00     0.031 A 
ATOM     53  C   UNL A   1      38.719  32.149  30.026  1.00  0.00     0.031 A 
ATOM     54  C   UNL A   1      44.848  30.305  31.390  1.00  0.00     0.049 A 
ATOM     55  C   UNL A   1      39.874  32.827  30.708  1.00  0.00     0.074 A 
ATOM     56  C   UNL A   1      45.839  31.045  32.009  1.00  0.00     0.029 A 
ATOM     57  N   UNL A   1      43.720  31.110  31.332  1.00  0.00    -0.354 N 
ATOM     58  N   UNL A   1      41.086  32.370  30.926  1.00  0.00    -0.248 NA
ATOM     59  C   UNL A   1      39.648  34.193  31.200  1.00  0.00     0.031 C 
ATOM     60  C   UNL A   1      45.299  32.288  32.357  1.00  0.00     0.029 A 
ATOM     61  C   UNL A   1      43.987  32.338  31.911  1.00  0.00     0.049 A 
ATOM     62  H   UNL A   1      42.858  30.847  30.937  1.00  0.00     0.167 HD
ATOM     63  C   UNL A   1      41.772  33.401  31.558  1.00  0.00     0.074 A 
ATOM     64  C   UNL A   1      40.846  34.511  31.670  1.00  0.00     0.031 C 
ATOM     65  C   UNL A   1      43.051  33.429  32.005  1.00  0.00     0.031 A 
BRANCH  52  66
ATOM     66  C   UNL A   1      46.208  28.199  31.025  1.00  0.00    -0.014 A 
ATOM     67  C   UNL A   1      46.379  27.275  32.072  1.00  0.00     0.010 A 
ATOM     68  C   UNL A   1      47.250  28.387  30.100  1.00  0.00     0.010 A 
ATOM     69  C   UNL A   1      47.584  26.585  32.217  1.00  0.00     0.020 A 
ATOM     70  C   UNL A   1      48.447  27.677  30.225  1.00  0.00     0.020 A 
ATOM     71  C   UNL A   1      48.612  26.792  31.293  1.00  0.00     0.054 A 
BRANCH  71  72
ATOM     72  S   UNL A   1      50.159  25.865  31.494  1.00  0.00     0.124 S 
ATOM     73  O   UNL A   1      50.364  25.330  30.151  1.00  0.00    -0.237 OA
ATOM     74  O   UNL A   1      51.101  26.901  31.908  1.00  0.00    -0.237 OA
ATOM     75  O   UNL A   1      49.837  24.874  32.519  1.00  0.00    -0.744 OA
ENDBRANCH  71  72
ENDBRANCH  52  66
BRANCH  53  76
ATOM     76  C   UNL A   1      37.400  32.828  29.897  1.00  0.00    -0.014 A 
ATOM     77  C   UNL A   1      36.443  32.734  30.923  1.00  0.00     0.010 A 
ATOM     78  C   UNL A   1      37.094  33.571  28.743  1.00  0.00     0.010 A 
ATOM     79  C   UNL A   1      35.195  33.348  30.786  1.00  0.00     0.020 A 
ATOM     80  C   UNL A   1      35.857  34.209  28.613  1.00  0.00     0.020 A 
ATOM     81  C   UNL A   1      34.908  34.080  29.630  1.00  0.00     0.054 A 
BRANCH  81  82
ATOM     82  S   UNL A   1      33.294  34.897  29.485  1.00  0.00     0.124 S 
ATOM     83  O   UNL A   1      33.652  36.164  28.855  1.00  0.00    -0.237 OA
ATOM     84  O   UNL A   1      32.540  33.965  28.650  1.00  0.00    -0.237 OA
ATOM     85  O   UNL A   1      32.836  34.991  30.869  1.00  0.00    -0.744 OA
ENDBRANCH  81  82
ENDBRANCH  53  76
BRANCH  65  86
ATOM     86  C   UNL A   1      43.536  34.709  32.628  1.00  0.00    -0.014 A 
ATOM     87  C   UNL A   1      43.906  35.808  31.834  1.00  0.00     0.010 A 
ATOM     88  C   UNL A   1      43.563  34.830  34.029  1.00  0.00     0.010 A 
ATOM     89  C   UNL A   1      44.323  37.000  32.433  1.00  0.00     0.020 A 
ATOM     90  C   UNL A   1      43.954  36.027  34.631  1.00  0.00     0.020 A 
ATOM     91  C   UNL A   1      44.345  37.101  33.828  1.00  0.00     0.054 A 
BRANCH  91  92
ATOM     92  S   UNL A   1      44.843  38.673  34.582  1.00  0.00     0.124 S 
ATOM     93  O   UNL A   1      46.285  38.495  34.731  1.00  0.00    -0.237 OA
ATOM     94  O   UNL A   1      44.431  39.654  33.581  1.00  0.00    -0.237 OA
ATOM     95  O   UNL A   1      44.087  38.712  35.832  1.00  0.00    -0.744 OA
ENDBRANCH  91  92
ENDBRANCH  65  86
ENDBRANCH  39  40
ENDBRANCH  31  34
ENDBRANCH  29  30
ENDBRANCH   1  29
TORSDOF 16
ENDMDL
