MODEL 1
REMARK VINA RESULT:     -11.1      0.000      0.000
REMARK SMILES O=C(NCCCCNC(=O)c1cc(S[C@H]2CCO[C@@]3(CCOC3)C2)cs1)c1ccc(-c2c3nc(c(-c4ccc(S(=O)(=O)[O-])cc4)c4ccc([nH]4)c(-c4ccc(S(=O)(=O)[O-])cc4)c4nc(c(-c5ccc(S(=O)(=O)[O-])cc5)c5ccc2[nH]5)C=C4)C=C3)cc1
REMARK SMILES IDX 5 1 4 2 3 3 1 4 2 5 27 7 28 8 86 9 29 10 85 11 30 12 31 13
REMARK SMILES IDX 32 14 79 15 33 16 84 17 78 18 80 19 34 20 83 21 77 22 76 23
REMARK SMILES IDX 35 25 65 26 46 27 64 28 47 29 50 30 63 31 81 32 48 33 49 34
REMARK SMILES IDX 62 36 82 37 51 38 36 39 37 40 45 41 38 42 44 43 39 44 40 45
REMARK SMILES IDX 41 46 42 47 43 48 66 49 67 50 75 51 68 52 74 53 69 54 70 55
REMARK SMILES IDX 71 56 72 57 73 58 52 59 53 60 61 61 54 62 60 63 55 64 56 65
REMARK SMILES IDX 57 66 58 67 59 68 6 69 7 70 8 71 9 72 10 74 11 75 12 76
REMARK SMILES IDX 26 77 13 78 25 79 14 80 15 81 16 82 24 83 17 84 19 85 18 86
REMARK SMILES IDX 20 87 23 88 21 89 22 90
REMARK H PARENT 3 6 80 24 50 35 8 73
REMARK Flexibility Score: inf
ROOT
ATOM      1  C   UNL A   1      35.932  23.017  24.296  1.00  0.00     0.023 C 
ENDROOT
BRANCH   1   2
ATOM      2  C   UNL A   1      37.094  23.682  25.026  1.00  0.00     0.116 C 
BRANCH   2   3
ATOM      3  N   UNL A   1      38.144  22.750  25.420  1.00  0.00    -0.352 N 
ATOM      4  O   UNL A   1      40.109  22.090  26.315  1.00  0.00    -0.269 OA
ATOM      5  C   UNL A   1      39.260  22.969  26.197  1.00  0.00     0.251 C 
ATOM      6  H   UNL A   1      38.040  21.832  25.082  1.00  0.00     0.163 HD
BRANCH   5   7
ATOM      7  C   UNL A   1      39.450  24.282  26.850  1.00  0.00     0.039 A 
ATOM      8  C   UNL A   1      40.136  25.303  26.194  1.00  0.00     0.014 A 
ATOM      9  C   UNL A   1      38.988  24.474  28.154  1.00  0.00     0.014 A 
ATOM     10  C   UNL A   1      40.553  26.417  26.910  1.00  0.00     0.010 A 
ATOM     11  C   UNL A   1      39.308  25.653  28.836  1.00  0.00     0.010 A 
ATOM     12  C   UNL A   1      40.145  26.608  28.241  1.00  0.00    -0.014 A 
BRANCH  12  13
ATOM     13  C   UNL A   1      40.599  27.824  28.970  1.00  0.00     0.031 A 
ATOM     14  C   UNL A   1      42.009  27.943  29.493  1.00  0.00     0.074 A 
ATOM     15  C   UNL A   1      39.741  28.854  29.111  1.00  0.00     0.049 A 
ATOM     16  N   UNL A   1      42.580  28.957  30.093  1.00  0.00    -0.248 NA
ATOM     17  C   UNL A   1      42.891  26.775  29.329  1.00  0.00     0.031 C 
ATOM     18  C   UNL A   1      38.349  28.861  28.648  1.00  0.00     0.029 A 
ATOM     19  N   UNL A   1      39.915  30.102  29.650  1.00  0.00    -0.354 N 
ATOM     20  C   UNL A   1      43.871  28.543  30.406  1.00  0.00     0.074 A 
ATOM     21  C   UNL A   1      43.993  27.176  29.950  1.00  0.00     0.031 C 
ATOM     22  C   UNL A   1      37.821  30.075  28.861  1.00  0.00     0.029 A 
ATOM     23  C   UNL A   1      38.805  30.907  29.542  1.00  0.00     0.049 A 
ATOM     24  H   UNL A   1      40.755  30.396  30.074  1.00  0.00     0.167 HD
ATOM     25  C   UNL A   1      44.864  29.239  31.013  1.00  0.00     0.031 A 
ATOM     26  C   UNL A   1      38.592  32.170  29.953  1.00  0.00     0.031 A 
ATOM     27  C   UNL A   1      44.739  30.604  31.458  1.00  0.00     0.049 A 
ATOM     28  C   UNL A   1      39.702  32.909  30.643  1.00  0.00     0.074 A 
ATOM     29  C   UNL A   1      45.699  31.407  32.049  1.00  0.00     0.029 A 
ATOM     30  N   UNL A   1      43.584  31.367  31.368  1.00  0.00    -0.354 N 
ATOM     31  N   UNL A   1      40.924  32.510  30.897  1.00  0.00    -0.248 NA
ATOM     32  C   UNL A   1      39.403  34.274  31.094  1.00  0.00     0.031 C 
ATOM     33  C   UNL A   1      45.108  32.633  32.372  1.00  0.00     0.029 A 
ATOM     34  C   UNL A   1      43.801  32.621  31.917  1.00  0.00     0.049 A 
ATOM     35  H   UNL A   1      42.735  31.062  30.974  1.00  0.00     0.167 HD
ATOM     36  C   UNL A   1      41.552  33.586  31.512  1.00  0.00     0.074 A 
ATOM     37  C   UNL A   1      40.578  34.657  31.575  1.00  0.00     0.031 C 
ATOM     38  C   UNL A   1      42.823  33.679  31.976  1.00  0.00     0.031 A 
BRANCH  25  39
ATOM     39  C   UNL A   1      46.170  28.526  31.268  1.00  0.00    -0.014 A 
ATOM     40  C   UNL A   1      47.225  28.565  30.339  1.00  0.00     0.010 A 
ATOM     41  C   UNL A   1      46.359  27.842  32.484  1.00  0.00     0.010 A 
ATOM     42  C   UNL A   1      48.428  27.900  30.603  1.00  0.00     0.020 A 
ATOM     43  C   UNL A   1      47.570  27.202  32.765  1.00  0.00     0.020 A 
ATOM     44  C   UNL A   1      48.590  27.219  31.813  1.00  0.00     0.054 A 
BRANCH  44  45
ATOM     45  S   UNL A   1      50.166  26.378  32.136  1.00  0.00     0.124 S 
ATOM     46  O   UNL A   1      50.260  26.465  33.591  1.00  0.00    -0.237 OA
ATOM     47  O   UNL A   1      49.930  25.040  31.601  1.00  0.00    -0.237 OA
ATOM     48  O   UNL A   1      51.144  27.177  31.400  1.00  0.00    -0.744 OA
ENDBRANCH  44  45
ENDBRANCH  25  39
BRANCH  26  49
ATOM     49  C   UNL A   1      37.268  32.810  29.721  1.00  0.00    -0.014 A 
ATOM     50  C   UNL A   1      36.297  32.840  30.737  1.00  0.00     0.010 A 
ATOM     51  C   UNL A   1      36.981  33.414  28.483  1.00  0.00     0.010 A 
ATOM     52  C   UNL A   1      35.057  33.443  30.512  1.00  0.00     0.020 A 
ATOM     53  C   UNL A   1      35.756  34.048  28.265  1.00  0.00     0.020 A 
ATOM     54  C   UNL A   1      34.796  34.047  29.278  1.00  0.00     0.054 A 
BRANCH  54  55
ATOM     55  S   UNL A   1      33.197  34.864  29.025  1.00  0.00     0.124 S 
ATOM     56  O   UNL A   1      33.603  36.190  28.574  1.00  0.00    -0.237 OA
ATOM     57  O   UNL A   1      32.567  34.015  28.015  1.00  0.00    -0.237 OA
ATOM     58  O   UNL A   1      32.574  34.813  30.345  1.00  0.00    -0.744 OA
ENDBRANCH  54  55
ENDBRANCH  26  49
BRANCH  38  59
ATOM     59  C   UNL A   1      43.249  35.006  32.549  1.00  0.00    -0.014 A 
ATOM     60  C   UNL A   1      43.061  35.318  33.907  1.00  0.00     0.010 A 
ATOM     61  C   UNL A   1      43.874  35.947  31.711  1.00  0.00     0.010 A 
ATOM     62  C   UNL A   1      43.444  36.567  34.404  1.00  0.00     0.020 A 
ATOM     63  C   UNL A   1      44.289  37.183  32.211  1.00  0.00     0.020 A 
ATOM     64  C   UNL A   1      44.053  37.492  33.551  1.00  0.00     0.054 A 
BRANCH  64  65
ATOM     65  S   UNL A   1      44.561  39.099  34.223  1.00  0.00     0.124 S 
ATOM     66  O   UNL A   1      43.348  39.894  34.058  1.00  0.00    -0.237 OA
ATOM     67  O   UNL A   1      44.915  38.772  35.602  1.00  0.00    -0.237 OA
ATOM     68  O   UNL A   1      45.683  39.490  33.374  1.00  0.00    -0.744 OA
ENDBRANCH  64  65
ENDBRANCH  38  59
ENDBRANCH  12  13
ENDBRANCH   5   7
ENDBRANCH   2   3
ENDBRANCH   1   2
BRANCH   1  69
ATOM     69  C   UNL A   1      35.835  21.508  24.479  1.00  0.00     0.023 C 
BRANCH  69  70
ATOM     70  C   UNL A   1      35.088  21.064  25.730  1.00  0.00     0.116 C 
BRANCH  70  71
ATOM     71  N   UNL A   1      34.152  19.978  25.467  1.00  0.00    -0.351 N 
ATOM     72  C   UNL A   1      32.802  20.060  25.188  1.00  0.00     0.261 C 
ATOM     73  H   UNL A   1      34.530  19.070  25.490  1.00  0.00     0.163 HD
ATOM     74  O   UNL A   1      32.139  19.018  25.185  1.00  0.00    -0.268 OA
BRANCH  72  75
ATOM     75  C   UNL A   1      32.266  21.362  24.864  1.00  0.00     0.093 A 
ATOM     76  C   UNL A   1      31.745  22.277  25.753  1.00  0.00     0.040 A 
ATOM     77  S   UNL A   1      32.209  21.959  23.270  1.00  0.00    -0.137 S 
ATOM     78  C   UNL A   1      31.105  23.378  25.124  1.00  0.00     0.019 A 
ATOM     79  C   UNL A   1      31.309  23.345  23.761  1.00  0.00     0.080 A 
BRANCH  78  80
ATOM     80  S   UNL A   1      30.147  24.615  25.970  1.00  0.00    -0.122 SA
BRANCH  80  81
ATOM     81  C   UNL A   1      30.543  26.111  24.994  1.00  0.00     0.057 C 
ATOM     82  C   UNL A   1      29.339  26.509  24.138  1.00  0.00     0.043 C 
ATOM     83  C   UNL A   1      31.007  27.345  25.784  1.00  0.00     0.053 C 
ATOM     84  C   UNL A   1      29.807  27.567  23.160  1.00  0.00     0.162 C 
ATOM     85  C   UNL A   1      31.351  28.481  24.780  1.00  0.00     0.095 C 
ATOM     86  O   UNL A   1      30.262  28.708  23.874  1.00  0.00    -0.372 OA
ATOM     87  C   UNL A   1      31.614  29.813  25.463  1.00  0.00     0.066 C 
ATOM     88  C   UNL A   1      32.689  28.249  24.057  1.00  0.00     0.195 C 
ATOM     89  C   UNL A   1      33.097  29.810  25.737  1.00  0.00     0.163 C 
ATOM     90  O   UNL A   1      33.709  28.974  24.756  1.00  0.00    -0.378 OA
ENDBRANCH  80  81
ENDBRANCH  78  80
ENDBRANCH  72  75
ENDBRANCH  70  71
ENDBRANCH  69  70
ENDBRANCH   1  69
TORSDOF 16
ENDMDL
MODEL 2
REMARK VINA RESULT:     -11.0      1.093      8.289
REMARK SMILES O=C(NCCCCNC(=O)c1cc(S[C@H]2CCO[C@@]3(CCOC3)C2)cs1)c1ccc(-c2c3nc(c(-c4ccc(S(=O)(=O)[O-])cc4)c4ccc([nH]4)c(-c4ccc(S(=O)(=O)[O-])cc4)c4nc(c(-c5ccc(S(=O)(=O)[O-])cc5)c5ccc2[nH]5)C=C4)C=C3)cc1
REMARK SMILES IDX 5 1 4 2 3 3 1 4 2 5 27 7 28 8 86 9 29 10 85 11 30 12 31 13
REMARK SMILES IDX 32 14 79 15 33 16 84 17 78 18 80 19 34 20 83 21 77 22 76 23
REMARK SMILES IDX 35 25 65 26 46 27 64 28 47 29 50 30 63 31 81 32 48 33 49 34
REMARK SMILES IDX 62 36 82 37 51 38 36 39 37 40 45 41 38 42 44 43 39 44 40 45
REMARK SMILES IDX 41 46 42 47 43 48 66 49 67 50 75 51 68 52 74 53 69 54 70 55
REMARK SMILES IDX 71 56 72 57 73 58 52 59 53 60 61 61 54 62 60 63 55 64 56 65
REMARK SMILES IDX 57 66 58 67 59 68 6 69 7 70 8 71 9 72 10 74 11 75 12 76
REMARK SMILES IDX 26 77 13 78 25 79 14 80 15 81 16 82 24 83 17 84 19 85 18 86
REMARK SMILES IDX 20 87 23 88 21 89 22 90
REMARK H PARENT 3 6 80 24 50 35 8 73
REMARK Flexibility Score: inf
ROOT
ATOM      1  C   UNL A   1      35.730  23.249  25.998  1.00  0.00     0.023 C 
ENDROOT
BRANCH   1   2
ATOM      2  C   UNL A   1      36.987  23.706  25.267  1.00  0.00     0.116 C 
BRANCH   2   3
ATOM      3  N   UNL A   1      38.134  22.832  25.477  1.00  0.00    -0.352 N 
ATOM      4  O   UNL A   1      40.225  22.262  26.110  1.00  0.00    -0.269 OA
ATOM      5  C   UNL A   1      39.311  23.079  26.149  1.00  0.00     0.251 C 
ATOM      6  H   UNL A   1      38.057  21.934  25.081  1.00  0.00     0.163 HD
BRANCH   5   7
ATOM      7  C   UNL A   1      39.481  24.354  26.879  1.00  0.00     0.039 A 
ATOM      8  C   UNL A   1      40.228  25.391  26.322  1.00  0.00     0.014 A 
ATOM      9  C   UNL A   1      38.937  24.491  28.158  1.00  0.00     0.014 A 
ATOM     10  C   UNL A   1      40.616  26.460  27.120  1.00  0.00     0.010 A 
ATOM     11  C   UNL A   1      39.232  25.627  28.919  1.00  0.00     0.010 A 
ATOM     12  C   UNL A   1      40.124  26.593  28.429  1.00  0.00    -0.014 A 
BRANCH  12  13
ATOM     13  C   UNL A   1      40.551  27.761  29.248  1.00  0.00     0.031 A 
ATOM     14  C   UNL A   1      39.639  28.942  29.462  1.00  0.00     0.074 A 
ATOM     15  C   UNL A   1      41.757  27.725  29.849  1.00  0.00     0.049 A 
ATOM     16  N   UNL A   1      39.835  30.009  30.197  1.00  0.00    -0.248 NA
ATOM     17  C   UNL A   1      38.344  28.934  28.759  1.00  0.00     0.031 C 
ATOM     18  C   UNL A   1      42.731  26.636  29.720  1.00  0.00     0.029 A 
ATOM     19  N   UNL A   1      42.358  28.604  30.712  1.00  0.00    -0.354 N 
ATOM     20  C   UNL A   1      38.710  30.809  30.022  1.00  0.00     0.074 A 
ATOM     21  C   UNL A   1      37.844  30.116  29.093  1.00  0.00     0.031 C 
ATOM     22  C   UNL A   1      43.774  26.880  30.527  1.00  0.00     0.029 A 
ATOM     23  C   UNL A   1      43.580  28.173  31.172  1.00  0.00     0.049 A 
ATOM     24  H   UNL A   1      41.954  29.462  30.978  1.00  0.00     0.167 HD
ATOM     25  C   UNL A   1      38.423  32.008  30.586  1.00  0.00     0.031 A 
ATOM     26  C   UNL A   1      44.459  28.754  32.010  1.00  0.00     0.031 A 
ATOM     27  C   UNL A   1      39.286  32.691  31.518  1.00  0.00     0.049 A 
ATOM     28  C   UNL A   1      44.125  30.092  32.603  1.00  0.00     0.074 A 
ATOM     29  C   UNL A   1      39.066  33.890  32.173  1.00  0.00     0.029 A 
ATOM     30  N   UNL A   1      40.534  32.240  31.922  1.00  0.00    -0.354 N 
ATOM     31  N   UNL A   1      43.041  30.813  32.450  1.00  0.00    -0.248 NA
ATOM     32  C   UNL A   1      45.133  30.689  33.488  1.00  0.00     0.031 C 
ATOM     33  C   UNL A   1      40.206  34.195  32.925  1.00  0.00     0.029 A 
ATOM     34  C   UNL A   1      41.106  33.150  32.796  1.00  0.00     0.049 A 
ATOM     35  H   UNL A   1      40.952  31.398  31.631  1.00  0.00     0.167 HD
ATOM     36  C   UNL A   1      43.223  31.939  33.245  1.00  0.00     0.074 A 
ATOM     37  C   UNL A   1      44.513  31.791  33.888  1.00  0.00     0.031 C 
ATOM     38  C   UNL A   1      42.392  32.994  33.429  1.00  0.00     0.031 A 
BRANCH  25  39
ATOM     39  C   UNL A   1      37.134  32.685  30.187  1.00  0.00    -0.014 A 
ATOM     40  C   UNL A   1      35.949  32.510  30.925  1.00  0.00     0.010 A 
ATOM     41  C   UNL A   1      37.122  33.551  29.076  1.00  0.00     0.010 A 
ATOM     42  C   UNL A   1      34.769  33.154  30.536  1.00  0.00     0.020 A 
ATOM     43  C   UNL A   1      35.953  34.219  28.702  1.00  0.00     0.020 A 
ATOM     44  C   UNL A   1      34.778  34.001  29.424  1.00  0.00     0.054 A 
BRANCH  44  45
ATOM     45  S   UNL A   1      33.237  34.835  28.951  1.00  0.00     0.124 S 
ATOM     46  O   UNL A   1      32.662  33.885  28.002  1.00  0.00    -0.237 OA
ATOM     47  O   UNL A   1      32.532  34.952  30.225  1.00  0.00    -0.237 OA
ATOM     48  O   UNL A   1      33.688  36.098  28.373  1.00  0.00    -0.744 OA
ENDBRANCH  44  45
ENDBRANCH  25  39
BRANCH  26  49
ATOM     49  C   UNL A   1      45.739  28.065  32.332  1.00  0.00    -0.014 A 
ATOM     50  C   UNL A   1      45.824  27.186  33.425  1.00  0.00     0.010 A 
ATOM     51  C   UNL A   1      46.877  28.272  31.531  1.00  0.00     0.010 A 
ATOM     52  C   UNL A   1      47.028  26.542  33.723  1.00  0.00     0.020 A 
ATOM     53  C   UNL A   1      48.073  27.605  31.803  1.00  0.00     0.020 A 
ATOM     54  C   UNL A   1      48.144  26.754  32.907  1.00  0.00     0.054 A 
BRANCH  54  55
ATOM     55  S   UNL A   1      49.684  25.872  33.285  1.00  0.00     0.124 S 
ATOM     56  O   UNL A   1      49.360  25.227  34.552  1.00  0.00    -0.237 OA
ATOM     57  O   UNL A   1      49.825  24.981  32.136  1.00  0.00    -0.237 OA
ATOM     58  O   UNL A   1      50.678  26.940  33.360  1.00  0.00    -0.744 OA
ENDBRANCH  54  55
ENDBRANCH  26  49
BRANCH  38  59
ATOM     59  C   UNL A   1      42.833  34.053  34.407  1.00  0.00    -0.014 A 
ATOM     60  C   UNL A   1      42.664  33.892  35.794  1.00  0.00     0.010 A 
ATOM     61  C   UNL A   1      43.452  35.220  33.923  1.00  0.00     0.010 A 
ATOM     62  C   UNL A   1      43.062  34.902  36.675  1.00  0.00     0.020 A 
ATOM     63  C   UNL A   1      43.882  36.216  34.803  1.00  0.00     0.020 A 
ATOM     64  C   UNL A   1      43.665  36.059  36.172  1.00  0.00     0.054 A 
BRANCH  64  65
ATOM     65  S   UNL A   1      44.190  37.347  37.336  1.00  0.00     0.124 S 
ATOM     66  O   UNL A   1      45.394  36.759  37.917  1.00  0.00    -0.237 OA
ATOM     67  O   UNL A   1      44.411  38.497  36.464  1.00  0.00    -0.237 OA
ATOM     68  O   UNL A   1      43.056  37.472  38.249  1.00  0.00    -0.744 OA
ENDBRANCH  64  65
ENDBRANCH  38  59
ENDBRANCH  12  13
ENDBRANCH   5   7
ENDBRANCH   2   3
ENDBRANCH   1   2
BRANCH   1  69
ATOM     69  C   UNL A   1      35.573  21.739  26.127  1.00  0.00     0.023 C 
BRANCH  69  70
ATOM     70  C   UNL A   1      35.302  21.013  24.815  1.00  0.00     0.116 C 
BRANCH  70  71
ATOM     71  N   UNL A   1      34.311  19.953  24.958  1.00  0.00    -0.351 N 
ATOM     72  C   UNL A   1      32.940  20.071  25.070  1.00  0.00     0.261 C 
ATOM     73  H   UNL A   1      34.665  19.035  24.976  1.00  0.00     0.163 HD
ATOM     74  O   UNL A   1      32.287  19.070  25.377  1.00  0.00    -0.268 OA
BRANCH  72  75
ATOM     75  C   UNL A   1      32.356  21.357  24.764  1.00  0.00     0.093 A 
ATOM     76  C   UNL A   1      31.895  22.284  25.674  1.00  0.00     0.040 A 
ATOM     77  S   UNL A   1      32.155  21.916  23.168  1.00  0.00    -0.137 S 
ATOM     78  C   UNL A   1      31.185  23.360  25.077  1.00  0.00     0.019 A 
ATOM     79  C   UNL A   1      31.274  23.298  23.703  1.00  0.00     0.080 A 
BRANCH  78  80
ATOM     80  S   UNL A   1      30.278  24.600  25.974  1.00  0.00    -0.122 SA
BRANCH  80  81
ATOM     81  C   UNL A   1      30.763  26.121  25.080  1.00  0.00     0.057 C 
ATOM     82  C   UNL A   1      29.635  26.557  24.142  1.00  0.00     0.043 C 
ATOM     83  C   UNL A   1      31.171  27.326  25.943  1.00  0.00     0.053 C 
ATOM     84  C   UNL A   1      30.189  27.639  23.238  1.00  0.00     0.162 C 
ATOM     85  C   UNL A   1      31.604  28.488  25.005  1.00  0.00     0.095 C 
ATOM     86  O   UNL A   1      30.593  28.753  24.022  1.00  0.00    -0.372 OA
ATOM     87  C   UNL A   1      31.820  29.797  25.748  1.00  0.00     0.066 C 
ATOM     88  C   UNL A   1      32.995  28.265  24.386  1.00  0.00     0.195 C 
ATOM     89  C   UNL A   1      33.276  29.770  26.142  1.00  0.00     0.163 C 
ATOM     90  O   UNL A   1      33.960  28.958  25.187  1.00  0.00    -0.378 OA
ENDBRANCH  80  81
ENDBRANCH  78  80
ENDBRANCH  72  75
ENDBRANCH  70  71
ENDBRANCH  69  70
ENDBRANCH   1  69
TORSDOF 16
ENDMDL
MODEL 3
REMARK VINA RESULT:     -11.0      3.595      4.356
REMARK SMILES O=C(NCCCCNC(=O)c1cc(S[C@H]2CCO[C@@]3(CCOC3)C2)cs1)c1ccc(-c2c3nc(c(-c4ccc(S(=O)(=O)[O-])cc4)c4ccc([nH]4)c(-c4ccc(S(=O)(=O)[O-])cc4)c4nc(c(-c5ccc(S(=O)(=O)[O-])cc5)c5ccc2[nH]5)C=C4)C=C3)cc1
REMARK SMILES IDX 5 1 4 2 3 3 1 4 2 5 27 7 28 8 86 9 29 10 85 11 30 12 31 13
REMARK SMILES IDX 32 14 79 15 33 16 84 17 78 18 80 19 34 20 83 21 77 22 76 23
REMARK SMILES IDX 35 25 65 26 46 27 64 28 47 29 50 30 63 31 81 32 48 33 49 34
REMARK SMILES IDX 62 36 82 37 51 38 36 39 37 40 45 41 38 42 44 43 39 44 40 45
REMARK SMILES IDX 41 46 42 47 43 48 66 49 67 50 75 51 68 52 74 53 69 54 70 55
REMARK SMILES IDX 71 56 72 57 73 58 52 59 53 60 61 61 54 62 60 63 55 64 56 65
REMARK SMILES IDX 57 66 58 67 59 68 6 69 7 70 8 71 9 72 10 74 11 75 12 76
REMARK SMILES IDX 26 77 13 78 25 79 14 80 15 81 16 82 24 83 17 84 19 85 18 86
REMARK SMILES IDX 20 87 23 88 21 89 22 90
REMARK H PARENT 3 6 80 24 50 35 8 73
REMARK Flexibility Score: inf
ROOT
ATOM      1  C   UNL A   1      39.998  22.195  26.815  1.00  0.00     0.023 C 
ENDROOT
BRANCH   1   2
ATOM      2  C   UNL A   1      41.135  23.171  27.093  1.00  0.00     0.116 C 
BRANCH   2   3
ATOM      3  N   UNL A   1      41.347  24.139  26.023  1.00  0.00    -0.352 N 
ATOM      4  O   UNL A   1      41.448  26.174  25.051  1.00  0.00    -0.269 OA
ATOM      5  C   UNL A   1      41.390  25.514  26.084  1.00  0.00     0.251 C 
ATOM      6  H   UNL A   1      41.478  23.753  25.127  1.00  0.00     0.163 HD
BRANCH   5   7
ATOM      7  C   UNL A   1      41.320  26.190  27.397  1.00  0.00     0.039 A 
ATOM      8  C   UNL A   1      40.196  26.042  28.208  1.00  0.00     0.014 A 
ATOM      9  C   UNL A   1      42.365  27.027  27.795  1.00  0.00     0.014 A 
ATOM     10  C   UNL A   1      40.017  26.892  29.291  1.00  0.00     0.010 A 
ATOM     11  C   UNL A   1      42.233  27.796  28.957  1.00  0.00     0.010 A 
ATOM     12  C   UNL A   1      41.032  27.781  29.682  1.00  0.00    -0.014 A 
BRANCH  12  13
ATOM     13  C   UNL A   1      40.808  28.664  30.859  1.00  0.00     0.031 A 
ATOM     14  C   UNL A   1      41.692  28.583  32.078  1.00  0.00     0.074 A 
ATOM     15  C   UNL A   1      39.829  29.588  30.798  1.00  0.00     0.049 A 
ATOM     16  N   UNL A   1      41.670  29.322  33.159  1.00  0.00    -0.248 NA
ATOM     17  C   UNL A   1      42.729  27.537  32.093  1.00  0.00     0.031 C 
ATOM     18  C   UNL A   1      38.906  29.767  29.673  1.00  0.00     0.029 A 
ATOM     19  N   UNL A   1      39.464  30.570  31.682  1.00  0.00    -0.354 N 
ATOM     20  C   UNL A   1      42.662  28.814  33.993  1.00  0.00     0.074 A 
ATOM     21  C   UNL A   1      43.253  27.689  33.302  1.00  0.00     0.031 C 
ATOM     22  C   UNL A   1      38.129  30.835  29.905  1.00  0.00     0.029 A 
ATOM     23  C   UNL A   1      38.445  31.371  31.223  1.00  0.00     0.049 A 
ATOM     24  H   UNL A   1      39.890  30.691  32.562  1.00  0.00     0.167 HD
ATOM     25  C   UNL A   1      43.047  29.248  35.218  1.00  0.00     0.031 A 
ATOM     26  C   UNL A   1      37.819  32.415  31.798  1.00  0.00     0.031 A 
ATOM     27  C   UNL A   1      42.459  30.375  35.898  1.00  0.00     0.049 A 
ATOM     28  C   UNL A   1      38.252  32.860  33.165  1.00  0.00     0.074 A 
ATOM     29  C   UNL A   1      42.806  30.915  37.125  1.00  0.00     0.029 A 
ATOM     30  N   UNL A   1      41.401  31.131  35.417  1.00  0.00    -0.354 N 
ATOM     31  N   UNL A   1      39.215  32.387  33.919  1.00  0.00    -0.248 NA
ATOM     32  C   UNL A   1      37.516  33.986  33.754  1.00  0.00     0.031 C 
ATOM     33  C   UNL A   1      41.919  31.957  37.412  1.00  0.00     0.029 A 
ATOM     34  C   UNL A   1      41.065  32.115  36.333  1.00  0.00     0.049 A 
ATOM     35  H   UNL A   1      40.953  30.989  34.551  1.00  0.00     0.167 HD
ATOM     36  C   UNL A   1      39.220  33.178  35.062  1.00  0.00     0.074 A 
ATOM     37  C   UNL A   1      38.177  34.168  34.889  1.00  0.00     0.031 C 
ATOM     38  C   UNL A   1      40.023  33.094  36.152  1.00  0.00     0.031 A 
BRANCH  25  39
ATOM     39  C   UNL A   1      44.137  28.480  35.927  1.00  0.00    -0.014 A 
ATOM     40  C   UNL A   1      45.493  28.828  35.789  1.00  0.00     0.010 A 
ATOM     41  C   UNL A   1      43.790  27.420  36.786  1.00  0.00     0.010 A 
ATOM     42  C   UNL A   1      46.483  28.103  36.463  1.00  0.00     0.020 A 
ATOM     43  C   UNL A   1      44.773  26.713  37.484  1.00  0.00     0.020 A 
ATOM     44  C   UNL A   1      46.116  27.047  37.303  1.00  0.00     0.054 A 
BRANCH  44  45
ATOM     45  S   UNL A   1      47.420  26.134  38.175  1.00  0.00     0.124 S 
ATOM     46  O   UNL A   1      47.872  27.119  39.155  1.00  0.00    -0.237 OA
ATOM     47  O   UNL A   1      46.697  24.990  38.724  1.00  0.00    -0.237 OA
ATOM     48  O   UNL A   1      48.383  25.814  37.124  1.00  0.00    -0.744 OA
ENDBRANCH  44  45
ENDBRANCH  25  39
BRANCH  26  49
ATOM     49  C   UNL A   1      36.717  33.107  31.075  1.00  0.00    -0.014 A 
ATOM     50  C   UNL A   1      36.985  33.888  29.938  1.00  0.00     0.010 A 
ATOM     51  C   UNL A   1      35.387  32.967  31.512  1.00  0.00     0.010 A 
ATOM     52  C   UNL A   1      35.945  34.534  29.264  1.00  0.00     0.020 A 
ATOM     53  C   UNL A   1      34.341  33.583  30.822  1.00  0.00     0.020 A 
ATOM     54  C   UNL A   1      34.629  34.374  29.708  1.00  0.00     0.054 A 
BRANCH  54  55
ATOM     55  S   UNL A   1      33.291  35.185  28.791  1.00  0.00     0.124 S 
ATOM     56  O   UNL A   1      32.678  34.060  28.093  1.00  0.00    -0.237 OA
ATOM     57  O   UNL A   1      32.493  35.780  29.860  1.00  0.00    -0.237 OA
ATOM     58  O   UNL A   1      33.992  36.144  27.941  1.00  0.00    -0.744 OA
ENDBRANCH  54  55
ENDBRANCH  26  49
BRANCH  38  59
ATOM     59  C   UNL A   1      39.836  34.136  37.224  1.00  0.00    -0.014 A 
ATOM     60  C   UNL A   1      39.008  33.909  38.337  1.00  0.00     0.010 A 
ATOM     61  C   UNL A   1      40.527  35.358  37.122  1.00  0.00     0.010 A 
ATOM     62  C   UNL A   1      38.835  34.905  39.303  1.00  0.00     0.020 A 
ATOM     63  C   UNL A   1      40.384  36.342  38.103  1.00  0.00     0.020 A 
ATOM     64  C   UNL A   1      39.522  36.116  39.177  1.00  0.00     0.054 A 
BRANCH  64  65
ATOM     65  S   UNL A   1      39.298  37.385  40.453  1.00  0.00     0.124 S 
ATOM     66  O   UNL A   1      38.924  36.585  41.615  1.00  0.00    -0.237 OA
ATOM     67  O   UNL A   1      40.617  38.010  40.519  1.00  0.00    -0.237 OA
ATOM     68  O   UNL A   1      38.239  38.235  39.914  1.00  0.00    -0.744 OA
ENDBRANCH  64  65
ENDBRANCH  38  59
ENDBRANCH  12  13
ENDBRANCH   5   7
ENDBRANCH   2   3
ENDBRANCH   1   2
BRANCH   1  69
ATOM     69  C   UNL A   1      38.670  22.842  26.445  1.00  0.00     0.023 C 
BRANCH  69  70
ATOM     70  C   UNL A   1      37.751  21.970  25.598  1.00  0.00     0.116 C 
BRANCH  70  71
ATOM     71  N   UNL A   1      37.462  22.562  24.297  1.00  0.00    -0.351 N 
ATOM     72  C   UNL A   1      36.248  22.649  23.645  1.00  0.00     0.261 C 
ATOM     73  H   UNL A   1      38.232  22.950  23.822  1.00  0.00     0.163 HD
ATOM     74  O   UNL A   1      36.239  23.013  22.465  1.00  0.00    -0.268 OA
BRANCH  72  75
ATOM     75  C   UNL A   1      35.058  22.358  24.412  1.00  0.00     0.093 A 
ATOM     76  C   UNL A   1      34.145  23.276  24.885  1.00  0.00     0.040 A 
ATOM     77  S   UNL A   1      34.613  20.773  24.847  1.00  0.00    -0.137 S 
ATOM     78  C   UNL A   1      33.194  22.719  25.781  1.00  0.00     0.019 A 
ATOM     79  C   UNL A   1      33.317  21.346  25.829  1.00  0.00     0.080 A 
BRANCH  78  80
ATOM     80  S   UNL A   1      32.023  23.660  26.733  1.00  0.00    -0.122 SA
BRANCH  80  81
ATOM     81  C   UNL A   1      31.830  25.155  25.698  1.00  0.00     0.057 C 
ATOM     82  C   UNL A   1      30.482  25.119  24.974  1.00  0.00     0.043 C 
ATOM     83  C   UNL A   1      31.962  26.509  26.412  1.00  0.00     0.053 C 
ATOM     84  C   UNL A   1      30.495  26.220  23.934  1.00  0.00     0.162 C 
ATOM     85  C   UNL A   1      31.830  27.646  25.359  1.00  0.00     0.095 C 
ATOM     86  O   UNL A   1      30.639  27.479  24.576  1.00  0.00    -0.372 OA
ATOM     87  C   UNL A   1      31.730  29.025  25.989  1.00  0.00     0.066 C 
ATOM     88  C   UNL A   1      33.094  27.804  24.495  1.00  0.00     0.195 C 
ATOM     89  C   UNL A   1      33.160  29.495  26.097  1.00  0.00     0.163 C 
ATOM     90  O   UNL A   1      33.901  28.842  25.066  1.00  0.00    -0.378 OA
ENDBRANCH  80  81
ENDBRANCH  78  80
ENDBRANCH  72  75
ENDBRANCH  70  71
ENDBRANCH  69  70
ENDBRANCH   1  69
TORSDOF 16
ENDMDL
