MODEL 1
REMARK VINA RESULT:     -11.4      0.000      0.000
REMARK SMILES Cc1cnc(NC(=O)NC[C@H]2CC[C@H](C(=O)NCCCCNC(=O)c3ccc(-c4c5nc(c(-c6ccc(S(=O)(=O)[O-])cc6)c6ccc([nH]6)c(-c6ccc(S(=O)(=O)[O-])cc6)c6nc(c(-c7ccc(S(=O)(=O)[O-])cc7)c7ccc4[nH]7)C=C6)C=C5)cc3)O2)s1
REMARK SMILES IDX 19 1 18 2 17 3 15 4 16 5 14 7 11 8 12 9 85 10 13 11 10 12
REMARK SMILES IDX 9 13 6 14 7 15 8 17 5 19 1 20 2 21 3 22 86 23 4 24 20 25
REMARK SMILES IDX 21 26 22 27 23 28 24 30 25 31 26 32 84 33 27 34 83 35 28 36
REMARK SMILES IDX 29 37 30 38 77 39 31 40 82 41 76 42 78 43 32 44 81 45 75 46
REMARK SMILES IDX 74 47 33 49 63 50 44 51 62 52 45 53 48 54 61 55 79 56 46 57
REMARK SMILES IDX 47 58 60 60 80 61 49 62 34 63 35 64 43 65 36 66 42 67 37 68
REMARK SMILES IDX 38 69 39 70 40 71 41 72 64 73 65 74 73 75 66 76 72 77 67 78
REMARK SMILES IDX 68 79 69 80 70 81 71 82 50 83 51 84 59 85 52 86 58 87 53 88
REMARK SMILES IDX 54 89 55 90 56 91 57 92
REMARK H PARENT 17 6 6 16 9 18 22 29 78 48 48 59
REMARK Flexibility Score: inf
ROOT
ATOM      1  C   UNL A   1      32.996  29.302  24.907  1.00  0.00     0.023 C 
ENDROOT
BRANCH   1   2
ATOM      2  C   UNL A   1      32.932  28.887  23.437  1.00  0.00     0.116 C 
BRANCH   2   3
ATOM      3  N   UNL A   1      31.713  29.330  22.798  1.00  0.00    -0.354 N 
ATOM      4  C   UNL A   1      30.630  28.620  22.371  1.00  0.00     0.249 C 
ATOM      5  O   UNL A   1      29.693  29.264  21.884  1.00  0.00    -0.272 OA
ATOM      6  H   UNL A   1      31.655  30.302  22.648  1.00  0.00     0.163 HD
BRANCH   4   7
ATOM      7  C   UNL A   1      30.578  27.072  22.394  1.00  0.00     0.207 C 
ATOM      8  C   UNL A   1      31.534  25.512  23.860  1.00  0.00     0.138 C 
ATOM      9  C   UNL A   1      32.520  25.721  22.735  1.00  0.00     0.037 C 
ATOM     10  O   UNL A   1      30.436  26.414  23.653  1.00  0.00    -0.363 OA
ATOM     11  C   UNL A   1      31.765  26.463  21.669  1.00  0.00     0.045 C 
BRANCH   8  12
ATOM     12  C   UNL A   1      31.057  24.083  24.154  1.00  0.00     0.149 C 
BRANCH  12  13
ATOM     13  N   UNL A   1      30.431  23.818  25.441  1.00  0.00    -0.335 N 
ATOM     14  N   UNL A   1      31.787  22.584  26.984  1.00  0.00    -0.284 N 
ATOM     15  C   UNL A   1      30.707  23.276  26.625  1.00  0.00     0.321 C 
ATOM     16  H   UNL A   1      31.651  22.112  27.837  1.00  0.00     0.174 HD
ATOM     17  O   UNL A   1      29.789  23.331  27.456  1.00  0.00    -0.248 OA
ATOM     18  H   UNL A   1      29.503  24.147  25.434  1.00  0.00     0.165 HD
BRANCH  14  19
ATOM     19  C   UNL A   1      33.025  22.361  26.477  1.00  0.00     0.190 A 
ATOM     20  C   UNL A   1      36.002  20.414  25.056  1.00  0.00     0.058 C 
ATOM     21  C   UNL A   1      35.019  21.403  25.560  1.00  0.00     0.023 A 
ATOM     22  C   UNL A   1      35.212  22.497  26.378  1.00  0.00     0.128 A 
ATOM     23  S   UNL A   1      33.342  21.270  25.213  1.00  0.00    -0.102 S 
ATOM     24  N   UNL A   1      34.055  23.086  26.849  1.00  0.00    -0.228 NA
ENDBRANCH  14  19
ENDBRANCH  12  13
ENDBRANCH   8  12
ENDBRANCH   4   7
ENDBRANCH   2   3
ENDBRANCH   1   2
BRANCH   1  25
ATOM     25  C   UNL A   1      33.641  28.274  25.836  1.00  0.00     0.023 C 
BRANCH  25  26
ATOM     26  C   UNL A   1      33.492  28.570  27.324  1.00  0.00     0.116 C 
BRANCH  26  27
ATOM     27  N   UNL A   1      33.458  29.989  27.644  1.00  0.00    -0.352 N 
ATOM     28  C   UNL A   1      34.479  30.756  28.165  1.00  0.00     0.251 C 
ATOM     29  H   UNL A   1      32.608  30.454  27.470  1.00  0.00     0.163 HD
ATOM     30  O   UNL A   1      34.287  31.925  28.470  1.00  0.00    -0.269 OA
BRANCH  28  31
ATOM     31  C   UNL A   1      35.791  30.117  28.394  1.00  0.00     0.039 A 
ATOM     32  C   UNL A   1      36.734  30.120  27.365  1.00  0.00     0.014 A 
ATOM     33  C   UNL A   1      36.114  29.603  29.653  1.00  0.00     0.014 A 
ATOM     34  C   UNL A   1      38.034  29.680  27.624  1.00  0.00     0.010 A 
ATOM     35  C   UNL A   1      37.425  29.235  29.928  1.00  0.00     0.010 A 
ATOM     36  C   UNL A   1      38.400  29.275  28.919  1.00  0.00    -0.014 A 
BRANCH  36  37
ATOM     37  C   UNL A   1      39.800  28.904  29.245  1.00  0.00     0.031 A 
ATOM     38  C   UNL A   1      40.715  29.910  29.885  1.00  0.00     0.074 A 
ATOM     39  C   UNL A   1      40.270  27.693  28.889  1.00  0.00     0.049 A 
ATOM     40  N   UNL A   1      41.985  29.800  30.178  1.00  0.00    -0.248 NA
ATOM     41  C   UNL A   1      40.135  31.224  30.206  1.00  0.00     0.031 C 
ATOM     42  C   UNL A   1      39.500  26.651  28.207  1.00  0.00     0.029 A 
ATOM     43  N   UNL A   1      41.516  27.139  29.040  1.00  0.00    -0.354 N 
ATOM     44  C   UNL A   1      42.358  31.031  30.703  1.00  0.00     0.074 A 
ATOM     45  C   UNL A   1      41.196  31.890  30.635  1.00  0.00     0.031 C 
ATOM     46  C   UNL A   1      40.285  25.579  28.013  1.00  0.00     0.029 A 
ATOM     47  C   UNL A   1      41.621  25.867  28.528  1.00  0.00     0.049 A 
ATOM     48  H   UNL A   1      42.266  27.608  29.474  1.00  0.00     0.167 HD
ATOM     49  C   UNL A   1      43.554  31.409  31.218  1.00  0.00     0.031 A 
ATOM     50  C   UNL A   1      42.672  25.028  28.473  1.00  0.00     0.031 A 
ATOM     51  C   UNL A   1      44.707  30.552  31.290  1.00  0.00     0.049 A 
ATOM     52  C   UNL A   1      43.984  25.456  29.068  1.00  0.00     0.074 A 
ATOM     53  C   UNL A   1      45.949  30.822  31.836  1.00  0.00     0.029 A 
ATOM     54  N   UNL A   1      44.759  29.256  30.799  1.00  0.00    -0.354 N 
ATOM     55  N   UNL A   1      44.300  26.602  29.623  1.00  0.00    -0.248 NA
ATOM     56  C   UNL A   1      45.076  24.474  29.044  1.00  0.00     0.031 C 
ATOM     57  C   UNL A   1      46.764  29.701  31.642  1.00  0.00     0.029 A 
ATOM     58  C   UNL A   1      46.014  28.716  31.018  1.00  0.00     0.049 A 
ATOM     59  H   UNL A   1      44.011  28.789  30.359  1.00  0.00     0.167 HD
ATOM     60  C   UNL A   1      45.621  26.472  30.032  1.00  0.00     0.074 A 
ATOM     61  C   UNL A   1      46.041  25.132  29.675  1.00  0.00     0.031 C 
ATOM     62  C   UNL A   1      46.416  27.382  30.649  1.00  0.00     0.031 A 
BRANCH  49  63
ATOM     63  C   UNL A   1      43.658  32.817  31.739  1.00  0.00    -0.014 A 
ATOM     64  C   UNL A   1      44.022  33.878  30.888  1.00  0.00     0.010 A 
ATOM     65  C   UNL A   1      43.401  33.086  33.095  1.00  0.00     0.010 A 
ATOM     66  C   UNL A   1      44.191  35.167  31.396  1.00  0.00     0.020 A 
ATOM     67  C   UNL A   1      43.540  34.381  33.601  1.00  0.00     0.020 A 
ATOM     68  C   UNL A   1      43.960  35.409  32.753  1.00  0.00     0.054 A 
BRANCH  68  69
ATOM     69  S   UNL A   1      44.204  37.088  33.392  1.00  0.00     0.124 S 
ATOM     70  O   UNL A   1      42.861  37.430  33.855  1.00  0.00    -0.237 OA
ATOM     71  O   UNL A   1      45.199  36.893  34.443  1.00  0.00    -0.237 OA
ATOM     72  O   UNL A   1      44.671  37.836  32.227  1.00  0.00    -0.744 OA
ENDBRANCH  68  69
ENDBRANCH  49  63
BRANCH  50  73
ATOM     73  C   UNL A   1      42.510  23.687  27.849  1.00  0.00    -0.014 A 
ATOM     74  C   UNL A   1      42.913  23.465  26.522  1.00  0.00     0.010 A 
ATOM     75  C   UNL A   1      41.996  22.613  28.599  1.00  0.00     0.010 A 
ATOM     76  C   UNL A   1      42.802  22.193  25.952  1.00  0.00     0.020 A 
ATOM     77  C   UNL A   1      41.906  21.334  28.040  1.00  0.00     0.020 A 
ATOM     78  C   UNL A   1      42.305  21.134  26.717  1.00  0.00     0.054 A 
BRANCH  78  79
ATOM     79  S   UNL A   1      42.250  19.474  25.985  1.00  0.00     0.124 S 
ATOM     80  O   UNL A   1      43.121  19.624  24.825  1.00  0.00    -0.237 OA
ATOM     81  O   UNL A   1      42.769  18.635  27.063  1.00  0.00    -0.237 OA
ATOM     82  O   UNL A   1      40.832  19.281  25.686  1.00  0.00    -0.744 OA
ENDBRANCH  78  79
ENDBRANCH  50  73
BRANCH  62  83
ATOM     83  C   UNL A   1      47.816  26.953  30.998  1.00  0.00    -0.014 A 
ATOM     84  C   UNL A   1      48.088  26.265  32.193  1.00  0.00     0.010 A 
ATOM     85  C   UNL A   1      48.862  27.193  30.089  1.00  0.00     0.010 A 
ATOM     86  C   UNL A   1      49.389  25.846  32.485  1.00  0.00     0.020 A 
ATOM     87  C   UNL A   1      50.159  26.755  30.366  1.00  0.00     0.020 A 
ATOM     88  C   UNL A   1      50.416  26.095  31.569  1.00  0.00     0.054 A 
BRANCH  88  89
ATOM     89  S   UNL A   1      52.088  25.500  31.948  1.00  0.00     0.124 S 
ATOM     90  O   UNL A   1      52.816  25.848  30.732  1.00  0.00    -0.237 OA
ATOM     91  O   UNL A   1      52.443  26.272  33.137  1.00  0.00    -0.237 OA
ATOM     92  O   UNL A   1      51.902  24.068  32.177  1.00  0.00    -0.744 OA
ENDBRANCH  88  89
ENDBRANCH  62  83
ENDBRANCH  36  37
ENDBRANCH  28  31
ENDBRANCH  26  27
ENDBRANCH  25  26
ENDBRANCH   1  25
TORSDOF 17
ENDMDL
MODEL 2
REMARK VINA RESULT:     -11.3      1.345      2.440
REMARK SMILES Cc1cnc(NC(=O)NC[C@H]2CC[C@H](C(=O)NCCCCNC(=O)c3ccc(-c4c5nc(c(-c6ccc(S(=O)(=O)[O-])cc6)c6ccc([nH]6)c(-c6ccc(S(=O)(=O)[O-])cc6)c6nc(c(-c7ccc(S(=O)(=O)[O-])cc7)c7ccc4[nH]7)C=C6)C=C5)cc3)O2)s1
REMARK SMILES IDX 19 1 18 2 17 3 15 4 16 5 14 7 11 8 12 9 85 10 13 11 10 12
REMARK SMILES IDX 9 13 6 14 7 15 8 17 5 19 1 20 2 21 3 22 86 23 4 24 20 25
REMARK SMILES IDX 21 26 22 27 23 28 24 30 25 31 26 32 84 33 27 34 83 35 28 36
REMARK SMILES IDX 29 37 30 38 77 39 31 40 82 41 76 42 78 43 32 44 81 45 75 46
REMARK SMILES IDX 74 47 33 49 63 50 44 51 62 52 45 53 48 54 61 55 79 56 46 57
REMARK SMILES IDX 47 58 60 60 80 61 49 62 34 63 35 64 43 65 36 66 42 67 37 68
REMARK SMILES IDX 38 69 39 70 40 71 41 72 64 73 65 74 73 75 66 76 72 77 67 78
REMARK SMILES IDX 68 79 69 80 70 81 71 82 50 83 51 84 59 85 52 86 58 87 53 88
REMARK SMILES IDX 54 89 55 90 56 91 57 92
REMARK H PARENT 17 6 6 16 9 18 22 29 78 48 48 59
REMARK Flexibility Score: inf
ROOT
ATOM      1  C   UNL A   1      32.065  28.642  25.093  1.00  0.00     0.023 C 
ENDROOT
BRANCH   1   2
ATOM      2  C   UNL A   1      31.231  27.540  24.440  1.00  0.00     0.116 C 
BRANCH   2   3
ATOM      3  N   UNL A   1      30.355  26.886  25.386  1.00  0.00    -0.354 N 
ATOM      4  C   UNL A   1      30.400  25.627  25.910  1.00  0.00     0.249 C 
ATOM      5  O   UNL A   1      29.532  25.334  26.740  1.00  0.00    -0.272 OA
ATOM      6  H   UNL A   1      29.605  27.439  25.704  1.00  0.00     0.163 HD
BRANCH   4   7
ATOM      7  C   UNL A   1      31.420  24.559  25.441  1.00  0.00     0.207 C 
ATOM      8  C   UNL A   1      31.416  22.223  25.641  1.00  0.00     0.138 C 
ATOM      9  C   UNL A   1      32.147  22.767  26.846  1.00  0.00     0.037 C 
ATOM     10  O   UNL A   1      30.924  23.340  24.887  1.00  0.00    -0.363 OA
ATOM     11  C   UNL A   1      32.410  24.214  26.539  1.00  0.00     0.045 C 
BRANCH   8  12
ATOM     12  C   UNL A   1      32.139  21.202  24.750  1.00  0.00     0.149 C 
BRANCH  12  13
ATOM     13  N   UNL A   1      33.559  20.979  24.974  1.00  0.00    -0.335 N 
ATOM     14  N   UNL A   1      35.007  22.565  23.912  1.00  0.00    -0.284 N 
ATOM     15  C   UNL A   1      34.740  21.533  24.710  1.00  0.00     0.321 C 
ATOM     16  H   UNL A   1      35.970  22.639  23.719  1.00  0.00     0.174 HD
ATOM     17  O   UNL A   1      35.719  20.937  25.181  1.00  0.00    -0.248 OA
ATOM     18  H   UNL A   1      33.689  20.149  25.488  1.00  0.00     0.165 HD
BRANCH  14  19
ATOM     19  C   UNL A   1      34.294  23.541  23.295  1.00  0.00     0.190 A 
ATOM     20  C   UNL A   1      32.589  25.461  20.452  1.00  0.00     0.058 C 
ATOM     21  C   UNL A   1      33.136  24.928  21.723  1.00  0.00     0.023 A 
ATOM     22  C   UNL A   1      33.730  25.596  22.774  1.00  0.00     0.128 A 
ATOM     23  S   UNL A   1      33.163  23.244  22.062  1.00  0.00    -0.102 S 
ATOM     24  N   UNL A   1      34.338  24.786  23.713  1.00  0.00    -0.228 NA
ENDBRANCH  14  19
ENDBRANCH  12  13
ENDBRANCH   8  12
ENDBRANCH   4   7
ENDBRANCH   2   3
ENDBRANCH   1   2
BRANCH   1  25
ATOM     25  C   UNL A   1      33.325  28.155  25.808  1.00  0.00     0.023 C 
BRANCH  25  26
ATOM     26  C   UNL A   1      33.375  28.462  27.301  1.00  0.00     0.116 C 
BRANCH  26  27
ATOM     27  N   UNL A   1      33.334  29.883  27.614  1.00  0.00    -0.352 N 
ATOM     28  C   UNL A   1      34.359  30.664  28.105  1.00  0.00     0.251 C 
ATOM     29  H   UNL A   1      32.475  30.338  27.458  1.00  0.00     0.163 HD
ATOM     30  O   UNL A   1      34.163  31.832  28.408  1.00  0.00    -0.269 OA
BRANCH  28  31
ATOM     31  C   UNL A   1      35.684  30.040  28.306  1.00  0.00     0.039 A 
ATOM     32  C   UNL A   1      36.599  30.043  27.252  1.00  0.00     0.014 A 
ATOM     33  C   UNL A   1      36.044  29.540  29.560  1.00  0.00     0.014 A 
ATOM     34  C   UNL A   1      37.909  29.618  27.481  1.00  0.00     0.010 A 
ATOM     35  C   UNL A   1      37.366  29.187  29.804  1.00  0.00     0.010 A 
ATOM     36  C   UNL A   1      38.314  29.228  28.769  1.00  0.00    -0.014 A 
BRANCH  36  37
ATOM     37  C   UNL A   1      39.725  28.874  29.062  1.00  0.00     0.031 A 
ATOM     38  C   UNL A   1      40.654  29.903  29.643  1.00  0.00     0.074 A 
ATOM     39  C   UNL A   1      40.191  27.656  28.727  1.00  0.00     0.049 A 
ATOM     40  N   UNL A   1      41.933  29.808  29.900  1.00  0.00    -0.248 NA
ATOM     41  C   UNL A   1      40.075  31.223  29.945  1.00  0.00     0.031 C 
ATOM     42  C   UNL A   1      39.406  26.590  28.099  1.00  0.00     0.029 A 
ATOM     43  N   UNL A   1      41.444  27.112  28.855  1.00  0.00    -0.354 N 
ATOM     44  C   UNL A   1      42.315  31.056  30.377  1.00  0.00     0.074 A 
ATOM     45  C   UNL A   1      41.145  31.906  30.320  1.00  0.00     0.031 C 
ATOM     46  C   UNL A   1      40.191  25.517  27.912  1.00  0.00     0.029 A 
ATOM     47  C   UNL A   1      41.541  25.827  28.376  1.00  0.00     0.049 A 
ATOM     48  H   UNL A   1      42.204  27.598  29.251  1.00  0.00     0.167 HD
ATOM     49  C   UNL A   1      43.523  31.454  30.843  1.00  0.00     0.031 A 
ATOM     50  C   UNL A   1      42.595  24.992  28.313  1.00  0.00     0.031 A 
ATOM     51  C   UNL A   1      44.683  30.606  30.904  1.00  0.00     0.049 A 
ATOM     52  C   UNL A   1      43.922  25.443  28.854  1.00  0.00     0.074 A 
ATOM     53  C   UNL A   1      45.940  30.898  31.403  1.00  0.00     0.029 A 
ATOM     54  N   UNL A   1      44.727  29.296  30.449  1.00  0.00    -0.354 N 
ATOM     55  N   UNL A   1      44.248  26.607  29.366  1.00  0.00    -0.248 NA
ATOM     56  C   UNL A   1      45.019  24.467  28.824  1.00  0.00     0.031 C 
ATOM     57  C   UNL A   1      46.755  29.776  31.216  1.00  0.00     0.029 A 
ATOM     58  C   UNL A   1      45.992  28.769  30.644  1.00  0.00     0.049 A 
ATOM     59  H   UNL A   1      43.970  28.813  30.046  1.00  0.00     0.167 HD
ATOM     60  C   UNL A   1      45.583  26.496  29.736  1.00  0.00     0.074 A 
ATOM     61  C   UNL A   1      45.999  25.148  29.405  1.00  0.00     0.031 C 
ATOM     62  C   UNL A   1      46.391  27.427  30.302  1.00  0.00     0.031 A 
BRANCH  49  63
ATOM     63  C   UNL A   1      43.635  32.878  31.320  1.00  0.00    -0.014 A 
ATOM     64  C   UNL A   1      43.999  33.910  30.434  1.00  0.00     0.010 A 
ATOM     65  C   UNL A   1      43.386  33.190  32.668  1.00  0.00     0.010 A 
ATOM     66  C   UNL A   1      44.176  35.214  30.902  1.00  0.00     0.020 A 
ATOM     67  C   UNL A   1      43.532  34.499  33.133  1.00  0.00     0.020 A 
ATOM     68  C   UNL A   1      43.952  35.498  32.251  1.00  0.00     0.054 A 
BRANCH  68  69
ATOM     69  S   UNL A   1      44.205  37.195  32.836  1.00  0.00     0.124 S 
ATOM     70  O   UNL A   1      44.157  37.953  31.587  1.00  0.00    -0.237 OA
ATOM     71  O   UNL A   1      43.074  37.399  33.737  1.00  0.00    -0.237 OA
ATOM     72  O   UNL A   1      45.513  37.146  33.485  1.00  0.00    -0.744 OA
ENDBRANCH  68  69
ENDBRANCH  49  63
BRANCH  50  73
ATOM     73  C   UNL A   1      42.421  23.633  27.733  1.00  0.00    -0.014 A 
ATOM     74  C   UNL A   1      42.693  23.396  26.375  1.00  0.00     0.010 A 
ATOM     75  C   UNL A   1      42.031  22.556  28.551  1.00  0.00     0.010 A 
ATOM     76  C   UNL A   1      42.574  22.109  25.843  1.00  0.00     0.020 A 
ATOM     77  C   UNL A   1      41.933  21.264  28.028  1.00  0.00     0.020 A 
ATOM     78  C   UNL A   1      42.200  21.050  26.675  1.00  0.00     0.054 A 
BRANCH  78  79
ATOM     79  S   UNL A   1      42.135  19.373  25.982  1.00  0.00     0.124 S 
ATOM     80  O   UNL A   1      42.670  18.570  27.076  1.00  0.00    -0.237 OA
ATOM     81  O   UNL A   1      40.711  19.199  25.706  1.00  0.00    -0.237 OA
ATOM     82  O   UNL A   1      42.983  19.462  24.795  1.00  0.00    -0.744 OA
ENDBRANCH  78  79
ENDBRANCH  50  73
BRANCH  62  83
ATOM     83  C   UNL A   1      47.803  27.016  30.618  1.00  0.00    -0.014 A 
ATOM     84  C   UNL A   1      48.850  27.253  29.710  1.00  0.00     0.010 A 
ATOM     85  C   UNL A   1      48.094  26.436  31.866  1.00  0.00     0.010 A 
ATOM     86  C   UNL A   1      50.161  26.894  30.036  1.00  0.00     0.020 A 
ATOM     87  C   UNL A   1      49.406  26.097  32.205  1.00  0.00     0.020 A 
ATOM     88  C   UNL A   1      50.430  26.317  31.281  1.00  0.00     0.054 A 
BRANCH  88  89
ATOM     89  S   UNL A   1      52.146  25.902  31.700  1.00  0.00     0.124 S 
ATOM     90  O   UNL A   1      52.831  26.129  30.431  1.00  0.00    -0.237 OA
ATOM     91  O   UNL A   1      52.457  26.854  32.763  1.00  0.00    -0.237 OA
ATOM     92  O   UNL A   1      52.069  24.506  32.127  1.00  0.00    -0.744 OA
ENDBRANCH  88  89
ENDBRANCH  62  83
ENDBRANCH  36  37
ENDBRANCH  28  31
ENDBRANCH  26  27
ENDBRANCH  25  26
ENDBRANCH   1  25
TORSDOF 17
ENDMDL
MODEL 3
REMARK VINA RESULT:     -11.2      2.744      9.438
REMARK SMILES Cc1cnc(NC(=O)NC[C@H]2CC[C@H](C(=O)NCCCCNC(=O)c3ccc(-c4c5nc(c(-c6ccc(S(=O)(=O)[O-])cc6)c6ccc([nH]6)c(-c6ccc(S(=O)(=O)[O-])cc6)c6nc(c(-c7ccc(S(=O)(=O)[O-])cc7)c7ccc4[nH]7)C=C6)C=C5)cc3)O2)s1
REMARK SMILES IDX 19 1 18 2 17 3 15 4 16 5 14 7 11 8 12 9 85 10 13 11 10 12
REMARK SMILES IDX 9 13 6 14 7 15 8 17 5 19 1 20 2 21 3 22 86 23 4 24 20 25
REMARK SMILES IDX 21 26 22 27 23 28 24 30 25 31 26 32 84 33 27 34 83 35 28 36
REMARK SMILES IDX 29 37 30 38 77 39 31 40 82 41 76 42 78 43 32 44 81 45 75 46
REMARK SMILES IDX 74 47 33 49 63 50 44 51 62 52 45 53 48 54 61 55 79 56 46 57
REMARK SMILES IDX 47 58 60 60 80 61 49 62 34 63 35 64 43 65 36 66 42 67 37 68
REMARK SMILES IDX 38 69 39 70 40 71 41 72 64 73 65 74 73 75 66 76 72 77 67 78
REMARK SMILES IDX 68 79 69 80 70 81 71 82 50 83 51 84 59 85 52 86 58 87 53 88
REMARK SMILES IDX 54 89 55 90 56 91 57 92
REMARK H PARENT 17 6 6 16 9 18 22 29 78 48 48 59
REMARK Flexibility Score: inf
ROOT
ATOM      1  C   UNL A   1      35.637  21.729  24.928  1.00  0.00     0.023 C 
ENDROOT
BRANCH   1   2
ATOM      2  C   UNL A   1      34.637  21.530  26.067  1.00  0.00     0.116 C 
BRANCH   2   3
ATOM      3  N   UNL A   1      33.889  20.301  25.927  1.00  0.00    -0.354 N 
ATOM      4  C   UNL A   1      32.677  20.064  25.348  1.00  0.00     0.249 C 
ATOM      5  O   UNL A   1      32.280  18.893  25.335  1.00  0.00    -0.272 OA
ATOM      6  H   UNL A   1      34.325  19.506  26.312  1.00  0.00     0.163 HD
BRANCH   4   7
ATOM      7  C   UNL A   1      31.770  21.197  24.803  1.00  0.00     0.207 C 
ATOM      8  C   UNL A   1      32.249  23.416  24.216  1.00  0.00     0.138 C 
ATOM      9  C   UNL A   1      31.830  23.424  25.667  1.00  0.00     0.037 C 
ATOM     10  O   UNL A   1      32.285  22.049  23.780  1.00  0.00    -0.363 OA
ATOM     11  C   UNL A   1      31.234  22.069  25.924  1.00  0.00     0.045 C 
BRANCH   8  12
ATOM     12  C   UNL A   1      31.485  24.313  23.233  1.00  0.00     0.149 C 
BRANCH  12  13
ATOM     13  N   UNL A   1      32.102  24.605  21.948  1.00  0.00    -0.335 N 
ATOM     14  N   UNL A   1      32.995  26.820  21.741  1.00  0.00    -0.284 N 
ATOM     15  C   UNL A   1      32.773  25.573  21.327  1.00  0.00     0.321 C 
ATOM     16  H   UNL A   1      33.324  27.393  21.011  1.00  0.00     0.174 HD
ATOM     17  O   UNL A   1      33.135  25.306  20.172  1.00  0.00    -0.248 OA
ATOM     18  H   UNL A   1      31.986  23.839  21.341  1.00  0.00     0.165 HD
BRANCH  14  19
ATOM     19  C   UNL A   1      32.884  27.503  22.907  1.00  0.00     0.190 A 
ATOM     20  C   UNL A   1      32.513  28.099  26.673  1.00  0.00     0.058 C 
ATOM     21  C   UNL A   1      32.675  28.160  25.200  1.00  0.00     0.023 A 
ATOM     22  C   UNL A   1      32.089  29.012  24.286  1.00  0.00     0.128 A 
ATOM     23  S   UNL A   1      33.653  27.035  24.348  1.00  0.00    -0.102 S 
ATOM     24  N   UNL A   1      32.271  28.663  22.963  1.00  0.00    -0.228 NA
ENDBRANCH  14  19
ENDBRANCH  12  13
ENDBRANCH   8  12
ENDBRANCH   4   7
ENDBRANCH   2   3
ENDBRANCH   1   2
BRANCH   1  25
ATOM     25  C   UNL A   1      35.883  23.187  24.538  1.00  0.00     0.023 C 
BRANCH  25  26
ATOM     26  C   UNL A   1      37.299  23.691  24.796  1.00  0.00     0.116 C 
BRANCH  26  27
ATOM     27  N   UNL A   1      38.197  22.679  25.333  1.00  0.00    -0.352 N 
ATOM     28  C   UNL A   1      39.194  22.855  26.270  1.00  0.00     0.251 C 
ATOM     29  H   UNL A   1      38.080  21.765  24.988  1.00  0.00     0.163 HD
ATOM     30  O   UNL A   1      39.938  21.931  26.569  1.00  0.00    -0.269 OA
BRANCH  28  31
ATOM     31  C   UNL A   1      39.375  24.198  26.860  1.00  0.00     0.039 A 
ATOM     32  C   UNL A   1      38.882  24.444  28.142  1.00  0.00     0.014 A 
ATOM     33  C   UNL A   1      40.112  25.172  26.181  1.00  0.00     0.014 A 
ATOM     34  C   UNL A   1      39.199  25.646  28.780  1.00  0.00     0.010 A 
ATOM     35  C   UNL A   1      40.487  26.334  26.844  1.00  0.00     0.010 A 
ATOM     36  C   UNL A   1      40.040  26.581  28.152  1.00  0.00    -0.014 A 
BRANCH  36  37
ATOM     37  C   UNL A   1      40.478  27.816  28.849  1.00  0.00     0.031 A 
ATOM     38  C   UNL A   1      41.827  27.869  29.509  1.00  0.00     0.074 A 
ATOM     39  C   UNL A   1      39.629  28.856  28.961  1.00  0.00     0.049 A 
ATOM     40  N   UNL A   1      42.358  28.827  30.224  1.00  0.00    -0.248 NA
ATOM     41  C   UNL A   1      42.679  26.676  29.373  1.00  0.00     0.031 C 
ATOM     42  C   UNL A   1      38.269  28.904  28.419  1.00  0.00     0.029 A 
ATOM     43  N   UNL A   1      39.781  30.070  29.581  1.00  0.00    -0.354 N 
ATOM     44  C   UNL A   1      43.595  28.347  30.636  1.00  0.00     0.074 A 
ATOM     45  C   UNL A   1      43.711  26.994  30.139  1.00  0.00     0.031 C 
ATOM     46  C   UNL A   1      37.718  30.092  28.716  1.00  0.00     0.029 A 
ATOM     47  C   UNL A   1      38.671  30.877  29.496  1.00  0.00     0.049 A 
ATOM     48  H   UNL A   1      40.608  30.339  30.045  1.00  0.00     0.167 HD
ATOM     49  C   UNL A   1      44.559  28.983  31.346  1.00  0.00     0.031 A 
ATOM     50  C   UNL A   1      38.443  32.108  29.990  1.00  0.00     0.031 A 
ATOM     51  C   UNL A   1      44.445  30.330  31.835  1.00  0.00     0.049 A 
ATOM     52  C   UNL A   1      39.532  32.806  30.756  1.00  0.00     0.074 A 
ATOM     53  C   UNL A   1      45.383  31.081  32.521  1.00  0.00     0.029 A 
ATOM     54  N   UNL A   1      43.321  31.129  31.689  1.00  0.00    -0.354 N 
ATOM     55  N   UNL A   1      40.724  32.362  31.078  1.00  0.00    -0.248 NA
ATOM     56  C   UNL A   1      39.252  34.174  31.211  1.00  0.00     0.031 C 
ATOM     57  C   UNL A   1      44.811  32.323  32.822  1.00  0.00     0.029 A 
ATOM     58  C   UNL A   1      43.535  32.361  32.282  1.00  0.00     0.049 A 
ATOM     59  H   UNL A   1      42.491  30.859  31.231  1.00  0.00     0.167 HD
ATOM     60  C   UNL A   1      41.344  33.403  31.757  1.00  0.00     0.074 A 
ATOM     61  C   UNL A   1      40.402  34.504  31.787  1.00  0.00     0.031 C 
ATOM     62  C   UNL A   1      42.583  33.444  32.307  1.00  0.00     0.031 A 
BRANCH  49  63
ATOM     63  C   UNL A   1      45.820  28.209  31.628  1.00  0.00    -0.014 A 
ATOM     64  C   UNL A   1      46.926  28.290  30.760  1.00  0.00     0.010 A 
ATOM     65  C   UNL A   1      45.900  27.384  32.763  1.00  0.00     0.010 A 
ATOM     66  C   UNL A   1      48.062  27.510  30.987  1.00  0.00     0.020 A 
ATOM     67  C   UNL A   1      47.047  26.625  33.010  1.00  0.00     0.020 A 
ATOM     68  C   UNL A   1      48.111  26.674  32.105  1.00  0.00     0.054 A 
BRANCH  68  69
ATOM     69  S   UNL A   1      49.590  25.658  32.368  1.00  0.00     0.124 S 
ATOM     70  O   UNL A   1      49.083  24.617  33.260  1.00  0.00    -0.237 OA
ATOM     71  O   UNL A   1      49.924  25.217  31.017  1.00  0.00    -0.237 OA
ATOM     72  O   UNL A   1      50.544  26.586  32.972  1.00  0.00    -0.744 OA
ENDBRANCH  68  69
ENDBRANCH  49  63
BRANCH  50  73
ATOM     73  C   UNL A   1      37.129  32.764  29.750  1.00  0.00    -0.014 A 
ATOM     74  C   UNL A   1      36.202  32.908  30.795  1.00  0.00     0.010 A 
ATOM     75  C   UNL A   1      36.820  33.292  28.483  1.00  0.00     0.010 A 
ATOM     76  C   UNL A   1      34.986  33.565  30.579  1.00  0.00     0.020 A 
ATOM     77  C   UNL A   1      35.617  33.971  28.269  1.00  0.00     0.020 A 
ATOM     78  C   UNL A   1      34.705  34.097  29.317  1.00  0.00     0.054 A 
BRANCH  78  79
ATOM     79  S   UNL A   1      33.160  35.021  29.082  1.00  0.00     0.124 S 
ATOM     80  O   UNL A   1      32.551  34.939  30.405  1.00  0.00    -0.237 OA
ATOM     81  O   UNL A   1      33.638  36.342  28.685  1.00  0.00    -0.237 OA
ATOM     82  O   UNL A   1      32.475  34.274  28.028  1.00  0.00    -0.744 OA
ENDBRANCH  78  79
ENDBRANCH  50  73
BRANCH  62  83
ATOM     83  C   UNL A   1      43.003  34.727  32.970  1.00  0.00    -0.014 A 
ATOM     84  C   UNL A   1      42.787  34.941  34.343  1.00  0.00     0.010 A 
ATOM     85  C   UNL A   1      43.676  35.709  32.220  1.00  0.00     0.010 A 
ATOM     86  C   UNL A   1      43.213  36.126  34.948  1.00  0.00     0.020 A 
ATOM     87  C   UNL A   1      44.124  36.885  32.826  1.00  0.00     0.020 A 
ATOM     88  C   UNL A   1      43.878  37.091  34.185  1.00  0.00     0.054 A 
BRANCH  88  89
ATOM     89  S   UNL A   1      44.464  38.601  35.002  1.00  0.00     0.124 S 
ATOM     90  O   UNL A   1      45.894  38.566  34.714  1.00  0.00    -0.237 OA
ATOM     91  O   UNL A   1      43.709  39.650  34.320  1.00  0.00    -0.237 OA
ATOM     92  O   UNL A   1      44.104  38.397  36.404  1.00  0.00    -0.744 OA
ENDBRANCH  88  89
ENDBRANCH  62  83
ENDBRANCH  36  37
ENDBRANCH  28  31
ENDBRANCH  26  27
ENDBRANCH  25  26
ENDBRANCH   1  25
TORSDOF 17
ENDMDL
