MODEL 1
REMARK VINA RESULT:     -11.7      0.000      0.000
REMARK SMILES O=C(CCn1c(N2CC[NH2+]CC2)nc2ccccc2c1=O)NCCCCNC(=O)c1ccc(-c2c3nc(c(-c4ccc(S(=O)(=O)[O-])cc4)c4ccc([nH]4)c(-c4ccc(S(=O)(=O)[O-])cc4)c4nc(c(-c5ccc(S(=O)(=O)[O-])cc5)c5ccc2[nH]5)C=C4)C=C3)cc1
REMARK SMILES IDX 24 1 23 2 22 3 1 4 2 5 3 7 4 8 5 9 6 10 20 11 13 12 19 13
REMARK SMILES IDX 21 14 14 15 18 16 15 17 17 18 16 19 7 20 8 21 12 22 9 23
REMARK SMILES IDX 11 24 10 25 25 28 26 29 27 30 28 31 29 33 30 34 31 35 89 36
REMARK SMILES IDX 32 37 88 38 33 39 34 40 35 41 82 42 36 43 87 44 81 45 83 46
REMARK SMILES IDX 37 47 86 48 80 49 79 50 38 52 68 53 49 54 67 55 50 56 53 57
REMARK SMILES IDX 66 58 84 59 51 60 52 61 65 63 85 64 54 65 39 66 40 67 48 68
REMARK SMILES IDX 41 69 47 70 42 71 43 72 44 73 45 74 46 75 69 76 70 77 78 78
REMARK SMILES IDX 71 79 77 80 72 81 73 82 74 83 75 84 76 85 55 86 56 87 64 88
REMARK SMILES IDX 57 89 63 90 58 91 59 92 60 93 61 94 62 95
REMARK H PARENT 22 6 10 26 10 27 27 32 83 51 53 62
REMARK Flexibility Score: inf
ROOT
ATOM      1  C   UNL A   1      33.028  28.394  24.682  1.00  0.00     0.023 C 
ENDROOT
BRANCH   1   2
ATOM      2  C   UNL A   1      33.132  27.165  23.779  1.00  0.00     0.116 C 
BRANCH   2   3
ATOM      3  N   UNL A   1      33.994  26.146  24.340  1.00  0.00    -0.356 N 
ATOM      4  O   UNL A   1      33.983  24.773  22.499  1.00  0.00    -0.275 OA
ATOM      5  C   UNL A   1      34.350  25.011  23.646  1.00  0.00     0.221 C 
ATOM      6  H   UNL A   1      34.340  26.269  25.253  1.00  0.00     0.163 HD
BRANCH   5   7
ATOM      7  C   UNL A   1      35.133  24.003  24.455  1.00  0.00     0.122 C 
BRANCH   7   8
ATOM      8  C   UNL A   1      34.345  23.238  25.513  1.00  0.00     0.139 C 
BRANCH   8   9
ATOM      9  N   UNL A   1      33.808  21.928  25.122  1.00  0.00    -0.278 N 
ATOM     10  C   UNL A   1      32.474  21.742  24.752  1.00  0.00     0.209 A 
ATOM     11  C   UNL A   1      34.718  20.867  25.137  1.00  0.00     0.262 A 
ATOM     12  N   UNL A   1      32.005  20.572  24.432  1.00  0.00    -0.214 NA
ATOM     13  C   UNL A   1      34.220  19.567  24.677  1.00  0.00     0.066 A 
ATOM     14  O   UNL A   1      35.887  20.961  25.504  1.00  0.00    -0.269 OA
ATOM     15  C   UNL A   1      32.877  19.482  24.330  1.00  0.00     0.080 A 
ATOM     16  C   UNL A   1      35.082  18.468  24.556  1.00  0.00     0.016 A 
ATOM     17  C   UNL A   1      32.401  18.270  23.825  1.00  0.00     0.029 A 
ATOM     18  C   UNL A   1      34.597  17.269  24.043  1.00  0.00     0.001 A 
ATOM     19  C   UNL A   1      33.261  17.178  23.660  1.00  0.00     0.002 A 
BRANCH  10  20
ATOM     20  N   UNL A   1      31.619  22.821  24.799  1.00  0.00    -0.331 N 
ATOM     21  C   UNL A   1      30.804  23.079  25.999  1.00  0.00     0.181 C 
ATOM     22  C   UNL A   1      30.925  23.253  23.576  1.00  0.00     0.181 C 
ATOM     23  C   UNL A   1      30.458  24.582  26.086  1.00  0.00     0.282 C 
ATOM     24  C   UNL A   1      30.598  24.758  23.675  1.00  0.00     0.282 C 
ATOM     25  N   UNL A   1      29.814  25.127  24.873  1.00  0.00    -0.343 N 
ATOM     26  H   UNL A   1      29.764  26.143  24.944  1.00  0.00     0.346 HD
ATOM     27  H   UNL A   1      28.875  24.738  24.790  1.00  0.00     0.346 HD
ENDBRANCH  10  20
ENDBRANCH   8   9
ENDBRANCH   7   8
ENDBRANCH   5   7
ENDBRANCH   2   3
ENDBRANCH   1   2
BRANCH   1  28
ATOM     28  C   UNL A   1      33.945  28.399  25.907  1.00  0.00     0.023 C 
BRANCH  28  29
ATOM     29  C   UNL A   1      33.275  28.673  27.246  1.00  0.00     0.116 C 
BRANCH  29  30
ATOM     30  N   UNL A   1      33.336  30.074  27.638  1.00  0.00    -0.352 N 
ATOM     31  C   UNL A   1      34.384  30.798  28.162  1.00  0.00     0.251 C 
ATOM     32  H   UNL A   1      32.500  30.580  27.512  1.00  0.00     0.163 HD
ATOM     33  O   UNL A   1      34.196  31.950  28.546  1.00  0.00    -0.269 OA
BRANCH  31  34
ATOM     34  C   UNL A   1      35.725  30.183  28.299  1.00  0.00     0.039 A 
ATOM     35  C   UNL A   1      36.119  29.585  29.493  1.00  0.00     0.014 A 
ATOM     36  C   UNL A   1      36.614  30.222  27.219  1.00  0.00     0.014 A 
ATOM     37  C   UNL A   1      37.447  29.205  29.664  1.00  0.00     0.010 A 
ATOM     38  C   UNL A   1      37.928  29.760  27.372  1.00  0.00     0.010 A 
ATOM     39  C   UNL A   1      38.377  29.304  28.619  1.00  0.00    -0.014 A 
BRANCH  39  40
ATOM     40  C   UNL A   1      39.809  28.973  28.884  1.00  0.00     0.031 A 
ATOM     41  C   UNL A   1      40.681  29.919  29.674  1.00  0.00     0.074 A 
ATOM     42  C   UNL A   1      40.304  27.774  28.512  1.00  0.00     0.049 A 
ATOM     43  N   UNL A   1      41.934  29.779  30.028  1.00  0.00    -0.248 NA
ATOM     44  C   UNL A   1      40.072  31.179  30.132  1.00  0.00     0.031 C 
ATOM     45  C   UNL A   1      39.555  26.740  27.794  1.00  0.00     0.029 A 
ATOM     46  N   UNL A   1      41.535  27.201  28.723  1.00  0.00    -0.354 N 
ATOM     47  C   UNL A   1      42.266  30.932  30.731  1.00  0.00     0.074 A 
ATOM     48  C   UNL A   1      41.093  31.777  30.730  1.00  0.00     0.031 C 
ATOM     49  C   UNL A   1      40.311  25.638  27.695  1.00  0.00     0.029 A 
ATOM     50  C   UNL A   1      41.628  25.907  28.264  1.00  0.00     0.049 A 
ATOM     51  H   UNL A   1      42.280  27.672  29.163  1.00  0.00     0.167 HD
ATOM     52  C   UNL A   1      43.435  31.255  31.335  1.00  0.00     0.031 A 
ATOM     53  C   UNL A   1      42.655  25.032  28.282  1.00  0.00     0.031 A 
ATOM     54  C   UNL A   1      44.599  30.409  31.356  1.00  0.00     0.049 A 
ATOM     55  C   UNL A   1      43.967  25.444  28.887  1.00  0.00     0.074 A 
ATOM     56  C   UNL A   1      45.830  30.664  31.938  1.00  0.00     0.029 A 
ATOM     57  N   UNL A   1      44.681  29.150  30.785  1.00  0.00    -0.354 N 
ATOM     58  N   UNL A   1      44.268  26.556  29.511  1.00  0.00    -0.248 NA
ATOM     59  C   UNL A   1      45.082  24.492  28.778  1.00  0.00     0.031 C 
ATOM     60  C   UNL A   1      46.672  29.583  31.671  1.00  0.00     0.029 A 
ATOM     61  C   UNL A   1      45.947  28.625  30.980  1.00  0.00     0.049 A 
ATOM     62  H   UNL A   1      43.947  28.695  30.311  1.00  0.00     0.167 HD
ATOM     63  C   UNL A   1      45.604  26.436  29.875  1.00  0.00     0.074 A 
ATOM     64  C   UNL A   1      46.049  25.135  29.421  1.00  0.00     0.031 C 
ATOM     65  C   UNL A   1      46.390  27.331  30.523  1.00  0.00     0.031 A 
BRANCH  52  66
ATOM     66  C   UNL A   1      43.533  32.589  32.029  1.00  0.00    -0.014 A 
ATOM     67  C   UNL A   1      43.090  32.718  33.358  1.00  0.00     0.010 A 
ATOM     68  C   UNL A   1      43.959  33.736  31.337  1.00  0.00     0.010 A 
ATOM     69  C   UNL A   1      43.048  33.971  33.977  1.00  0.00     0.020 A 
ATOM     70  C   UNL A   1      43.944  34.988  31.960  1.00  0.00     0.020 A 
ATOM     71  C   UNL A   1      43.469  35.100  33.270  1.00  0.00     0.054 A 
BRANCH  71  72
ATOM     72  S   UNL A   1      43.405  36.721  34.083  1.00  0.00     0.124 S 
ATOM     73  O   UNL A   1      42.102  36.685  34.738  1.00  0.00    -0.237 OA
ATOM     74  O   UNL A   1      44.562  36.679  34.973  1.00  0.00    -0.237 OA
ATOM     75  O   UNL A   1      43.522  37.662  32.971  1.00  0.00    -0.744 OA
ENDBRANCH  71  72
ENDBRANCH  52  66
BRANCH  53  76
ATOM     76  C   UNL A   1      42.462  23.673  27.704  1.00  0.00    -0.014 A 
ATOM     77  C   UNL A   1      42.175  22.577  28.539  1.00  0.00     0.010 A 
ATOM     78  C   UNL A   1      42.641  23.453  26.326  1.00  0.00     0.010 A 
ATOM     79  C   UNL A   1      42.136  21.281  28.021  1.00  0.00     0.020 A 
ATOM     80  C   UNL A   1      42.569  22.159  25.799  1.00  0.00     0.020 A 
ATOM     81  C   UNL A   1      42.350  21.079  26.656  1.00  0.00     0.054 A 
BRANCH  81  82
ATOM     82  S   UNL A   1      42.348  19.382  26.014  1.00  0.00     0.124 S 
ATOM     83  O   UNL A   1      43.362  19.461  24.966  1.00  0.00    -0.237 OA
ATOM     84  O   UNL A   1      42.716  18.594  27.188  1.00  0.00    -0.237 OA
ATOM     85  O   UNL A   1      40.976  19.196  25.548  1.00  0.00    -0.744 OA
ENDBRANCH  81  82
ENDBRANCH  53  76
BRANCH  65  86
ATOM     86  C   UNL A   1      47.824  26.960  30.791  1.00  0.00    -0.014 A 
ATOM     87  C   UNL A   1      48.166  26.321  31.997  1.00  0.00     0.010 A 
ATOM     88  C   UNL A   1      48.847  27.369  29.918  1.00  0.00     0.010 A 
ATOM     89  C   UNL A   1      49.506  26.133  32.345  1.00  0.00     0.020 A 
ATOM     90  C   UNL A   1      50.188  27.157  30.251  1.00  0.00     0.020 A 
ATOM     91  C   UNL A   1      50.509  26.565  31.475  1.00  0.00     0.054 A 
BRANCH  91  92
ATOM     92  S   UNL A   1      52.244  26.352  31.963  1.00  0.00     0.124 S 
ATOM     93  O   UNL A   1      52.175  25.185  32.837  1.00  0.00    -0.237 OA
ATOM     94  O   UNL A   1      52.916  26.143  30.683  1.00  0.00    -0.237 OA
ATOM     95  O   UNL A   1      52.569  27.612  32.629  1.00  0.00    -0.744 OA
ENDBRANCH  91  92
ENDBRANCH  65  86
ENDBRANCH  39  40
ENDBRANCH  31  34
ENDBRANCH  29  30
ENDBRANCH  28  29
ENDBRANCH   1  28
TORSDOF 17
ENDMDL
MODEL 2
REMARK VINA RESULT:     -11.7      0.608      8.021
REMARK SMILES O=C(CCn1c(N2CC[NH2+]CC2)nc2ccccc2c1=O)NCCCCNC(=O)c1ccc(-c2c3nc(c(-c4ccc(S(=O)(=O)[O-])cc4)c4ccc([nH]4)c(-c4ccc(S(=O)(=O)[O-])cc4)c4nc(c(-c5ccc(S(=O)(=O)[O-])cc5)c5ccc2[nH]5)C=C4)C=C3)cc1
REMARK SMILES IDX 24 1 23 2 22 3 1 4 2 5 3 7 4 8 5 9 6 10 20 11 13 12 19 13
REMARK SMILES IDX 21 14 14 15 18 16 15 17 17 18 16 19 7 20 8 21 12 22 9 23
REMARK SMILES IDX 11 24 10 25 25 28 26 29 27 30 28 31 29 33 30 34 31 35 89 36
REMARK SMILES IDX 32 37 88 38 33 39 34 40 35 41 82 42 36 43 87 44 81 45 83 46
REMARK SMILES IDX 37 47 86 48 80 49 79 50 38 52 68 53 49 54 67 55 50 56 53 57
REMARK SMILES IDX 66 58 84 59 51 60 52 61 65 63 85 64 54 65 39 66 40 67 48 68
REMARK SMILES IDX 41 69 47 70 42 71 43 72 44 73 45 74 46 75 69 76 70 77 78 78
REMARK SMILES IDX 71 79 77 80 72 81 73 82 74 83 75 84 76 85 55 86 56 87 64 88
REMARK SMILES IDX 57 89 63 90 58 91 59 92 60 93 61 94 62 95
REMARK H PARENT 22 6 10 26 10 27 27 32 83 51 53 62
REMARK Flexibility Score: inf
ROOT
ATOM      1  C   UNL A   1      33.032  28.278  24.643  1.00  0.00     0.023 C 
ENDROOT
BRANCH   1   2
ATOM      2  C   UNL A   1      33.055  27.006  23.794  1.00  0.00     0.116 C 
BRANCH   2   3
ATOM      3  N   UNL A   1      33.951  26.005  24.333  1.00  0.00    -0.356 N 
ATOM      4  O   UNL A   1      34.019  24.695  22.448  1.00  0.00    -0.275 OA
ATOM      5  C   UNL A   1      34.362  24.910  23.607  1.00  0.00     0.221 C 
ATOM      6  H   UNL A   1      34.280  26.112  25.254  1.00  0.00     0.163 HD
BRANCH   5   7
ATOM      7  C   UNL A   1      35.176  23.908  24.393  1.00  0.00     0.122 C 
BRANCH   7   8
ATOM      8  C   UNL A   1      34.420  23.119  25.455  1.00  0.00     0.139 C 
BRANCH   8   9
ATOM      9  N   UNL A   1      33.879  21.813  25.054  1.00  0.00    -0.278 N 
ATOM     10  C   UNL A   1      32.555  21.642  24.648  1.00  0.00     0.209 A 
ATOM     11  C   UNL A   1      34.777  20.743  25.098  1.00  0.00     0.262 A 
ATOM     12  N   UNL A   1      32.082  20.476  24.319  1.00  0.00    -0.214 NA
ATOM     13  C   UNL A   1      34.278  19.447  24.628  1.00  0.00     0.066 A 
ATOM     14  O   UNL A   1      35.936  20.825  25.496  1.00  0.00    -0.269 OA
ATOM     15  C   UNL A   1      32.943  19.375  24.245  1.00  0.00     0.080 A 
ATOM     16  C   UNL A   1      35.130  18.339  24.534  1.00  0.00     0.016 A 
ATOM     17  C   UNL A   1      32.468  18.167  23.730  1.00  0.00     0.029 A 
ATOM     18  C   UNL A   1      34.646  17.143  24.011  1.00  0.00     0.001 A 
ATOM     19  C   UNL A   1      33.320  17.065  23.592  1.00  0.00     0.002 A 
BRANCH  10  20
ATOM     20  N   UNL A   1      31.711  22.730  24.668  1.00  0.00    -0.331 N 
ATOM     21  C   UNL A   1      30.957  23.070  25.888  1.00  0.00     0.181 C 
ATOM     22  C   UNL A   1      30.960  23.092  23.455  1.00  0.00     0.181 C 
ATOM     23  C   UNL A   1      30.626  24.580  25.897  1.00  0.00     0.282 C 
ATOM     24  C   UNL A   1      30.650  24.604  23.475  1.00  0.00     0.282 C 
ATOM     25  N   UNL A   1      29.928  25.054  24.684  1.00  0.00    -0.343 N 
ATOM     26  H   UNL A   1      29.889  26.073  24.694  1.00  0.00     0.346 HD
ATOM     27  H   UNL A   1      28.983  24.671  24.671  1.00  0.00     0.346 HD
ENDBRANCH  10  20
ENDBRANCH   8   9
ENDBRANCH   7   8
ENDBRANCH   5   7
ENDBRANCH   2   3
ENDBRANCH   1   2
BRANCH   1  28
ATOM     28  C   UNL A   1      34.055  28.337  25.779  1.00  0.00     0.023 C 
BRANCH  28  29
ATOM     29  C   UNL A   1      33.494  28.557  27.178  1.00  0.00     0.116 C 
BRANCH  29  30
ATOM     30  N   UNL A   1      33.525  29.952  27.592  1.00  0.00    -0.352 N 
ATOM     31  C   UNL A   1      34.540  30.674  28.180  1.00  0.00     0.251 C 
ATOM     32  H   UNL A   1      32.695  30.456  27.428  1.00  0.00     0.163 HD
ATOM     33  O   UNL A   1      34.325  31.820  28.570  1.00  0.00    -0.269 OA
BRANCH  31  34
ATOM     34  C   UNL A   1      35.876  30.064  28.381  1.00  0.00     0.039 A 
ATOM     35  C   UNL A   1      36.224  29.489  29.600  1.00  0.00     0.014 A 
ATOM     36  C   UNL A   1      36.805  30.084  27.335  1.00  0.00     0.014 A 
ATOM     37  C   UNL A   1      37.544  29.115  29.830  1.00  0.00     0.010 A 
ATOM     38  C   UNL A   1      38.113  29.626  27.547  1.00  0.00     0.010 A 
ATOM     39  C   UNL A   1      38.514  29.195  28.819  1.00  0.00    -0.014 A 
BRANCH  39  40
ATOM     40  C   UNL A   1      39.935  28.872  29.145  1.00  0.00     0.031 A 
ATOM     41  C   UNL A   1      40.529  27.541  28.750  1.00  0.00     0.074 A 
ATOM     42  C   UNL A   1      40.730  29.812  29.698  1.00  0.00     0.049 A 
ATOM     43  N   UNL A   1      41.752  27.105  28.921  1.00  0.00    -0.248 NA
ATOM     44  C   UNL A   1      39.644  26.579  28.072  1.00  0.00     0.031 C 
ATOM     45  C   UNL A   1      40.301  31.161  30.075  1.00  0.00     0.029 A 
ATOM     46  N   UNL A   1      42.071  29.797  29.997  1.00  0.00    -0.354 N 
ATOM     47  C   UNL A   1      41.778  25.819  28.391  1.00  0.00     0.074 A 
ATOM     48  C   UNL A   1      40.442  25.532  27.918  1.00  0.00     0.031 C 
ATOM     49  C   UNL A   1      41.369  31.864  30.479  1.00  0.00     0.029 A 
ATOM     50  C   UNL A   1      42.544  30.998  30.472  1.00  0.00     0.049 A 
ATOM     51  H   UNL A   1      42.640  29.001  29.881  1.00  0.00     0.167 HD
ATOM     52  C   UNL A   1      42.821  24.960  28.293  1.00  0.00     0.031 A 
ATOM     53  C   UNL A   1      43.779  31.369  30.872  1.00  0.00     0.031 A 
ATOM     54  C   UNL A   1      44.157  25.248  28.744  1.00  0.00     0.049 A 
ATOM     55  C   UNL A   1      44.901  30.372  30.829  1.00  0.00     0.074 A 
ATOM     56  C   UNL A   1      45.272  24.428  28.691  1.00  0.00     0.029 A 
ATOM     57  N   UNL A   1      44.565  26.441  29.318  1.00  0.00    -0.354 N 
ATOM     58  N   UNL A   1      44.891  29.148  30.359  1.00  0.00    -0.248 NA
ATOM     59  C   UNL A   1      46.195  30.796  31.382  1.00  0.00     0.031 C 
ATOM     60  C   UNL A   1      46.340  25.105  29.284  1.00  0.00     0.029 A 
ATOM     61  C   UNL A   1      45.909  26.371  29.645  1.00  0.00     0.049 A 
ATOM     62  H   UNL A   1      43.986  27.223  29.470  1.00  0.00     0.167 HD
ATOM     63  C   UNL A   1      46.178  28.658  30.554  1.00  0.00     0.074 A 
ATOM     64  C   UNL A   1      46.946  29.724  31.164  1.00  0.00     0.031 C 
ATOM     65  C   UNL A   1      46.671  27.431  30.257  1.00  0.00     0.031 A 
BRANCH  52  66
ATOM     66  C   UNL A   1      42.573  23.607  27.676  1.00  0.00    -0.014 A 
ATOM     67  C   UNL A   1      42.054  22.565  28.467  1.00  0.00     0.010 A 
ATOM     68  C   UNL A   1      42.953  23.335  26.350  1.00  0.00     0.010 A 
ATOM     69  C   UNL A   1      41.940  21.270  27.952  1.00  0.00     0.020 A 
ATOM     70  C   UNL A   1      42.817  22.047  25.823  1.00  0.00     0.020 A 
ATOM     71  C   UNL A   1      42.330  21.019  26.634  1.00  0.00     0.054 A 
BRANCH  71  72
ATOM     72  S   UNL A   1      42.182  19.332  25.980  1.00  0.00     0.124 S 
ATOM     73  O   UNL A   1      43.052  19.378  24.810  1.00  0.00    -0.237 OA
ATOM     74  O   UNL A   1      42.659  18.514  27.092  1.00  0.00    -0.237 OA
ATOM     75  O   UNL A   1      40.754  19.204  25.695  1.00  0.00    -0.744 OA
ENDBRANCH  71  72
ENDBRANCH  52  66
BRANCH  53  76
ATOM     76  C   UNL A   1      44.001  32.764  31.346  1.00  0.00    -0.014 A 
ATOM     77  C   UNL A   1      44.500  33.743  30.468  1.00  0.00     0.010 A 
ATOM     78  C   UNL A   1      43.789  33.101  32.695  1.00  0.00     0.010 A 
ATOM     79  C   UNL A   1      44.845  35.012  30.940  1.00  0.00     0.020 A 
ATOM     80  C   UNL A   1      44.103  34.381  33.164  1.00  0.00     0.020 A 
ATOM     81  C   UNL A   1      44.660  35.316  32.290  1.00  0.00     0.054 A 
BRANCH  81  82
ATOM     82  S   UNL A   1      45.165  36.951  32.893  1.00  0.00     0.124 S 
ATOM     83  O   UNL A   1      44.418  37.838  32.006  1.00  0.00    -0.237 OA
ATOM     84  O   UNL A   1      44.721  36.931  34.285  1.00  0.00    -0.237 OA
ATOM     85  O   UNL A   1      46.614  36.950  32.705  1.00  0.00    -0.744 OA
ENDBRANCH  81  82
ENDBRANCH  53  76
BRANCH  65  86
ATOM     86  C   UNL A   1      48.112  27.143  30.581  1.00  0.00    -0.014 A 
ATOM     87  C   UNL A   1      48.454  26.627  31.845  1.00  0.00     0.010 A 
ATOM     88  C   UNL A   1      49.136  27.511  29.691  1.00  0.00     0.010 A 
ATOM     89  C   UNL A   1      49.793  26.523  32.230  1.00  0.00     0.020 A 
ATOM     90  C   UNL A   1      50.478  27.382  30.063  1.00  0.00     0.020 A 
ATOM     91  C   UNL A   1      50.797  26.915  31.340  1.00  0.00     0.054 A 
BRANCH  91  92
ATOM     92  S   UNL A   1      52.528  26.814  31.873  1.00  0.00     0.124 S 
ATOM     93  O   UNL A   1      53.042  25.729  31.042  1.00  0.00    -0.237 OA
ATOM     94  O   UNL A   1      53.041  28.144  31.561  1.00  0.00    -0.237 OA
ATOM     95  O   UNL A   1      52.429  26.512  33.300  1.00  0.00    -0.744 OA
ENDBRANCH  91  92
ENDBRANCH  65  86
ENDBRANCH  39  40
ENDBRANCH  31  34
ENDBRANCH  29  30
ENDBRANCH  28  29
ENDBRANCH   1  28
TORSDOF 17
ENDMDL
MODEL 3
REMARK VINA RESULT:     -11.2      1.430      2.948
REMARK SMILES O=C(CCn1c(N2CC[NH2+]CC2)nc2ccccc2c1=O)NCCCCNC(=O)c1ccc(-c2c3nc(c(-c4ccc(S(=O)(=O)[O-])cc4)c4ccc([nH]4)c(-c4ccc(S(=O)(=O)[O-])cc4)c4nc(c(-c5ccc(S(=O)(=O)[O-])cc5)c5ccc2[nH]5)C=C4)C=C3)cc1
REMARK SMILES IDX 24 1 23 2 22 3 1 4 2 5 3 7 4 8 5 9 6 10 20 11 13 12 19 13
REMARK SMILES IDX 21 14 14 15 18 16 15 17 17 18 16 19 7 20 8 21 12 22 9 23
REMARK SMILES IDX 11 24 10 25 25 28 26 29 27 30 28 31 29 33 30 34 31 35 89 36
REMARK SMILES IDX 32 37 88 38 33 39 34 40 35 41 82 42 36 43 87 44 81 45 83 46
REMARK SMILES IDX 37 47 86 48 80 49 79 50 38 52 68 53 49 54 67 55 50 56 53 57
REMARK SMILES IDX 66 58 84 59 51 60 52 61 65 63 85 64 54 65 39 66 40 67 48 68
REMARK SMILES IDX 41 69 47 70 42 71 43 72 44 73 45 74 46 75 69 76 70 77 78 78
REMARK SMILES IDX 71 79 77 80 72 81 73 82 74 83 75 84 76 85 55 86 56 87 64 88
REMARK SMILES IDX 57 89 63 90 58 91 59 92 60 93 61 94 62 95
REMARK H PARENT 22 6 10 26 10 27 27 32 83 51 53 62
REMARK Flexibility Score: inf
ROOT
ATOM      1  C   UNL A   1      32.745  27.088  24.354  1.00  0.00     0.023 C 
ENDROOT
BRANCH   1   2
ATOM      2  C   UNL A   1      31.777  26.125  23.665  1.00  0.00     0.116 C 
BRANCH   2   3
ATOM      3  N   UNL A   1      32.359  24.814  23.466  1.00  0.00    -0.356 N 
ATOM      4  O   UNL A   1      30.367  23.679  23.327  1.00  0.00    -0.275 OA
ATOM      5  C   UNL A   1      31.595  23.679  23.318  1.00  0.00     0.221 C 
ATOM      6  H   UNL A   1      33.339  24.731  23.436  1.00  0.00     0.163 HD
BRANCH   5   7
ATOM      7  C   UNL A   1      32.387  22.393  23.269  1.00  0.00     0.122 C 
BRANCH   7   8
ATOM      8  C   UNL A   1      32.708  21.754  24.615  1.00  0.00     0.139 C 
BRANCH   8   9
ATOM      9  N   UNL A   1      34.128  21.634  24.972  1.00  0.00    -0.278 N 
ATOM     10  C   UNL A   1      34.799  20.410  24.986  1.00  0.00     0.209 A 
ATOM     11  C   UNL A   1      34.778  22.829  25.296  1.00  0.00     0.262 A 
ATOM     12  N   UNL A   1      36.050  20.315  25.327  1.00  0.00    -0.214 NA
ATOM     13  C   UNL A   1      36.213  22.741  25.580  1.00  0.00     0.066 A 
ATOM     14  O   UNL A   1      34.226  23.926  25.351  1.00  0.00    -0.269 OA
ATOM     15  C   UNL A   1      36.792  21.477  25.570  1.00  0.00     0.080 A 
ATOM     16  C   UNL A   1      36.973  23.895  25.811  1.00  0.00     0.016 A 
ATOM     17  C   UNL A   1      38.170  21.380  25.770  1.00  0.00     0.029 A 
ATOM     18  C   UNL A   1      38.347  23.786  26.001  1.00  0.00     0.001 A 
ATOM     19  C   UNL A   1      38.947  22.529  25.961  1.00  0.00     0.002 A 
BRANCH  10  20
ATOM     20  N   UNL A   1      34.090  19.265  24.697  1.00  0.00    -0.331 N 
ATOM     21  C   UNL A   1      33.066  18.763  25.630  1.00  0.00     0.181 C 
ATOM     22  C   UNL A   1      34.750  18.162  23.981  1.00  0.00     0.181 C 
ATOM     23  C   UNL A   1      32.019  17.927  24.861  1.00  0.00     0.282 C 
ATOM     24  C   UNL A   1      33.691  17.345  23.209  1.00  0.00     0.282 C 
ATOM     25  N   UNL A   1      32.593  16.830  24.055  1.00  0.00    -0.343 N 
ATOM     26  H   UNL A   1      31.867  16.432  23.460  1.00  0.00     0.346 HD
ATOM     27  H   UNL A   1      32.961  16.113  24.680  1.00  0.00     0.346 HD
ENDBRANCH  10  20
ENDBRANCH   8   9
ENDBRANCH   7   8
ENDBRANCH   5   7
ENDBRANCH   2   3
ENDBRANCH   1   2
BRANCH   1  28
ATOM     28  C   UNL A   1      33.209  26.677  25.753  1.00  0.00     0.023 C 
BRANCH  28  29
ATOM     29  C   UNL A   1      34.238  27.584  26.413  1.00  0.00     0.116 C 
BRANCH  29  30
ATOM     30  N   UNL A   1      33.728  28.919  26.689  1.00  0.00    -0.352 N 
ATOM     31  C   UNL A   1      34.304  29.954  27.392  1.00  0.00     0.251 C 
ATOM     32  H   UNL A   1      32.836  29.111  26.317  1.00  0.00     0.163 HD
ATOM     33  O   UNL A   1      33.652  30.971  27.620  1.00  0.00    -0.269 OA
BRANCH  31  34
ATOM     34  C   UNL A   1      35.687  29.832  27.909  1.00  0.00     0.039 A 
ATOM     35  C   UNL A   1      36.782  30.117  27.097  1.00  0.00     0.014 A 
ATOM     36  C   UNL A   1      35.894  29.407  29.225  1.00  0.00     0.014 A 
ATOM     37  C   UNL A   1      38.063  29.795  27.535  1.00  0.00     0.010 A 
ATOM     38  C   UNL A   1      37.195  29.164  29.690  1.00  0.00     0.010 A 
ATOM     39  C   UNL A   1      38.291  29.296  28.826  1.00  0.00    -0.014 A 
BRANCH  39  40
ATOM     40  C   UNL A   1      39.671  28.877  29.212  1.00  0.00     0.031 A 
ATOM     41  C   UNL A   1      40.492  29.720  30.158  1.00  0.00     0.074 A 
ATOM     42  C   UNL A   1      40.152  27.684  28.805  1.00  0.00     0.049 A 
ATOM     43  N   UNL A   1      41.693  29.493  30.629  1.00  0.00    -0.248 NA
ATOM     44  C   UNL A   1      39.891  30.973  30.645  1.00  0.00     0.031 C 
ATOM     45  C   UNL A   1      39.441  26.742  27.937  1.00  0.00     0.029 A 
ATOM     46  N   UNL A   1      41.328  27.036  29.099  1.00  0.00    -0.354 N 
ATOM     47  C   UNL A   1      41.996  30.576  31.447  1.00  0.00     0.074 A 
ATOM     48  C   UNL A   1      40.866  31.476  31.388  1.00  0.00     0.031 C 
ATOM     49  C   UNL A   1      40.156  25.613  27.834  1.00  0.00     0.029 A 
ATOM     50  C   UNL A   1      41.415  25.775  28.555  1.00  0.00     0.049 A 
ATOM     51  H   UNL A   1      42.040  27.438  29.647  1.00  0.00     0.167 HD
ATOM     52  C   UNL A   1      43.106  30.796  32.192  1.00  0.00     0.031 A 
ATOM     53  C   UNL A   1      42.397  24.851  28.614  1.00  0.00     0.031 A 
ATOM     54  C   UNL A   1      44.225  29.894  32.269  1.00  0.00     0.049 A 
ATOM     55  C   UNL A   1      43.653  25.153  29.380  1.00  0.00     0.074 A 
ATOM     56  C   UNL A   1      45.395  30.045  32.994  1.00  0.00     0.029 A 
ATOM     57  N   UNL A   1      44.314  28.676  31.616  1.00  0.00    -0.354 N 
ATOM     58  N   UNL A   1      43.931  26.203  30.115  1.00  0.00    -0.248 NA
ATOM     59  C   UNL A   1      44.732  24.157  29.316  1.00  0.00     0.031 C 
ATOM     60  C   UNL A   1      46.216  28.946  32.734  1.00  0.00     0.029 A 
ATOM     61  C   UNL A   1      45.529  28.076  31.902  1.00  0.00     0.049 A 
ATOM     62  H   UNL A   1      43.617  28.293  31.036  1.00  0.00     0.167 HD
ATOM     63  C   UNL A   1      45.215  25.990  30.605  1.00  0.00     0.074 A 
ATOM     64  C   UNL A   1      45.650  24.704  30.102  1.00  0.00     0.031 C 
ATOM     65  C   UNL A   1      45.963  26.797  31.396  1.00  0.00     0.031 A 
BRANCH  52  66
ATOM     66  C   UNL A   1      43.185  32.072  32.991  1.00  0.00    -0.014 A 
ATOM     67  C   UNL A   1      42.651  32.113  34.292  1.00  0.00     0.010 A 
ATOM     68  C   UNL A   1      43.687  33.254  32.420  1.00  0.00     0.010 A 
ATOM     69  C   UNL A   1      42.595  33.317  35.000  1.00  0.00     0.020 A 
ATOM     70  C   UNL A   1      43.656  34.456  33.134  1.00  0.00     0.020 A 
ATOM     71  C   UNL A   1      43.091  34.483  34.412  1.00  0.00     0.054 A 
BRANCH  71  72
ATOM     72  S   UNL A   1      43.007  36.040  35.340  1.00  0.00     0.124 S 
ATOM     73  O   UNL A   1      42.261  36.902  34.429  1.00  0.00    -0.237 OA
ATOM     74  O   UNL A   1      42.304  35.649  36.560  1.00  0.00    -0.237 OA
ATOM     75  O   UNL A   1      44.411  36.397  35.532  1.00  0.00    -0.744 OA
ENDBRANCH  71  72
ENDBRANCH  52  66
BRANCH  53  76
ATOM     76  C   UNL A   1      42.210  23.547  27.917  1.00  0.00    -0.014 A 
ATOM     77  C   UNL A   1      41.582  22.473  28.574  1.00  0.00     0.010 A 
ATOM     78  C   UNL A   1      42.727  23.350  26.624  1.00  0.00     0.010 A 
ATOM     79  C   UNL A   1      41.532  21.209  27.980  1.00  0.00     0.020 A 
ATOM     80  C   UNL A   1      42.649  22.094  26.014  1.00  0.00     0.020 A 
ATOM     81  C   UNL A   1      42.082  21.025  26.710  1.00  0.00     0.054 A 
BRANCH  81  82
ATOM     82  S   UNL A   1      42.056  19.363  25.981  1.00  0.00     0.124 S 
ATOM     83  O   UNL A   1      42.614  18.556  27.063  1.00  0.00    -0.237 OA
ATOM     84  O   UNL A   1      40.636  19.155  25.708  1.00  0.00    -0.237 OA
ATOM     85  O   UNL A   1      42.902  19.498  24.798  1.00  0.00    -0.744 OA
ENDBRANCH  81  82
ENDBRANCH  53  76
BRANCH  65  86
ATOM     86  C   UNL A   1      47.343  26.338  31.783  1.00  0.00    -0.014 A 
ATOM     87  C   UNL A   1      48.418  26.532  30.896  1.00  0.00     0.010 A 
ATOM     88  C   UNL A   1      47.549  25.593  32.958  1.00  0.00     0.010 A 
ATOM     89  C   UNL A   1      49.664  25.956  31.155  1.00  0.00     0.020 A 
ATOM     90  C   UNL A   1      48.803  25.038  33.233  1.00  0.00     0.020 A 
ATOM     91  C   UNL A   1      49.844  25.200  32.316  1.00  0.00     0.054 A 
BRANCH  91  92
ATOM     92  S   UNL A   1      51.457  24.422  32.614  1.00  0.00     0.124 S 
ATOM     93  O   UNL A   1      51.638  24.631  34.047  1.00  0.00    -0.237 OA
ATOM     94  O   UNL A   1      51.230  23.040  32.202  1.00  0.00    -0.237 OA
ATOM     95  O   UNL A   1      52.365  25.179  31.754  1.00  0.00    -0.744 OA
ENDBRANCH  91  92
ENDBRANCH  65  86
ENDBRANCH  39  40
ENDBRANCH  31  34
ENDBRANCH  29  30
ENDBRANCH  28  29
ENDBRANCH   1  28
TORSDOF 17
ENDMDL
