MODEL 1
REMARK VINA RESULT:     -11.2      0.000      0.000
REMARK SMILES CC(C)(C)OC(=O)N1CC[N@H+](Cc2ccc(Cl)nc2)[C@H](C(=O)NCCCCNC(=O)c2ccc(-c3c4nc(c(-c5ccc(S(=O)(=O)[O-])cc5)c5ccc([nH]5)c(-c5ccc(S(=O)(=O)[O-])cc5)c5nc(c(-c6ccc(S(=O)(=O)[O-])cc6)c6ccc3[nH]6)C=C5)C=C4)cc2)C1
REMARK SMILES IDX 25 1 24 2 23 3 21 4 22 5 20 7 8 8 9 9 91 10 10 11 11 12 6 14
REMARK SMILES IDX 7 15 5 16 2 17 1 18 3 19 4 20 12 21 13 22 14 23 19 24 15 25
REMARK SMILES IDX 18 26 16 27 17 28 26 29 27 30 28 31 29 32 30 34 31 35 32 36
REMARK SMILES IDX 90 37 33 38 89 39 34 40 35 41 36 42 83 43 37 44 88 45 82 46
REMARK SMILES IDX 84 47 38 48 87 49 81 50 80 51 39 53 69 54 50 55 68 56 51 57
REMARK SMILES IDX 54 58 67 59 85 60 52 61 53 62 66 64 86 65 55 66 40 67 41 68
REMARK SMILES IDX 49 69 42 70 48 71 43 72 44 73 45 74 46 75 47 76 70 77 71 78
REMARK SMILES IDX 79 79 72 80 78 81 73 82 74 83 75 84 76 85 77 86 56 87 57 88
REMARK SMILES IDX 65 89 58 90 64 91 59 92 60 93 61 94 62 95 63 96
REMARK H PARENT 23 6 11 13 28 33 84 52 54 63
REMARK Flexibility Score: inf
ROOT
ATOM      1  C   UNL A   1      36.786  20.391  25.013  1.00  0.00     0.023 C 
ENDROOT
BRANCH   1   2
ATOM      2  C   UNL A   1      36.750  21.755  25.705  1.00  0.00     0.116 C 
BRANCH   2   3
ATOM      3  N   UNL A   1      35.613  21.845  26.601  1.00  0.00    -0.351 N 
ATOM      4  C   UNL A   1      34.520  22.661  26.553  1.00  0.00     0.280 C 
ATOM      5  O   UNL A   1      33.802  22.694  27.554  1.00  0.00    -0.268 OA
ATOM      6  H   UNL A   1      35.631  21.220  27.362  1.00  0.00     0.163 HD
BRANCH   4   7
ATOM      7  C   UNL A   1      34.195  23.460  25.281  1.00  0.00     0.294 C 
ATOM      8  N   UNL A   1      33.196  25.553  24.372  1.00  0.00    -0.296 N 
ATOM      9  C   UNL A   1      32.739  24.825  23.196  1.00  0.00     0.184 C 
ATOM     10  C   UNL A   1      33.487  24.787  25.594  1.00  0.00     0.198 C 
ATOM     11  C   UNL A   1      33.355  23.424  23.019  1.00  0.00     0.285 C 
ATOM     12  N   UNL A   1      33.530  22.623  24.239  1.00  0.00    -0.318 N 
ATOM     13  H   UNL A   1      34.180  21.857  24.062  1.00  0.00     0.349 HD
BRANCH   8  14
ATOM     14  C   UNL A   1      32.974  26.917  24.386  1.00  0.00     0.410 C 
ATOM     15  O   UNL A   1      32.136  27.457  23.676  1.00  0.00    -0.224 OA
BRANCH  14  16
ATOM     16  O   UNL A   1      33.845  27.572  25.194  1.00  0.00    -0.444 OA
BRANCH  16  17
ATOM     17  C   UNL A   1      33.363  28.565  26.137  1.00  0.00     0.106 C 
ATOM     18  C   UNL A   1      32.238  27.861  26.908  1.00  0.00     0.056 C 
ATOM     19  C   UNL A   1      32.790  29.760  25.372  1.00  0.00     0.056 C 
ATOM     20  C   UNL A   1      34.424  29.006  27.159  1.00  0.00     0.056 C 
ENDBRANCH  16  17
ENDBRANCH  14  16
ENDBRANCH   8  14
BRANCH  12  21
ATOM     21  C   UNL A   1      32.375  21.788  24.618  1.00  0.00     0.301 C 
BRANCH  21  22
ATOM     22  C   UNL A   1      32.538  20.288  24.645  1.00  0.00     0.025 A 
ATOM     23  C   UNL A   1      32.488  19.516  23.479  1.00  0.00     0.014 A 
ATOM     24  C   UNL A   1      32.750  19.601  25.839  1.00  0.00     0.122 A 
ATOM     25  C   UNL A   1      32.503  18.126  23.562  1.00  0.00     0.041 A 
ATOM     26  N   UNL A   1      32.792  18.253  25.950  1.00  0.00    -0.244 NA
ATOM     27  C   UNL A   1      32.635  17.554  24.812  1.00  0.00     0.129 A 
ATOM     28  Cl  UNL A   1      32.593  15.852  25.013  1.00  0.00    -0.062 Cl
ENDBRANCH  21  22
ENDBRANCH  12  21
ENDBRANCH   4   7
ENDBRANCH   2   3
ENDBRANCH   1   2
BRANCH   1  29
ATOM     29  C   UNL A   1      38.189  19.786  24.878  1.00  0.00     0.023 C 
BRANCH  29  30
ATOM     30  C   UNL A   1      39.200  20.226  25.936  1.00  0.00     0.116 C 
BRANCH  30  31
ATOM     31  N   UNL A   1      40.351  19.343  26.023  1.00  0.00    -0.352 N 
ATOM     32  C   UNL A   1      41.674  19.648  26.226  1.00  0.00     0.251 C 
ATOM     33  H   UNL A   1      40.152  18.384  25.923  1.00  0.00     0.163 HD
ATOM     34  O   UNL A   1      42.514  18.755  26.150  1.00  0.00    -0.269 OA
BRANCH  32  35
ATOM     35  C   UNL A   1      42.094  21.041  26.497  1.00  0.00     0.039 A 
ATOM     36  C   UNL A   1      42.279  21.429  27.828  1.00  0.00     0.014 A 
ATOM     37  C   UNL A   1      42.288  21.967  25.468  1.00  0.00     0.014 A 
ATOM     38  C   UNL A   1      42.711  22.724  28.121  1.00  0.00     0.010 A 
ATOM     39  C   UNL A   1      42.776  23.242  25.758  1.00  0.00     0.010 A 
ATOM     40  C   UNL A   1      42.995  23.632  27.087  1.00  0.00    -0.014 A 
BRANCH  40  41
ATOM     41  C   UNL A   1      43.540  24.979  27.399  1.00  0.00     0.031 A 
ATOM     42  C   UNL A   1      44.989  25.300  27.152  1.00  0.00     0.074 A 
ATOM     43  C   UNL A   1      42.723  25.913  27.927  1.00  0.00     0.049 A 
ATOM     44  N   UNL A   1      45.626  26.428  27.342  1.00  0.00    -0.248 NA
ATOM     45  C   UNL A   1      45.838  24.211  26.640  1.00  0.00     0.031 C 
ATOM     46  C   UNL A   1      41.309  25.714  28.258  1.00  0.00     0.029 A 
ATOM     47  N   UNL A   1      42.961  27.221  28.269  1.00  0.00    -0.354 N 
ATOM     48  C   UNL A   1      46.944  26.189  26.973  1.00  0.00     0.074 A 
ATOM     49  C   UNL A   1      47.029  24.794  26.597  1.00  0.00     0.031 C 
ATOM     50  C   UNL A   1      40.798  26.867  28.720  1.00  0.00     0.029 A 
ATOM     51  C   UNL A   1      41.850  27.877  28.746  1.00  0.00     0.049 A 
ATOM     52  H   UNL A   1      43.843  27.649  28.183  1.00  0.00     0.167 HD
ATOM     53  C   UNL A   1      47.984  27.057  26.925  1.00  0.00     0.031 A 
ATOM     54  C   UNL A   1      41.693  29.152  29.150  1.00  0.00     0.031 A 
ATOM     55  C   UNL A   1      47.900  28.445  27.293  1.00  0.00     0.049 A 
ATOM     56  C   UNL A   1      42.866  30.092  29.088  1.00  0.00     0.074 A 
ATOM     57  C   UNL A   1      48.892  29.410  27.248  1.00  0.00     0.029 A 
ATOM     58  N   UNL A   1      46.758  29.072  27.767  1.00  0.00    -0.354 N 
ATOM     59  N   UNL A   1      44.090  29.857  28.682  1.00  0.00    -0.248 NA
ATOM     60  C   UNL A   1      42.628  31.475  29.524  1.00  0.00     0.031 C 
ATOM     61  C   UNL A   1      48.360  30.611  27.730  1.00  0.00     0.029 A 
ATOM     62  C   UNL A   1      47.024  30.406  28.029  1.00  0.00     0.049 A 
ATOM     63  H   UNL A   1      45.887  28.634  27.899  1.00  0.00     0.167 HD
ATOM     64  C   UNL A   1      44.762  31.069  28.791  1.00  0.00     0.074 A 
ATOM     65  C   UNL A   1      43.801  32.039  29.277  1.00  0.00     0.031 C 
ATOM     66  C   UNL A   1      46.058  31.356  28.517  1.00  0.00     0.031 A 
BRANCH  53  67
ATOM     67  C   UNL A   1      49.309  26.530  26.440  1.00  0.00    -0.014 A 
ATOM     68  C   UNL A   1      49.813  26.909  25.183  1.00  0.00     0.010 A 
ATOM     69  C   UNL A   1      50.088  25.705  27.270  1.00  0.00     0.010 A 
ATOM     70  C   UNL A   1      51.061  26.451  24.753  1.00  0.00     0.020 A 
ATOM     71  C   UNL A   1      51.347  25.263  26.854  1.00  0.00     0.020 A 
ATOM     72  C   UNL A   1      51.822  25.630  25.592  1.00  0.00     0.054 A 
BRANCH  72  73
ATOM     73  S   UNL A   1      53.457  25.087  25.027  1.00  0.00     0.124 S 
ATOM     74  O   UNL A   1      53.409  25.420  23.605  1.00  0.00    -0.237 OA
ATOM     75  O   UNL A   1      54.363  25.902  25.831  1.00  0.00    -0.237 OA
ATOM     76  O   UNL A   1      53.473  23.658  25.331  1.00  0.00    -0.744 OA
ENDBRANCH  72  73
ENDBRANCH  53  67
BRANCH  54  77
ATOM     77  C   UNL A   1      40.369  29.629  29.635  1.00  0.00    -0.014 A 
ATOM     78  C   UNL A   1      39.383  30.044  28.722  1.00  0.00     0.010 A 
ATOM     79  C   UNL A   1      40.098  29.696  31.013  1.00  0.00     0.010 A 
ATOM     80  C   UNL A   1      38.166  30.556  29.180  1.00  0.00     0.020 A 
ATOM     81  C   UNL A   1      38.872  30.180  31.474  1.00  0.00     0.020 A 
ATOM     82  C   UNL A   1      37.920  30.627  30.554  1.00  0.00     0.054 A 
BRANCH  82  83
ATOM     83  S   UNL A   1      36.329  31.278  31.132  1.00  0.00     0.124 S 
ATOM     84  O   UNL A   1      35.522  31.225  29.917  1.00  0.00    -0.237 OA
ATOM     85  O   UNL A   1      35.959  30.330  32.181  1.00  0.00    -0.237 OA
ATOM     86  O   UNL A   1      36.663  32.618  31.607  1.00  0.00    -0.744 OA
ENDBRANCH  82  83
ENDBRANCH  54  77
BRANCH  66  87
ATOM     87  C   UNL A   1      46.498  32.782  28.710  1.00  0.00    -0.014 A 
ATOM     88  C   UNL A   1      47.028  33.220  29.937  1.00  0.00     0.010 A 
ATOM     89  C   UNL A   1      46.387  33.694  27.645  1.00  0.00     0.010 A 
ATOM     90  C   UNL A   1      47.389  34.559  30.112  1.00  0.00     0.020 A 
ATOM     91  C   UNL A   1      46.773  35.027  27.808  1.00  0.00     0.020 A 
ATOM     92  C   UNL A   1      47.251  35.455  29.049  1.00  0.00     0.054 A 
BRANCH  92  93
ATOM     93  S   UNL A   1      47.733  37.187  29.295  1.00  0.00     0.124 S 
ATOM     94  O   UNL A   1      48.253  37.165  30.659  1.00  0.00    -0.237 OA
ATOM     95  O   UNL A   1      48.729  37.398  28.247  1.00  0.00    -0.237 OA
ATOM     96  O   UNL A   1      46.483  37.922  29.115  1.00  0.00    -0.744 OA
ENDBRANCH  92  93
ENDBRANCH  66  87
ENDBRANCH  40  41
ENDBRANCH  32  35
ENDBRANCH  30  31
ENDBRANCH  29  30
ENDBRANCH   1  29
TORSDOF 19
ENDMDL
MODEL 2
REMARK VINA RESULT:     -11.1      6.030      8.827
REMARK SMILES CC(C)(C)OC(=O)N1CC[N@H+](Cc2ccc(Cl)nc2)[C@H](C(=O)NCCCCNC(=O)c2ccc(-c3c4nc(c(-c5ccc(S(=O)(=O)[O-])cc5)c5ccc([nH]5)c(-c5ccc(S(=O)(=O)[O-])cc5)c5nc(c(-c6ccc(S(=O)(=O)[O-])cc6)c6ccc3[nH]6)C=C5)C=C4)cc2)C1
REMARK SMILES IDX 25 1 24 2 23 3 21 4 22 5 20 7 8 8 9 9 91 10 10 11 11 12 6 14
REMARK SMILES IDX 7 15 5 16 2 17 1 18 3 19 4 20 12 21 13 22 14 23 19 24 15 25
REMARK SMILES IDX 18 26 16 27 17 28 26 29 27 30 28 31 29 32 30 34 31 35 32 36
REMARK SMILES IDX 90 37 33 38 89 39 34 40 35 41 36 42 83 43 37 44 88 45 82 46
REMARK SMILES IDX 84 47 38 48 87 49 81 50 80 51 39 53 69 54 50 55 68 56 51 57
REMARK SMILES IDX 54 58 67 59 85 60 52 61 53 62 66 64 86 65 55 66 40 67 41 68
REMARK SMILES IDX 49 69 42 70 48 71 43 72 44 73 45 74 46 75 47 76 70 77 71 78
REMARK SMILES IDX 79 79 72 80 78 81 73 82 74 83 75 84 76 85 77 86 56 87 57 88
REMARK SMILES IDX 65 89 58 90 64 91 59 92 60 93 61 94 62 95 63 96
REMARK H PARENT 23 6 11 13 28 33 84 52 54 63
REMARK Flexibility Score: inf
ROOT
ATOM      1  C   UNL A   1      39.176  22.371  26.307  1.00  0.00     0.023 C 
ENDROOT
BRANCH   1   2
ATOM      2  C   UNL A   1      38.052  23.379  26.066  1.00  0.00     0.116 C 
BRANCH   2   3
ATOM      3  N   UNL A   1      37.710  23.438  24.657  1.00  0.00    -0.351 N 
ATOM      4  C   UNL A   1      36.616  22.956  23.999  1.00  0.00     0.280 C 
ATOM      5  O   UNL A   1      36.665  22.941  22.767  1.00  0.00    -0.268 OA
ATOM      6  H   UNL A   1      38.369  23.897  24.087  1.00  0.00     0.163 HD
BRANCH   4   7
ATOM      7  C   UNL A   1      35.372  22.499  24.778  1.00  0.00     0.294 C 
ATOM      8  N   UNL A   1      33.702  20.678  25.090  1.00  0.00    -0.296 N 
ATOM      9  C   UNL A   1      32.680  21.668  25.405  1.00  0.00     0.184 C 
ATOM     10  C   UNL A   1      34.881  21.115  24.327  1.00  0.00     0.198 C 
ATOM     11  C   UNL A   1      33.214  23.086  25.683  1.00  0.00     0.285 C 
ATOM     12  N   UNL A   1      34.317  23.553  24.832  1.00  0.00    -0.318 N 
ATOM     13  H   UNL A   1      34.771  24.360  25.262  1.00  0.00     0.349 HD
BRANCH   8  14
ATOM     14  C   UNL A   1      33.336  19.349  25.196  1.00  0.00     0.410 C 
ATOM     15  O   UNL A   1      32.296  18.992  25.733  1.00  0.00    -0.224 OA
BRANCH  14  16
ATOM     16  O   UNL A   1      34.294  18.513  24.725  1.00  0.00    -0.444 OA
BRANCH  16  17
ATOM     17  C   UNL A   1      34.011  17.100  24.549  1.00  0.00     0.106 C 
ATOM     18  C   UNL A   1      34.026  16.883  23.029  1.00  0.00     0.056 C 
ATOM     19  C   UNL A   1      32.617  16.786  25.097  1.00  0.00     0.056 C 
ATOM     20  C   UNL A   1      35.079  16.179  25.162  1.00  0.00     0.056 C 
ENDBRANCH  16  17
ENDBRANCH  14  16
ENDBRANCH   8  14
BRANCH  12  21
ATOM     21  C   UNL A   1      33.910  24.227  23.585  1.00  0.00     0.301 C 
BRANCH  21  22
ATOM     22  C   UNL A   1      33.194  25.553  23.673  1.00  0.00     0.025 A 
ATOM     23  C   UNL A   1      33.793  26.683  24.242  1.00  0.00     0.014 A 
ATOM     24  C   UNL A   1      31.899  25.714  23.185  1.00  0.00     0.122 A 
ATOM     25  C   UNL A   1      33.051  27.846  24.430  1.00  0.00     0.041 A 
ATOM     26  N   UNL A   1      31.159  26.838  23.331  1.00  0.00    -0.244 NA
ATOM     27  C   UNL A   1      31.746  27.860  23.978  1.00  0.00     0.129 A 
ATOM     28  Cl  UNL A   1      30.740  29.225  24.230  1.00  0.00    -0.062 Cl
ENDBRANCH  21  22
ENDBRANCH  12  21
ENDBRANCH   4   7
ENDBRANCH   2   3
ENDBRANCH   1   2
BRANCH   1  29
ATOM     29  C   UNL A   1      40.034  22.662  27.545  1.00  0.00     0.023 C 
BRANCH  29  30
ATOM     30  C   UNL A   1      41.456  23.145  27.261  1.00  0.00     0.116 C 
BRANCH  30  31
ATOM     31  N   UNL A   1      41.537  24.029  26.111  1.00  0.00    -0.352 N 
ATOM     32  C   UNL A   1      41.386  25.392  26.044  1.00  0.00     0.251 C 
ATOM     33  H   UNL A   1      41.729  23.585  25.254  1.00  0.00     0.163 HD
ATOM     34  O   UNL A   1      41.377  25.940  24.945  1.00  0.00    -0.269 OA
BRANCH  32  35
ATOM     35  C   UNL A   1      41.199  26.193  27.275  1.00  0.00     0.039 A 
ATOM     36  C   UNL A   1      42.209  27.088  27.641  1.00  0.00     0.014 A 
ATOM     37  C   UNL A   1      40.061  26.061  28.075  1.00  0.00     0.014 A 
ATOM     38  C   UNL A   1      42.052  27.886  28.775  1.00  0.00     0.010 A 
ATOM     39  C   UNL A   1      39.878  26.902  29.174  1.00  0.00     0.010 A 
ATOM     40  C   UNL A   1      40.870  27.824  29.533  1.00  0.00    -0.014 A 
BRANCH  40  41
ATOM     41  C   UNL A   1      40.669  28.740  30.686  1.00  0.00     0.031 A 
ATOM     42  C   UNL A   1      41.526  28.628  31.918  1.00  0.00     0.074 A 
ATOM     43  C   UNL A   1      39.691  29.667  30.627  1.00  0.00     0.049 A 
ATOM     44  N   UNL A   1      41.504  29.359  33.004  1.00  0.00    -0.248 NA
ATOM     45  C   UNL A   1      42.525  27.547  31.942  1.00  0.00     0.031 C 
ATOM     46  C   UNL A   1      38.761  29.848  29.509  1.00  0.00     0.029 A 
ATOM     47  N   UNL A   1      39.323  30.639  31.523  1.00  0.00    -0.354 N 
ATOM     48  C   UNL A   1      42.484  28.832  33.837  1.00  0.00     0.074 A 
ATOM     49  C   UNL A   1      43.046  27.687  33.154  1.00  0.00     0.031 C 
ATOM     50  C   UNL A   1      37.955  30.891  29.771  1.00  0.00     0.029 A 
ATOM     51  C   UNL A   1      38.290  31.433  31.083  1.00  0.00     0.049 A 
ATOM     52  H   UNL A   1      39.757  30.757  32.399  1.00  0.00     0.167 HD
ATOM     53  C   UNL A   1      42.896  29.276  35.049  1.00  0.00     0.031 A 
ATOM     54  C   UNL A   1      37.686  32.486  31.665  1.00  0.00     0.031 A 
ATOM     55  C   UNL A   1      42.343  30.417  35.728  1.00  0.00     0.049 A 
ATOM     56  C   UNL A   1      38.165  32.955  33.012  1.00  0.00     0.074 A 
ATOM     57  C   UNL A   1      42.717  30.962  36.945  1.00  0.00     0.029 A 
ATOM     58  N   UNL A   1      41.301  31.196  35.248  1.00  0.00    -0.354 N 
ATOM     59  N   UNL A   1      39.131  32.475  33.757  1.00  0.00    -0.248 NA
ATOM     60  C   UNL A   1      37.479  34.121  33.587  1.00  0.00     0.031 C 
ATOM     61  C   UNL A   1      41.877  32.048  37.218  1.00  0.00     0.029 A 
ATOM     62  C   UNL A   1      41.013  32.208  36.148  1.00  0.00     0.049 A 
ATOM     63  H   UNL A   1      40.835  31.051  34.394  1.00  0.00     0.167 HD
ATOM     64  C   UNL A   1      39.185  33.295  34.878  1.00  0.00     0.074 A 
ATOM     65  C   UNL A   1      38.171  34.315  34.701  1.00  0.00     0.031 C 
ATOM     66  C   UNL A   1      39.998  33.212  35.960  1.00  0.00     0.031 A 
BRANCH  53  67
ATOM     67  C   UNL A   1      44.021  28.529  35.718  1.00  0.00    -0.014 A 
ATOM     68  C   UNL A   1      45.357  28.920  35.521  1.00  0.00     0.010 A 
ATOM     69  C   UNL A   1      43.739  27.473  36.603  1.00  0.00     0.010 A 
ATOM     70  C   UNL A   1      46.395  28.250  36.175  1.00  0.00     0.020 A 
ATOM     71  C   UNL A   1      44.772  26.816  37.278  1.00  0.00     0.020 A 
ATOM     72  C   UNL A   1      46.096  27.202  37.051  1.00  0.00     0.054 A 
BRANCH  72  73
ATOM     73  S   UNL A   1      47.459  26.380  37.921  1.00  0.00     0.124 S 
ATOM     74  O   UNL A   1      47.534  27.153  39.159  1.00  0.00    -0.237 OA
ATOM     75  O   UNL A   1      46.971  25.012  38.064  1.00  0.00    -0.237 OA
ATOM     76  O   UNL A   1      48.595  26.542  37.016  1.00  0.00    -0.744 OA
ENDBRANCH  72  73
ENDBRANCH  53  67
BRANCH  54  77
ATOM     77  C   UNL A   1      36.570  33.189  30.975  1.00  0.00    -0.014 A 
ATOM     78  C   UNL A   1      36.781  33.815  29.733  1.00  0.00     0.010 A 
ATOM     79  C   UNL A   1      35.298  33.258  31.569  1.00  0.00     0.010 A 
ATOM     80  C   UNL A   1      35.751  34.532  29.119  1.00  0.00     0.020 A 
ATOM     81  C   UNL A   1      34.257  33.950  30.944  1.00  0.00     0.020 A 
ATOM     82  C   UNL A   1      34.497  34.600  29.731  1.00  0.00     0.054 A 
BRANCH  82  83
ATOM     83  S   UNL A   1      33.166  35.521  28.912  1.00  0.00     0.124 S 
ATOM     84  O   UNL A   1      32.491  34.470  28.158  1.00  0.00    -0.237 OA
ATOM     85  O   UNL A   1      32.418  36.071  30.042  1.00  0.00    -0.237 OA
ATOM     86  O   UNL A   1      33.880  36.510  28.110  1.00  0.00    -0.744 OA
ENDBRANCH  82  83
ENDBRANCH  54  77
BRANCH  66  87
ATOM     87  C   UNL A   1      39.839  34.271  37.017  1.00  0.00    -0.014 A 
ATOM     88  C   UNL A   1      39.079  34.033  38.176  1.00  0.00     0.010 A 
ATOM     89  C   UNL A   1      40.466  35.519  36.851  1.00  0.00     0.010 A 
ATOM     90  C   UNL A   1      38.905  35.043  39.126  1.00  0.00     0.020 A 
ATOM     91  C   UNL A   1      40.317  36.522  37.812  1.00  0.00     0.020 A 
ATOM     92  C   UNL A   1      39.519  36.284  38.933  1.00  0.00     0.054 A 
BRANCH  92  93
ATOM     93  S   UNL A   1      39.286  37.579  40.182  1.00  0.00     0.124 S 
ATOM     94  O   UNL A   1      38.973  36.798  41.374  1.00  0.00    -0.237 OA
ATOM     95  O   UNL A   1      40.583  38.253  40.195  1.00  0.00    -0.237 OA
ATOM     96  O   UNL A   1      38.183  38.377  39.650  1.00  0.00    -0.744 OA
ENDBRANCH  92  93
ENDBRANCH  66  87
ENDBRANCH  40  41
ENDBRANCH  32  35
ENDBRANCH  30  31
ENDBRANCH  29  30
ENDBRANCH   1  29
TORSDOF 19
ENDMDL
MODEL 3
REMARK VINA RESULT:     -11.1      6.113     11.845
REMARK SMILES CC(C)(C)OC(=O)N1CC[N@H+](Cc2ccc(Cl)nc2)[C@H](C(=O)NCCCCNC(=O)c2ccc(-c3c4nc(c(-c5ccc(S(=O)(=O)[O-])cc5)c5ccc([nH]5)c(-c5ccc(S(=O)(=O)[O-])cc5)c5nc(c(-c6ccc(S(=O)(=O)[O-])cc6)c6ccc3[nH]6)C=C5)C=C4)cc2)C1
REMARK SMILES IDX 25 1 24 2 23 3 21 4 22 5 20 7 8 8 9 9 91 10 10 11 11 12 6 14
REMARK SMILES IDX 7 15 5 16 2 17 1 18 3 19 4 20 12 21 13 22 14 23 19 24 15 25
REMARK SMILES IDX 18 26 16 27 17 28 26 29 27 30 28 31 29 32 30 34 31 35 32 36
REMARK SMILES IDX 90 37 33 38 89 39 34 40 35 41 36 42 83 43 37 44 88 45 82 46
REMARK SMILES IDX 84 47 38 48 87 49 81 50 80 51 39 53 69 54 50 55 68 56 51 57
REMARK SMILES IDX 54 58 67 59 85 60 52 61 53 62 66 64 86 65 55 66 40 67 41 68
REMARK SMILES IDX 49 69 42 70 48 71 43 72 44 73 45 74 46 75 47 76 70 77 71 78
REMARK SMILES IDX 79 79 72 80 78 81 73 82 74 83 75 84 76 85 77 86 56 87 57 88
REMARK SMILES IDX 65 89 58 90 64 91 59 92 60 93 61 94 62 95 63 96
REMARK H PARENT 23 6 11 13 28 33 84 52 54 63
REMARK Flexibility Score: inf
ROOT
ATOM      1  C   UNL A   1      32.232  29.695  26.894  1.00  0.00     0.023 C 
ENDROOT
BRANCH   1   2
ATOM      2  C   UNL A   1      33.606  29.226  26.413  1.00  0.00     0.116 C 
BRANCH   2   3
ATOM      3  N   UNL A   1      33.708  29.336  24.969  1.00  0.00    -0.351 N 
ATOM      4  C   UNL A   1      33.727  28.360  24.015  1.00  0.00     0.280 C 
ATOM      5  O   UNL A   1      34.043  28.701  22.873  1.00  0.00    -0.268 OA
ATOM      6  H   UNL A   1      33.774  30.256  24.625  1.00  0.00     0.163 HD
BRANCH   4   7
ATOM      7  C   UNL A   1      33.326  26.917  24.361  1.00  0.00     0.294 C 
ATOM      8  N   UNL A   1      33.782  24.505  23.943  1.00  0.00    -0.296 N 
ATOM      9  C   UNL A   1      32.368  24.205  24.126  1.00  0.00     0.184 C 
ATOM     10  C   UNL A   1      34.160  25.882  23.592  1.00  0.00     0.198 C 
ATOM     11  C   UNL A   1      31.538  25.344  24.748  1.00  0.00     0.285 C 
ATOM     12  N   UNL A   1      31.849  26.708  24.297  1.00  0.00    -0.318 N 
ATOM     13  H   UNL A   1      31.458  27.388  24.949  1.00  0.00     0.349 HD
BRANCH   8  14
ATOM     14  C   UNL A   1      34.627  23.429  23.745  1.00  0.00     0.410 C 
ATOM     15  O   UNL A   1      34.864  22.972  22.635  1.00  0.00    -0.224 OA
BRANCH  14  16
ATOM     16  O   UNL A   1      35.069  22.901  24.913  1.00  0.00    -0.444 OA
BRANCH  16  17
ATOM     17  C   UNL A   1      34.759  21.525  25.258  1.00  0.00     0.106 C 
ATOM     18  C   UNL A   1      34.280  21.585  26.716  1.00  0.00     0.056 C 
ATOM     19  C   UNL A   1      36.029  20.677  25.171  1.00  0.00     0.056 C 
ATOM     20  C   UNL A   1      33.620  20.923  24.419  1.00  0.00     0.056 C 
ENDBRANCH  16  17
ENDBRANCH  14  16
ENDBRANCH   8  14
BRANCH  12  21
ATOM     21  C   UNL A   1      31.110  27.163  23.105  1.00  0.00     0.301 C 
BRANCH  21  22
ATOM     22  C   UNL A   1      30.091  28.266  23.257  1.00  0.00     0.025 A 
ATOM     23  C   UNL A   1      28.739  28.071  22.953  1.00  0.00     0.014 A 
ATOM     24  C   UNL A   1      30.452  29.533  23.710  1.00  0.00     0.122 A 
ATOM     25  C   UNL A   1      27.857  29.149  22.973  1.00  0.00     0.041 A 
ATOM     26  N   UNL A   1      29.615  30.596  23.763  1.00  0.00    -0.244 NA
ATOM     27  C   UNL A   1      28.350  30.379  23.362  1.00  0.00     0.129 A 
ATOM     28  Cl  UNL A   1      27.352  31.773  23.348  1.00  0.00    -0.062 Cl
ENDBRANCH  21  22
ENDBRANCH  12  21
ENDBRANCH   4   7
ENDBRANCH   2   3
ENDBRANCH   1   2
BRANCH   1  29
ATOM     29  C   UNL A   1      32.020  31.212  26.822  1.00  0.00     0.023 C 
BRANCH  29  30
ATOM     30  C   UNL A   1      33.217  32.065  27.238  1.00  0.00     0.116 C 
BRANCH  30  31
ATOM     31  N   UNL A   1      32.847  33.418  27.618  1.00  0.00    -0.352 N 
ATOM     32  C   UNL A   1      33.380  34.232  28.585  1.00  0.00     0.251 C 
ATOM     33  H   UNL A   1      32.103  33.809  27.104  1.00  0.00     0.163 HD
ATOM     34  O   UNL A   1      32.841  35.308  28.828  1.00  0.00    -0.269 OA
BRANCH  32  35
ATOM     35  C   UNL A   1      34.570  33.807  29.357  1.00  0.00     0.039 A 
ATOM     36  C   UNL A   1      34.380  32.958  30.451  1.00  0.00     0.014 A 
ATOM     37  C   UNL A   1      35.857  34.245  29.030  1.00  0.00     0.014 A 
ATOM     38  C   UNL A   1      35.482  32.506  31.180  1.00  0.00     0.010 A 
ATOM     39  C   UNL A   1      36.961  33.746  29.722  1.00  0.00     0.010 A 
ATOM     40  C   UNL A   1      36.785  32.870  30.801  1.00  0.00    -0.014 A 
BRANCH  40  41
ATOM     41  C   UNL A   1      37.959  32.316  31.524  1.00  0.00     0.031 A 
ATOM     42  C   UNL A   1      38.404  32.902  32.836  1.00  0.00     0.074 A 
ATOM     43  C   UNL A   1      38.640  31.286  30.980  1.00  0.00     0.049 A 
ATOM     44  N   UNL A   1      39.389  32.526  33.613  1.00  0.00    -0.248 NA
ATOM     45  C   UNL A   1      37.658  34.069  33.335  1.00  0.00     0.031 C 
ATOM     46  C   UNL A   1      38.339  30.658  29.691  1.00  0.00     0.029 A 
ATOM     47  N   UNL A   1      39.720  30.579  31.448  1.00  0.00    -0.354 N 
ATOM     48  C   UNL A   1      39.381  33.405  34.690  1.00  0.00     0.074 A 
ATOM     49  C   UNL A   1      38.327  34.365  34.442  1.00  0.00     0.031 C 
ATOM     50  C   UNL A   1      39.190  29.637  29.489  1.00  0.00     0.029 A 
ATOM     51  C   UNL A   1      40.112  29.556  30.617  1.00  0.00     0.049 A 
ATOM     52  H   UNL A   1      40.171  30.785  32.298  1.00  0.00     0.167 HD
ATOM     53  C   UNL A   1      40.162  33.399  35.797  1.00  0.00     0.031 A 
ATOM     54  C   UNL A   1      41.096  28.648  30.750  1.00  0.00     0.031 A 
ATOM     55  C   UNL A   1      41.207  32.442  36.049  1.00  0.00     0.049 A 
ATOM     56  C   UNL A   1      41.949  28.666  31.990  1.00  0.00     0.074 A 
ATOM     57  C   UNL A   1      42.031  32.336  37.156  1.00  0.00     0.029 A 
ATOM     58  N   UNL A   1      41.570  31.420  35.184  1.00  0.00    -0.354 N 
ATOM     59  N   UNL A   1      41.886  29.473  33.022  1.00  0.00    -0.248 NA
ATOM     60  C   UNL A   1      42.994  27.639  32.088  1.00  0.00     0.031 C 
ATOM     61  C   UNL A   1      42.917  31.274  36.946  1.00  0.00     0.029 A 
ATOM     62  C   UNL A   1      42.612  30.688  35.729  1.00  0.00     0.049 A 
ATOM     63  H   UNL A   1      41.151  31.242  34.313  1.00  0.00     0.167 HD
ATOM     64  C   UNL A   1      42.868  29.034  33.903  1.00  0.00     0.074 A 
ATOM     65  C   UNL A   1      43.493  27.878  33.292  1.00  0.00     0.031 C 
ATOM     66  C   UNL A   1      43.226  29.543  35.107  1.00  0.00     0.031 A 
BRANCH  53  67
ATOM     67  C   UNL A   1      39.904  34.457  36.838  1.00  0.00    -0.014 A 
ATOM     68  C   UNL A   1      38.991  34.226  37.883  1.00  0.00     0.010 A 
ATOM     69  C   UNL A   1      40.625  35.663  36.812  1.00  0.00     0.010 A 
ATOM     70  C   UNL A   1      38.784  35.194  38.869  1.00  0.00     0.020 A 
ATOM     71  C   UNL A   1      40.439  36.625  37.810  1.00  0.00     0.020 A 
ATOM     72  C   UNL A   1      39.511  36.389  38.827  1.00  0.00     0.054 A 
BRANCH  72  73
ATOM     73  S   UNL A   1      39.254  37.608  40.145  1.00  0.00     0.124 S 
ATOM     74  O   UNL A   1      40.561  38.259  40.210  1.00  0.00    -0.237 OA
ATOM     75  O   UNL A   1      38.170  38.431  39.615  1.00  0.00    -0.237 OA
ATOM     76  O   UNL A   1      38.905  36.794  41.307  1.00  0.00    -0.744 OA
ENDBRANCH  72  73
ENDBRANCH  53  67
BRANCH  54  77
ATOM     77  C   UNL A   1      41.326  27.626  29.693  1.00  0.00    -0.014 A 
ATOM     78  C   UNL A   1      40.292  26.755  29.306  1.00  0.00     0.010 A 
ATOM     79  C   UNL A   1      42.589  27.502  29.087  1.00  0.00     0.010 A 
ATOM     80  C   UNL A   1      40.528  25.753  28.361  1.00  0.00     0.020 A 
ATOM     81  C   UNL A   1      42.820  26.519  28.121  1.00  0.00     0.020 A 
ATOM     82  C   UNL A   1      41.793  25.636  27.780  1.00  0.00     0.054 A 
BRANCH  82  83
ATOM     83  S   UNL A   1      42.078  24.340  26.543  1.00  0.00     0.124 S 
ATOM     84  O   UNL A   1      40.951  23.444  26.780  1.00  0.00    -0.237 OA
ATOM     85  O   UNL A   1      42.043  25.085  25.286  1.00  0.00    -0.237 OA
ATOM     86  O   UNL A   1      43.390  23.809  26.905  1.00  0.00    -0.744 OA
ENDBRANCH  82  83
ENDBRANCH  54  77
BRANCH  66  87
ATOM     87  C   UNL A   1      44.321  28.830  35.853  1.00  0.00    -0.014 A 
ATOM     88  C   UNL A   1      45.674  29.158  35.645  1.00  0.00     0.010 A 
ATOM     89  C   UNL A   1      43.993  27.825  36.778  1.00  0.00     0.010 A 
ATOM     90  C   UNL A   1      46.680  28.455  36.313  1.00  0.00     0.020 A 
ATOM     91  C   UNL A   1      44.995  27.138  37.468  1.00  0.00     0.020 A 
ATOM     92  C   UNL A   1      46.334  27.443  37.214  1.00  0.00     0.054 A 
BRANCH  92  93
ATOM     93  S   UNL A   1      47.656  26.548  38.075  1.00  0.00     0.124 S 
ATOM     94  O   UNL A   1      47.214  25.162  37.950  1.00  0.00    -0.237 OA
ATOM     95  O   UNL A   1      48.844  26.901  37.301  1.00  0.00    -0.237 OA
ATOM     96  O   UNL A   1      47.617  27.095  39.429  1.00  0.00    -0.744 OA
ENDBRANCH  92  93
ENDBRANCH  66  87
ENDBRANCH  40  41
ENDBRANCH  32  35
ENDBRANCH  30  31
ENDBRANCH  29  30
ENDBRANCH   1  29
TORSDOF 19
ENDMDL
