MODEL 1
REMARK VINA RESULT:     -11.2      0.000      0.000
REMARK SMILES O=C(CSc1nnc(-c2ccncc2)s1)Nc1cccc(C(=O)NCCCCNC(=O)c2ccc(-c3c4nc(c(-c5ccc(S(=O)(=O)[O-])cc5)c5ccc([nH]5)c(-c5ccc(S(=O)(=O)[O-])cc5)c5nc(c(-c6ccc(S(=O)(=O)[O-])cc6)c6ccc3[nH]6)C=C5)C=C4)cc2)c1
REMARK SMILES IDX 25 1 24 2 22 3 23 4 21 6 17 7 18 8 92 9 19 10 20 11 16 12
REMARK SMILES IDX 1 13 2 14 3 16 4 17 5 18 6 19 15 20 7 21 8 22 9 23 10 24
REMARK SMILES IDX 14 25 11 26 13 27 12 28 26 29 27 30 28 31 29 32 30 33 31 35
REMARK SMILES IDX 32 36 33 37 91 38 34 39 90 40 35 41 36 42 37 43 84 44 38 45
REMARK SMILES IDX 89 46 83 47 85 48 39 49 88 50 82 51 81 52 40 54 70 55 51 56
REMARK SMILES IDX 69 57 52 58 55 59 68 60 86 61 53 62 54 63 67 65 87 66 56 67
REMARK SMILES IDX 41 68 42 69 50 70 43 71 49 72 44 73 45 74 46 75 47 76 48 77
REMARK SMILES IDX 71 78 72 79 80 80 73 81 79 82 74 83 75 84 76 85 77 86 78 87
REMARK SMILES IDX 57 88 58 89 66 90 59 91 65 92 60 93 61 94 62 95 63 96 64 97
REMARK H PARENT 24 5 16 15 29 34 85 53 55 64
REMARK Flexibility Score: inf
ROOT
ATOM      1  C   UNL A   1      34.440  32.273  28.759  1.00  0.00     0.116 C 
ENDROOT
BRANCH   1   2
ATOM      2  N   UNL A   1      35.468  31.335  28.325  1.00  0.00    -0.352 N 
ATOM      3  C   UNL A   1      35.363  30.191  27.559  1.00  0.00     0.251 C 
ATOM      4  O   UNL A   1      36.365  29.523  27.317  1.00  0.00    -0.269 OA
ATOM      5  H   UNL A   1      36.380  31.553  28.625  1.00  0.00     0.163 HD
BRANCH   3   6
ATOM      6  C   UNL A   1      34.040  29.707  27.087  1.00  0.00     0.041 A 
ATOM      7  C   UNL A   1      32.731  27.978  26.022  1.00  0.00     0.041 A 
ATOM      8  C   UNL A   1      31.711  28.907  25.790  1.00  0.00     0.026 A 
ATOM      9  C   UNL A   1      33.824  28.360  26.792  1.00  0.00     0.040 A 
ATOM     10  C   UNL A   1      31.840  30.226  26.239  1.00  0.00     0.003 A 
ATOM     11  C   UNL A   1      33.022  30.636  26.855  1.00  0.00     0.014 A 
BRANCH   7  12
ATOM     12  N   UNL A   1      32.671  26.739  25.348  1.00  0.00    -0.325 N 
ATOM     13  O   UNL A   1      31.479  25.441  26.872  1.00  0.00    -0.274 OA
ATOM     14  C   UNL A   1      32.119  25.557  25.827  1.00  0.00     0.234 C 
ATOM     15  H   UNL A   1      33.060  26.709  24.444  1.00  0.00     0.169 HD
BRANCH  14  16
ATOM     16  C   UNL A   1      32.512  24.299  25.062  1.00  0.00     0.177 C 
BRANCH  16  17
ATOM     17  S   UNL A   1      34.269  24.202  24.625  1.00  0.00    -0.084 SA
BRANCH  17  18
ATOM     18  C   UNL A   1      34.507  22.474  24.663  1.00  0.00     0.175 A 
ATOM     19  N   UNL A   1      35.663  21.919  24.937  1.00  0.00    -0.131 NA
ATOM     20  S   UNL A   1      33.230  21.371  24.403  1.00  0.00    -0.086 S 
ATOM     21  N   UNL A   1      35.574  20.543  24.988  1.00  0.00    -0.137 NA
ATOM     22  C   UNL A   1      34.359  20.109  24.718  1.00  0.00     0.148 A 
BRANCH  22  23
ATOM     23  C   UNL A   1      33.938  18.708  24.746  1.00  0.00     0.015 A 
ATOM     24  C   UNL A   1      34.726  17.687  24.207  1.00  0.00     0.031 A 
ATOM     25  C   UNL A   1      32.715  18.371  25.331  1.00  0.00     0.031 A 
ATOM     26  C   UNL A   1      34.249  16.389  24.254  1.00  0.00     0.111 A 
ATOM     27  C   UNL A   1      32.322  17.043  25.324  1.00  0.00     0.111 A 
ATOM     28  N   UNL A   1      33.060  16.047  24.792  1.00  0.00    -0.265 NA
ENDBRANCH  22  23
ENDBRANCH  17  18
ENDBRANCH  16  17
ENDBRANCH  14  16
ENDBRANCH   7  12
ENDBRANCH   3   6
ENDBRANCH   1   2
BRANCH   1  29
ATOM     29  C   UNL A   1      34.966  33.584  29.326  1.00  0.00     0.023 C 
BRANCH  29  30
ATOM     30  C   UNL A   1      36.455  33.850  29.145  1.00  0.00     0.023 C 
BRANCH  30  31
ATOM     31  C   UNL A   1      37.327  33.637  30.376  1.00  0.00     0.116 C 
BRANCH  31  32
ATOM     32  N   UNL A   1      36.727  32.774  31.383  1.00  0.00    -0.352 N 
ATOM     33  C   UNL A   1      37.097  31.510  31.790  1.00  0.00     0.251 C 
ATOM     34  H   UNL A   1      35.940  33.148  31.841  1.00  0.00     0.163 HD
ATOM     35  O   UNL A   1      36.405  30.900  32.597  1.00  0.00    -0.269 OA
BRANCH  33  36
ATOM     36  C   UNL A   1      38.308  30.872  31.221  1.00  0.00     0.039 A 
ATOM     37  C   UNL A   1      38.442  30.801  29.831  1.00  0.00     0.014 A 
ATOM     38  C   UNL A   1      39.314  30.365  32.044  1.00  0.00     0.014 A 
ATOM     39  C   UNL A   1      39.624  30.306  29.271  1.00  0.00     0.010 A 
ATOM     40  C   UNL A   1      40.522  29.951  31.489  1.00  0.00     0.010 A 
ATOM     41  C   UNL A   1      40.692  29.920  30.096  1.00  0.00    -0.014 A 
BRANCH  41  42
ATOM     42  C   UNL A   1      41.993  29.475  29.528  1.00  0.00     0.031 A 
ATOM     43  C   UNL A   1      43.137  30.448  29.417  1.00  0.00     0.074 A 
ATOM     44  C   UNL A   1      42.126  28.222  29.049  1.00  0.00     0.049 A 
ATOM     45  N   UNL A   1      44.314  30.279  28.870  1.00  0.00    -0.248 NA
ATOM     46  C   UNL A   1      42.921  31.796  29.970  1.00  0.00     0.031 C 
ATOM     47  C   UNL A   1      41.083  27.191  29.059  1.00  0.00     0.029 A 
ATOM     48  N   UNL A   1      43.195  27.600  28.453  1.00  0.00    -0.354 N 
ATOM     49  C   UNL A   1      44.968  31.499  28.995  1.00  0.00     0.074 A 
ATOM     50  C   UNL A   1      44.041  32.413  29.624  1.00  0.00     0.031 C 
ATOM     51  C   UNL A   1      41.574  26.062  28.523  1.00  0.00     0.029 A 
ATOM     52  C   UNL A   1      42.949  26.295  28.094  1.00  0.00     0.049 A 
ATOM     53  H   UNL A   1      44.058  28.047  28.296  1.00  0.00     0.167 HD
ATOM     54  C   UNL A   1      46.235  31.826  28.641  1.00  0.00     0.031 A 
ATOM     55  C   UNL A   1      43.738  25.390  27.484  1.00  0.00     0.031 A 
ATOM     56  C   UNL A   1      47.166  30.911  28.036  1.00  0.00     0.049 A 
ATOM     57  C   UNL A   1      45.143  25.776  27.103  1.00  0.00     0.074 A 
ATOM     58  C   UNL A   1      48.483  31.137  27.675  1.00  0.00     0.029 A 
ATOM     59  N   UNL A   1      46.883  29.593  27.715  1.00  0.00    -0.354 N 
ATOM     60  N   UNL A   1      45.754  26.925  27.268  1.00  0.00    -0.248 NA
ATOM     61  C   UNL A   1      45.967  24.739  26.466  1.00  0.00     0.031 C 
ATOM     62  C   UNL A   1      48.988  29.964  27.107  1.00  0.00     0.029 A 
ATOM     63  C   UNL A   1      47.999  28.993  27.157  1.00  0.00     0.049 A 
ATOM     64  H   UNL A   1      46.017  29.149  27.862  1.00  0.00     0.167 HD
ATOM     65  C   UNL A   1      47.045  26.736  26.786  1.00  0.00     0.074 A 
ATOM     66  C   UNL A   1      47.129  25.364  26.335  1.00  0.00     0.031 C 
ATOM     67  C   UNL A   1      48.071  27.621  26.727  1.00  0.00     0.031 A 
BRANCH  54  68
ATOM     68  C   UNL A   1      46.689  33.235  28.913  1.00  0.00    -0.014 A 
ATOM     69  C   UNL A   1      46.382  34.275  28.018  1.00  0.00     0.010 A 
ATOM     70  C   UNL A   1      47.394  33.531  30.093  1.00  0.00     0.010 A 
ATOM     71  C   UNL A   1      46.804  35.581  28.279  1.00  0.00     0.020 A 
ATOM     72  C   UNL A   1      47.794  34.842  30.372  1.00  0.00     0.020 A 
ATOM     73  C   UNL A   1      47.510  35.856  29.454  1.00  0.00     0.054 A 
BRANCH  73  74
ATOM     74  S   UNL A   1      48.019  37.566  29.782  1.00  0.00     0.124 S 
ATOM     75  O   UNL A   1      49.073  37.761  28.789  1.00  0.00    -0.237 OA
ATOM     76  O   UNL A   1      46.789  38.319  29.547  1.00  0.00    -0.237 OA
ATOM     77  O   UNL A   1      48.470  37.532  31.171  1.00  0.00    -0.744 OA
ENDBRANCH  73  74
ENDBRANCH  54  68
BRANCH  55  78
ATOM     78  C   UNL A   1      43.235  24.015  27.212  1.00  0.00    -0.014 A 
ATOM     79  C   UNL A   1      43.270  23.034  28.219  1.00  0.00     0.010 A 
ATOM     80  C   UNL A   1      42.735  23.674  25.942  1.00  0.00     0.010 A 
ATOM     81  C   UNL A   1      42.847  21.728  27.952  1.00  0.00     0.020 A 
ATOM     82  C   UNL A   1      42.286  22.376  25.679  1.00  0.00     0.020 A 
ATOM     83  C   UNL A   1      42.361  21.407  26.682  1.00  0.00     0.054 A 
BRANCH  83  84
ATOM     84  S   UNL A   1      41.791  19.713  26.363  1.00  0.00     0.124 S 
ATOM     85  O   UNL A   1      42.184  19.026  27.588  1.00  0.00    -0.237 OA
ATOM     86  O   UNL A   1      40.353  19.892  26.170  1.00  0.00    -0.237 OA
ATOM     87  O   UNL A   1      42.529  19.327  25.163  1.00  0.00    -0.744 OA
ENDBRANCH  83  84
ENDBRANCH  55  78
BRANCH  67  88
ATOM     88  C   UNL A   1      49.389  27.120  26.204  1.00  0.00    -0.014 A 
ATOM     89  C   UNL A   1      50.220  26.299  26.986  1.00  0.00     0.010 A 
ATOM     90  C   UNL A   1      49.775  27.435  24.889  1.00  0.00     0.010 A 
ATOM     91  C   UNL A   1      51.430  25.827  26.470  1.00  0.00     0.020 A 
ATOM     92  C   UNL A   1      50.971  26.945  24.362  1.00  0.00     0.020 A 
ATOM     93  C   UNL A   1      51.798  26.154  25.162  1.00  0.00     0.054 A 
BRANCH  93  94
ATOM     94  S   UNL A   1      53.353  25.495  24.498  1.00  0.00     0.124 S 
ATOM     95  O   UNL A   1      53.324  24.114  24.971  1.00  0.00    -0.237 OA
ATOM     96  O   UNL A   1      53.189  25.671  23.057  1.00  0.00    -0.237 OA
ATOM     97  O   UNL A   1      54.376  26.341  25.110  1.00  0.00    -0.744 OA
ENDBRANCH  93  94
ENDBRANCH  67  88
ENDBRANCH  41  42
ENDBRANCH  33  36
ENDBRANCH  31  32
ENDBRANCH  30  31
ENDBRANCH  29  30
ENDBRANCH   1  29
TORSDOF 19
ENDMDL
MODEL 2
REMARK VINA RESULT:     -10.9      3.779      5.939
REMARK SMILES O=C(CSc1nnc(-c2ccncc2)s1)Nc1cccc(C(=O)NCCCCNC(=O)c2ccc(-c3c4nc(c(-c5ccc(S(=O)(=O)[O-])cc5)c5ccc([nH]5)c(-c5ccc(S(=O)(=O)[O-])cc5)c5nc(c(-c6ccc(S(=O)(=O)[O-])cc6)c6ccc3[nH]6)C=C5)C=C4)cc2)c1
REMARK SMILES IDX 25 1 24 2 22 3 23 4 21 6 17 7 18 8 92 9 19 10 20 11 16 12
REMARK SMILES IDX 1 13 2 14 3 16 4 17 5 18 6 19 15 20 7 21 8 22 9 23 10 24
REMARK SMILES IDX 14 25 11 26 13 27 12 28 26 29 27 30 28 31 29 32 30 33 31 35
REMARK SMILES IDX 32 36 33 37 91 38 34 39 90 40 35 41 36 42 37 43 84 44 38 45
REMARK SMILES IDX 89 46 83 47 85 48 39 49 88 50 82 51 81 52 40 54 70 55 51 56
REMARK SMILES IDX 69 57 52 58 55 59 68 60 86 61 53 62 54 63 67 65 87 66 56 67
REMARK SMILES IDX 41 68 42 69 50 70 43 71 49 72 44 73 45 74 46 75 47 76 48 77
REMARK SMILES IDX 71 78 72 79 80 80 73 81 79 82 74 83 75 84 76 85 77 86 78 87
REMARK SMILES IDX 57 88 58 89 66 90 59 91 65 92 60 93 61 94 62 95 63 96 64 97
REMARK H PARENT 24 5 16 15 29 34 85 53 55 64
REMARK Flexibility Score: inf
ROOT
ATOM      1  C   UNL A   1      39.546  30.280  33.477  1.00  0.00     0.116 C 
ENDROOT
BRANCH   1   2
ATOM      2  N   UNL A   1      40.104  31.478  34.094  1.00  0.00    -0.352 N 
ATOM      3  C   UNL A   1      40.188  32.770  33.613  1.00  0.00     0.251 C 
ATOM      4  O   UNL A   1      40.719  33.642  34.296  1.00  0.00    -0.269 OA
ATOM      5  H   UNL A   1      40.479  31.344  34.994  1.00  0.00     0.163 HD
BRANCH   3   6
ATOM      6  C   UNL A   1      39.717  33.108  32.245  1.00  0.00     0.041 A 
ATOM      7  C   UNL A   1      37.964  33.947  30.811  1.00  0.00     0.041 A 
ATOM      8  C   UNL A   1      38.597  33.361  29.710  1.00  0.00     0.026 A 
ATOM      9  C   UNL A   1      38.608  33.930  32.044  1.00  0.00     0.040 A 
ATOM     10  C   UNL A   1      39.808  32.679  29.871  1.00  0.00     0.003 A 
ATOM     11  C   UNL A   1      40.350  32.521  31.146  1.00  0.00     0.014 A 
BRANCH   7  12
ATOM     12  N   UNL A   1      36.638  34.407  30.652  1.00  0.00    -0.325 N 
ATOM     13  O   UNL A   1      35.419  32.570  31.406  1.00  0.00    -0.274 OA
ATOM     14  C   UNL A   1      35.473  33.687  30.891  1.00  0.00     0.234 C 
ATOM     15  H   UNL A   1      36.527  35.333  30.338  1.00  0.00     0.169 HD
BRANCH  14  16
ATOM     16  C   UNL A   1      34.205  34.285  30.295  1.00  0.00     0.177 C 
BRANCH  16  17
ATOM     17  S   UNL A   1      34.304  34.640  28.520  1.00  0.00    -0.084 SA
BRANCH  17  18
ATOM     18  C   UNL A   1      33.351  33.323  27.883  1.00  0.00     0.175 A 
ATOM     19  N   UNL A   1      32.147  33.488  27.390  1.00  0.00    -0.131 NA
ATOM     20  S   UNL A   1      33.943  31.724  27.802  1.00  0.00    -0.086 S 
ATOM     21  N   UNL A   1      31.637  32.314  26.875  1.00  0.00    -0.137 NA
ATOM     22  C   UNL A   1      32.463  31.299  27.029  1.00  0.00     0.148 A 
BRANCH  22  23
ATOM     23  C   UNL A   1      32.230  29.940  26.541  1.00  0.00     0.015 A 
ATOM     24  C   UNL A   1      32.697  28.816  27.229  1.00  0.00     0.031 A 
ATOM     25  C   UNL A   1      31.516  29.749  25.355  1.00  0.00     0.031 A 
ATOM     26  C   UNL A   1      32.453  27.563  26.692  1.00  0.00     0.111 A 
ATOM     27  C   UNL A   1      31.328  28.456  24.897  1.00  0.00     0.111 A 
ATOM     28  N   UNL A   1      31.788  27.360  25.537  1.00  0.00    -0.265 NA
ENDBRANCH  22  23
ENDBRANCH  17  18
ENDBRANCH  16  17
ENDBRANCH  14  16
ENDBRANCH   7  12
ENDBRANCH   3   6
ENDBRANCH   1   2
BRANCH   1  29
ATOM     29  C   UNL A   1      38.061  30.062  33.730  1.00  0.00     0.023 C 
BRANCH  29  30
ATOM     30  C   UNL A   1      37.246  29.529  32.559  1.00  0.00     0.023 C 
BRANCH  30  31
ATOM     31  C   UNL A   1      37.323  30.335  31.268  1.00  0.00     0.116 C 
BRANCH  31  32
ATOM     32  N   UNL A   1      36.612  29.730  30.150  1.00  0.00    -0.352 N 
ATOM     33  C   UNL A   1      37.101  29.255  28.952  1.00  0.00     0.251 C 
ATOM     34  H   UNL A   1      35.638  29.649  30.267  1.00  0.00     0.163 HD
ATOM     35  O   UNL A   1      36.326  28.859  28.090  1.00  0.00    -0.269 OA
BRANCH  33  36
ATOM     36  C   UNL A   1      38.560  29.260  28.692  1.00  0.00     0.039 A 
ATOM     37  C   UNL A   1      39.435  29.029  29.758  1.00  0.00     0.014 A 
ATOM     38  C   UNL A   1      39.065  29.472  27.408  1.00  0.00     0.014 A 
ATOM     39  C   UNL A   1      40.808  28.919  29.517  1.00  0.00     0.010 A 
ATOM     40  C   UNL A   1      40.421  29.279  27.156  1.00  0.00     0.010 A 
ATOM     41  C   UNL A   1      41.308  28.997  28.207  1.00  0.00    -0.014 A 
BRANCH  41  42
ATOM     42  C   UNL A   1      42.752  28.794  27.911  1.00  0.00     0.031 A 
ATOM     43  C   UNL A   1      43.727  29.924  28.109  1.00  0.00     0.074 A 
ATOM     44  C   UNL A   1      43.175  27.620  27.400  1.00  0.00     0.049 A 
ATOM     45  N   UNL A   1      45.002  29.972  27.823  1.00  0.00    -0.248 NA
ATOM     46  C   UNL A   1      43.193  31.172  28.679  1.00  0.00     0.031 C 
ATOM     47  C   UNL A   1      42.327  26.456  27.122  1.00  0.00     0.029 A 
ATOM     48  N   UNL A   1      44.429  27.212  27.016  1.00  0.00    -0.354 N 
ATOM     49  C   UNL A   1      45.417  31.256  28.158  1.00  0.00     0.074 A 
ATOM     50  C   UNL A   1      44.249  31.970  28.623  1.00  0.00     0.031 C 
ATOM     51  C   UNL A   1      43.089  25.461  26.640  1.00  0.00     0.029 A 
ATOM     52  C   UNL A   1      44.469  25.923  26.535  1.00  0.00     0.049 A 
ATOM     53  H   UNL A   1      45.224  27.788  27.076  1.00  0.00     0.167 HD
ATOM     54  C   UNL A   1      46.663  31.788  28.108  1.00  0.00     0.031 A 
ATOM     55  C   UNL A   1      45.499  25.197  26.060  1.00  0.00     0.031 A 
ATOM     56  C   UNL A   1      47.830  31.072  27.668  1.00  0.00     0.049 A 
ATOM     57  C   UNL A   1      46.874  25.810  26.017  1.00  0.00     0.074 A 
ATOM     58  C   UNL A   1      49.141  31.513  27.617  1.00  0.00     0.029 A 
ATOM     59  N   UNL A   1      47.830  29.762  27.216  1.00  0.00    -0.354 N 
ATOM     60  N   UNL A   1      47.251  27.013  26.379  1.00  0.00    -0.248 NA
ATOM     61  C   UNL A   1      47.964  24.961  25.516  1.00  0.00     0.031 C 
ATOM     62  C   UNL A   1      49.930  30.479  27.104  1.00  0.00     0.029 A 
ATOM     63  C   UNL A   1      49.117  29.378  26.881  1.00  0.00     0.049 A 
ATOM     64  H   UNL A   1      47.033  29.189  27.145  1.00  0.00     0.167 HD
ATOM     65  C   UNL A   1      48.626  27.053  26.180  1.00  0.00     0.074 A 
ATOM     66  C   UNL A   1      49.016  25.752  25.677  1.00  0.00     0.031 C 
ATOM     67  C   UNL A   1      49.490  28.075  26.397  1.00  0.00     0.031 A 
BRANCH  54  68
ATOM     68  C   UNL A   1      46.825  33.216  28.555  1.00  0.00    -0.014 A 
ATOM     69  C   UNL A   1      46.696  34.275  27.639  1.00  0.00     0.010 A 
ATOM     70  C   UNL A   1      47.066  33.507  29.910  1.00  0.00     0.010 A 
ATOM     71  C   UNL A   1      46.844  35.599  28.061  1.00  0.00     0.020 A 
ATOM     72  C   UNL A   1      47.187  34.831  30.341  1.00  0.00     0.020 A 
ATOM     73  C   UNL A   1      47.091  35.868  29.410  1.00  0.00     0.054 A 
BRANCH  73  74
ATOM     74  S   UNL A   1      47.249  37.597  29.936  1.00  0.00     0.124 S 
ATOM     75  O   UNL A   1      47.321  37.464  31.389  1.00  0.00    -0.237 OA
ATOM     76  O   UNL A   1      48.486  38.021  29.283  1.00  0.00    -0.237 OA
ATOM     77  O   UNL A   1      46.033  38.227  29.427  1.00  0.00    -0.744 OA
ENDBRANCH  73  74
ENDBRANCH  54  68
BRANCH  55  78
ATOM     78  C   UNL A   1      45.285  23.795  25.605  1.00  0.00    -0.014 A 
ATOM     79  C   UNL A   1      45.366  22.731  26.520  1.00  0.00     0.010 A 
ATOM     80  C   UNL A   1      45.017  23.515  24.252  1.00  0.00     0.010 A 
ATOM     81  C   UNL A   1      45.217  21.410  26.088  1.00  0.00     0.020 A 
ATOM     82  C   UNL A   1      44.840  22.197  23.821  1.00  0.00     0.020 A 
ATOM     83  C   UNL A   1      44.959  21.151  24.739  1.00  0.00     0.054 A 
BRANCH  83  84
ATOM     84  S   UNL A   1      44.742  19.431  24.201  1.00  0.00     0.124 S 
ATOM     85  O   UNL A   1      44.383  19.597  22.796  1.00  0.00    -0.237 OA
ATOM     86  O   UNL A   1      46.059  18.850  24.454  1.00  0.00    -0.237 OA
ATOM     87  O   UNL A   1      43.675  18.936  25.067  1.00  0.00    -0.744 OA
ENDBRANCH  83  84
ENDBRANCH  55  78
BRANCH  67  88
ATOM     88  C   UNL A   1      50.950  27.813  26.145  1.00  0.00    -0.014 A 
ATOM     89  C   UNL A   1      51.782  27.291  27.150  1.00  0.00     0.010 A 
ATOM     90  C   UNL A   1      51.482  28.046  24.864  1.00  0.00     0.010 A 
ATOM     91  C   UNL A   1      53.131  27.036  26.886  1.00  0.00     0.020 A 
ATOM     92  C   UNL A   1      52.823  27.769  24.590  1.00  0.00     0.020 A 
ATOM     93  C   UNL A   1      53.642  27.278  25.608  1.00  0.00     0.054 A 
BRANCH  93  94
ATOM     94  S   UNL A   1      55.385  26.898  25.276  1.00  0.00     0.124 S 
ATOM     95  O   UNL A   1      55.673  25.882  26.284  1.00  0.00    -0.237 OA
ATOM     96  O   UNL A   1      55.354  26.421  23.894  1.00  0.00    -0.237 OA
ATOM     97  O   UNL A   1      56.061  28.178  25.470  1.00  0.00    -0.744 OA
ENDBRANCH  93  94
ENDBRANCH  67  88
ENDBRANCH  41  42
ENDBRANCH  33  36
ENDBRANCH  31  32
ENDBRANCH  30  31
ENDBRANCH  29  30
ENDBRANCH   1  29
TORSDOF 19
ENDMDL
MODEL 3
REMARK VINA RESULT:     -10.8      4.613     10.752
REMARK SMILES O=C(CSc1nnc(-c2ccncc2)s1)Nc1cccc(C(=O)NCCCCNC(=O)c2ccc(-c3c4nc(c(-c5ccc(S(=O)(=O)[O-])cc5)c5ccc([nH]5)c(-c5ccc(S(=O)(=O)[O-])cc5)c5nc(c(-c6ccc(S(=O)(=O)[O-])cc6)c6ccc3[nH]6)C=C5)C=C4)cc2)c1
REMARK SMILES IDX 25 1 24 2 22 3 23 4 21 6 17 7 18 8 92 9 19 10 20 11 16 12
REMARK SMILES IDX 1 13 2 14 3 16 4 17 5 18 6 19 15 20 7 21 8 22 9 23 10 24
REMARK SMILES IDX 14 25 11 26 13 27 12 28 26 29 27 30 28 31 29 32 30 33 31 35
REMARK SMILES IDX 32 36 33 37 91 38 34 39 90 40 35 41 36 42 37 43 84 44 38 45
REMARK SMILES IDX 89 46 83 47 85 48 39 49 88 50 82 51 81 52 40 54 70 55 51 56
REMARK SMILES IDX 69 57 52 58 55 59 68 60 86 61 53 62 54 63 67 65 87 66 56 67
REMARK SMILES IDX 41 68 42 69 50 70 43 71 49 72 44 73 45 74 46 75 47 76 48 77
REMARK SMILES IDX 71 78 72 79 80 80 73 81 79 82 74 83 75 84 76 85 77 86 78 87
REMARK SMILES IDX 57 88 58 89 66 90 59 91 65 92 60 93 61 94 62 95 63 96 64 97
REMARK H PARENT 24 5 16 15 29 34 85 53 55 64
REMARK Flexibility Score: inf
ROOT
ATOM      1  C   UNL A   1      33.318  35.013  29.206  1.00  0.00     0.116 C 
ENDROOT
BRANCH   1   2
ATOM      2  N   UNL A   1      33.049  36.191  30.022  1.00  0.00    -0.352 N 
ATOM      3  C   UNL A   1      33.323  36.431  31.355  1.00  0.00     0.251 C 
ATOM      4  O   UNL A   1      32.994  37.500  31.863  1.00  0.00    -0.269 OA
ATOM      5  H   UNL A   1      32.602  36.930  29.550  1.00  0.00     0.163 HD
BRANCH   3   6
ATOM      6  C   UNL A   1      33.941  35.385  32.208  1.00  0.00     0.041 A 
ATOM      7  C   UNL A   1      35.913  34.156  32.872  1.00  0.00     0.041 A 
ATOM      8  C   UNL A   1      35.097  33.170  33.436  1.00  0.00     0.026 A 
ATOM      9  C   UNL A   1      35.323  35.320  32.388  1.00  0.00     0.040 A 
ATOM     10  C   UNL A   1      33.705  33.309  33.418  1.00  0.00     0.003 A 
ATOM     11  C   UNL A   1      33.125  34.400  32.771  1.00  0.00     0.014 A 
BRANCH   7  12
ATOM     12  N   UNL A   1      37.283  33.865  32.692  1.00  0.00    -0.325 N 
ATOM     13  O   UNL A   1      38.242  35.058  34.448  1.00  0.00    -0.274 OA
ATOM     14  C   UNL A   1      38.345  34.372  33.432  1.00  0.00     0.234 C 
ATOM     15  H   UNL A   1      37.510  33.240  31.967  1.00  0.00     0.169 HD
BRANCH  14  16
ATOM     16  C   UNL A   1      39.721  34.190  32.803  1.00  0.00     0.177 C 
BRANCH  16  17
ATOM     17  S   UNL A   1      41.039  33.787  33.981  1.00  0.00    -0.084 SA
BRANCH  17  18
ATOM     18  C   UNL A   1      41.109  32.053  33.791  1.00  0.00     0.175 A 
ATOM     19  N   UNL A   1      40.137  31.355  33.254  1.00  0.00    -0.131 NA
ATOM     20  S   UNL A   1      42.480  31.141  34.240  1.00  0.00    -0.086 S 
ATOM     21  N   UNL A   1      40.466  30.020  33.139  1.00  0.00    -0.137 NA
ATOM     22  C   UNL A   1      41.662  29.755  33.626  1.00  0.00     0.148 A 
BRANCH  22  23
ATOM     23  C   UNL A   1      42.312  28.445  33.600  1.00  0.00     0.015 A 
ATOM     24  C   UNL A   1      43.259  28.106  32.630  1.00  0.00     0.031 A 
ATOM     25  C   UNL A   1      41.987  27.498  34.575  1.00  0.00     0.031 A 
ATOM     26  C   UNL A   1      43.815  26.838  32.661  1.00  0.00     0.111 A 
ATOM     27  C   UNL A   1      42.593  26.255  34.519  1.00  0.00     0.111 A 
ATOM     28  N   UNL A   1      43.495  25.903  33.578  1.00  0.00    -0.265 NA
ENDBRANCH  22  23
ENDBRANCH  17  18
ENDBRANCH  16  17
ENDBRANCH  14  16
ENDBRANCH   7  12
ENDBRANCH   3   6
ENDBRANCH   1   2
BRANCH   1  29
ATOM     29  C   UNL A   1      34.621  35.063  28.420  1.00  0.00     0.023 C 
BRANCH  29  30
ATOM     30  C   UNL A   1      35.623  33.950  28.698  1.00  0.00     0.023 C 
BRANCH  30  31
ATOM     31  C   UNL A   1      35.124  32.803  29.568  1.00  0.00     0.116 C 
BRANCH  31  32
ATOM     32  N   UNL A   1      34.355  31.802  28.842  1.00  0.00    -0.352 N 
ATOM     33  C   UNL A   1      34.771  30.614  28.279  1.00  0.00     0.251 C 
ATOM     34  H   UNL A   1      33.398  32.003  28.737  1.00  0.00     0.163 HD
ATOM     35  O   UNL A   1      33.985  29.941  27.621  1.00  0.00    -0.269 OA
BRANCH  33  36
ATOM     36  C   UNL A   1      36.176  30.172  28.433  1.00  0.00     0.039 A 
ATOM     37  C   UNL A   1      37.040  30.275  27.338  1.00  0.00     0.014 A 
ATOM     38  C   UNL A   1      36.650  29.677  29.650  1.00  0.00     0.014 A 
ATOM     39  C   UNL A   1      38.396  29.970  27.492  1.00  0.00     0.010 A 
ATOM     40  C   UNL A   1      38.014  29.454  29.824  1.00  0.00     0.010 A 
ATOM     41  C   UNL A   1      38.903  29.600  28.747  1.00  0.00    -0.014 A 
BRANCH  41  42
ATOM     42  C   UNL A   1      40.355  29.358  28.960  1.00  0.00     0.031 A 
ATOM     43  C   UNL A   1      40.940  27.999  28.679  1.00  0.00     0.074 A 
ATOM     44  C   UNL A   1      41.133  30.334  29.471  1.00  0.00     0.049 A 
ATOM     45  N   UNL A   1      42.157  27.566  28.886  1.00  0.00    -0.248 NA
ATOM     46  C   UNL A   1      40.031  26.987  28.114  1.00  0.00     0.031 C 
ATOM     47  C   UNL A   1      40.683  31.684  29.825  1.00  0.00     0.029 A 
ATOM     48  N   UNL A   1      42.469  30.339  29.788  1.00  0.00    -0.354 N 
ATOM     49  C   UNL A   1      42.154  26.231  28.498  1.00  0.00     0.074 A 
ATOM     50  C   UNL A   1      40.805  25.912  28.089  1.00  0.00     0.031 C 
ATOM     51  C   UNL A   1      41.730  32.391  30.283  1.00  0.00     0.029 A 
ATOM     52  C   UNL A   1      42.914  31.539  30.294  1.00  0.00     0.049 A 
ATOM     53  H   UNL A   1      43.054  29.557  29.667  1.00  0.00     0.167 HD
ATOM     54  C   UNL A   1      43.187  25.354  28.460  1.00  0.00     0.031 A 
ATOM     55  C   UNL A   1      44.136  31.910  30.722  1.00  0.00     0.031 A 
ATOM     56  C   UNL A   1      44.535  25.676  28.845  1.00  0.00     0.049 A 
ATOM     57  C   UNL A   1      45.268  30.918  30.668  1.00  0.00     0.074 A 
ATOM     58  C   UNL A   1      45.657  24.867  28.807  1.00  0.00     0.029 A 
ATOM     59  N   UNL A   1      44.946  26.910  29.326  1.00  0.00    -0.354 N 
ATOM     60  N   UNL A   1      45.252  29.672  30.258  1.00  0.00    -0.248 NA
ATOM     61  C   UNL A   1      46.584  31.387  31.122  1.00  0.00     0.031 C 
ATOM     62  C   UNL A   1      46.743  25.602  29.295  1.00  0.00     0.029 A 
ATOM     63  C   UNL A   1      46.304  26.883  29.591  1.00  0.00     0.049 A 
ATOM     64  H   UNL A   1      44.359  27.689  29.457  1.00  0.00     0.167 HD
ATOM     65  C   UNL A   1      46.562  29.221  30.372  1.00  0.00     0.074 A 
ATOM     66  C   UNL A   1      47.345  30.328  30.879  1.00  0.00     0.031 C 
ATOM     67  C   UNL A   1      47.072  27.999  30.081  1.00  0.00     0.031 A 
BRANCH  54  68
ATOM     68  C   UNL A   1      42.895  23.960  27.973  1.00  0.00    -0.014 A 
ATOM     69  C   UNL A   1      42.467  22.961  28.865  1.00  0.00     0.010 A 
ATOM     70  C   UNL A   1      43.009  23.654  26.605  1.00  0.00     0.010 A 
ATOM     71  C   UNL A   1      42.194  21.670  28.405  1.00  0.00     0.020 A 
ATOM     72  C   UNL A   1      42.710  22.372  26.136  1.00  0.00     0.020 A 
ATOM     73  C   UNL A   1      42.320  21.383  27.043  1.00  0.00     0.054 A 
BRANCH  73  74
ATOM     74  S   UNL A   1      41.931  19.707  26.469  1.00  0.00     0.124 S 
ATOM     75  O   UNL A   1      42.335  18.895  27.614  1.00  0.00    -0.237 OA
ATOM     76  O   UNL A   1      40.491  19.776  26.227  1.00  0.00    -0.237 OA
ATOM     77  O   UNL A   1      42.753  19.551  25.272  1.00  0.00    -0.744 OA
ENDBRANCH  73  74
ENDBRANCH  54  68
BRANCH  55  78
ATOM     78  C   UNL A   1      44.371  33.293  31.220  1.00  0.00    -0.014 A 
ATOM     79  C   UNL A   1      44.412  34.374  30.323  1.00  0.00     0.010 A 
ATOM     80  C   UNL A   1      44.572  33.535  32.592  1.00  0.00     0.010 A 
ATOM     81  C   UNL A   1      44.683  35.667  30.780  1.00  0.00     0.020 A 
ATOM     82  C   UNL A   1      44.817  34.831  33.057  1.00  0.00     0.020 A 
ATOM     83  C   UNL A   1      44.888  35.887  32.145  1.00  0.00     0.054 A 
BRANCH  83  84
ATOM     84  S   UNL A   1      45.213  37.576  32.724  1.00  0.00     0.124 S 
ATOM     85  O   UNL A   1      46.115  37.343  33.847  1.00  0.00    -0.237 OA
ATOM     86  O   UNL A   1      45.814  38.204  31.549  1.00  0.00    -0.237 OA
ATOM     87  O   UNL A   1      43.886  38.075  33.077  1.00  0.00    -0.744 OA
ENDBRANCH  83  84
ENDBRANCH  55  78
BRANCH  67  88
ATOM     88  C   UNL A   1      48.554  27.808  30.249  1.00  0.00    -0.014 A 
ATOM     89  C   UNL A   1      49.430  27.884  29.153  1.00  0.00     0.010 A 
ATOM     90  C   UNL A   1      49.081  27.602  31.537  1.00  0.00     0.010 A 
ATOM     91  C   UNL A   1      50.806  27.726  29.337  1.00  0.00     0.020 A 
ATOM     92  C   UNL A   1      50.458  27.469  31.729  1.00  0.00     0.020 A 
ATOM     93  C   UNL A   1      51.311  27.518  30.625  1.00  0.00     0.054 A 
BRANCH  93  94
ATOM     94  S   UNL A   1      53.104  27.359  30.847  1.00  0.00     0.124 S 
ATOM     95  O   UNL A   1      53.451  28.640  31.454  1.00  0.00    -0.237 OA
ATOM     96  O   UNL A   1      53.219  26.194  31.723  1.00  0.00    -0.237 OA
ATOM     97  O   UNL A   1      53.604  27.158  29.488  1.00  0.00    -0.744 OA
ENDBRANCH  93  94
ENDBRANCH  67  88
ENDBRANCH  41  42
ENDBRANCH  33  36
ENDBRANCH  31  32
ENDBRANCH  30  31
ENDBRANCH  29  30
ENDBRANCH   1  29
TORSDOF 19
ENDMDL
