MODEL 1
REMARK VINA RESULT:     -12.2      0.000      0.000
REMARK SMILES O=C(NCCCCNC(=O)[C@@H]1[C@@H](C(=O)NCc2cc(F)cc(Br)c2)[C@@H]2C=C[C@H]1C2)c1ccc(-c2c3nc(c(-c4ccc(S(=O)(=O)[O-])cc4)c4ccc([nH]4)c(-c4ccc(S(=O)(=O)[O-])cc4)c4nc(c(-c5ccc(S(=O)(=O)[O-])cc5)c5ccc2[nH]5)C=C4)C=C3)cc1
REMARK SMILES IDX 5 1 4 2 3 3 1 4 2 5 30 7 31 8 89 9 32 10 88 11 33 12 34 13
REMARK SMILES IDX 35 14 82 15 36 16 87 17 81 18 83 19 37 20 86 21 80 22 79 23
REMARK SMILES IDX 38 25 68 26 49 27 67 28 50 29 53 30 66 31 84 32 51 33 52 34
REMARK SMILES IDX 65 36 85 37 54 38 39 39 40 40 48 41 41 42 47 43 42 44 43 45
REMARK SMILES IDX 44 46 45 47 46 48 69 49 70 50 78 51 71 52 77 53 72 54 73 55
REMARK SMILES IDX 74 56 75 57 76 58 55 59 56 60 64 61 57 62 63 63 58 64 59 65
REMARK SMILES IDX 60 66 61 67 62 68 6 69 7 70 8 71 9 72 10 74 11 75 12 76
REMARK SMILES IDX 28 77 25 78 27 79 29 80 26 81 13 82 14 83 15 84 16 86 17 87
REMARK SMILES IDX 18 88 24 89 19 90 22 91 20 92 21 93 23 94
REMARK H PARENT 3 6 83 24 53 35 8 73 15 85
REMARK Flexibility Score: inf
ROOT
ATOM      1  C   UNL A   1      39.375  22.546  26.844  1.00  0.00     0.023 C 
ENDROOT
BRANCH   1   2
ATOM      2  C   UNL A   1      40.696  23.261  27.110  1.00  0.00     0.116 C 
BRANCH   2   3
ATOM      3  N   UNL A   1      41.102  24.144  26.027  1.00  0.00    -0.352 N 
ATOM      4  O   UNL A   1      41.547  26.115  25.020  1.00  0.00    -0.269 OA
ATOM      5  C   UNL A   1      41.306  25.505  26.059  1.00  0.00     0.251 C 
ATOM      6  H   UNL A   1      41.252  23.711  25.156  1.00  0.00     0.163 HD
BRANCH   5   7
ATOM      7  C   UNL A   1      41.190  26.231  27.342  1.00  0.00     0.039 A 
ATOM      8  C   UNL A   1      40.054  26.086  28.142  1.00  0.00     0.014 A 
ATOM      9  C   UNL A   1      42.219  27.094  27.731  1.00  0.00     0.014 A 
ATOM     10  C   UNL A   1      39.878  26.917  29.243  1.00  0.00     0.010 A 
ATOM     11  C   UNL A   1      42.073  27.873  28.883  1.00  0.00     0.010 A 
ATOM     12  C   UNL A   1      40.882  27.825  29.623  1.00  0.00    -0.014 A 
BRANCH  12  13
ATOM     13  C   UNL A   1      40.657  28.699  30.803  1.00  0.00     0.031 A 
ATOM     14  C   UNL A   1      41.559  28.627  32.008  1.00  0.00     0.074 A 
ATOM     15  C   UNL A   1      39.663  29.607  30.761  1.00  0.00     0.049 A 
ATOM     16  N   UNL A   1      41.552  29.372  33.085  1.00  0.00    -0.248 NA
ATOM     17  C   UNL A   1      42.597  27.583  32.010  1.00  0.00     0.031 C 
ATOM     18  C   UNL A   1      38.717  29.770  29.655  1.00  0.00     0.029 A 
ATOM     19  N   UNL A   1      39.303  30.585  31.652  1.00  0.00    -0.354 N 
ATOM     20  C   UNL A   1      42.559  28.872  33.903  1.00  0.00     0.074 A 
ATOM     21  C   UNL A   1      43.147  27.750  33.206  1.00  0.00     0.031 C 
ATOM     22  C   UNL A   1      37.926  30.825  29.904  1.00  0.00     0.029 A 
ATOM     23  C   UNL A   1      38.274  31.381  31.206  1.00  0.00     0.049 A 
ATOM     24  H   UNL A   1      39.738  30.704  32.527  1.00  0.00     0.167 HD
ATOM     25  C   UNL A   1      42.960  29.310  35.121  1.00  0.00     0.031 A 
ATOM     26  C   UNL A   1      37.678  32.444  31.777  1.00  0.00     0.031 A 
ATOM     27  C   UNL A   1      42.387  30.439  35.808  1.00  0.00     0.049 A 
ATOM     28  C   UNL A   1      38.151  32.918  33.120  1.00  0.00     0.074 A 
ATOM     29  C   UNL A   1      42.752  30.981  37.028  1.00  0.00     0.029 A 
ATOM     30  N   UNL A   1      41.330  31.201  35.334  1.00  0.00    -0.354 N 
ATOM     31  N   UNL A   1      39.125  32.448  33.862  1.00  0.00    -0.248 NA
ATOM     32  C   UNL A   1      37.444  34.067  33.700  1.00  0.00     0.031 C 
ATOM     33  C   UNL A   1      41.890  32.048  37.310  1.00  0.00     0.029 A 
ATOM     34  C   UNL A   1      41.017  32.197  36.245  1.00  0.00     0.049 A 
ATOM     35  H   UNL A   1      40.868  31.055  34.477  1.00  0.00     0.167 HD
ATOM     36  C   UNL A   1      39.158  33.256  34.991  1.00  0.00     0.074 A 
ATOM     37  C   UNL A   1      38.120  34.253  34.826  1.00  0.00     0.031 C 
ATOM     38  C   UNL A   1      39.976  33.177  36.070  1.00  0.00     0.031 A 
BRANCH  25  39
ATOM     39  C   UNL A   1      44.061  28.546  35.809  1.00  0.00    -0.014 A 
ATOM     40  C   UNL A   1      43.778  27.460  36.656  1.00  0.00     0.010 A 
ATOM     41  C   UNL A   1      45.403  28.898  35.573  1.00  0.00     0.010 A 
ATOM     42  C   UNL A   1      44.815  26.765  37.285  1.00  0.00     0.020 A 
ATOM     43  C   UNL A   1      46.443  28.191  36.182  1.00  0.00     0.020 A 
ATOM     44  C   UNL A   1      46.142  27.140  37.049  1.00  0.00     0.054 A 
BRANCH  44  45
ATOM     45  S   UNL A   1      47.471  26.216  37.867  1.00  0.00     0.124 S 
ATOM     46  O   UNL A   1      47.988  25.400  36.771  1.00  0.00    -0.237 OA
ATOM     47  O   UNL A   1      48.362  27.275  38.335  1.00  0.00    -0.237 OA
ATOM     48  O   UNL A   1      46.781  25.477  38.922  1.00  0.00    -0.744 OA
ENDBRANCH  44  45
ENDBRANCH  25  39
BRANCH  26  49
ATOM     49  C   UNL A   1      36.576  33.138  31.062  1.00  0.00    -0.014 A 
ATOM     50  C   UNL A   1      35.260  33.083  31.554  1.00  0.00     0.010 A 
ATOM     51  C   UNL A   1      36.845  33.891  29.904  1.00  0.00     0.010 A 
ATOM     52  C   UNL A   1      34.231  33.762  30.895  1.00  0.00     0.020 A 
ATOM     53  C   UNL A   1      35.824  34.591  29.258  1.00  0.00     0.020 A 
ATOM     54  C   UNL A   1      34.520  34.514  29.753  1.00  0.00     0.054 A 
BRANCH  54  55
ATOM     55  S   UNL A   1      33.186  35.446  28.952  1.00  0.00     0.124 S 
ATOM     56  O   UNL A   1      33.930  36.442  28.189  1.00  0.00    -0.237 OA
ATOM     57  O   UNL A   1      32.507  34.421  28.164  1.00  0.00    -0.237 OA
ATOM     58  O   UNL A   1      32.413  35.967  30.079  1.00  0.00    -0.744 OA
ENDBRANCH  54  55
ENDBRANCH  26  49
BRANCH  38  59
ATOM     59  C   UNL A   1      39.793  34.215  37.142  1.00  0.00    -0.014 A 
ATOM     60  C   UNL A   1      40.355  35.497  37.014  1.00  0.00     0.010 A 
ATOM     61  C   UNL A   1      39.030  33.907  38.283  1.00  0.00     0.010 A 
ATOM     62  C   UNL A   1      40.190  36.443  38.029  1.00  0.00     0.020 A 
ATOM     63  C   UNL A   1      38.846  34.858  39.289  1.00  0.00     0.020 A 
ATOM     64  C   UNL A   1      39.443  36.114  39.164  1.00  0.00     0.054 A 
BRANCH  64  65
ATOM     65  S   UNL A   1      39.222  37.362  40.462  1.00  0.00     0.124 S 
ATOM     66  O   UNL A   1      38.272  38.281  39.841  1.00  0.00    -0.237 OA
ATOM     67  O   UNL A   1      38.701  36.579  41.580  1.00  0.00    -0.237 OA
ATOM     68  O   UNL A   1      40.568  37.896  40.658  1.00  0.00    -0.744 OA
ENDBRANCH  64  65
ENDBRANCH  38  59
ENDBRANCH  12  13
ENDBRANCH   5   7
ENDBRANCH   2   3
ENDBRANCH   1   2
BRANCH   1  69
ATOM     69  C   UNL A   1      38.475  23.199  25.792  1.00  0.00     0.023 C 
BRANCH  69  70
ATOM     70  C   UNL A   1      37.418  22.271  25.195  1.00  0.00     0.116 C 
BRANCH  70  71
ATOM     71  N   UNL A   1      36.456  21.849  26.195  1.00  0.00    -0.356 N 
ATOM     72  C   UNL A   1      35.093  21.858  26.128  1.00  0.00     0.224 C 
ATOM     73  H   UNL A   1      36.839  21.511  27.037  1.00  0.00     0.163 HD
ATOM     74  O   UNL A   1      34.454  21.632  27.155  1.00  0.00    -0.275 OA
BRANCH  72  75
ATOM     75  C   UNL A   1      34.435  22.123  24.785  1.00  0.00     0.098 C 
ATOM     76  C   UNL A   1      33.409  23.308  24.810  1.00  0.00     0.098 C 
ATOM     77  C   UNL A   1      33.554  20.927  24.327  1.00  0.00     0.025 C 
ATOM     78  C   UNL A   1      32.115  22.638  24.273  1.00  0.00     0.025 C 
ATOM     79  C   UNL A   1      32.482  20.648  25.360  1.00  0.00    -0.027 C 
ATOM     80  C   UNL A   1      32.673  21.609  23.279  1.00  0.00     0.017 C 
ATOM     81  C   UNL A   1      31.622  21.676  25.330  1.00  0.00    -0.027 C 
BRANCH  76  82
ATOM     82  C   UNL A   1      33.805  24.444  23.880  1.00  0.00     0.224 C 
ATOM     83  O   UNL A   1      34.664  24.323  23.007  1.00  0.00    -0.275 OA
ATOM     84  N   UNL A   1      33.146  25.633  23.961  1.00  0.00    -0.352 N 
ATOM     85  H   UNL A   1      33.348  26.274  23.240  1.00  0.00     0.163 HD
BRANCH  84  86
ATOM     86  C   UNL A   1      32.195  26.093  24.948  1.00  0.00     0.151 C 
BRANCH  86  87
ATOM     87  C   UNL A   1      32.417  27.525  25.379  1.00  0.00    -0.025 A 
ATOM     88  C   UNL A   1      31.516  28.564  25.097  1.00  0.00     0.044 A 
ATOM     89  C   UNL A   1      33.582  27.838  26.103  1.00  0.00     0.021 A 
ATOM     90  C   UNL A   1      31.772  29.859  25.545  1.00  0.00     0.124 A 
ATOM     91  C   UNL A   1      33.824  29.144  26.539  1.00  0.00     0.021 A 
ATOM     92  F   UNL A   1      30.886  30.828  25.282  1.00  0.00    -0.207 F 
ATOM     93  C   UNL A   1      32.918  30.162  26.265  1.00  0.00     0.055 A 
ATOM     94  Br  UNL A   1      35.394  29.527  27.519  1.00  0.00    -0.051 Br
ENDBRANCH  86  87
ENDBRANCH  84  86
ENDBRANCH  76  82
ENDBRANCH  72  75
ENDBRANCH  70  71
ENDBRANCH  69  70
ENDBRANCH   1  69
TORSDOF 17
ENDMDL
MODEL 2
REMARK VINA RESULT:     -12.2      2.741      9.131
REMARK SMILES O=C(NCCCCNC(=O)[C@@H]1[C@@H](C(=O)NCc2cc(F)cc(Br)c2)[C@@H]2C=C[C@H]1C2)c1ccc(-c2c3nc(c(-c4ccc(S(=O)(=O)[O-])cc4)c4ccc([nH]4)c(-c4ccc(S(=O)(=O)[O-])cc4)c4nc(c(-c5ccc(S(=O)(=O)[O-])cc5)c5ccc2[nH]5)C=C4)C=C3)cc1
REMARK SMILES IDX 5 1 4 2 3 3 1 4 2 5 30 7 31 8 89 9 32 10 88 11 33 12 34 13
REMARK SMILES IDX 35 14 82 15 36 16 87 17 81 18 83 19 37 20 86 21 80 22 79 23
REMARK SMILES IDX 38 25 68 26 49 27 67 28 50 29 53 30 66 31 84 32 51 33 52 34
REMARK SMILES IDX 65 36 85 37 54 38 39 39 40 40 48 41 41 42 47 43 42 44 43 45
REMARK SMILES IDX 44 46 45 47 46 48 69 49 70 50 78 51 71 52 77 53 72 54 73 55
REMARK SMILES IDX 74 56 75 57 76 58 55 59 56 60 64 61 57 62 63 63 58 64 59 65
REMARK SMILES IDX 60 66 61 67 62 68 6 69 7 70 8 71 9 72 10 74 11 75 12 76
REMARK SMILES IDX 28 77 25 78 27 79 29 80 26 81 13 82 14 83 15 84 16 86 17 87
REMARK SMILES IDX 18 88 24 89 19 90 22 91 20 92 21 93 23 94
REMARK H PARENT 3 6 83 24 53 35 8 73 15 85
REMARK Flexibility Score: inf
ROOT
ATOM      1  C   UNL A   1      31.649  32.237  27.082  1.00  0.00     0.023 C 
ENDROOT
BRANCH   1   2
ATOM      2  C   UNL A   1      32.904  33.089  27.243  1.00  0.00     0.116 C 
BRANCH   2   3
ATOM      3  N   UNL A   1      32.662  34.349  27.931  1.00  0.00    -0.352 N 
ATOM      4  O   UNL A   1      32.927  35.916  29.534  1.00  0.00    -0.269 OA
ATOM      5  C   UNL A   1      33.332  34.883  29.008  1.00  0.00     0.251 C 
ATOM      6  H   UNL A   1      31.920  34.892  27.579  1.00  0.00     0.163 HD
BRANCH   5   7
ATOM      7  C   UNL A   1      34.515  34.182  29.553  1.00  0.00     0.039 A 
ATOM      8  C   UNL A   1      34.370  33.197  30.533  1.00  0.00     0.014 A 
ATOM      9  C   UNL A   1      35.787  34.540  29.099  1.00  0.00     0.014 A 
ATOM     10  C   UNL A   1      35.498  32.688  31.167  1.00  0.00     0.010 A 
ATOM     11  C   UNL A   1      36.920  33.968  29.685  1.00  0.00     0.010 A 
ATOM     12  C   UNL A   1      36.786  33.072  30.756  1.00  0.00    -0.014 A 
BRANCH  12  13
ATOM     13  C   UNL A   1      37.968  32.509  31.460  1.00  0.00     0.031 A 
ATOM     14  C   UNL A   1      38.358  32.991  32.833  1.00  0.00     0.074 A 
ATOM     15  C   UNL A   1      38.660  31.513  30.875  1.00  0.00     0.049 A 
ATOM     16  N   UNL A   1      39.310  32.551  33.618  1.00  0.00    -0.248 NA
ATOM     17  C   UNL A   1      37.589  34.113  33.396  1.00  0.00     0.031 C 
ATOM     18  C   UNL A   1      38.387  30.964  29.545  1.00  0.00     0.029 A 
ATOM     19  N   UNL A   1      39.711  30.762  31.334  1.00  0.00    -0.354 N 
ATOM     20  C   UNL A   1      39.273  33.357  34.752  1.00  0.00     0.074 A 
ATOM     21  C   UNL A   1      38.217  34.323  34.546  1.00  0.00     0.031 C 
ATOM     22  C   UNL A   1      39.205  29.924  29.321  1.00  0.00     0.029 A 
ATOM     23  C   UNL A   1      40.092  29.765  30.467  1.00  0.00     0.049 A 
ATOM     24  H   UNL A   1      40.151  30.921  32.200  1.00  0.00     0.167 HD
ATOM     25  C   UNL A   1      40.047  33.294  35.863  1.00  0.00     0.031 A 
ATOM     26  C   UNL A   1      41.046  28.822  30.580  1.00  0.00     0.031 A 
ATOM     27  C   UNL A   1      41.087  32.321  36.075  1.00  0.00     0.049 A 
ATOM     28  C   UNL A   1      41.879  28.766  31.827  1.00  0.00     0.074 A 
ATOM     29  C   UNL A   1      41.899  32.156  37.185  1.00  0.00     0.029 A 
ATOM     30  N   UNL A   1      41.459  31.347  35.161  1.00  0.00    -0.354 N 
ATOM     31  N   UNL A   1      41.808  29.519  32.898  1.00  0.00    -0.248 NA
ATOM     32  C   UNL A   1      42.919  27.730  31.879  1.00  0.00     0.031 C 
ATOM     33  C   UNL A   1      42.787  31.105  36.926  1.00  0.00     0.029 A 
ATOM     34  C   UNL A   1      42.499  30.589  35.673  1.00  0.00     0.049 A 
ATOM     35  H   UNL A   1      41.045  31.214  34.277  1.00  0.00     0.167 HD
ATOM     36  C   UNL A   1      42.785  29.038  33.760  1.00  0.00     0.074 A 
ATOM     37  C   UNL A   1      43.419  27.918  33.093  1.00  0.00     0.031 C 
ATOM     38  C   UNL A   1      43.125  29.483  34.994  1.00  0.00     0.031 A 
BRANCH  25  39
ATOM     39  C   UNL A   1      39.816  34.331  36.931  1.00  0.00    -0.014 A 
ATOM     40  C   UNL A   1      39.038  34.049  38.067  1.00  0.00     0.010 A 
ATOM     41  C   UNL A   1      40.420  35.597  36.811  1.00  0.00     0.010 A 
ATOM     42  C   UNL A   1      38.836  35.026  39.047  1.00  0.00     0.020 A 
ATOM     43  C   UNL A   1      40.238  36.569  37.799  1.00  0.00     0.020 A 
ATOM     44  C   UNL A   1      39.432  36.283  38.902  1.00  0.00     0.054 A 
BRANCH  44  45
ATOM     45  S   UNL A   1      39.165  37.532  40.190  1.00  0.00     0.124 S 
ATOM     46  O   UNL A   1      40.501  38.108  40.332  1.00  0.00    -0.237 OA
ATOM     47  O   UNL A   1      38.165  38.410  39.589  1.00  0.00    -0.237 OA
ATOM     48  O   UNL A   1      38.698  36.754  41.335  1.00  0.00    -0.744 OA
ENDBRANCH  44  45
ENDBRANCH  25  39
BRANCH  26  49
ATOM     49  C   UNL A   1      41.247  27.846  29.478  1.00  0.00    -0.014 A 
ATOM     50  C   UNL A   1      42.306  28.005  28.567  1.00  0.00     0.010 A 
ATOM     51  C   UNL A   1      40.399  26.729  29.357  1.00  0.00     0.010 A 
ATOM     52  C   UNL A   1      42.510  27.069  27.550  1.00  0.00     0.020 A 
ATOM     53  C   UNL A   1      40.615  25.778  28.357  1.00  0.00     0.020 A 
ATOM     54  C   UNL A   1      41.664  25.960  27.453  1.00  0.00     0.054 A 
BRANCH  54  55
ATOM     55  S   UNL A   1      41.987  24.718  26.171  1.00  0.00     0.124 S 
ATOM     56  O   UNL A   1      41.918  25.517  24.952  1.00  0.00    -0.237 OA
ATOM     57  O   UNL A   1      43.313  24.223  26.531  1.00  0.00    -0.237 OA
ATOM     58  O   UNL A   1      40.902  23.754  26.352  1.00  0.00    -0.744 OA
ENDBRANCH  54  55
ENDBRANCH  26  49
BRANCH  38  59
ATOM     59  C   UNL A   1      44.220  28.741  35.710  1.00  0.00    -0.014 A 
ATOM     60  C   UNL A   1      43.922  27.735  36.645  1.00  0.00     0.010 A 
ATOM     61  C   UNL A   1      45.564  29.043  35.425  1.00  0.00     0.010 A 
ATOM     62  C   UNL A   1      44.952  27.068  37.314  1.00  0.00     0.020 A 
ATOM     63  C   UNL A   1      46.595  28.363  36.077  1.00  0.00     0.020 A 
ATOM     64  C   UNL A   1      46.282  27.392  37.031  1.00  0.00     0.054 A 
BRANCH  64  65
ATOM     65  S   UNL A   1      47.606  26.502  37.895  1.00  0.00     0.124 S 
ATOM     66  O   UNL A   1      47.376  25.126  37.465  1.00  0.00    -0.237 OA
ATOM     67  O   UNL A   1      48.816  27.130  37.370  1.00  0.00    -0.237 OA
ATOM     68  O   UNL A   1      47.336  26.768  39.305  1.00  0.00    -0.744 OA
ENDBRANCH  64  65
ENDBRANCH  38  59
ENDBRANCH  12  13
ENDBRANCH   5   7
ENDBRANCH   2   3
ENDBRANCH   1   2
BRANCH   1  69
ATOM     69  C   UNL A   1      31.893  30.743  26.860  1.00  0.00     0.023 C 
BRANCH  69  70
ATOM     70  C   UNL A   1      31.469  30.225  25.487  1.00  0.00     0.116 C 
BRANCH  70  71
ATOM     71  N   UNL A   1      32.584  29.627  24.778  1.00  0.00    -0.356 N 
ATOM     72  C   UNL A   1      32.842  28.307  24.547  1.00  0.00     0.224 C 
ATOM     73  H   UNL A   1      33.245  30.260  24.415  1.00  0.00     0.163 HD
ATOM     74  O   UNL A   1      33.939  27.995  24.084  1.00  0.00    -0.275 OA
BRANCH  72  75
ATOM     75  C   UNL A   1      31.752  27.293  24.849  1.00  0.00     0.098 C 
ATOM     76  C   UNL A   1      32.208  25.805  24.660  1.00  0.00     0.098 C 
ATOM     77  C   UNL A   1      30.564  27.407  23.854  1.00  0.00     0.025 C 
ATOM     78  C   UNL A   1      31.156  25.260  23.656  1.00  0.00     0.025 C 
ATOM     79  C   UNL A   1      31.054  27.203  22.435  1.00  0.00    -0.027 C 
ATOM     80  C   UNL A   1      29.896  26.045  24.050  1.00  0.00     0.017 C 
ATOM     81  C   UNL A   1      31.413  25.916  22.319  1.00  0.00    -0.027 C 
BRANCH  76  82
ATOM     82  C   UNL A   1      32.129  25.002  25.949  1.00  0.00     0.224 C 
ATOM     83  O   UNL A   1      31.460  25.358  26.918  1.00  0.00    -0.275 OA
ATOM     84  N   UNL A   1      32.770  23.802  26.028  1.00  0.00    -0.352 N 
ATOM     85  H   UNL A   1      32.562  23.268  26.830  1.00  0.00     0.163 HD
BRANCH  84  86
ATOM     86  C   UNL A   1      33.710  23.198  25.109  1.00  0.00     0.151 C 
BRANCH  86  87
ATOM     87  C   UNL A   1      33.170  21.968  24.416  1.00  0.00    -0.025 A 
ATOM     88  C   UNL A   1      32.684  21.976  23.100  1.00  0.00     0.044 A 
ATOM     89  C   UNL A   1      33.156  20.750  25.120  1.00  0.00     0.021 A 
ATOM     90  C   UNL A   1      32.222  20.799  22.512  1.00  0.00     0.124 A 
ATOM     91  C   UNL A   1      32.683  19.581  24.516  1.00  0.00     0.021 A 
ATOM     92  F   UNL A   1      31.783  20.828  21.247  1.00  0.00    -0.207 F 
ATOM     93  C   UNL A   1      32.216  19.598  23.207  1.00  0.00     0.055 A 
ATOM     94  Br  UNL A   1      32.689  17.959  25.487  1.00  0.00    -0.051 Br
ENDBRANCH  86  87
ENDBRANCH  84  86
ENDBRANCH  76  82
ENDBRANCH  72  75
ENDBRANCH  70  71
ENDBRANCH  69  70
ENDBRANCH   1  69
TORSDOF 17
ENDMDL
MODEL 3
REMARK VINA RESULT:     -12.1      6.665     12.205
REMARK SMILES O=C(NCCCCNC(=O)[C@@H]1[C@@H](C(=O)NCc2cc(F)cc(Br)c2)[C@@H]2C=C[C@H]1C2)c1ccc(-c2c3nc(c(-c4ccc(S(=O)(=O)[O-])cc4)c4ccc([nH]4)c(-c4ccc(S(=O)(=O)[O-])cc4)c4nc(c(-c5ccc(S(=O)(=O)[O-])cc5)c5ccc2[nH]5)C=C4)C=C3)cc1
REMARK SMILES IDX 5 1 4 2 3 3 1 4 2 5 30 7 31 8 89 9 32 10 88 11 33 12 34 13
REMARK SMILES IDX 35 14 82 15 36 16 87 17 81 18 83 19 37 20 86 21 80 22 79 23
REMARK SMILES IDX 38 25 68 26 49 27 67 28 50 29 53 30 66 31 84 32 51 33 52 34
REMARK SMILES IDX 65 36 85 37 54 38 39 39 40 40 48 41 41 42 47 43 42 44 43 45
REMARK SMILES IDX 44 46 45 47 46 48 69 49 70 50 78 51 71 52 77 53 72 54 73 55
REMARK SMILES IDX 74 56 75 57 76 58 55 59 56 60 64 61 57 62 63 63 58 64 59 65
REMARK SMILES IDX 60 66 61 67 62 68 6 69 7 70 8 71 9 72 10 74 11 75 12 76
REMARK SMILES IDX 28 77 25 78 27 79 29 80 26 81 13 82 14 83 15 84 16 86 17 87
REMARK SMILES IDX 18 88 24 89 19 90 22 91 20 92 21 93 23 94
REMARK H PARENT 3 6 83 24 53 35 8 73 15 85
REMARK Flexibility Score: inf
ROOT
ATOM      1  C   UNL A   1      34.506  29.777  27.346  1.00  0.00     0.023 C 
ENDROOT
BRANCH   1   2
ATOM      2  C   UNL A   1      35.620  30.552  28.042  1.00  0.00     0.116 C 
BRANCH   2   3
ATOM      3  N   UNL A   1      35.580  30.442  29.492  1.00  0.00    -0.352 N 
ATOM      4  O   UNL A   1      36.283  29.803  31.540  1.00  0.00    -0.269 OA
ATOM      5  C   UNL A   1      36.525  29.912  30.341  1.00  0.00     0.251 C 
ATOM      6  H   UNL A   1      34.769  30.795  29.924  1.00  0.00     0.163 HD
BRANCH   5   7
ATOM      7  C   UNL A   1      37.814  29.437  29.793  1.00  0.00     0.039 A 
ATOM      8  C   UNL A   1      38.766  28.842  30.625  1.00  0.00     0.014 A 
ATOM      9  C   UNL A   1      38.085  29.621  28.434  1.00  0.00     0.014 A 
ATOM     10  C   UNL A   1      40.039  28.578  30.134  1.00  0.00     0.010 A 
ATOM     11  C   UNL A   1      39.342  29.282  27.925  1.00  0.00     0.010 A 
ATOM     12  C   UNL A   1      40.345  28.801  28.780  1.00  0.00    -0.014 A 
BRANCH  12  13
ATOM     13  C   UNL A   1      41.718  28.510  28.291  1.00  0.00     0.031 A 
ATOM     14  C   UNL A   1      42.786  29.574  28.292  1.00  0.00     0.074 A 
ATOM     15  C   UNL A   1      42.018  27.258  27.897  1.00  0.00     0.049 A 
ATOM     16  N   UNL A   1      44.052  29.467  27.975  1.00  0.00    -0.248 NA
ATOM     17  C   UNL A   1      42.382  30.932  28.690  1.00  0.00     0.031 C 
ATOM     18  C   UNL A   1      41.070  26.142  27.843  1.00  0.00     0.029 A 
ATOM     19  N   UNL A   1      43.207  26.702  27.501  1.00  0.00    -0.354 N 
ATOM     20  C   UNL A   1      44.590  30.742  28.109  1.00  0.00     0.074 A 
ATOM     21  C   UNL A   1      43.508  31.612  28.519  1.00  0.00     0.031 C 
ATOM     22  C   UNL A   1      41.726  25.023  27.499  1.00  0.00     0.029 A 
ATOM     23  C   UNL A   1      43.127  25.351  27.259  1.00  0.00     0.049 A 
ATOM     24  H   UNL A   1      44.037  27.221  27.398  1.00  0.00     0.167 HD
ATOM     25  C   UNL A   1      45.866  31.151  27.911  1.00  0.00     0.031 A 
ATOM     26  C   UNL A   1      44.074  24.469  26.890  1.00  0.00     0.031 A 
ATOM     27  C   UNL A   1      46.946  30.282  27.521  1.00  0.00     0.049 A 
ATOM     28  C   UNL A   1      45.483  24.944  26.693  1.00  0.00     0.074 A 
ATOM     29  C   UNL A   1      48.281  30.598  27.333  1.00  0.00     0.029 A 
ATOM     30  N   UNL A   1      46.818  28.927  27.260  1.00  0.00    -0.354 N 
ATOM     31  N   UNL A   1      45.974  26.150  26.853  1.00  0.00    -0.248 NA
ATOM     32  C   UNL A   1      46.465  23.939  26.267  1.00  0.00     0.031 C 
ATOM     33  C   UNL A   1      48.953  29.440  26.922  1.00  0.00     0.029 A 
ATOM     34  C   UNL A   1      48.044  28.395  26.896  1.00  0.00     0.049 A 
ATOM     35  H   UNL A   1      45.977  28.416  27.323  1.00  0.00     0.167 HD
ATOM     36  C   UNL A   1      47.329  26.045  26.562  1.00  0.00     0.074 A 
ATOM     37  C   UNL A   1      47.581  24.656  26.235  1.00  0.00     0.031 C 
ATOM     38  C   UNL A   1      48.278  27.013  26.565  1.00  0.00     0.031 A 
BRANCH  25  39
ATOM     39  C   UNL A   1      46.164  32.617  28.088  1.00  0.00    -0.014 A 
ATOM     40  C   UNL A   1      46.573  33.136  29.329  1.00  0.00     0.010 A 
ATOM     41  C   UNL A   1      46.067  33.483  26.983  1.00  0.00     0.010 A 
ATOM     42  C   UNL A   1      46.843  34.500  29.471  1.00  0.00     0.020 A 
ATOM     43  C   UNL A   1      46.357  34.844  27.116  1.00  0.00     0.020 A 
ATOM     44  C   UNL A   1      46.726  35.347  28.364  1.00  0.00     0.054 A 
BRANCH  44  45
ATOM     45  S   UNL A   1      47.092  37.112  28.569  1.00  0.00     0.124 S 
ATOM     46  O   UNL A   1      45.941  37.570  29.343  1.00  0.00    -0.237 OA
ATOM     47  O   UNL A   1      48.365  37.098  29.286  1.00  0.00    -0.237 OA
ATOM     48  O   UNL A   1      47.161  37.612  27.198  1.00  0.00    -0.744 OA
ENDBRANCH  44  45
ENDBRANCH  25  39
BRANCH  26  49
ATOM     49  C   UNL A   1      43.712  23.040  26.702  1.00  0.00    -0.014 A 
ATOM     50  C   UNL A   1      43.107  22.314  27.743  1.00  0.00     0.010 A 
ATOM     51  C   UNL A   1      43.937  22.408  25.465  1.00  0.00     0.010 A 
ATOM     52  C   UNL A   1      42.741  20.979  27.553  1.00  0.00     0.020 A 
ATOM     53  C   UNL A   1      43.549  21.082  25.264  1.00  0.00     0.020 A 
ATOM     54  C   UNL A   1      42.962  20.372  26.314  1.00  0.00     0.054 A 
BRANCH  54  55
ATOM     55  S   UNL A   1      42.415  18.661  26.062  1.00  0.00     0.124 S 
ATOM     56  O   UNL A   1      43.322  18.206  25.014  1.00  0.00    -0.237 OA
ATOM     57  O   UNL A   1      42.618  18.063  27.379  1.00  0.00    -0.237 OA
ATOM     58  O   UNL A   1      41.016  18.807  25.663  1.00  0.00    -0.744 OA
ENDBRANCH  54  55
ENDBRANCH  26  49
BRANCH  38  59
ATOM     59  C   UNL A   1      49.681  26.593  26.227  1.00  0.00    -0.014 A 
ATOM     60  C   UNL A   1      50.204  26.784  24.936  1.00  0.00     0.010 A 
ATOM     61  C   UNL A   1      50.494  26.019  27.221  1.00  0.00     0.010 A 
ATOM     62  C   UNL A   1      51.504  26.372  24.633  1.00  0.00     0.020 A 
ATOM     63  C   UNL A   1      51.801  25.625  26.927  1.00  0.00     0.020 A 
ATOM     64  C   UNL A   1      52.292  25.788  25.630  1.00  0.00     0.054 A 
BRANCH  64  65
ATOM     65  S   UNL A   1      53.984  25.277  25.224  1.00  0.00     0.124 S 
ATOM     66  O   UNL A   1      54.703  25.607  26.452  1.00  0.00    -0.237 OA
ATOM     67  O   UNL A   1      53.835  23.850  24.949  1.00  0.00    -0.237 OA
ATOM     68  O   UNL A   1      54.322  26.096  24.063  1.00  0.00    -0.744 OA
ENDBRANCH  64  65
ENDBRANCH  38  59
ENDBRANCH  12  13
ENDBRANCH   5   7
ENDBRANCH   2   3
ENDBRANCH   1   2
BRANCH   1  69
ATOM     69  C   UNL A   1      33.164  30.507  27.241  1.00  0.00     0.023 C 
BRANCH  69  70
ATOM     70  C   UNL A   1      32.342  30.154  26.002  1.00  0.00     0.116 C 
BRANCH  70  71
ATOM     71  N   UNL A   1      33.169  29.564  24.967  1.00  0.00    -0.356 N 
ATOM     72  C   UNL A   1      33.120  28.303  24.449  1.00  0.00     0.224 C 
ATOM     73  H   UNL A   1      33.860  30.154  24.588  1.00  0.00     0.163 HD
ATOM     74  O   UNL A   1      34.031  27.938  23.706  1.00  0.00    -0.275 OA
BRANCH  72  75
ATOM     75  C   UNL A   1      31.931  27.423  24.796  1.00  0.00     0.098 C 
ATOM     76  C   UNL A   1      32.217  25.890  24.638  1.00  0.00     0.098 C 
ATOM     77  C   UNL A   1      30.744  27.644  23.818  1.00  0.00     0.025 C 
ATOM     78  C   UNL A   1      31.093  25.440  23.667  1.00  0.00     0.025 C 
ATOM     79  C   UNL A   1      31.181  27.352  22.397  1.00  0.00    -0.027 C 
ATOM     80  C   UNL A   1      29.934  26.369  24.061  1.00  0.00     0.017 C 
ATOM     81  C   UNL A   1      31.394  26.031  22.309  1.00  0.00    -0.027 C 
BRANCH  76  82
ATOM     82  C   UNL A   1      32.076  25.131  25.949  1.00  0.00     0.224 C 
ATOM     83  O   UNL A   1      31.360  25.521  26.872  1.00  0.00    -0.275 OA
ATOM     84  N   UNL A   1      32.711  23.936  26.101  1.00  0.00    -0.352 N 
ATOM     85  H   UNL A   1      32.465  23.430  26.910  1.00  0.00     0.163 HD
BRANCH  84  86
ATOM     86  C   UNL A   1      33.694  23.302  25.250  1.00  0.00     0.151 C 
BRANCH  86  87
ATOM     87  C   UNL A   1      33.177  22.069  24.545  1.00  0.00    -0.025 A 
ATOM     88  C   UNL A   1      32.701  22.079  23.225  1.00  0.00     0.044 A 
ATOM     89  C   UNL A   1      33.173  20.846  25.241  1.00  0.00     0.021 A 
ATOM     90  C   UNL A   1      32.259  20.900  22.627  1.00  0.00     0.124 A 
ATOM     91  C   UNL A   1      32.721  19.675  24.626  1.00  0.00     0.021 A 
ATOM     92  F   UNL A   1      31.829  20.931  21.358  1.00  0.00    -0.207 F 
ATOM     93  C   UNL A   1      32.264  19.694  23.314  1.00  0.00     0.055 A 
ATOM     94  Br  UNL A   1      32.741  18.047  25.587  1.00  0.00    -0.051 Br
ENDBRANCH  86  87
ENDBRANCH  84  86
ENDBRANCH  76  82
ENDBRANCH  72  75
ENDBRANCH  70  71
ENDBRANCH  69  70
ENDBRANCH   1  69
TORSDOF 17
ENDMDL
