MODEL 1
REMARK VINA RESULT:     -12.0      0.000      0.000
REMARK SMILES CCc1c(C(=O)NCCCCNC(=O)c2ccc(-c3c4nc(c(-c5ccc(S(=O)(=O)[O-])cc5)c5ccc([nH]5)c(-c5ccc(S(=O)(=O)[O-])cc5)c5nc(c(-c6ccc(S(=O)(=O)[O-])cc6)c6ccc3[nH]6)C=C5)C=C4)cc2)nnn1-c1ccc(OC)cc1
REMARK SMILES IDX 10 1 9 2 8 3 7 4 5 5 6 6 4 8 3 9 77 10 75 11 76 12 2 13 1 14
REMARK SMILES IDX 78 15 79 16 85 17 80 18 84 19 81 20 82 21 83 22 11 23 12 24
REMARK SMILES IDX 13 25 14 27 15 28 16 29 74 30 17 31 73 32 18 33 19 34 20 35
REMARK SMILES IDX 67 36 21 37 72 38 66 39 68 40 22 41 71 42 65 43 64 44 23 46
REMARK SMILES IDX 53 47 34 48 52 49 35 50 38 51 51 52 69 53 36 54 37 55 50 57
REMARK SMILES IDX 70 58 39 59 24 60 25 61 33 62 26 63 32 64 27 65 28 66 29 67
REMARK SMILES IDX 30 68 31 69 54 70 55 71 63 72 56 73 62 74 57 75 58 76 59 77
REMARK SMILES IDX 60 78 61 79 40 80 41 81 49 82 42 83 48 84 43 85 44 86 45 87
REMARK SMILES IDX 46 88 47 89
REMARK H PARENT 7 7 12 26 68 45 38 56
REMARK Flexibility Score: inf
ROOT
ATOM      1  C   UNL A   1      37.766  21.457  25.021  1.00  0.00     0.023 C 
ENDROOT
BRANCH   1   2
ATOM      2  C   UNL A   1      36.432  22.199  24.880  1.00  0.00     0.023 C 
BRANCH   2   3
ATOM      3  C   UNL A   1      36.079  23.110  26.052  1.00  0.00     0.116 C 
BRANCH   3   4
ATOM      4  N   UNL A   1      35.075  22.582  26.933  1.00  0.00    -0.351 N 
ATOM      5  C   UNL A   1      33.742  22.829  27.139  1.00  0.00     0.273 C 
ATOM      6  O   UNL A   1      33.225  22.028  27.930  1.00  0.00    -0.267 OA
ATOM      7  H   UNL A   1      35.426  21.879  27.527  1.00  0.00     0.163 HD
BRANCH   5   8
ATOM      8  C   UNL A   1      32.926  23.922  26.574  1.00  0.00     0.174 A 
ATOM      9  C   UNL A   1      33.027  24.907  25.581  1.00  0.00     0.077 A 
ATOM     10  N   UNL A   1      31.799  25.577  25.647  1.00  0.00    -0.217 N 
ATOM     11  N   UNL A   1      31.701  24.103  27.205  1.00  0.00    -0.124 NA
ATOM     12  N   UNL A   1      31.095  25.160  26.710  1.00  0.00    -0.061 NA
BRANCH   9  13
ATOM     13  C   UNL A   1      34.120  25.414  24.693  1.00  0.00     0.055 C 
ATOM     14  C   UNL A   1      34.092  24.838  23.280  1.00  0.00     0.011 C 
ENDBRANCH   9  13
BRANCH  10  15
ATOM     15  C   UNL A   1      31.312  26.649  24.860  1.00  0.00     0.067 A 
ATOM     16  C   UNL A   1      30.200  26.443  24.038  1.00  0.00     0.032 A 
ATOM     17  C   UNL A   1      31.909  27.911  24.917  1.00  0.00     0.032 A 
ATOM     18  C   UNL A   1      29.633  27.528  23.365  1.00  0.00     0.048 A 
ATOM     19  C   UNL A   1      31.345  28.988  24.228  1.00  0.00     0.048 A 
ATOM     20  C   UNL A   1      30.190  28.806  23.469  1.00  0.00     0.119 A 
BRANCH  20  21
ATOM     21  O   UNL A   1      29.521  29.785  22.787  1.00  0.00    -0.497 OA
ATOM     22  C   UNL A   1      28.991  30.852  23.564  1.00  0.00     0.278 C 
ENDBRANCH  20  21
ENDBRANCH  10  15
ENDBRANCH   5   8
ENDBRANCH   3   4
ENDBRANCH   2   3
ENDBRANCH   1   2
BRANCH   1  23
ATOM     23  C   UNL A   1      38.710  22.014  26.087  1.00  0.00     0.116 C 
BRANCH  23  24
ATOM     24  N   UNL A   1      40.119  21.743  25.820  1.00  0.00    -0.352 N 
ATOM     25  C   UNL A   1      41.179  22.618  25.996  1.00  0.00     0.251 C 
ATOM     26  H   UNL A   1      40.338  20.846  25.480  1.00  0.00     0.163 HD
ATOM     27  O   UNL A   1      42.235  22.449  25.413  1.00  0.00    -0.269 OA
BRANCH  25  28
ATOM     28  C   UNL A   1      40.985  23.770  26.900  1.00  0.00     0.039 A 
ATOM     29  C   UNL A   1      41.838  23.971  27.986  1.00  0.00     0.014 A 
ATOM     30  C   UNL A   1      39.985  24.694  26.595  1.00  0.00     0.014 A 
ATOM     31  C   UNL A   1      41.752  25.168  28.695  1.00  0.00     0.010 A 
ATOM     32  C   UNL A   1      39.958  25.914  27.246  1.00  0.00     0.010 A 
ATOM     33  C   UNL A   1      40.840  26.167  28.298  1.00  0.00    -0.014 A 
BRANCH  33  34
ATOM     34  C   UNL A   1      40.942  27.514  28.877  1.00  0.00     0.031 A 
ATOM     35  C   UNL A   1      42.038  28.360  28.319  1.00  0.00     0.074 A 
ATOM     36  C   UNL A   1      40.048  28.082  29.718  1.00  0.00     0.049 A 
ATOM     37  N   UNL A   1      43.130  28.714  28.911  1.00  0.00    -0.248 NA
ATOM     38  C   UNL A   1      41.969  28.768  26.908  1.00  0.00     0.031 C 
ATOM     39  C   UNL A   1      38.764  27.539  30.172  1.00  0.00     0.029 A 
ATOM     40  N   UNL A   1      40.065  29.327  30.283  1.00  0.00    -0.354 N 
ATOM     41  C   UNL A   1      43.792  29.567  28.031  1.00  0.00     0.074 A 
ATOM     42  C   UNL A   1      43.116  29.439  26.764  1.00  0.00     0.031 C 
ATOM     43  C   UNL A   1      38.031  28.519  30.746  1.00  0.00     0.029 A 
ATOM     44  C   UNL A   1      38.865  29.699  30.878  1.00  0.00     0.049 A 
ATOM     45  H   UNL A   1      40.858  29.910  30.268  1.00  0.00     0.167 HD
ATOM     46  C   UNL A   1      44.694  30.486  28.478  1.00  0.00     0.031 A 
ATOM     47  C   UNL A   1      38.572  30.872  31.488  1.00  0.00     0.031 A 
ATOM     48  C   UNL A   1      45.004  30.287  29.869  1.00  0.00     0.049 A 
ATOM     49  C   UNL A   1      39.844  31.460  31.955  1.00  0.00     0.074 A 
ATOM     50  C   UNL A   1      45.759  29.419  30.621  1.00  0.00     0.029 A 
ATOM     51  N   UNL A   1      44.151  30.938  30.723  1.00  0.00    -0.354 N 
ATOM     52  N   UNL A   1      40.577  30.907  32.879  1.00  0.00    -0.248 NA
ATOM     53  C   UNL A   1      40.488  32.524  31.198  1.00  0.00     0.031 C 
ATOM     54  C   UNL A   1      45.155  29.395  31.915  1.00  0.00     0.029 A 
ATOM     55  C   UNL A   1      44.071  30.271  31.917  1.00  0.00     0.049 A 
ATOM     56  H   UNL A   1      43.664  31.767  30.509  1.00  0.00     0.167 HD
ATOM     57  C   UNL A   1      41.871  31.238  32.531  1.00  0.00     0.074 A 
ATOM     58  C   UNL A   1      41.745  32.369  31.623  1.00  0.00     0.031 C 
ATOM     59  C   UNL A   1      42.897  30.370  32.760  1.00  0.00     0.031 A 
BRANCH  46  60
ATOM     60  C   UNL A   1      44.953  31.832  27.835  1.00  0.00    -0.014 A 
ATOM     61  C   UNL A   1      46.288  32.190  27.534  1.00  0.00     0.010 A 
ATOM     62  C   UNL A   1      43.995  32.865  27.802  1.00  0.00     0.010 A 
ATOM     63  C   UNL A   1      46.652  33.521  27.287  1.00  0.00     0.020 A 
ATOM     64  C   UNL A   1      44.344  34.190  27.522  1.00  0.00     0.020 A 
ATOM     65  C   UNL A   1      45.676  34.516  27.301  1.00  0.00     0.054 A 
BRANCH  65  66
ATOM     66  S   UNL A   1      46.173  36.247  27.103  1.00  0.00     0.124 S 
ATOM     67  O   UNL A   1      46.705  36.562  28.424  1.00  0.00    -0.237 OA
ATOM     68  O   UNL A   1      47.155  36.167  26.025  1.00  0.00    -0.237 OA
ATOM     69  O   UNL A   1      44.925  36.921  26.752  1.00  0.00    -0.744 OA
ENDBRANCH  65  66
ENDBRANCH  46  60
BRANCH  47  70
ATOM     70  C   UNL A   1      37.282  31.580  31.635  1.00  0.00    -0.014 A 
ATOM     71  C   UNL A   1      36.712  31.788  32.904  1.00  0.00     0.010 A 
ATOM     72  C   UNL A   1      36.772  32.319  30.549  1.00  0.00     0.010 A 
ATOM     73  C   UNL A   1      35.721  32.762  33.098  1.00  0.00     0.020 A 
ATOM     74  C   UNL A   1      35.782  33.292  30.736  1.00  0.00     0.020 A 
ATOM     75  C   UNL A   1      35.281  33.528  32.016  1.00  0.00     0.054 A 
BRANCH  75  76
ATOM     76  S   UNL A   1      34.157  34.925  32.318  1.00  0.00     0.124 S 
ATOM     77  O   UNL A   1      34.961  35.793  33.171  1.00  0.00    -0.237 OA
ATOM     78  O   UNL A   1      33.902  35.424  30.969  1.00  0.00    -0.237 OA
ATOM     79  O   UNL A   1      33.006  34.304  32.972  1.00  0.00    -0.744 OA
ENDBRANCH  75  76
ENDBRANCH  47  70
BRANCH  59  80
ATOM     80  C   UNL A   1      42.705  29.329  33.830  1.00  0.00    -0.014 A 
ATOM     81  C   UNL A   1      43.016  29.529  35.188  1.00  0.00     0.010 A 
ATOM     82  C   UNL A   1      42.112  28.115  33.445  1.00  0.00     0.010 A 
ATOM     83  C   UNL A   1      42.761  28.525  36.132  1.00  0.00     0.020 A 
ATOM     84  C   UNL A   1      41.840  27.118  34.383  1.00  0.00     0.020 A 
ATOM     85  C   UNL A   1      42.173  27.324  35.722  1.00  0.00     0.054 A 
BRANCH  85  86
ATOM     86  S   UNL A   1      41.804  26.044  36.953  1.00  0.00     0.124 S 
ATOM     87  O   UNL A   1      42.842  26.260  37.958  1.00  0.00    -0.237 OA
ATOM     88  O   UNL A   1      40.444  26.378  37.372  1.00  0.00    -0.237 OA
ATOM     89  O   UNL A   1      41.922  24.795  36.202  1.00  0.00    -0.744 OA
ENDBRANCH  85  86
ENDBRANCH  59  80
ENDBRANCH  33  34
ENDBRANCH  25  28
ENDBRANCH  23  24
ENDBRANCH   1  23
TORSDOF 17
ENDMDL
MODEL 2
REMARK VINA RESULT:     -12.0      1.242      1.662
REMARK SMILES CCc1c(C(=O)NCCCCNC(=O)c2ccc(-c3c4nc(c(-c5ccc(S(=O)(=O)[O-])cc5)c5ccc([nH]5)c(-c5ccc(S(=O)(=O)[O-])cc5)c5nc(c(-c6ccc(S(=O)(=O)[O-])cc6)c6ccc3[nH]6)C=C5)C=C4)cc2)nnn1-c1ccc(OC)cc1
REMARK SMILES IDX 10 1 9 2 8 3 7 4 5 5 6 6 4 8 3 9 77 10 75 11 76 12 2 13 1 14
REMARK SMILES IDX 78 15 79 16 85 17 80 18 84 19 81 20 82 21 83 22 11 23 12 24
REMARK SMILES IDX 13 25 14 27 15 28 16 29 74 30 17 31 73 32 18 33 19 34 20 35
REMARK SMILES IDX 67 36 21 37 72 38 66 39 68 40 22 41 71 42 65 43 64 44 23 46
REMARK SMILES IDX 53 47 34 48 52 49 35 50 38 51 51 52 69 53 36 54 37 55 50 57
REMARK SMILES IDX 70 58 39 59 24 60 25 61 33 62 26 63 32 64 27 65 28 66 29 67
REMARK SMILES IDX 30 68 31 69 54 70 55 71 63 72 56 73 62 74 57 75 58 76 59 77
REMARK SMILES IDX 60 78 61 79 40 80 41 81 49 82 42 83 48 84 43 85 44 86 45 87
REMARK SMILES IDX 46 88 47 89
REMARK H PARENT 7 7 12 26 68 45 38 56
REMARK Flexibility Score: inf
ROOT
ATOM      1  C   UNL A   1      37.164  21.484  24.650  1.00  0.00     0.023 C 
ENDROOT
BRANCH   1   2
ATOM      2  C   UNL A   1      35.861  20.810  25.097  1.00  0.00     0.023 C 
BRANCH   2   3
ATOM      3  C   UNL A   1      34.668  21.751  25.234  1.00  0.00     0.116 C 
BRANCH   3   4
ATOM      4  N   UNL A   1      34.148  21.862  26.567  1.00  0.00    -0.351 N 
ATOM      5  C   UNL A   1      33.190  22.637  27.171  1.00  0.00     0.273 C 
ATOM      6  O   UNL A   1      32.971  22.298  28.342  1.00  0.00    -0.267 OA
ATOM      7  H   UNL A   1      34.579  21.237  27.194  1.00  0.00     0.163 HD
BRANCH   5   8
ATOM      8  C   UNL A   1      32.474  23.796  26.603  1.00  0.00     0.174 A 
ATOM      9  C   UNL A   1      32.699  24.823  25.675  1.00  0.00     0.077 A 
ATOM     10  N   UNL A   1      31.501  25.549  25.680  1.00  0.00    -0.217 N 
ATOM     11  N   UNL A   1      31.211  24.006  27.145  1.00  0.00    -0.124 NA
ATOM     12  N   UNL A   1      30.696  25.114  26.661  1.00  0.00    -0.061 NA
BRANCH   9  13
ATOM     13  C   UNL A   1      33.882  25.319  24.904  1.00  0.00     0.055 C 
ATOM     14  C   UNL A   1      33.974  24.769  23.483  1.00  0.00     0.011 C 
ENDBRANCH   9  13
BRANCH  10  15
ATOM     15  C   UNL A   1      31.129  26.681  24.915  1.00  0.00     0.067 A 
ATOM     16  C   UNL A   1      30.329  26.507  23.781  1.00  0.00     0.032 A 
ATOM     17  C   UNL A   1      31.524  27.966  25.295  1.00  0.00     0.032 A 
ATOM     18  C   UNL A   1      29.847  27.628  23.103  1.00  0.00     0.048 A 
ATOM     19  C   UNL A   1      31.050  29.082  24.601  1.00  0.00     0.048 A 
ATOM     20  C   UNL A   1      30.189  28.919  23.517  1.00  0.00     0.119 A 
BRANCH  20  21
ATOM     21  O   UNL A   1      29.625  29.929  22.787  1.00  0.00    -0.497 OA
ATOM     22  C   UNL A   1      28.217  30.089  22.906  1.00  0.00     0.278 C 
ENDBRANCH  20  21
ENDBRANCH  10  15
ENDBRANCH   5   8
ENDBRANCH   3   4
ENDBRANCH   2   3
ENDBRANCH   1   2
BRANCH   1  23
ATOM     23  C   UNL A   1      38.081  21.945  25.783  1.00  0.00     0.116 C 
BRANCH  23  24
ATOM     24  N   UNL A   1      39.380  21.281  25.792  1.00  0.00    -0.352 N 
ATOM     25  C   UNL A   1      40.602  21.855  26.104  1.00  0.00     0.251 C 
ATOM     26  H   UNL A   1      39.389  20.327  25.551  1.00  0.00     0.163 HD
ATOM     27  O   UNL A   1      41.645  21.349  25.732  1.00  0.00    -0.269 OA
BRANCH  25  28
ATOM     28  C   UNL A   1      40.600  23.107  26.888  1.00  0.00     0.039 A 
ATOM     29  C   UNL A   1      41.501  23.288  27.938  1.00  0.00     0.014 A 
ATOM     30  C   UNL A   1      39.737  24.133  26.501  1.00  0.00     0.014 A 
ATOM     31  C   UNL A   1      41.607  24.549  28.522  1.00  0.00     0.010 A 
ATOM     32  C   UNL A   1      39.903  25.402  27.025  1.00  0.00     0.010 A 
ATOM     33  C   UNL A   1      40.839  25.626  28.035  1.00  0.00    -0.014 A 
BRANCH  33  34
ATOM     34  C   UNL A   1      41.150  26.995  28.473  1.00  0.00     0.031 A 
ATOM     35  C   UNL A   1      42.409  27.567  27.911  1.00  0.00     0.074 A 
ATOM     36  C   UNL A   1      40.328  27.804  29.179  1.00  0.00     0.049 A 
ATOM     37  N   UNL A   1      43.513  27.796  28.541  1.00  0.00    -0.248 NA
ATOM     38  C   UNL A   1      42.491  27.811  26.463  1.00  0.00     0.031 C 
ATOM     39  C   UNL A   1      38.945  27.548  29.592  1.00  0.00     0.029 A 
ATOM     40  N   UNL A   1      40.538  29.086  29.607  1.00  0.00    -0.354 N 
ATOM     41  C   UNL A   1      44.364  28.411  27.626  1.00  0.00     0.074 A 
ATOM     42  C   UNL A   1      43.746  28.253  26.334  1.00  0.00     0.031 C 
ATOM     43  C   UNL A   1      38.370  28.700  30.002  1.00  0.00     0.029 A 
ATOM     44  C   UNL A   1      39.393  29.727  30.068  1.00  0.00     0.049 A 
ATOM     45  H   UNL A   1      41.422  29.517  29.589  1.00  0.00     0.167 HD
ATOM     46  C   UNL A   1      45.391  29.207  28.038  1.00  0.00     0.031 A 
ATOM     47  C   UNL A   1      39.283  30.996  30.525  1.00  0.00     0.031 A 
ATOM     48  C   UNL A   1      45.584  29.125  29.461  1.00  0.00     0.049 A 
ATOM     49  C   UNL A   1      40.612  31.407  31.021  1.00  0.00     0.074 A 
ATOM     50  C   UNL A   1      46.129  28.234  30.357  1.00  0.00     0.029 A 
ATOM     51  N   UNL A   1      44.817  30.009  30.175  1.00  0.00    -0.354 N 
ATOM     52  N   UNL A   1      41.184  30.850  32.051  1.00  0.00    -0.248 NA
ATOM     53  C   UNL A   1      41.478  32.247  30.203  1.00  0.00     0.031 C 
ATOM     54  C   UNL A   1      45.461  28.469  31.597  1.00  0.00     0.029 A 
ATOM     55  C   UNL A   1      44.553  29.513  31.425  1.00  0.00     0.049 A 
ATOM     56  H   UNL A   1      44.499  30.878  29.838  1.00  0.00     0.167 HD
ATOM     57  C   UNL A   1      42.533  30.910  31.766  1.00  0.00     0.074 A 
ATOM     58  C   UNL A   1      42.662  31.929  30.735  1.00  0.00     0.031 C 
ATOM     59  C   UNL A   1      43.373  29.911  32.162  1.00  0.00     0.031 A 
BRANCH  46  60
ATOM     60  C   UNL A   1      45.922  30.403  27.275  1.00  0.00    -0.014 A 
ATOM     61  C   UNL A   1      47.317  30.632  27.268  1.00  0.00     0.010 A 
ATOM     62  C   UNL A   1      45.101  31.462  26.839  1.00  0.00     0.010 A 
ATOM     63  C   UNL A   1      47.854  31.878  26.913  1.00  0.00     0.020 A 
ATOM     64  C   UNL A   1      45.630  32.697  26.448  1.00  0.00     0.020 A 
ATOM     65  C   UNL A   1      47.001  32.909  26.522  1.00  0.00     0.054 A 
BRANCH  65  66
ATOM     66  S   UNL A   1      47.691  34.549  26.183  1.00  0.00     0.124 S 
ATOM     67  O   UNL A   1      48.134  34.971  27.508  1.00  0.00    -0.237 OA
ATOM     68  O   UNL A   1      48.752  34.248  25.225  1.00  0.00    -0.237 OA
ATOM     69  O   UNL A   1      46.556  35.289  25.635  1.00  0.00    -0.744 OA
ENDBRANCH  65  66
ENDBRANCH  46  60
BRANCH  47  70
ATOM     70  C   UNL A   1      38.135  31.928  30.500  1.00  0.00    -0.014 A 
ATOM     71  C   UNL A   1      38.160  33.084  29.699  1.00  0.00     0.010 A 
ATOM     72  C   UNL A   1      36.897  31.513  31.029  1.00  0.00     0.010 A 
ATOM     73  C   UNL A   1      36.973  33.757  29.369  1.00  0.00     0.020 A 
ATOM     74  C   UNL A   1      35.710  32.181  30.704  1.00  0.00     0.020 A 
ATOM     75  C   UNL A   1      35.751  33.284  29.852  1.00  0.00     0.054 A 
BRANCH  75  76
ATOM     76  S   UNL A   1      34.209  34.034  29.246  1.00  0.00     0.124 S 
ATOM     77  O   UNL A   1      34.698  35.181  28.489  1.00  0.00    -0.237 OA
ATOM     78  O   UNL A   1      33.622  32.956  28.453  1.00  0.00    -0.237 OA
ATOM     79  O   UNL A   1      33.483  34.363  30.472  1.00  0.00    -0.744 OA
ENDBRANCH  75  76
ENDBRANCH  47  70
BRANCH  59  80
ATOM     80  C   UNL A   1      42.938  29.053  33.320  1.00  0.00    -0.014 A 
ATOM     81  C   UNL A   1      42.077  27.946  33.199  1.00  0.00     0.010 A 
ATOM     82  C   UNL A   1      43.490  29.345  34.578  1.00  0.00     0.010 A 
ATOM     83  C   UNL A   1      41.758  27.166  34.319  1.00  0.00     0.020 A 
ATOM     84  C   UNL A   1      43.191  28.562  35.694  1.00  0.00     0.020 A 
ATOM     85  C   UNL A   1      42.319  27.481  35.562  1.00  0.00     0.054 A 
BRANCH  85  86
ATOM     86  S   UNL A   1      41.940  26.443  37.001  1.00  0.00     0.124 S 
ATOM     87  O   UNL A   1      41.955  25.096  36.434  1.00  0.00    -0.237 OA
ATOM     88  O   UNL A   1      43.034  26.749  37.921  1.00  0.00    -0.237 OA
ATOM     89  O   UNL A   1      40.627  26.916  37.435  1.00  0.00    -0.744 OA
ENDBRANCH  85  86
ENDBRANCH  59  80
ENDBRANCH  33  34
ENDBRANCH  25  28
ENDBRANCH  23  24
ENDBRANCH   1  23
TORSDOF 17
ENDMDL
MODEL 3
REMARK VINA RESULT:     -11.8      4.302      8.435
REMARK SMILES CCc1c(C(=O)NCCCCNC(=O)c2ccc(-c3c4nc(c(-c5ccc(S(=O)(=O)[O-])cc5)c5ccc([nH]5)c(-c5ccc(S(=O)(=O)[O-])cc5)c5nc(c(-c6ccc(S(=O)(=O)[O-])cc6)c6ccc3[nH]6)C=C5)C=C4)cc2)nnn1-c1ccc(OC)cc1
REMARK SMILES IDX 10 1 9 2 8 3 7 4 5 5 6 6 4 8 3 9 77 10 75 11 76 12 2 13 1 14
REMARK SMILES IDX 78 15 79 16 85 17 80 18 84 19 81 20 82 21 83 22 11 23 12 24
REMARK SMILES IDX 13 25 14 27 15 28 16 29 74 30 17 31 73 32 18 33 19 34 20 35
REMARK SMILES IDX 67 36 21 37 72 38 66 39 68 40 22 41 71 42 65 43 64 44 23 46
REMARK SMILES IDX 53 47 34 48 52 49 35 50 38 51 51 52 69 53 36 54 37 55 50 57
REMARK SMILES IDX 70 58 39 59 24 60 25 61 33 62 26 63 32 64 27 65 28 66 29 67
REMARK SMILES IDX 30 68 31 69 54 70 55 71 63 72 56 73 62 74 57 75 58 76 59 77
REMARK SMILES IDX 60 78 61 79 40 80 41 81 49 82 42 83 48 84 43 85 44 86 45 87
REMARK SMILES IDX 46 88 47 89
REMARK H PARENT 7 7 12 26 68 45 38 56
REMARK Flexibility Score: inf
ROOT
ATOM      1  C   UNL A   1      43.577  24.530  24.908  1.00  0.00     0.023 C 
ENDROOT
BRANCH   1   2
ATOM      2  C   UNL A   1      44.183  25.610  25.812  1.00  0.00     0.023 C 
BRANCH   2   3
ATOM      3  C   UNL A   1      45.365  25.147  26.659  1.00  0.00     0.116 C 
BRANCH   3   4
ATOM      4  N   UNL A   1      46.156  26.211  27.207  1.00  0.00    -0.351 N 
ATOM      5  C   UNL A   1      46.984  27.171  26.682  1.00  0.00     0.273 C 
ATOM      6  O   UNL A   1      47.367  27.988  27.531  1.00  0.00    -0.267 OA
ATOM      7  H   UNL A   1      46.090  26.265  28.188  1.00  0.00     0.163 HD
BRANCH   5   8
ATOM      8  C   UNL A   1      47.466  27.288  25.292  1.00  0.00     0.174 A 
ATOM      9  C   UNL A   1      48.597  26.944  24.537  1.00  0.00     0.077 A 
ATOM     10  N   UNL A   1      48.290  27.399  23.248  1.00  0.00    -0.217 N 
ATOM     11  N   UNL A   1      46.603  27.972  24.445  1.00  0.00    -0.124 NA
ATOM     12  N   UNL A   1      47.160  28.121  23.263  1.00  0.00    -0.061 NA
BRANCH   9  13
ATOM     13  C   UNL A   1      49.958  26.403  24.845  1.00  0.00     0.055 C 
ATOM     14  C   UNL A   1      50.602  27.010  26.088  1.00  0.00     0.011 C 
ENDBRANCH   9  13
BRANCH  10  15
ATOM     15  C   UNL A   1      49.045  27.300  22.053  1.00  0.00     0.067 A 
ATOM     16  C   UNL A   1      49.016  26.108  21.324  1.00  0.00     0.032 A 
ATOM     17  C   UNL A   1      49.789  28.385  21.582  1.00  0.00     0.032 A 
ATOM     18  C   UNL A   1      49.645  26.049  20.078  1.00  0.00     0.048 A 
ATOM     19  C   UNL A   1      50.429  28.313  20.342  1.00  0.00     0.048 A 
ATOM     20  C   UNL A   1      50.339  27.153  19.573  1.00  0.00     0.119 A 
BRANCH  20  21
ATOM     21  O   UNL A   1      50.882  26.976  18.331  1.00  0.00    -0.497 OA
ATOM     22  C   UNL A   1      52.041  26.155  18.254  1.00  0.00     0.278 C 
ENDBRANCH  20  21
ENDBRANCH  10  15
ENDBRANCH   5   8
ENDBRANCH   3   4
ENDBRANCH   2   3
ENDBRANCH   1   2
BRANCH   1  23
ATOM     23  C   UNL A   1      43.633  23.108  25.467  1.00  0.00     0.116 C 
BRANCH  23  24
ATOM     24  N   UNL A   1      42.411  22.343  25.242  1.00  0.00    -0.352 N 
ATOM     25  C   UNL A   1      41.266  22.360  26.022  1.00  0.00     0.251 C 
ATOM     26  H   UNL A   1      42.401  21.752  24.455  1.00  0.00     0.163 HD
ATOM     27  O   UNL A   1      40.466  21.443  25.982  1.00  0.00    -0.269 OA
BRANCH  25  28
ATOM     28  C   UNL A   1      41.052  23.519  26.913  1.00  0.00     0.039 A 
ATOM     29  C   UNL A   1      41.794  23.658  28.086  1.00  0.00     0.014 A 
ATOM     30  C   UNL A   1      40.153  24.509  26.513  1.00  0.00     0.014 A 
ATOM     31  C   UNL A   1      41.711  24.856  28.795  1.00  0.00     0.010 A 
ATOM     32  C   UNL A   1      40.137  25.725  27.171  1.00  0.00     0.010 A 
ATOM     33  C   UNL A   1      40.915  25.914  28.314  1.00  0.00    -0.014 A 
BRANCH  33  34
ATOM     34  C   UNL A   1      41.043  27.250  28.915  1.00  0.00     0.031 A 
ATOM     35  C   UNL A   1      42.232  28.033  28.468  1.00  0.00     0.074 A 
ATOM     36  C   UNL A   1      40.111  27.864  29.680  1.00  0.00     0.049 A 
ATOM     37  N   UNL A   1      43.285  28.319  29.159  1.00  0.00    -0.248 NA
ATOM     38  C   UNL A   1      42.314  28.454  27.061  1.00  0.00     0.031 C 
ATOM     39  C   UNL A   1      38.762  27.394  30.011  1.00  0.00     0.029 A 
ATOM     40  N   UNL A   1      40.150  29.102  30.258  1.00  0.00    -0.354 N 
ATOM     41  C   UNL A   1      44.072  29.136  28.351  1.00  0.00     0.074 A 
ATOM     42  C   UNL A   1      43.506  29.057  27.028  1.00  0.00     0.031 C 
ATOM     43  C   UNL A   1      38.039  28.412  30.529  1.00  0.00     0.029 A 
ATOM     44  C   UNL A   1      38.925  29.541  30.749  1.00  0.00     0.049 A 
ATOM     45  H   UNL A   1      40.974  29.638  30.321  1.00  0.00     0.167 HD
ATOM     46  C   UNL A   1      44.982  29.998  28.888  1.00  0.00     0.031 A 
ATOM     47  C   UNL A   1      38.647  30.724  31.343  1.00  0.00     0.031 A 
ATOM     48  C   UNL A   1      45.153  29.772  30.299  1.00  0.00     0.049 A 
ATOM     49  C   UNL A   1      39.903  31.233  31.929  1.00  0.00     0.074 A 
ATOM     50  C   UNL A   1      45.787  28.856  31.106  1.00  0.00     0.029 A 
ATOM     51  N   UNL A   1      44.267  30.466  31.081  1.00  0.00    -0.354 N 
ATOM     52  N   UNL A   1      40.518  30.633  32.909  1.00  0.00    -0.248 NA
ATOM     53  C   UNL A   1      40.674  32.262  31.245  1.00  0.00     0.031 C 
ATOM     54  C   UNL A   1      45.068  28.860  32.340  1.00  0.00     0.029 A 
ATOM     55  C   UNL A   1      44.041  29.798  32.255  1.00  0.00     0.049 A 
ATOM     56  H   UNL A   1      43.850  31.324  30.833  1.00  0.00     0.167 HD
ATOM     57  C   UNL A   1      41.854  30.889  32.682  1.00  0.00     0.074 A 
ATOM     58  C   UNL A   1      41.877  32.031  31.779  1.00  0.00     0.031 C 
ATOM     59  C   UNL A   1      42.804  29.960  32.991  1.00  0.00     0.031 A 
BRANCH  46  60
ATOM     60  C   UNL A   1      45.376  31.330  28.286  1.00  0.00    -0.014 A 
ATOM     61  C   UNL A   1      44.352  32.245  27.948  1.00  0.00     0.010 A 
ATOM     62  C   UNL A   1      46.658  31.588  27.762  1.00  0.00     0.010 A 
ATOM     63  C   UNL A   1      44.586  33.317  27.074  1.00  0.00     0.020 A 
ATOM     64  C   UNL A   1      46.909  32.675  26.918  1.00  0.00     0.020 A 
ATOM     65  C   UNL A   1      45.862  33.512  26.550  1.00  0.00     0.054 A 
BRANCH  65  66
ATOM     66  S   UNL A   1      46.128  34.823  25.328  1.00  0.00     0.124 S 
ATOM     67  O   UNL A   1      45.219  34.426  24.257  1.00  0.00    -0.237 OA
ATOM     68  O   UNL A   1      45.748  36.022  26.071  1.00  0.00    -0.237 OA
ATOM     69  O   UNL A   1      47.551  34.714  25.016  1.00  0.00    -0.744 OA
ENDBRANCH  65  66
ENDBRANCH  46  60
BRANCH  47  70
ATOM     70  C   UNL A   1      37.392  31.506  31.383  1.00  0.00    -0.014 A 
ATOM     71  C   UNL A   1      36.558  31.477  32.515  1.00  0.00     0.010 A 
ATOM     72  C   UNL A   1      37.180  32.519  30.427  1.00  0.00     0.010 A 
ATOM     73  C   UNL A   1      35.596  32.477  32.726  1.00  0.00     0.020 A 
ATOM     74  C   UNL A   1      36.220  33.519  30.632  1.00  0.00     0.020 A 
ATOM     75  C   UNL A   1      35.452  33.508  31.796  1.00  0.00     0.054 A 
BRANCH  75  76
ATOM     76  S   UNL A   1      34.355  34.906  32.184  1.00  0.00     0.124 S 
ATOM     77  O   UNL A   1      35.212  35.754  33.006  1.00  0.00    -0.237 OA
ATOM     78  O   UNL A   1      34.029  35.430  30.860  1.00  0.00    -0.237 OA
ATOM     79  O   UNL A   1      33.239  34.280  32.891  1.00  0.00    -0.744 OA
ENDBRANCH  75  76
ENDBRANCH  47  70
BRANCH  59  80
ATOM     80  C   UNL A   1      42.456  28.925  34.027  1.00  0.00    -0.014 A 
ATOM     81  C   UNL A   1      41.801  27.713  33.739  1.00  0.00     0.010 A 
ATOM     82  C   UNL A   1      42.879  29.168  35.344  1.00  0.00     0.010 A 
ATOM     83  C   UNL A   1      41.556  26.777  34.753  1.00  0.00     0.020 A 
ATOM     84  C   UNL A   1      42.653  28.233  36.355  1.00  0.00     0.020 A 
ATOM     85  C   UNL A   1      41.985  27.045  36.058  1.00  0.00     0.054 A 
BRANCH  85  86
ATOM     86  S   UNL A   1      41.706  25.813  37.360  1.00  0.00     0.124 S 
ATOM     87  O   UNL A   1      40.311  26.048  37.726  1.00  0.00    -0.237 OA
ATOM     88  O   UNL A   1      41.972  24.550  36.675  1.00  0.00    -0.237 OA
ATOM     89  O   UNL A   1      42.683  26.167  38.388  1.00  0.00    -0.744 OA
ENDBRANCH  85  86
ENDBRANCH  59  80
ENDBRANCH  33  34
ENDBRANCH  25  28
ENDBRANCH  23  24
ENDBRANCH   1  23
TORSDOF 17
ENDMDL
