MODEL 1
REMARK VINA RESULT:      -9.3      0.000      0.000
REMARK SMILES O=C(CN1C(=O)/C(=C/c2cccs2)SC1=S)Nc1ccc(O)cc1C(=O)NCCCCNC(=O)c1ccc(-c2c3nc(c(-c4ccc(S(=O)(=O)[O-])cc4)c4ccc([nH]4)c(-c4ccc(S(=O)(=O)[O-])cc4)c4nc(c(-c5ccc(S(=O)(=O)[O-])cc5)c5ccc2[nH]5)C=C4)C=C3)cc1
REMARK SMILES IDX 29 1 28 2 27 3 25 4 26 5 24 7 18 8 19 9 20 10 23 11 21 12
REMARK SMILES IDX 17 13 1 14 2 15 3 17 4 18 5 19 15 20 6 21 7 22 14 23 16 24
REMARK SMILES IDX 8 25 9 26 10 27 13 28 11 29 12 30 22 31 30 33 31 34 32 35
REMARK SMILES IDX 33 36 34 38 35 39 36 40 94 41 37 42 93 43 38 44 39 45 40 46
REMARK SMILES IDX 87 47 41 48 92 49 86 50 88 51 42 52 91 53 85 54 84 55 43 57
REMARK SMILES IDX 73 58 54 59 72 60 55 61 58 62 71 63 89 64 56 65 57 66 70 68
REMARK SMILES IDX 90 69 59 70 44 71 45 72 53 73 46 74 52 75 47 76 48 77 49 78
REMARK SMILES IDX 50 79 51 80 74 81 75 82 83 83 76 84 82 85 77 86 78 87 79 88
REMARK SMILES IDX 80 89 81 90 60 91 61 92 69 93 62 94 68 95 63 96 64 97 65 98
REMARK SMILES IDX 66 99 67 100
REMARK H PARENT 27 6 17 16 22 32 32 37 88 56 58 67
REMARK Flexibility Score: inf
ROOT
ATOM      1  C   UNL A   1      44.125  24.130  30.545  1.00  0.00     0.023 C 
ENDROOT
BRANCH   1   2
ATOM      2  C   UNL A   1      44.147  23.535  31.951  1.00  0.00     0.116 C 
BRANCH   2   3
ATOM      3  N   UNL A   1      45.157  24.236  32.707  1.00  0.00    -0.352 N 
ATOM      4  C   UNL A   1      45.086  25.065  33.797  1.00  0.00     0.253 C 
ATOM      5  O   UNL A   1      46.101  25.712  34.065  1.00  0.00    -0.269 OA
ATOM      6  H   UNL A   1      46.073  24.092  32.378  1.00  0.00     0.163 HD
BRANCH   4   7
ATOM      7  C   UNL A   1      43.940  25.127  34.752  1.00  0.00     0.067 A 
ATOM      8  C   UNL A   1      43.609  24.231  35.798  1.00  0.00     0.054 A 
ATOM      9  C   UNL A   1      42.374  24.379  36.454  1.00  0.00     0.031 A 
ATOM     10  C   UNL A   1      41.444  25.333  36.045  1.00  0.00     0.048 A 
ATOM     11  C   UNL A   1      42.983  26.081  34.352  1.00  0.00     0.062 A 
ATOM     12  C   UNL A   1      41.749  26.162  34.979  1.00  0.00     0.116 A 
BRANCH   8  13
ATOM     13  N   UNL A   1      44.466  23.187  36.197  1.00  0.00    -0.324 N 
ATOM     14  O   UNL A   1      45.697  24.155  37.921  1.00  0.00    -0.273 OA
ATOM     15  C   UNL A   1      45.453  23.210  37.174  1.00  0.00     0.244 C 
ATOM     16  H   UNL A   1      44.350  22.332  35.723  1.00  0.00     0.170 HD
BRANCH  15  17
ATOM     17  C   UNL A   1      46.289  21.913  37.245  1.00  0.00     0.227 C 
BRANCH  17  18
ATOM     18  N   UNL A   1      47.241  21.535  36.188  1.00  0.00    -0.283 N 
ATOM     19  C   UNL A   1      48.410  22.236  35.971  1.00  0.00     0.266 C 
ATOM     20  C   UNL A   1      47.082  20.390  35.426  1.00  0.00     0.148 C 
ATOM     21  O   UNL A   1      48.716  23.298  36.497  1.00  0.00    -0.268 OA
ATOM     22  C   UNL A   1      49.337  21.460  35.100  1.00  0.00     0.081 C 
ATOM     23  S   UNL A   1      48.514  20.110  34.444  1.00  0.00    -0.054 SA
ATOM     24  S   UNL A   1      45.772  19.358  35.399  1.00  0.00    -0.052 S 
ATOM     25  C   UNL A   1      50.644  21.761  35.103  1.00  0.00     0.040 C 
BRANCH  25  26
ATOM     26  C   UNL A   1      51.687  20.954  34.558  1.00  0.00     0.028 A 
ATOM     27  C   UNL A   1      52.154  20.787  33.265  1.00  0.00     0.020 A 
ATOM     28  S   UNL A   1      52.606  19.975  35.650  1.00  0.00    -0.144 S 
ATOM     29  C   UNL A   1      53.235  19.857  33.175  1.00  0.00     0.012 A 
ATOM     30  C   UNL A   1      53.572  19.336  34.401  1.00  0.00     0.065 A 
ENDBRANCH  25  26
ENDBRANCH  17  18
ENDBRANCH  15  17
ENDBRANCH   8  13
BRANCH  12  31
ATOM     31  O   UNL A   1      40.841  27.053  34.492  1.00  0.00    -0.508 OA
ATOM     32  H   UNL A   1      39.962  26.779  34.317  1.00  0.00     0.293 HD
ENDBRANCH  12  31
ENDBRANCH   4   7
ENDBRANCH   2   3
ENDBRANCH   1   2
BRANCH   1  33
ATOM     33  C   UNL A   1      44.113  23.149  29.397  1.00  0.00     0.023 C 
BRANCH  33  34
ATOM     34  C   UNL A   1      43.024  23.434  28.394  1.00  0.00     0.116 C 
BRANCH  34  35
ATOM     35  N   UNL A   1      43.529  24.026  27.154  1.00  0.00    -0.352 N 
ATOM     36  C   UNL A   1      43.492  25.335  26.727  1.00  0.00     0.251 C 
ATOM     37  H   UNL A   1      43.957  23.395  26.532  1.00  0.00     0.163 HD
ATOM     38  O   UNL A   1      43.883  25.630  25.603  1.00  0.00    -0.269 OA
BRANCH  36  39
ATOM     39  C   UNL A   1      42.962  26.363  27.639  1.00  0.00     0.039 A 
ATOM     40  C   UNL A   1      41.854  26.093  28.442  1.00  0.00     0.014 A 
ATOM     41  C   UNL A   1      43.637  27.577  27.745  1.00  0.00     0.014 A 
ATOM     42  C   UNL A   1      41.479  27.019  29.418  1.00  0.00     0.010 A 
ATOM     43  C   UNL A   1      43.373  28.404  28.817  1.00  0.00     0.010 A 
ATOM     44  C   UNL A   1      42.266  28.160  29.641  1.00  0.00    -0.014 A 
BRANCH  44  45
ATOM     45  C   UNL A   1      41.944  29.190  30.658  1.00  0.00     0.031 A 
ATOM     46  C   UNL A   1      42.822  29.287  31.880  1.00  0.00     0.074 A 
ATOM     47  C   UNL A   1      40.825  29.931  30.556  1.00  0.00     0.049 A 
ATOM     48  N   UNL A   1      42.613  29.918  33.005  1.00  0.00    -0.248 NA
ATOM     49  C   UNL A   1      44.073  28.502  31.857  1.00  0.00     0.031 C 
ATOM     50  C   UNL A   1      39.875  29.906  29.442  1.00  0.00     0.029 A 
ATOM     51  N   UNL A   1      40.292  30.848  31.425  1.00  0.00    -0.354 N 
ATOM     52  C   UNL A   1      43.669  29.556  33.834  1.00  0.00     0.074 A 
ATOM     53  C   UNL A   1      44.470  28.594  33.114  1.00  0.00     0.031 C 
ATOM     54  C   UNL A   1      38.900  30.800  29.675  1.00  0.00     0.029 A 
ATOM     55  C   UNL A   1      39.123  31.416  30.979  1.00  0.00     0.049 A 
ATOM     56  H   UNL A   1      40.707  31.079  32.287  1.00  0.00     0.167 HD
ATOM     57  C   UNL A   1      43.968  30.008  35.075  1.00  0.00     0.031 A 
ATOM     58  C   UNL A   1      38.320  32.326  31.565  1.00  0.00     0.031 A 
ATOM     59  C   UNL A   1      43.199  31.013  35.754  1.00  0.00     0.049 A 
ATOM     60  C   UNL A   1      38.684  32.844  32.929  1.00  0.00     0.074 A 
ATOM     61  C   UNL A   1      43.441  31.601  36.981  1.00  0.00     0.029 A 
ATOM     62  N   UNL A   1      42.046  31.594  35.246  1.00  0.00    -0.354 N 
ATOM     63  N   UNL A   1      39.699  32.513  33.694  1.00  0.00    -0.248 NA
ATOM     64  C   UNL A   1      37.797  33.861  33.509  1.00  0.00     0.031 C 
ATOM     65  C   UNL A   1      42.413  32.517  37.230  1.00  0.00     0.029 A 
ATOM     66  C   UNL A   1      41.561  32.534  36.135  1.00  0.00     0.049 A 
ATOM     67  H   UNL A   1      41.636  31.371  34.379  1.00  0.00     0.167 HD
ATOM     68  C   UNL A   1      39.592  33.308  34.830  1.00  0.00     0.074 A 
ATOM     69  C   UNL A   1      38.417  34.137  34.649  1.00  0.00     0.031 C 
ATOM     70  C   UNL A   1      40.394  33.352  35.922  1.00  0.00     0.031 A 
BRANCH  57  71
ATOM     71  C   UNL A   1      45.178  29.418  35.753  1.00  0.00    -0.014 A 
ATOM     72  C   UNL A   1      46.453  29.995  35.600  1.00  0.00     0.010 A 
ATOM     73  C   UNL A   1      45.044  28.259  36.537  1.00  0.00     0.010 A 
ATOM     74  C   UNL A   1      47.579  29.383  36.154  1.00  0.00     0.020 A 
ATOM     75  C   UNL A   1      46.164  27.665  37.127  1.00  0.00     0.020 A 
ATOM     76  C   UNL A   1      47.428  28.215  36.907  1.00  0.00     0.054 A 
BRANCH  76  77
ATOM     77  S   UNL A   1      48.908  27.435  37.606  1.00  0.00     0.124 S 
ATOM     78  O   UNL A   1      48.332  26.550  38.616  1.00  0.00    -0.237 OA
ATOM     79  O   UNL A   1      49.496  26.767  36.447  1.00  0.00    -0.237 OA
ATOM     80  O   UNL A   1      49.679  28.560  38.129  1.00  0.00    -0.744 OA
ENDBRANCH  76  77
ENDBRANCH  57  71
BRANCH  58  81
ATOM     81  C   UNL A   1      37.126  32.836  30.838  1.00  0.00    -0.014 A 
ATOM     82  C   UNL A   1      37.287  33.742  29.776  1.00  0.00     0.010 A 
ATOM     83  C   UNL A   1      35.833  32.398  31.174  1.00  0.00     0.010 A 
ATOM     84  C   UNL A   1      36.176  34.210  29.066  1.00  0.00     0.020 A 
ATOM     85  C   UNL A   1      34.721  32.843  30.450  1.00  0.00     0.020 A 
ATOM     86  C   UNL A   1      34.901  33.753  29.406  1.00  0.00     0.054 A 
BRANCH  86  87
ATOM     87  S   UNL A   1      33.483  34.320  28.425  1.00  0.00     0.124 S 
ATOM     88  O   UNL A   1      33.099  33.105  27.715  1.00  0.00    -0.237 OA
ATOM     89  O   UNL A   1      32.551  34.775  29.453  1.00  0.00    -0.237 OA
ATOM     90  O   UNL A   1      34.049  35.381  27.593  1.00  0.00    -0.744 OA
ENDBRANCH  86  87
ENDBRANCH  58  81
BRANCH  70  91
ATOM     91  C   UNL A   1      40.060  34.361  36.986  1.00  0.00    -0.014 A 
ATOM     92  C   UNL A   1      39.331  34.000  38.132  1.00  0.00     0.010 A 
ATOM     93  C   UNL A   1      40.557  35.673  36.869  1.00  0.00     0.010 A 
ATOM     94  C   UNL A   1      39.083  34.942  39.132  1.00  0.00     0.020 A 
ATOM     95  C   UNL A   1      40.333  36.609  37.879  1.00  0.00     0.020 A 
ATOM     96  C   UNL A   1      39.589  36.240  39.002  1.00  0.00     0.054 A 
BRANCH  96  97
ATOM     97  S   UNL A   1      39.305  37.427  40.343  1.00  0.00     0.124 S 
ATOM     98  O   UNL A   1      38.591  38.498  39.653  1.00  0.00    -0.237 OA
ATOM     99  O   UNL A   1      38.510  36.652  41.293  1.00  0.00    -0.237 OA
ATOM    100  O   UNL A   1      40.652  37.765  40.796  1.00  0.00    -0.744 OA
ENDBRANCH  96  97
ENDBRANCH  70  91
ENDBRANCH  44  45
ENDBRANCH  36  39
ENDBRANCH  34  35
ENDBRANCH  33  34
ENDBRANCH   1  33
TORSDOF 19
ENDMDL
MODEL 2
REMARK VINA RESULT:      -9.3      9.803     18.552
REMARK SMILES O=C(CN1C(=O)/C(=C/c2cccs2)SC1=S)Nc1ccc(O)cc1C(=O)NCCCCNC(=O)c1ccc(-c2c3nc(c(-c4ccc(S(=O)(=O)[O-])cc4)c4ccc([nH]4)c(-c4ccc(S(=O)(=O)[O-])cc4)c4nc(c(-c5ccc(S(=O)(=O)[O-])cc5)c5ccc2[nH]5)C=C4)C=C3)cc1
REMARK SMILES IDX 29 1 28 2 27 3 25 4 26 5 24 7 18 8 19 9 20 10 23 11 21 12
REMARK SMILES IDX 17 13 1 14 2 15 3 17 4 18 5 19 15 20 6 21 7 22 14 23 16 24
REMARK SMILES IDX 8 25 9 26 10 27 13 28 11 29 12 30 22 31 30 33 31 34 32 35
REMARK SMILES IDX 33 36 34 38 35 39 36 40 94 41 37 42 93 43 38 44 39 45 40 46
REMARK SMILES IDX 87 47 41 48 92 49 86 50 88 51 42 52 91 53 85 54 84 55 43 57
REMARK SMILES IDX 73 58 54 59 72 60 55 61 58 62 71 63 89 64 56 65 57 66 70 68
REMARK SMILES IDX 90 69 59 70 44 71 45 72 53 73 46 74 52 75 47 76 48 77 49 78
REMARK SMILES IDX 50 79 51 80 74 81 75 82 83 83 76 84 82 85 77 86 78 87 79 88
REMARK SMILES IDX 80 89 81 90 60 91 61 92 69 93 62 94 68 95 63 96 64 97 65 98
REMARK SMILES IDX 66 99 67 100
REMARK H PARENT 27 6 17 16 22 32 32 37 88 56 58 67
REMARK Flexibility Score: inf
ROOT
ATOM      1  C   UNL A   1      46.467  38.927  27.192  1.00  0.00     0.023 C 
ENDROOT
BRANCH   1   2
ATOM      2  C   UNL A   1      46.257  39.998  26.123  1.00  0.00     0.116 C 
BRANCH   2   3
ATOM      3  N   UNL A   1      44.833  40.172  25.954  1.00  0.00    -0.352 N 
ATOM      4  C   UNL A   1      44.011  41.257  26.111  1.00  0.00     0.253 C 
ATOM      5  O   UNL A   1      42.799  41.032  26.133  1.00  0.00    -0.269 OA
ATOM      6  H   UNL A   1      44.363  39.356  25.671  1.00  0.00     0.163 HD
BRANCH   4   7
ATOM      7  C   UNL A   1      44.461  42.681  26.106  1.00  0.00     0.067 A 
ATOM      8  C   UNL A   1      44.780  43.506  25.000  1.00  0.00     0.054 A 
ATOM      9  C   UNL A   1      45.367  44.762  25.236  1.00  0.00     0.031 A 
ATOM     10  C   UNL A   1      45.712  45.173  26.523  1.00  0.00     0.048 A 
ATOM     11  C   UNL A   1      44.822  43.114  27.399  1.00  0.00     0.062 A 
ATOM     12  C   UNL A   1      45.456  44.332  27.593  1.00  0.00     0.116 A 
BRANCH   8  13
ATOM     13  N   UNL A   1      44.543  43.110  23.670  1.00  0.00    -0.324 N 
ATOM     14  O   UNL A   1      42.267  43.524  23.402  1.00  0.00    -0.273 OA
ATOM     15  C   UNL A   1      43.339  43.104  22.976  1.00  0.00     0.244 C 
ATOM     16  H   UNL A   1      45.330  42.798  23.168  1.00  0.00     0.170 HD
BRANCH  15  17
ATOM     17  C   UNL A   1      43.436  42.473  21.568  1.00  0.00     0.227 C 
BRANCH  17  18
ATOM     18  N   UNL A   1      43.841  43.252  20.387  1.00  0.00    -0.283 N 
ATOM     19  C   UNL A   1      42.930  43.960  19.629  1.00  0.00     0.266 C 
ATOM     20  C   UNL A   1      45.169  43.419  20.033  1.00  0.00     0.148 C 
ATOM     21  O   UNL A   1      41.713  43.908  19.741  1.00  0.00    -0.268 OA
ATOM     22  C   UNL A   1      43.627  44.919  18.726  1.00  0.00     0.081 C 
ATOM     23  S   UNL A   1      45.309  44.600  18.738  1.00  0.00    -0.054 SA
ATOM     24  S   UNL A   1      46.503  42.670  20.698  1.00  0.00    -0.052 S 
ATOM     25  C   UNL A   1      42.945  45.958  18.223  1.00  0.00     0.040 C 
BRANCH  25  26
ATOM     26  C   UNL A   1      43.515  47.100  17.586  1.00  0.00     0.028 A 
ATOM     27  C   UNL A   1      44.770  47.338  17.053  1.00  0.00     0.020 A 
ATOM     28  S   UNL A   1      42.512  48.497  17.385  1.00  0.00    -0.144 S 
ATOM     29  C   UNL A   1      44.909  48.651  16.507  1.00  0.00     0.012 A 
ATOM     30  C   UNL A   1      43.756  49.387  16.633  1.00  0.00     0.065 A 
ENDBRANCH  25  26
ENDBRANCH  17  18
ENDBRANCH  15  17
ENDBRANCH   8  13
BRANCH  12  31
ATOM     31  O   UNL A   1      45.848  44.654  28.856  1.00  0.00    -0.508 OA
ATOM     32  H   UNL A   1      45.542  45.446  29.255  1.00  0.00     0.293 HD
ENDBRANCH  12  31
ENDBRANCH   4   7
ENDBRANCH   2   3
ENDBRANCH   1   2
BRANCH   1  33
ATOM     33  C   UNL A   1      45.648  39.064  28.453  1.00  0.00     0.023 C 
BRANCH  33  34
ATOM     34  C   UNL A   1      45.845  37.914  29.408  1.00  0.00     0.116 C 
BRANCH  34  35
ATOM     35  N   UNL A   1      47.247  37.712  29.778  1.00  0.00    -0.352 N 
ATOM     36  C   UNL A   1      47.981  36.548  29.837  1.00  0.00     0.251 C 
ATOM     37  H   UNL A   1      47.738  38.529  30.023  1.00  0.00     0.163 HD
ATOM     38  O   UNL A   1      49.129  36.562  30.266  1.00  0.00    -0.269 OA
BRANCH  36  39
ATOM     39  C   UNL A   1      47.354  35.293  29.388  1.00  0.00     0.039 A 
ATOM     40  C   UNL A   1      47.144  35.053  28.030  1.00  0.00     0.014 A 
ATOM     41  C   UNL A   1      47.053  34.318  30.336  1.00  0.00     0.014 A 
ATOM     42  C   UNL A   1      46.709  33.789  27.621  1.00  0.00     0.010 A 
ATOM     43  C   UNL A   1      46.793  33.029  29.919  1.00  0.00     0.010 A 
ATOM     44  C   UNL A   1      46.575  32.756  28.562  1.00  0.00    -0.014 A 
BRANCH  44  45
ATOM     45  C   UNL A   1      46.124  31.387  28.214  1.00  0.00     0.031 A 
ATOM     46  C   UNL A   1      44.668  31.042  28.409  1.00  0.00     0.074 A 
ATOM     47  C   UNL A   1      47.012  30.440  27.857  1.00  0.00     0.049 A 
ATOM     48  N   UNL A   1      44.086  29.873  28.416  1.00  0.00    -0.248 NA
ATOM     49  C   UNL A   1      43.760  32.166  28.712  1.00  0.00     0.031 C 
ATOM     50  C   UNL A   1      48.451  30.638  27.669  1.00  0.00     0.029 A 
ATOM     51  N   UNL A   1      46.824  29.106  27.602  1.00  0.00    -0.354 N 
ATOM     52  C   UNL A   1      42.767  30.119  28.782  1.00  0.00     0.074 A 
ATOM     53  C   UNL A   1      42.655  31.531  29.063  1.00  0.00     0.031 C 
ATOM     54  C   UNL A   1      49.007  29.478  27.284  1.00  0.00     0.029 A 
ATOM     55  C   UNL A   1      47.978  28.443  27.258  1.00  0.00     0.049 A 
ATOM     56  H   UNL A   1      45.947  28.664  27.659  1.00  0.00     0.167 HD
ATOM     57  C   UNL A   1      41.729  29.253  28.847  1.00  0.00     0.031 A 
ATOM     58  C   UNL A   1      48.178  27.144  26.964  1.00  0.00     0.031 A 
ATOM     59  C   UNL A   1      41.839  27.863  28.503  1.00  0.00     0.049 A 
ATOM     60  C   UNL A   1      47.008  26.200  27.008  1.00  0.00     0.074 A 
ATOM     61  C   UNL A   1      40.845  26.903  28.461  1.00  0.00     0.029 A 
ATOM     62  N   UNL A   1      43.018  27.243  28.116  1.00  0.00    -0.354 N 
ATOM     63  N   UNL A   1      45.759  26.449  27.331  1.00  0.00    -0.248 NA
ATOM     64  C   UNL A   1      47.270  24.802  26.643  1.00  0.00     0.031 C 
ATOM     65  C   UNL A   1      41.431  25.691  28.081  1.00  0.00     0.029 A 
ATOM     66  C   UNL A   1      42.779  25.910  27.837  1.00  0.00     0.049 A 
ATOM     67  H   UNL A   1      43.894  27.686  28.049  1.00  0.00     0.167 HD
ATOM     68  C   UNL A   1      45.081  25.245  27.174  1.00  0.00     0.074 A 
ATOM     69  C   UNL A   1      46.056  24.273  26.723  1.00  0.00     0.031 C 
ATOM     70  C   UNL A   1      43.770  24.968  27.379  1.00  0.00     0.031 A 
BRANCH  57  71
ATOM     71  C   UNL A   1      40.399  29.800  29.299  1.00  0.00    -0.014 A 
ATOM     72  C   UNL A   1      39.344  29.997  28.387  1.00  0.00     0.010 A 
ATOM     73  C   UNL A   1      40.206  30.144  30.648  1.00  0.00     0.010 A 
ATOM     74  C   UNL A   1      38.152  30.594  28.800  1.00  0.00     0.020 A 
ATOM     75  C   UNL A   1      38.999  30.707  31.074  1.00  0.00     0.020 A 
ATOM     76  C   UNL A   1      37.990  30.954  30.141  1.00  0.00     0.054 A 
BRANCH  76  77
ATOM     77  S   UNL A   1      36.437  31.739  30.649  1.00  0.00     0.124 S 
ATOM     78  O   UNL A   1      35.706  31.802  29.386  1.00  0.00    -0.237 OA
ATOM     79  O   UNL A   1      35.908  30.799  31.634  1.00  0.00    -0.237 OA
ATOM     80  O   UNL A   1      36.862  33.029  31.189  1.00  0.00    -0.744 OA
ENDBRANCH  76  77
ENDBRANCH  57  71
BRANCH  58  81
ATOM     81  C   UNL A   1      49.531  26.678  26.556  1.00  0.00    -0.014 A 
ATOM     82  C   UNL A   1      50.477  26.327  27.535  1.00  0.00     0.010 A 
ATOM     83  C   UNL A   1      49.872  26.546  25.198  1.00  0.00     0.010 A 
ATOM     84  C   UNL A   1      51.743  25.862  27.167  1.00  0.00     0.020 A 
ATOM     85  C   UNL A   1      51.128  26.057  24.824  1.00  0.00     0.020 A 
ATOM     86  C   UNL A   1      52.058  25.725  25.813  1.00  0.00     0.054 A 
BRANCH  86  87
ATOM     87  S   UNL A   1      53.682  25.054  25.361  1.00  0.00     0.124 S 
ATOM     88  O   UNL A   1      53.984  25.787  24.136  1.00  0.00    -0.237 OA
ATOM     89  O   UNL A   1      54.498  25.397  26.522  1.00  0.00    -0.237 OA
ATOM     90  O   UNL A   1      53.423  23.625  25.190  1.00  0.00    -0.744 OA
ENDBRANCH  86  87
ENDBRANCH  58  81
BRANCH  70  91
ATOM     91  C   UNL A   1      43.300  23.573  27.073  1.00  0.00    -0.014 A 
ATOM     92  C   UNL A   1      43.304  23.073  25.760  1.00  0.00     0.010 A 
ATOM     93  C   UNL A   1      42.924  22.726  28.133  1.00  0.00     0.010 A 
ATOM     94  C   UNL A   1      42.916  21.756  25.509  1.00  0.00     0.020 A 
ATOM     95  C   UNL A   1      42.562  21.401  27.889  1.00  0.00     0.020 A 
ATOM     96  C   UNL A   1      42.551  20.926  26.575  1.00  0.00     0.054 A 
BRANCH  96  97
ATOM     97  S   UNL A   1      42.111  19.202  26.229  1.00  0.00     0.124 S 
ATOM     98  O   UNL A   1      40.701  19.315  25.869  1.00  0.00    -0.237 OA
ATOM     99  O   UNL A   1      43.014  18.855  25.134  1.00  0.00    -0.237 OA
ATOM    100  O   UNL A   1      42.380  18.516  27.491  1.00  0.00    -0.744 OA
ENDBRANCH  96  97
ENDBRANCH  70  91
ENDBRANCH  44  45
ENDBRANCH  36  39
ENDBRANCH  34  35
ENDBRANCH  33  34
ENDBRANCH   1  33
TORSDOF 19
ENDMDL
MODEL 3
REMARK VINA RESULT:      -9.0      4.061      9.230
REMARK SMILES O=C(CN1C(=O)/C(=C/c2cccs2)SC1=S)Nc1ccc(O)cc1C(=O)NCCCCNC(=O)c1ccc(-c2c3nc(c(-c4ccc(S(=O)(=O)[O-])cc4)c4ccc([nH]4)c(-c4ccc(S(=O)(=O)[O-])cc4)c4nc(c(-c5ccc(S(=O)(=O)[O-])cc5)c5ccc2[nH]5)C=C4)C=C3)cc1
REMARK SMILES IDX 29 1 28 2 27 3 25 4 26 5 24 7 18 8 19 9 20 10 23 11 21 12
REMARK SMILES IDX 17 13 1 14 2 15 3 17 4 18 5 19 15 20 6 21 7 22 14 23 16 24
REMARK SMILES IDX 8 25 9 26 10 27 13 28 11 29 12 30 22 31 30 33 31 34 32 35
REMARK SMILES IDX 33 36 34 38 35 39 36 40 94 41 37 42 93 43 38 44 39 45 40 46
REMARK SMILES IDX 87 47 41 48 92 49 86 50 88 51 42 52 91 53 85 54 84 55 43 57
REMARK SMILES IDX 73 58 54 59 72 60 55 61 58 62 71 63 89 64 56 65 57 66 70 68
REMARK SMILES IDX 90 69 59 70 44 71 45 72 53 73 46 74 52 75 47 76 48 77 49 78
REMARK SMILES IDX 50 79 51 80 74 81 75 82 83 83 76 84 82 85 77 86 78 87 79 88
REMARK SMILES IDX 80 89 81 90 60 91 61 92 69 93 62 94 68 95 63 96 64 97 65 98
REMARK SMILES IDX 66 99 67 100
REMARK H PARENT 27 6 17 16 22 32 32 37 88 56 58 67
REMARK Flexibility Score: inf
ROOT
ATOM      1  C   UNL A   1      47.271  22.807  35.837  1.00  0.00     0.023 C 
ENDROOT
BRANCH   1   2
ATOM      2  C   UNL A   1      47.113  21.370  36.329  1.00  0.00     0.116 C 
BRANCH   2   3
ATOM      3  N   UNL A   1      48.294  20.640  35.933  1.00  0.00    -0.352 N 
ATOM      4  C   UNL A   1      49.509  20.449  36.538  1.00  0.00     0.253 C 
ATOM      5  O   UNL A   1      50.408  19.981  35.836  1.00  0.00    -0.269 OA
ATOM      6  H   UNL A   1      48.212  20.194  35.060  1.00  0.00     0.163 HD
BRANCH   4   7
ATOM      7  C   UNL A   1      49.775  20.622  37.997  1.00  0.00     0.067 A 
ATOM      8  C   UNL A   1      49.095  20.044  39.097  1.00  0.00     0.054 A 
ATOM      9  C   UNL A   1      49.394  20.496  40.394  1.00  0.00     0.031 A 
ATOM     10  C   UNL A   1      50.281  21.550  40.610  1.00  0.00     0.048 A 
ATOM     11  C   UNL A   1      50.665  21.689  38.238  1.00  0.00     0.062 A 
ATOM     12  C   UNL A   1      50.892  22.153  39.524  1.00  0.00     0.116 A 
BRANCH   8  13
ATOM     13  N   UNL A   1      48.120  19.041  38.938  1.00  0.00    -0.324 N 
ATOM     14  O   UNL A   1      46.168  20.096  39.646  1.00  0.00    -0.273 OA
ATOM     15  C   UNL A   1      46.765  19.102  39.243  1.00  0.00     0.244 C 
ATOM     16  H   UNL A   1      48.438  18.188  38.564  1.00  0.00     0.170 HD
BRANCH  15  17
ATOM     17  C   UNL A   1      46.026  17.757  39.061  1.00  0.00     0.227 C 
BRANCH  17  18
ATOM     18  N   UNL A   1      45.134  17.207  40.095  1.00  0.00    -0.283 N 
ATOM     19  C   UNL A   1      43.837  16.828  39.817  1.00  0.00     0.266 C 
ATOM     20  C   UNL A   1      45.577  16.926  41.377  1.00  0.00     0.148 C 
ATOM     21  O   UNL A   1      43.240  17.035  38.770  1.00  0.00    -0.268 OA
ATOM     22  C   UNL A   1      43.280  15.999  40.924  1.00  0.00     0.081 C 
ATOM     23  S   UNL A   1      44.338  16.052  42.269  1.00  0.00    -0.054 SA
ATOM     24  S   UNL A   1      47.056  17.301  42.050  1.00  0.00    -0.052 S 
ATOM     25  C   UNL A   1      42.223  15.211  40.683  1.00  0.00     0.040 C 
BRANCH  25  26
ATOM     26  C   UNL A   1      41.751  14.166  41.532  1.00  0.00     0.028 A 
ATOM     27  C   UNL A   1      41.466  12.832  41.295  1.00  0.00     0.020 A 
ATOM     28  S   UNL A   1      41.466  14.545  43.197  1.00  0.00    -0.144 S 
ATOM     29  C   UNL A   1      41.005  12.141  42.457  1.00  0.00     0.012 A 
ATOM     30  C   UNL A   1      40.949  12.961  43.558  1.00  0.00     0.065 A 
ENDBRANCH  25  26
ENDBRANCH  17  18
ENDBRANCH  15  17
ENDBRANCH   8  13
BRANCH  12  31
ATOM     31  O   UNL A   1      51.702  23.237  39.679  1.00  0.00    -0.508 OA
ATOM     32  H   UNL A   1      51.517  24.031  39.218  1.00  0.00     0.293 HD
ENDBRANCH  12  31
ENDBRANCH   4   7
ENDBRANCH   2   3
ENDBRANCH   1   2
BRANCH   1  33
ATOM     33  C   UNL A   1      46.909  23.899  36.816  1.00  0.00     0.023 C 
BRANCH  33  34
ATOM     34  C   UNL A   1      47.507  25.234  36.453  1.00  0.00     0.116 C 
BRANCH  34  35
ATOM     35  N   UNL A   1      47.719  26.101  37.614  1.00  0.00    -0.352 N 
ATOM     36  C   UNL A   1      47.113  27.292  37.943  1.00  0.00     0.251 C 
ATOM     37  H   UNL A   1      48.397  25.785  38.254  1.00  0.00     0.163 HD
ATOM     38  O   UNL A   1      47.493  27.931  38.917  1.00  0.00    -0.269 OA
BRANCH  36  39
ATOM     39  C   UNL A   1      46.014  27.785  37.095  1.00  0.00     0.039 A 
ATOM     40  C   UNL A   1      44.715  27.308  37.272  1.00  0.00     0.014 A 
ATOM     41  C   UNL A   1      46.280  28.794  36.172  1.00  0.00     0.014 A 
ATOM     42  C   UNL A   1      43.666  27.914  36.575  1.00  0.00     0.010 A 
ATOM     43  C   UNL A   1      45.230  29.499  35.622  1.00  0.00     0.010 A 
ATOM     44  C   UNL A   1      43.914  29.044  35.781  1.00  0.00    -0.014 A 
BRANCH  44  45
ATOM     45  C   UNL A   1      42.860  29.751  35.013  1.00  0.00     0.031 A 
ATOM     46  C   UNL A   1      41.991  30.746  35.741  1.00  0.00     0.074 A 
ATOM     47  C   UNL A   1      42.601  29.420  33.734  1.00  0.00     0.049 A 
ATOM     48  N   UNL A   1      40.868  31.297  35.366  1.00  0.00    -0.248 NA
ATOM     49  C   UNL A   1      42.410  31.110  37.109  1.00  0.00     0.031 C 
ATOM     50  C   UNL A   1      43.346  28.449  32.930  1.00  0.00     0.029 A 
ATOM     51  N   UNL A   1      41.618  29.865  32.889  1.00  0.00    -0.354 N 
ATOM     52  C   UNL A   1      40.422  32.017  36.469  1.00  0.00     0.074 A 
ATOM     53  C   UNL A   1      41.351  31.770  37.546  1.00  0.00     0.031 C 
ATOM     54  C   UNL A   1      42.820  28.405  31.695  1.00  0.00     0.029 A 
ATOM     55  C   UNL A   1      41.667  29.298  31.638  1.00  0.00     0.049 A 
ATOM     56  H   UNL A   1      40.941  30.529  33.152  1.00  0.00     0.167 HD
ATOM     57  C   UNL A   1      39.352  32.840  36.570  1.00  0.00     0.031 A 
ATOM     58  C   UNL A   1      40.863  29.475  30.571  1.00  0.00     0.031 A 
ATOM     59  C   UNL A   1      38.472  33.127  35.472  1.00  0.00     0.049 A 
ATOM     60  C   UNL A   1      39.698  30.419  30.689  1.00  0.00     0.074 A 
ATOM     61  C   UNL A   1      37.398  33.996  35.433  1.00  0.00     0.029 A 
ATOM     62  N   UNL A   1      38.585  32.565  34.210  1.00  0.00    -0.354 N 
ATOM     63  N   UNL A   1      39.301  31.114  31.730  1.00  0.00    -0.248 NA
ATOM     64  C   UNL A   1      38.874  30.607  29.488  1.00  0.00     0.031 C 
ATOM     65  C   UNL A   1      36.839  33.933  34.152  1.00  0.00     0.029 A 
ATOM     66  C   UNL A   1      37.598  33.064  33.381  1.00  0.00     0.049 A 
ATOM     67  H   UNL A   1      39.269  31.908  33.942  1.00  0.00     0.167 HD
ATOM     68  C   UNL A   1      38.202  31.848  31.298  1.00  0.00     0.074 A 
ATOM     69  C   UNL A   1      38.001  31.516  29.902  1.00  0.00     0.031 C 
ATOM     70  C   UNL A   1      37.430  32.721  31.991  1.00  0.00     0.031 A 
BRANCH  57  71
ATOM     71  C   UNL A   1      39.097  33.480  37.911  1.00  0.00    -0.014 A 
ATOM     72  C   UNL A   1      39.541  34.786  38.191  1.00  0.00     0.010 A 
ATOM     73  C   UNL A   1      38.423  32.760  38.913  1.00  0.00     0.010 A 
ATOM     74  C   UNL A   1      39.383  35.331  39.467  1.00  0.00     0.020 A 
ATOM     75  C   UNL A   1      38.228  33.317  40.181  1.00  0.00     0.020 A 
ATOM     76  C   UNL A   1      38.734  34.588  40.458  1.00  0.00     0.054 A 
BRANCH  76  77
ATOM     77  S   UNL A   1      38.553  35.314  42.109  1.00  0.00     0.124 S 
ATOM     78  O   UNL A   1      38.871  36.717  41.857  1.00  0.00    -0.237 OA
ATOM     79  O   UNL A   1      37.156  35.035  42.431  1.00  0.00    -0.237 OA
ATOM     80  O   UNL A   1      39.532  34.588  42.915  1.00  0.00    -0.744 OA
ENDBRANCH  76  77
ENDBRANCH  57  71
BRANCH  58  81
ATOM     81  C   UNL A   1      41.168  28.781  29.292  1.00  0.00    -0.014 A 
ATOM     82  C   UNL A   1      41.965  29.416  28.323  1.00  0.00     0.010 A 
ATOM     83  C   UNL A   1      40.701  27.478  29.045  1.00  0.00     0.010 A 
ATOM     84  C   UNL A   1      42.283  28.766  27.126  1.00  0.00     0.020 A 
ATOM     85  C   UNL A   1      41.037  26.814  27.861  1.00  0.00     0.020 A 
ATOM     86  C   UNL A   1      41.820  27.466  26.906  1.00  0.00     0.054 A 
BRANCH  86  87
ATOM     87  S   UNL A   1      42.304  26.619  25.376  1.00  0.00     0.124 S 
ATOM     88  O   UNL A   1      41.107  25.843  25.067  1.00  0.00    -0.237 OA
ATOM     89  O   UNL A   1      42.587  27.732  24.475  1.00  0.00    -0.237 OA
ATOM     90  O   UNL A   1      43.472  25.837  25.776  1.00  0.00    -0.744 OA
ENDBRANCH  86  87
ENDBRANCH  58  81
BRANCH  70  91
ATOM     91  C   UNL A   1      36.328  33.418  31.242  1.00  0.00    -0.014 A 
ATOM     92  C   UNL A   1      35.132  33.787  31.879  1.00  0.00     0.010 A 
ATOM     93  C   UNL A   1      36.533  33.777  29.896  1.00  0.00     0.010 A 
ATOM     94  C   UNL A   1      34.147  34.483  31.175  1.00  0.00     0.020 A 
ATOM     95  C   UNL A   1      35.562  34.496  29.198  1.00  0.00     0.020 A 
ATOM     96  C   UNL A   1      34.369  34.836  29.840  1.00  0.00     0.054 A 
BRANCH  96  97
ATOM     97  S   UNL A   1      33.101  35.793  28.967  1.00  0.00     0.124 S 
ATOM     98  O   UNL A   1      32.287  36.297  30.071  1.00  0.00    -0.237 OA
ATOM     99  O   UNL A   1      33.890  36.799  28.259  1.00  0.00    -0.237 OA
ATOM    100  O   UNL A   1      32.449  34.805  28.111  1.00  0.00    -0.744 OA
ENDBRANCH  96  97
ENDBRANCH  70  91
ENDBRANCH  44  45
ENDBRANCH  36  39
ENDBRANCH  34  35
ENDBRANCH  33  34
ENDBRANCH   1  33
TORSDOF 19
ENDMDL
