MODEL 1
REMARK VINA RESULT:     -12.8      0.000      0.000
REMARK SMILES Cc1cccc(C(=O)NCCCCNC(=O)c2ccc(-c3c4nc(c(-c5ccc(S(=O)(=O)[O-])cc5)c5ccc([nH]5)c(-c5ccc(S(=O)(=O)[O-])cc5)c5nc(c(-c6ccc(S(=O)(=O)[O-])cc6)c6ccc3[nH]6)C=C5)C=C4)cc2)c1OC[C@@H]1C[C@H]2CC[C@@H]1C2
REMARK SMILES IDX 11 1 10 2 9 3 7 4 8 5 6 7 1 8 2 9 3 10 77 11 4 12 5 13 78 14
REMARK SMILES IDX 79 15 80 16 81 17 85 18 82 19 84 20 86 21 83 22 12 23 13 24
REMARK SMILES IDX 14 25 15 26 16 28 17 29 18 30 76 31 19 32 75 33 20 34 21 35
REMARK SMILES IDX 22 36 69 37 23 38 74 39 68 40 70 41 24 42 73 43 67 44 66 45
REMARK SMILES IDX 25 47 55 48 36 49 54 50 37 51 40 52 53 53 71 54 38 55 39 56
REMARK SMILES IDX 52 58 72 59 41 60 26 61 27 62 35 63 28 64 34 65 29 66 30 67
REMARK SMILES IDX 31 68 32 69 33 70 56 71 57 72 65 73 58 74 64 75 59 76 60 77
REMARK SMILES IDX 61 78 62 79 63 80 42 81 43 82 51 83 44 84 50 85 45 86 46 87
REMARK SMILES IDX 47 88 48 89 49 90
REMARK H PARENT 9 6 14 27 70 46 40 57
REMARK Flexibility Score: inf
ROOT
ATOM      1  C   UNL A   1      33.550  28.678  24.990  1.00  0.00     0.023 C 
ENDROOT
BRANCH   1   2
ATOM      2  C   UNL A   1      32.680  28.967  23.754  1.00  0.00     0.116 C 
BRANCH   2   3
ATOM      3  N   UNL A   1      33.162  28.266  22.585  1.00  0.00    -0.352 N 
ATOM      4  C   UNL A   1      33.075  26.979  22.142  1.00  0.00     0.255 C 
ATOM      5  O   UNL A   1      33.608  26.778  21.040  1.00  0.00    -0.269 OA
ATOM      6  H   UNL A   1      33.665  28.849  21.970  1.00  0.00     0.163 HD
BRANCH   4   7
ATOM      7  C   UNL A   1      32.416  25.805  22.808  1.00  0.00     0.082 A 
ATOM      8  C   UNL A   1      32.044  21.999  22.720  1.00  0.00     0.048 C 
ATOM      9  C   UNL A   1      31.864  23.446  23.094  1.00  0.00    -0.008 A 
ATOM     10  C   UNL A   1      30.585  23.802  23.558  1.00  0.00     0.007 A 
ATOM     11  C   UNL A   1      32.824  24.452  22.828  1.00  0.00     0.134 A 
ATOM     12  C   UNL A   1      30.223  25.133  23.685  1.00  0.00     0.001 A 
ATOM     13  C   UNL A   1      31.118  26.116  23.281  1.00  0.00     0.018 A 
BRANCH  11  14
ATOM     14  O   UNL A   1      34.086  24.115  22.453  1.00  0.00    -0.492 OA
BRANCH  14  15
ATOM     15  C   UNL A   1      35.133  23.977  23.445  1.00  0.00     0.233 C 
BRANCH  15  16
ATOM     16  C   UNL A   1      35.781  22.589  23.671  1.00  0.00     0.030 C 
ATOM     17  C   UNL A   1      34.845  21.622  24.457  1.00  0.00     0.011 C 
ATOM     18  C   UNL A   1      36.991  22.671  24.644  1.00  0.00    -0.004 C 
ATOM     19  C   UNL A   1      35.650  21.270  25.722  1.00  0.00    -0.010 C 
ATOM     20  C   UNL A   1      37.769  21.345  24.598  1.00  0.00     0.004 C 
ATOM     21  C   UNL A   1      36.335  22.595  26.025  1.00  0.00     0.007 C 
ATOM     22  C   UNL A   1      36.838  20.376  25.336  1.00  0.00     0.004 C 
ENDBRANCH  15  16
ENDBRANCH  14  15
ENDBRANCH  11  14
ENDBRANCH   4   7
ENDBRANCH   2   3
ENDBRANCH   1   2
BRANCH   1  23
ATOM     23  C   UNL A   1      33.426  29.696  26.126  1.00  0.00     0.023 C 
BRANCH  23  24
ATOM     24  C   UNL A   1      34.527  29.548  27.161  1.00  0.00     0.116 C 
BRANCH  24  25
ATOM     25  N   UNL A   1      35.279  30.761  27.435  1.00  0.00    -0.352 N 
ATOM     26  C   UNL A   1      36.444  30.863  28.179  1.00  0.00     0.251 C 
ATOM     27  H   UNL A   1      34.924  31.595  27.052  1.00  0.00     0.163 HD
ATOM     28  O   UNL A   1      36.810  31.909  28.688  1.00  0.00    -0.269 OA
BRANCH  26  29
ATOM     29  C   UNL A   1      37.322  29.670  28.192  1.00  0.00     0.039 A 
ATOM     30  C   UNL A   1      37.413  28.971  29.403  1.00  0.00     0.014 A 
ATOM     31  C   UNL A   1      38.248  29.462  27.175  1.00  0.00     0.014 A 
ATOM     32  C   UNL A   1      38.543  28.203  29.667  1.00  0.00     0.010 A 
ATOM     33  C   UNL A   1      39.416  28.792  27.481  1.00  0.00     0.010 A 
ATOM     34  C   UNL A   1      39.587  28.205  28.744  1.00  0.00    -0.014 A 
BRANCH  34  35
ATOM     35  C   UNL A   1      40.920  27.679  29.018  1.00  0.00     0.031 A 
ATOM     36  C   UNL A   1      41.238  26.277  28.651  1.00  0.00     0.074 A 
ATOM     37  C   UNL A   1      41.890  28.486  29.507  1.00  0.00     0.049 A 
ATOM     38  N   UNL A   1      42.265  25.622  29.082  1.00  0.00    -0.248 NA
ATOM     39  C   UNL A   1      40.351  25.459  27.822  1.00  0.00     0.031 C 
ATOM     40  C   UNL A   1      43.329  28.228  29.494  1.00  0.00     0.029 A 
ATOM     41  N   UNL A   1      41.763  29.614  30.324  1.00  0.00    -0.354 N 
ATOM     42  C   UNL A   1      42.339  24.451  28.366  1.00  0.00     0.074 A 
ATOM     43  C   UNL A   1      41.066  24.337  27.699  1.00  0.00     0.031 C 
ATOM     44  C   UNL A   1      43.904  28.941  30.474  1.00  0.00     0.029 A 
ATOM     45  C   UNL A   1      42.831  29.556  31.237  1.00  0.00     0.049 A 
ATOM     46  H   UNL A   1      41.068  30.309  30.271  1.00  0.00     0.167 HD
ATOM     47  C   UNL A   1      43.522  23.779  28.300  1.00  0.00     0.031 A 
ATOM     48  C   UNL A   1      42.687  29.465  32.592  1.00  0.00     0.031 A 
ATOM     49  C   UNL A   1      44.469  24.272  29.297  1.00  0.00     0.049 A 
ATOM     50  C   UNL A   1      43.368  28.252  33.186  1.00  0.00     0.074 A 
ATOM     51  C   UNL A   1      45.599  25.068  29.231  1.00  0.00     0.029 A 
ATOM     52  N   UNL A   1      44.140  24.164  30.645  1.00  0.00    -0.354 N 
ATOM     53  N   UNL A   1      43.794  27.238  32.483  1.00  0.00    -0.248 NA
ATOM     54  C   UNL A   1      43.577  28.060  34.618  1.00  0.00     0.031 C 
ATOM     55  C   UNL A   1      45.876  25.535  30.547  1.00  0.00     0.029 A 
ATOM     56  C   UNL A   1      44.947  24.981  31.411  1.00  0.00     0.049 A 
ATOM     57  H   UNL A   1      43.429  23.583  31.003  1.00  0.00     0.167 HD
ATOM     58  C   UNL A   1      44.285  26.272  33.319  1.00  0.00     0.074 A 
ATOM     59  C   UNL A   1      44.151  26.844  34.647  1.00  0.00     0.031 C 
ATOM     60  C   UNL A   1      44.739  25.072  32.852  1.00  0.00     0.031 A 
BRANCH  47  61
ATOM     61  C   UNL A   1      43.904  22.823  27.184  1.00  0.00    -0.014 A 
ATOM     62  C   UNL A   1      42.989  21.831  26.771  1.00  0.00     0.010 A 
ATOM     63  C   UNL A   1      45.182  22.759  26.592  1.00  0.00     0.010 A 
ATOM     64  C   UNL A   1      43.344  20.820  25.857  1.00  0.00     0.020 A 
ATOM     65  C   UNL A   1      45.542  21.776  25.660  1.00  0.00     0.020 A 
ATOM     66  C   UNL A   1      44.626  20.795  25.313  1.00  0.00     0.054 A 
BRANCH  66  67
ATOM     67  S   UNL A   1      45.105  19.461  24.184  1.00  0.00     0.124 S 
ATOM     68  O   UNL A   1      44.535  18.283  24.835  1.00  0.00    -0.237 OA
ATOM     69  O   UNL A   1      44.471  19.860  22.931  1.00  0.00    -0.237 OA
ATOM     70  O   UNL A   1      46.567  19.517  24.181  1.00  0.00    -0.744 OA
ENDBRANCH  66  67
ENDBRANCH  47  61
BRANCH  48  71
ATOM     71  C   UNL A   1      41.450  30.092  33.129  1.00  0.00    -0.014 A 
ATOM     72  C   UNL A   1      41.526  31.455  33.475  1.00  0.00     0.010 A 
ATOM     73  C   UNL A   1      40.193  29.523  32.861  1.00  0.00     0.010 A 
ATOM     74  C   UNL A   1      40.407  32.280  33.348  1.00  0.00     0.020 A 
ATOM     75  C   UNL A   1      39.067  30.349  32.739  1.00  0.00     0.020 A 
ATOM     76  C   UNL A   1      39.206  31.730  32.902  1.00  0.00     0.054 A 
BRANCH  76  77
ATOM     77  S   UNL A   1      37.912  32.870  32.325  1.00  0.00     0.124 S 
ATOM     78  O   UNL A   1      36.750  31.996  32.210  1.00  0.00    -0.237 OA
ATOM     79  O   UNL A   1      37.865  33.837  33.422  1.00  0.00    -0.237 OA
ATOM     80  O   UNL A   1      38.450  33.376  31.067  1.00  0.00    -0.744 OA
ENDBRANCH  76  77
ENDBRANCH  48  71
BRANCH  60  81
ATOM     81  C   UNL A   1      45.086  23.877  33.709  1.00  0.00    -0.014 A 
ATOM     82  C   UNL A   1      44.157  22.904  34.113  1.00  0.00     0.010 A 
ATOM     83  C   UNL A   1      46.444  23.637  34.028  1.00  0.00     0.010 A 
ATOM     84  C   UNL A   1      44.550  21.786  34.863  1.00  0.00     0.020 A 
ATOM     85  C   UNL A   1      46.853  22.503  34.735  1.00  0.00     0.020 A 
ATOM     86  C   UNL A   1      45.895  21.596  35.175  1.00  0.00     0.054 A 
BRANCH  86  87
ATOM     87  S   UNL A   1      46.405  20.122  36.096  1.00  0.00     0.124 S 
ATOM     88  O   UNL A   1      45.692  20.296  37.359  1.00  0.00    -0.237 OA
ATOM     89  O   UNL A   1      45.929  19.026  35.256  1.00  0.00    -0.237 OA
ATOM     90  O   UNL A   1      47.858  20.254  36.171  1.00  0.00    -0.744 OA
ENDBRANCH  86  87
ENDBRANCH  60  81
ENDBRANCH  34  35
ENDBRANCH  26  29
ENDBRANCH  24  25
ENDBRANCH  23  24
ENDBRANCH   1  23
TORSDOF 17
ENDMDL
MODEL 2
REMARK VINA RESULT:     -12.7      1.192      1.797
REMARK SMILES Cc1cccc(C(=O)NCCCCNC(=O)c2ccc(-c3c4nc(c(-c5ccc(S(=O)(=O)[O-])cc5)c5ccc([nH]5)c(-c5ccc(S(=O)(=O)[O-])cc5)c5nc(c(-c6ccc(S(=O)(=O)[O-])cc6)c6ccc3[nH]6)C=C5)C=C4)cc2)c1OC[C@@H]1C[C@H]2CC[C@@H]1C2
REMARK SMILES IDX 11 1 10 2 9 3 7 4 8 5 6 7 1 8 2 9 3 10 77 11 4 12 5 13 78 14
REMARK SMILES IDX 79 15 80 16 81 17 85 18 82 19 84 20 86 21 83 22 12 23 13 24
REMARK SMILES IDX 14 25 15 26 16 28 17 29 18 30 76 31 19 32 75 33 20 34 21 35
REMARK SMILES IDX 22 36 69 37 23 38 74 39 68 40 70 41 24 42 73 43 67 44 66 45
REMARK SMILES IDX 25 47 55 48 36 49 54 50 37 51 40 52 53 53 71 54 38 55 39 56
REMARK SMILES IDX 52 58 72 59 41 60 26 61 27 62 35 63 28 64 34 65 29 66 30 67
REMARK SMILES IDX 31 68 32 69 33 70 56 71 57 72 65 73 58 74 64 75 59 76 60 77
REMARK SMILES IDX 61 78 62 79 63 80 42 81 43 82 51 83 44 84 50 85 45 86 46 87
REMARK SMILES IDX 47 88 48 89 49 90
REMARK H PARENT 9 6 14 27 70 46 40 57
REMARK Flexibility Score: inf
ROOT
ATOM      1  C   UNL A   1      32.183  28.757  27.593  1.00  0.00     0.023 C 
ENDROOT
BRANCH   1   2
ATOM      2  C   UNL A   1      31.498  27.842  26.561  1.00  0.00     0.116 C 
BRANCH   2   3
ATOM      3  N   UNL A   1      31.291  26.509  27.082  1.00  0.00    -0.352 N 
ATOM      4  C   UNL A   1      31.345  25.257  26.545  1.00  0.00     0.255 C 
ATOM      5  O   UNL A   1      31.132  24.342  27.354  1.00  0.00    -0.269 OA
ATOM      6  H   UNL A   1      31.061  26.505  28.039  1.00  0.00     0.163 HD
BRANCH   4   7
ATOM      7  C   UNL A   1      31.638  24.862  25.125  1.00  0.00     0.082 A 
ATOM      8  C   UNL A   1      33.725  25.721  22.036  1.00  0.00     0.048 C 
ATOM      9  C   UNL A   1      32.716  25.073  22.947  1.00  0.00    -0.008 A 
ATOM     10  C   UNL A   1      31.551  24.592  22.324  1.00  0.00     0.007 A 
ATOM     11  C   UNL A   1      32.802  25.099  24.361  1.00  0.00     0.134 A 
ATOM     12  C   UNL A   1      30.450  24.216  23.075  1.00  0.00     0.001 A 
ATOM     13  C   UNL A   1      30.486  24.383  24.454  1.00  0.00     0.018 A 
BRANCH  11  14
ATOM     14  O   UNL A   1      33.951  25.489  24.972  1.00  0.00    -0.492 OA
BRANCH  14  15
ATOM     15  C   UNL A   1      34.522  24.692  26.039  1.00  0.00     0.233 C 
BRANCH  15  16
ATOM     16  C   UNL A   1      35.694  23.732  25.720  1.00  0.00     0.030 C 
ATOM     17  C   UNL A   1      36.249  23.936  24.279  1.00  0.00     0.011 C 
ATOM     18  C   UNL A   1      35.219  22.253  25.638  1.00  0.00    -0.004 C 
ATOM     19  C   UNL A   1      36.049  22.566  23.604  1.00  0.00    -0.010 C 
ATOM     20  C   UNL A   1      36.448  21.328  25.621  1.00  0.00     0.004 C 
ATOM     21  C   UNL A   1      34.718  22.126  24.197  1.00  0.00     0.007 C 
ATOM     22  C   UNL A   1      37.025  21.550  24.218  1.00  0.00     0.004 C 
ENDBRANCH  15  16
ENDBRANCH  14  15
ENDBRANCH  11  14
ENDBRANCH   4   7
ENDBRANCH   2   3
ENDBRANCH   1   2
BRANCH   1  23
ATOM     23  C   UNL A   1      33.049  29.871  27.002  1.00  0.00     0.023 C 
BRANCH  23  24
ATOM     24  C   UNL A   1      34.532  29.637  27.230  1.00  0.00     0.116 C 
BRANCH  24  25
ATOM     25  N   UNL A   1      35.313  30.837  27.473  1.00  0.00    -0.352 N 
ATOM     26  C   UNL A   1      36.488  30.928  28.203  1.00  0.00     0.251 C 
ATOM     27  H   UNL A   1      34.972  31.672  27.078  1.00  0.00     0.163 HD
ATOM     28  O   UNL A   1      36.882  31.975  28.688  1.00  0.00    -0.269 OA
BRANCH  26  29
ATOM     29  C   UNL A   1      37.340  29.717  28.229  1.00  0.00     0.039 A 
ATOM     30  C   UNL A   1      37.482  29.077  29.467  1.00  0.00     0.014 A 
ATOM     31  C   UNL A   1      38.203  29.436  27.175  1.00  0.00     0.014 A 
ATOM     32  C   UNL A   1      38.609  28.296  29.709  1.00  0.00     0.010 A 
ATOM     33  C   UNL A   1      39.372  28.754  27.451  1.00  0.00     0.010 A 
ATOM     34  C   UNL A   1      39.600  28.227  28.732  1.00  0.00    -0.014 A 
BRANCH  34  35
ATOM     35  C   UNL A   1      40.935  27.684  28.959  1.00  0.00     0.031 A 
ATOM     36  C   UNL A   1      41.218  26.273  28.595  1.00  0.00     0.074 A 
ATOM     37  C   UNL A   1      41.935  28.481  29.403  1.00  0.00     0.049 A 
ATOM     38  N   UNL A   1      42.251  25.607  28.993  1.00  0.00    -0.248 NA
ATOM     39  C   UNL A   1      40.288  25.461  27.809  1.00  0.00     0.031 C 
ATOM     40  C   UNL A   1      43.368  28.200  29.337  1.00  0.00     0.029 A 
ATOM     41  N   UNL A   1      41.857  29.618  30.212  1.00  0.00    -0.354 N 
ATOM     42  C   UNL A   1      42.280  24.428  28.286  1.00  0.00     0.074 A 
ATOM     43  C   UNL A   1      40.981  24.327  27.671  1.00  0.00     0.031 C 
ATOM     44  C   UNL A   1      43.991  28.914  30.287  1.00  0.00     0.029 A 
ATOM     45  C   UNL A   1      42.958  29.552  31.084  1.00  0.00     0.049 A 
ATOM     46  H   UNL A   1      41.169  30.322  30.179  1.00  0.00     0.167 HD
ATOM     47  C   UNL A   1      43.450  23.738  28.182  1.00  0.00     0.031 A 
ATOM     48  C   UNL A   1      42.865  29.476  32.445  1.00  0.00     0.031 A 
ATOM     49  C   UNL A   1      44.442  24.227  29.137  1.00  0.00     0.049 A 
ATOM     50  C   UNL A   1      43.550  28.259  33.024  1.00  0.00     0.074 A 
ATOM     51  C   UNL A   1      45.580  25.004  29.020  1.00  0.00     0.029 A 
ATOM     52  N   UNL A   1      44.163  24.136  30.498  1.00  0.00    -0.354 N 
ATOM     53  N   UNL A   1      43.933  27.232  32.316  1.00  0.00    -0.248 NA
ATOM     54  C   UNL A   1      43.812  28.078  34.449  1.00  0.00     0.031 C 
ATOM     55  C   UNL A   1      45.915  25.479  30.319  1.00  0.00     0.029 A 
ATOM     56  C   UNL A   1      45.011  24.948  31.224  1.00  0.00     0.049 A 
ATOM     57  H   UNL A   1      43.458  23.570  30.888  1.00  0.00     0.167 HD
ATOM     58  C   UNL A   1      44.442  26.267  33.142  1.00  0.00     0.074 A 
ATOM     59  C   UNL A   1      44.368  26.854  34.468  1.00  0.00     0.031 C 
ATOM     60  C   UNL A   1      44.860  25.056  32.671  1.00  0.00     0.031 A 
BRANCH  47  61
ATOM     61  C   UNL A   1      43.774  22.766  27.062  1.00  0.00    -0.014 A 
ATOM     62  C   UNL A   1      42.969  21.621  26.875  1.00  0.00     0.010 A 
ATOM     63  C   UNL A   1      44.921  22.844  26.246  1.00  0.00     0.010 A 
ATOM     64  C   UNL A   1      43.311  20.607  25.961  1.00  0.00     0.020 A 
ATOM     65  C   UNL A   1      45.261  21.856  25.312  1.00  0.00     0.020 A 
ATOM     66  C   UNL A   1      44.465  20.729  25.190  1.00  0.00     0.054 A 
BRANCH  66  67
ATOM     67  S   UNL A   1      44.941  19.396  24.057  1.00  0.00     0.124 S 
ATOM     68  O   UNL A   1      44.168  18.265  24.565  1.00  0.00    -0.237 OA
ATOM     69  O   UNL A   1      44.523  19.916  22.759  1.00  0.00    -0.237 OA
ATOM     70  O   UNL A   1      46.388  19.286  24.240  1.00  0.00    -0.744 OA
ENDBRANCH  66  67
ENDBRANCH  47  61
BRANCH  48  71
ATOM     71  C   UNL A   1      41.658  30.127  33.022  1.00  0.00    -0.014 A 
ATOM     72  C   UNL A   1      41.686  31.531  33.139  1.00  0.00     0.010 A 
ATOM     73  C   UNL A   1      40.418  29.468  33.000  1.00  0.00     0.010 A 
ATOM     74  C   UNL A   1      40.511  32.274  33.021  1.00  0.00     0.020 A 
ATOM     75  C   UNL A   1      39.235  30.212  32.888  1.00  0.00     0.020 A 
ATOM     76  C   UNL A   1      39.305  31.606  32.815  1.00  0.00     0.054 A 
BRANCH  76  77
ATOM     77  S   UNL A   1      37.885  32.579  32.227  1.00  0.00     0.124 S 
ATOM     78  O   UNL A   1      38.462  33.351  31.132  1.00  0.00    -0.237 OA
ATOM     79  O   UNL A   1      36.953  31.523  31.829  1.00  0.00    -0.237 OA
ATOM     80  O   UNL A   1      37.495  33.346  33.406  1.00  0.00    -0.744 OA
ENDBRANCH  76  77
ENDBRANCH  48  71
BRANCH  60  81
ATOM     81  C   UNL A   1      45.222  23.864  33.526  1.00  0.00    -0.014 A 
ATOM     82  C   UNL A   1      46.516  23.606  34.005  1.00  0.00     0.010 A 
ATOM     83  C   UNL A   1      44.187  23.016  33.988  1.00  0.00     0.010 A 
ATOM     84  C   UNL A   1      46.781  22.511  34.841  1.00  0.00     0.020 A 
ATOM     85  C   UNL A   1      44.431  21.950  34.859  1.00  0.00     0.020 A 
ATOM     86  C   UNL A   1      45.737  21.686  35.258  1.00  0.00     0.054 A 
BRANCH  86  87
ATOM     87  S   UNL A   1      46.074  20.308  36.383  1.00  0.00     0.124 S 
ATOM     88  O   UNL A   1      45.277  19.236  35.791  1.00  0.00    -0.237 OA
ATOM     89  O   UNL A   1      47.521  20.141  36.278  1.00  0.00    -0.237 OA
ATOM     90  O   UNL A   1      45.603  20.801  37.675  1.00  0.00    -0.744 OA
ENDBRANCH  86  87
ENDBRANCH  60  81
ENDBRANCH  34  35
ENDBRANCH  26  29
ENDBRANCH  24  25
ENDBRANCH  23  24
ENDBRANCH   1  23
TORSDOF 17
ENDMDL
MODEL 3
REMARK VINA RESULT:     -12.6      4.553     11.155
REMARK SMILES Cc1cccc(C(=O)NCCCCNC(=O)c2ccc(-c3c4nc(c(-c5ccc(S(=O)(=O)[O-])cc5)c5ccc([nH]5)c(-c5ccc(S(=O)(=O)[O-])cc5)c5nc(c(-c6ccc(S(=O)(=O)[O-])cc6)c6ccc3[nH]6)C=C5)C=C4)cc2)c1OC[C@@H]1C[C@H]2CC[C@@H]1C2
REMARK SMILES IDX 11 1 10 2 9 3 7 4 8 5 6 7 1 8 2 9 3 10 77 11 4 12 5 13 78 14
REMARK SMILES IDX 79 15 80 16 81 17 85 18 82 19 84 20 86 21 83 22 12 23 13 24
REMARK SMILES IDX 14 25 15 26 16 28 17 29 18 30 76 31 19 32 75 33 20 34 21 35
REMARK SMILES IDX 22 36 69 37 23 38 74 39 68 40 70 41 24 42 73 43 67 44 66 45
REMARK SMILES IDX 25 47 55 48 36 49 54 50 37 51 40 52 53 53 71 54 38 55 39 56
REMARK SMILES IDX 52 58 72 59 41 60 26 61 27 62 35 63 28 64 34 65 29 66 30 67
REMARK SMILES IDX 31 68 32 69 33 70 56 71 57 72 65 73 58 74 64 75 59 76 60 77
REMARK SMILES IDX 61 78 62 79 63 80 42 81 43 82 51 83 44 84 50 85 45 86 46 87
REMARK SMILES IDX 47 88 48 89 49 90
REMARK H PARENT 9 6 14 27 70 46 40 57
REMARK Flexibility Score: inf
ROOT
ATOM      1  C   UNL A   1      36.732  22.593  24.391  1.00  0.00     0.023 C 
ENDROOT
BRANCH   1   2
ATOM      2  C   UNL A   1      35.581  23.421  24.991  1.00  0.00     0.116 C 
BRANCH   2   3
ATOM      3  N   UNL A   1      35.069  22.823  26.204  1.00  0.00    -0.352 N 
ATOM      4  C   UNL A   1      33.827  22.690  26.751  1.00  0.00     0.255 C 
ATOM      5  O   UNL A   1      33.801  22.064  27.821  1.00  0.00    -0.269 OA
ATOM      6  H   UNL A   1      35.776  22.421  26.760  1.00  0.00     0.163 HD
BRANCH   4   7
ATOM      7  C   UNL A   1      32.515  23.190  26.218  1.00  0.00     0.082 A 
ATOM      8  C   UNL A   1      30.624  24.142  23.031  1.00  0.00     0.048 C 
ATOM      9  C   UNL A   1      30.969  23.930  24.482  1.00  0.00    -0.008 A 
ATOM     10  C   UNL A   1      30.388  24.838  25.385  1.00  0.00     0.007 A 
ATOM     11  C   UNL A   1      31.958  23.022  24.930  1.00  0.00     0.134 A 
ATOM     12  C   UNL A   1      30.827  24.909  26.697  1.00  0.00     0.001 A 
ATOM     13  C   UNL A   1      31.900  24.119  27.093  1.00  0.00     0.018 A 
BRANCH  11  14
ATOM     14  O   UNL A   1      32.469  22.091  24.083  1.00  0.00    -0.492 OA
BRANCH  14  15
ATOM     15  C   UNL A   1      32.117  20.692  24.230  1.00  0.00     0.233 C 
BRANCH  15  16
ATOM     16  C   UNL A   1      33.104  19.609  23.733  1.00  0.00     0.030 C 
ATOM     17  C   UNL A   1      32.376  18.419  23.039  1.00  0.00     0.011 C 
ATOM     18  C   UNL A   1      33.792  18.872  24.918  1.00  0.00    -0.004 C 
ATOM     19  C   UNL A   1      32.770  17.194  23.885  1.00  0.00    -0.010 C 
ATOM     20  C   UNL A   1      34.963  18.032  24.379  1.00  0.00     0.004 C 
ATOM     21  C   UNL A   1      32.780  17.785  25.289  1.00  0.00     0.007 C 
ATOM     22  C   UNL A   1      34.256  16.878  23.660  1.00  0.00     0.004 C 
ENDBRANCH  15  16
ENDBRANCH  14  15
ENDBRANCH  11  14
ENDBRANCH   4   7
ENDBRANCH   2   3
ENDBRANCH   1   2
BRANCH   1  23
ATOM     23  C   UNL A   1      37.835  22.201  25.376  1.00  0.00     0.023 C 
BRANCH  23  24
ATOM     24  C   UNL A   1      38.331  23.380  26.193  1.00  0.00     0.116 C 
BRANCH  24  25
ATOM     25  N   UNL A   1      39.396  23.072  27.133  1.00  0.00    -0.352 N 
ATOM     26  C   UNL A   1      40.288  23.970  27.697  1.00  0.00     0.251 C 
ATOM     27  H   UNL A   1      39.493  22.128  27.395  1.00  0.00     0.163 HD
ATOM     28  O   UNL A   1      41.364  23.627  28.156  1.00  0.00    -0.269 OA
BRANCH  26  29
ATOM     29  C   UNL A   1      39.802  25.358  27.871  1.00  0.00     0.039 A 
ATOM     30  C   UNL A   1      40.382  26.334  27.049  1.00  0.00     0.014 A 
ATOM     31  C   UNL A   1      39.070  25.716  28.999  1.00  0.00     0.014 A 
ATOM     32  C   UNL A   1      40.391  27.662  27.465  1.00  0.00     0.010 A 
ATOM     33  C   UNL A   1      39.176  27.013  29.463  1.00  0.00     0.010 A 
ATOM     34  C   UNL A   1      39.879  27.975  28.722  1.00  0.00    -0.014 A 
BRANCH  34  35
ATOM     35  C   UNL A   1      40.077  29.259  29.388  1.00  0.00     0.031 A 
ATOM     36  C   UNL A   1      39.051  30.321  29.237  1.00  0.00     0.074 A 
ATOM     37  C   UNL A   1      41.130  29.449  30.215  1.00  0.00     0.049 A 
ATOM     38  N   UNL A   1      39.235  31.564  29.537  1.00  0.00    -0.248 NA
ATOM     39  C   UNL A   1      37.740  30.071  28.637  1.00  0.00     0.031 C 
ATOM     40  C   UNL A   1      41.275  30.507  31.214  1.00  0.00     0.029 A 
ATOM     41  N   UNL A   1      42.395  28.857  30.175  1.00  0.00    -0.354 N 
ATOM     42  C   UNL A   1      38.013  32.191  29.470  1.00  0.00     0.074 A 
ATOM     43  C   UNL A   1      37.151  31.262  28.783  1.00  0.00     0.031 C 
ATOM     44  C   UNL A   1      42.581  30.694  31.458  1.00  0.00     0.029 A 
ATOM     45  C   UNL A   1      43.311  29.869  30.511  1.00  0.00     0.049 A 
ATOM     46  H   UNL A   1      42.604  27.920  29.955  1.00  0.00     0.167 HD
ATOM     47  C   UNL A   1      37.826  33.368  30.129  1.00  0.00     0.031 A 
ATOM     48  C   UNL A   1      44.303  30.320  29.688  1.00  0.00     0.031 A 
ATOM     49  C   UNL A   1      39.099  33.945  30.558  1.00  0.00     0.049 A 
ATOM     50  C   UNL A   1      44.225  31.805  29.413  1.00  0.00     0.074 A 
ATOM     51  C   UNL A   1      39.738  34.047  31.780  1.00  0.00     0.029 A 
ATOM     52  N   UNL A   1      40.036  34.292  29.590  1.00  0.00    -0.354 N 
ATOM     53  N   UNL A   1      43.178  32.540  29.672  1.00  0.00    -0.248 NA
ATOM     54  C   UNL A   1      45.296  32.570  28.780  1.00  0.00     0.031 C 
ATOM     55  C   UNL A   1      41.107  34.344  31.528  1.00  0.00     0.029 A 
ATOM     56  C   UNL A   1      41.281  34.472  30.159  1.00  0.00     0.049 A 
ATOM     57  H   UNL A   1      39.839  34.395  28.630  1.00  0.00     0.167 HD
ATOM     58  C   UNL A   1      43.392  33.819  29.234  1.00  0.00     0.074 A 
ATOM     59  C   UNL A   1      44.744  33.795  28.704  1.00  0.00     0.031 C 
ATOM     60  C   UNL A   1      42.432  34.785  29.320  1.00  0.00     0.031 A 
BRANCH  47  61
ATOM     61  C   UNL A   1      36.475  33.889  30.585  1.00  0.00    -0.014 A 
ATOM     62  C   UNL A   1      35.490  34.209  29.625  1.00  0.00     0.010 A 
ATOM     63  C   UNL A   1      36.153  34.211  31.919  1.00  0.00     0.010 A 
ATOM     64  C   UNL A   1      34.283  34.844  29.975  1.00  0.00     0.020 A 
ATOM     65  C   UNL A   1      34.945  34.819  32.287  1.00  0.00     0.020 A 
ATOM     66  C   UNL A   1      34.023  35.153  31.308  1.00  0.00     0.054 A 
BRANCH  66  67
ATOM     67  S   UNL A   1      32.498  36.025  31.754  1.00  0.00     0.124 S 
ATOM     68  O   UNL A   1      31.943  36.369  30.447  1.00  0.00    -0.237 OA
ATOM     69  O   UNL A   1      31.761  35.016  32.508  1.00  0.00    -0.237 OA
ATOM     70  O   UNL A   1      32.967  37.164  32.543  1.00  0.00    -0.744 OA
ENDBRANCH  66  67
ENDBRANCH  47  61
BRANCH  48  71
ATOM     71  C   UNL A   1      44.827  29.307  28.733  1.00  0.00    -0.014 A 
ATOM     72  C   UNL A   1      45.760  28.379  29.237  1.00  0.00     0.010 A 
ATOM     73  C   UNL A   1      44.105  28.986  27.572  1.00  0.00     0.010 A 
ATOM     74  C   UNL A   1      45.816  27.083  28.724  1.00  0.00     0.020 A 
ATOM     75  C   UNL A   1      44.164  27.686  27.050  1.00  0.00     0.020 A 
ATOM     76  C   UNL A   1      44.957  26.727  27.686  1.00  0.00     0.054 A 
BRANCH  76  77
ATOM     77  S   UNL A   1      44.730  24.955  27.340  1.00  0.00     0.124 S 
ATOM     78  O   UNL A   1      43.616  24.958  26.397  1.00  0.00    -0.237 OA
ATOM     79  O   UNL A   1      46.032  24.601  26.774  1.00  0.00    -0.237 OA
ATOM     80  O   UNL A   1      44.444  24.392  28.655  1.00  0.00    -0.744 OA
ENDBRANCH  76  77
ENDBRANCH  48  71
BRANCH  60  81
ATOM     81  C   UNL A   1      42.501  36.145  28.666  1.00  0.00    -0.014 A 
ATOM     82  C   UNL A   1      42.009  36.425  27.382  1.00  0.00     0.010 A 
ATOM     83  C   UNL A   1      42.971  37.244  29.426  1.00  0.00     0.010 A 
ATOM     84  C   UNL A   1      42.053  37.722  26.849  1.00  0.00     0.020 A 
ATOM     85  C   UNL A   1      42.976  38.548  28.922  1.00  0.00     0.020 A 
ATOM     86  C   UNL A   1      42.543  38.775  27.621  1.00  0.00     0.054 A 
BRANCH  86  87
ATOM     87  S   UNL A   1      42.545  40.457  26.950  1.00  0.00     0.124 S 
ATOM     88  O   UNL A   1      43.022  40.236  25.588  1.00  0.00    -0.237 OA
ATOM     89  O   UNL A   1      41.145  40.861  27.065  1.00  0.00    -0.237 OA
ATOM     90  O   UNL A   1      43.465  41.172  27.831  1.00  0.00    -0.744 OA
ENDBRANCH  86  87
ENDBRANCH  60  81
ENDBRANCH  34  35
ENDBRANCH  26  29
ENDBRANCH  24  25
ENDBRANCH  23  24
ENDBRANCH   1  23
TORSDOF 17
ENDMDL
