MODEL 1
REMARK VINA RESULT:     -10.7      0.000      0.000
REMARK SMILES CCC[C@H](Cc1ccn(-c2ccccc2)n1)C(=O)NCCCCNC(=O)c1ccc(-c2c3nc(c(-c4ccc(S(=O)(=O)[O-])cc4)c4ccc([nH]4)c(-c4ccc(S(=O)(=O)[O-])cc4)c4nc(c(-c5ccc(S(=O)(=O)[O-])cc5)c5ccc2[nH]5)C=C4)C=C3)cc1
REMARK SMILES IDX 21 1 20 2 19 3 17 4 18 5 4 7 3 8 2 9 1 10 5 11 6 12 7 13
REMARK SMILES IDX 16 14 8 15 9 16 10 17 11 18 15 19 12 20 14 21 13 22 22 23
REMARK SMILES IDX 23 24 24 25 25 26 26 28 27 29 28 30 86 31 29 32 85 33 30 34
REMARK SMILES IDX 31 35 32 36 79 37 33 38 84 39 78 40 80 41 34 42 83 43 77 44
REMARK SMILES IDX 76 45 35 47 65 48 46 49 64 50 47 51 50 52 63 53 81 54 48 55
REMARK SMILES IDX 49 56 62 58 82 59 51 60 36 61 37 62 45 63 38 64 44 65 39 66
REMARK SMILES IDX 40 67 41 68 42 69 43 70 66 71 67 72 75 73 68 74 74 75 69 76
REMARK SMILES IDX 70 77 71 78 72 79 73 80 52 81 53 82 61 83 54 84 60 85 55 86
REMARK SMILES IDX 56 87 57 88 58 89 59 90
REMARK H PARENT 19 6 24 27 80 46 50 57
REMARK Flexibility Score: inf
ROOT
ATOM      1  C   UNL A   1      35.388  23.434  25.707  1.00  0.00     0.023 C 
ENDROOT
BRANCH   1   2
ATOM      2  C   UNL A   1      34.182  24.034  24.971  1.00  0.00     0.116 C 
BRANCH   2   3
ATOM      3  N   UNL A   1      33.111  24.379  25.883  1.00  0.00    -0.356 N 
ATOM      4  C   UNL A   1      32.401  25.524  26.043  1.00  0.00     0.223 C 
ATOM      5  O   UNL A   1      31.616  25.561  26.998  1.00  0.00    -0.275 OA
ATOM      6  H   UNL A   1      32.851  23.654  26.495  1.00  0.00     0.163 HD
BRANCH   4   7
ATOM      7  C   UNL A   1      32.489  26.732  25.103  1.00  0.00     0.084 C 
BRANCH   7   8
ATOM      8  C   UNL A   1      31.971  26.431  23.682  1.00  0.00     0.013 C 
BRANCH   8   9
ATOM      9  C   UNL A   1      30.547  25.874  23.587  1.00  0.00    -0.003 C 
ATOM     10  C   UNL A   1      30.503  24.402  23.201  1.00  0.00     0.004 C 
ENDBRANCH   8   9
ENDBRANCH   7   8
BRANCH   7  11
ATOM     11  C   UNL A   1      33.834  27.499  25.201  1.00  0.00     0.071 C 
BRANCH  11  12
ATOM     12  C   UNL A   1      33.881  28.641  26.172  1.00  0.00     0.064 A 
ATOM     13  C   UNL A   1      32.905  29.639  26.411  1.00  0.00     0.046 A 
ATOM     14  N   UNL A   1      34.965  28.845  26.929  1.00  0.00    -0.173 NA
ATOM     15  C   UNL A   1      33.556  30.592  27.158  1.00  0.00     0.115 A 
ATOM     16  N   UNL A   1      34.798  30.086  27.433  1.00  0.00    -0.241 N 
BRANCH  16  17
ATOM     17  C   UNL A   1      35.893  30.807  27.933  1.00  0.00     0.065 A 
ATOM     18  C   UNL A   1      35.761  32.177  28.159  1.00  0.00     0.028 A 
ATOM     19  C   UNL A   1      37.085  30.130  28.218  1.00  0.00     0.028 A 
ATOM     20  C   UNL A   1      36.850  32.885  28.666  1.00  0.00     0.002 A 
ATOM     21  C   UNL A   1      38.162  30.848  28.731  1.00  0.00     0.002 A 
ATOM     22  C   UNL A   1      38.045  32.221  28.956  1.00  0.00     0.000 A 
ENDBRANCH  16  17
ENDBRANCH  11  12
ENDBRANCH   7  11
ENDBRANCH   4   7
ENDBRANCH   2   3
ENDBRANCH   1   2
BRANCH   1  23
ATOM     23  C   UNL A   1      36.373  22.641  24.841  1.00  0.00     0.023 C 
BRANCH  23  24
ATOM     24  C   UNL A   1      37.841  22.936  25.138  1.00  0.00     0.116 C 
BRANCH  24  25
ATOM     25  N   UNL A   1      38.430  22.039  26.132  1.00  0.00    -0.352 N 
ATOM     26  C   UNL A   1      39.521  22.280  26.952  1.00  0.00     0.251 C 
ATOM     27  H   UNL A   1      38.000  21.158  26.231  1.00  0.00     0.163 HD
ATOM     28  O   UNL A   1      40.172  21.367  27.432  1.00  0.00    -0.269 OA
BRANCH  26  29
ATOM     29  C   UNL A   1      39.874  23.683  27.244  1.00  0.00     0.039 A 
ATOM     30  C   UNL A   1      38.902  24.686  27.232  1.00  0.00     0.014 A 
ATOM     31  C   UNL A   1      41.193  23.970  27.590  1.00  0.00     0.014 A 
ATOM     32  C   UNL A   1      39.243  25.950  27.708  1.00  0.00     0.010 A 
ATOM     33  C   UNL A   1      41.497  25.177  28.173  1.00  0.00     0.010 A 
ATOM     34  C   UNL A   1      40.529  26.175  28.227  1.00  0.00    -0.014 A 
BRANCH  34  35
ATOM     35  C   UNL A   1      40.800  27.372  29.023  1.00  0.00     0.031 A 
ATOM     36  C   UNL A   1      41.730  28.337  28.361  1.00  0.00     0.074 A 
ATOM     37  C   UNL A   1      40.103  27.717  30.127  1.00  0.00     0.049 A 
ATOM     38  N   UNL A   1      42.948  28.610  28.692  1.00  0.00    -0.248 NA
ATOM     39  C   UNL A   1      41.318  28.944  27.082  1.00  0.00     0.031 C 
ATOM     40  C   UNL A   1      38.939  27.047  30.717  1.00  0.00     0.029 A 
ATOM     41  N   UNL A   1      40.217  28.833  30.897  1.00  0.00    -0.354 N 
ATOM     42  C   UNL A   1      43.376  29.601  27.811  1.00  0.00     0.074 A 
ATOM     43  C   UNL A   1      42.420  29.613  26.735  1.00  0.00     0.031 C 
ATOM     44  C   UNL A   1      38.316  27.888  31.573  1.00  0.00     0.029 A 
ATOM     45  C   UNL A   1      39.128  29.080  31.726  1.00  0.00     0.049 A 
ATOM     46  H   UNL A   1      41.009  29.418  30.869  1.00  0.00     0.167 HD
ATOM     47  C   UNL A   1      44.334  30.505  28.170  1.00  0.00     0.031 A 
ATOM     48  C   UNL A   1      38.897  30.201  32.461  1.00  0.00     0.031 A 
ATOM     49  C   UNL A   1      44.994  30.108  29.390  1.00  0.00     0.049 A 
ATOM     50  C   UNL A   1      40.203  30.884  32.623  1.00  0.00     0.074 A 
ATOM     51  C   UNL A   1      45.735  29.017  29.794  1.00  0.00     0.029 A 
ATOM     52  N   UNL A   1      44.575  30.732  30.542  1.00  0.00    -0.354 N 
ATOM     53  N   UNL A   1      41.197  30.369  33.291  1.00  0.00    -0.248 NA
ATOM     54  C   UNL A   1      40.565  31.904  31.653  1.00  0.00     0.031 C 
ATOM     55  C   UNL A   1      45.314  28.769  31.134  1.00  0.00     0.029 A 
ATOM     56  C   UNL A   1      44.410  29.769  31.500  1.00  0.00     0.049 A 
ATOM     57  H   UNL A   1      44.423  31.698  30.657  1.00  0.00     0.167 HD
ATOM     58  C   UNL A   1      42.321  30.657  32.530  1.00  0.00     0.074 A 
ATOM     59  C   UNL A   1      41.882  31.684  31.584  1.00  0.00     0.031 C 
ATOM     60  C   UNL A   1      43.416  29.839  32.549  1.00  0.00     0.031 A 
BRANCH  47  61
ATOM     61  C   UNL A   1      44.367  31.946  27.704  1.00  0.00    -0.014 A 
ATOM     62  C   UNL A   1      45.463  32.366  26.919  1.00  0.00     0.010 A 
ATOM     63  C   UNL A   1      43.552  32.958  28.248  1.00  0.00     0.010 A 
ATOM     64  C   UNL A   1      45.798  33.720  26.796  1.00  0.00     0.020 A 
ATOM     65  C   UNL A   1      43.851  34.314  28.094  1.00  0.00     0.020 A 
ATOM     66  C   UNL A   1      44.999  34.684  27.407  1.00  0.00     0.054 A 
BRANCH  66  67
ATOM     67  S   UNL A   1      45.513  36.418  27.356  1.00  0.00     0.124 S 
ATOM     68  O   UNL A   1      46.282  36.463  26.116  1.00  0.00    -0.237 OA
ATOM     69  O   UNL A   1      44.232  37.118  27.335  1.00  0.00    -0.237 OA
ATOM     70  O   UNL A   1      46.288  36.579  28.583  1.00  0.00    -0.744 OA
ENDBRANCH  66  67
ENDBRANCH  47  61
BRANCH  48  71
ATOM     71  C   UNL A   1      37.599  30.871  32.743  1.00  0.00    -0.014 A 
ATOM     72  C   UNL A   1      37.468  31.802  33.792  1.00  0.00     0.010 A 
ATOM     73  C   UNL A   1      36.560  30.812  31.792  1.00  0.00     0.010 A 
ATOM     74  C   UNL A   1      36.372  32.684  33.850  1.00  0.00     0.020 A 
ATOM     75  C   UNL A   1      35.464  31.685  31.845  1.00  0.00     0.020 A 
ATOM     76  C   UNL A   1      35.386  32.634  32.861  1.00  0.00     0.054 A 
BRANCH  76  77
ATOM     77  S   UNL A   1      34.072  33.892  32.834  1.00  0.00     0.124 S 
ATOM     78  O   UNL A   1      34.622  34.936  33.693  1.00  0.00    -0.237 OA
ATOM     79  O   UNL A   1      33.978  34.227  31.415  1.00  0.00    -0.237 OA
ATOM     80  O   UNL A   1      32.912  33.190  33.379  1.00  0.00    -0.744 OA
ENDBRANCH  76  77
ENDBRANCH  48  71
BRANCH  60  81
ATOM     81  C   UNL A   1      43.510  28.779  33.621  1.00  0.00    -0.014 A 
ATOM     82  C   UNL A   1      44.204  28.939  34.837  1.00  0.00     0.010 A 
ATOM     83  C   UNL A   1      42.716  27.631  33.448  1.00  0.00     0.010 A 
ATOM     84  C   UNL A   1      44.123  27.960  35.841  1.00  0.00     0.020 A 
ATOM     85  C   UNL A   1      42.617  26.663  34.448  1.00  0.00     0.020 A 
ATOM     86  C   UNL A   1      43.328  26.826  35.637  1.00  0.00     0.054 A 
BRANCH  86  87
ATOM     87  S   UNL A   1      43.191  25.578  36.948  1.00  0.00     0.124 S 
ATOM     88  O   UNL A   1      43.097  26.393  38.155  1.00  0.00    -0.237 OA
ATOM     89  O   UNL A   1      41.977  24.853  36.581  1.00  0.00    -0.237 OA
ATOM     90  O   UNL A   1      44.425  24.803  36.820  1.00  0.00    -0.744 OA
ENDBRANCH  86  87
ENDBRANCH  60  81
ENDBRANCH  34  35
ENDBRANCH  26  29
ENDBRANCH  24  25
ENDBRANCH  23  24
ENDBRANCH   1  23
TORSDOF 19
ENDMDL
MODEL 2
REMARK VINA RESULT:     -10.7      2.911      9.905
REMARK SMILES CCC[C@H](Cc1ccn(-c2ccccc2)n1)C(=O)NCCCCNC(=O)c1ccc(-c2c3nc(c(-c4ccc(S(=O)(=O)[O-])cc4)c4ccc([nH]4)c(-c4ccc(S(=O)(=O)[O-])cc4)c4nc(c(-c5ccc(S(=O)(=O)[O-])cc5)c5ccc2[nH]5)C=C4)C=C3)cc1
REMARK SMILES IDX 21 1 20 2 19 3 17 4 18 5 4 7 3 8 2 9 1 10 5 11 6 12 7 13
REMARK SMILES IDX 16 14 8 15 9 16 10 17 11 18 15 19 12 20 14 21 13 22 22 23
REMARK SMILES IDX 23 24 24 25 25 26 26 28 27 29 28 30 86 31 29 32 85 33 30 34
REMARK SMILES IDX 31 35 32 36 79 37 33 38 84 39 78 40 80 41 34 42 83 43 77 44
REMARK SMILES IDX 76 45 35 47 65 48 46 49 64 50 47 51 50 52 63 53 81 54 48 55
REMARK SMILES IDX 49 56 62 58 82 59 51 60 36 61 37 62 45 63 38 64 44 65 39 66
REMARK SMILES IDX 40 67 41 68 42 69 43 70 66 71 67 72 75 73 68 74 74 75 69 76
REMARK SMILES IDX 70 77 71 78 72 79 73 80 52 81 53 82 61 83 54 84 60 85 55 86
REMARK SMILES IDX 56 87 57 88 58 89 59 90
REMARK H PARENT 19 6 24 27 80 46 50 57
REMARK Flexibility Score: inf
ROOT
ATOM      1  C   UNL A   1      31.632  28.067  27.264  1.00  0.00     0.023 C 
ENDROOT
BRANCH   1   2
ATOM      2  C   UNL A   1      31.393  26.971  26.217  1.00  0.00     0.116 C 
BRANCH   2   3
ATOM      3  N   UNL A   1      30.997  25.718  26.827  1.00  0.00    -0.356 N 
ATOM      4  C   UNL A   1      31.531  24.473  26.753  1.00  0.00     0.223 C 
ATOM      5  O   UNL A   1      30.896  23.564  27.298  1.00  0.00    -0.275 OA
ATOM      6  H   UNL A   1      30.198  25.781  27.399  1.00  0.00     0.163 HD
BRANCH   4   7
ATOM      7  C   UNL A   1      32.869  24.148  26.078  1.00  0.00     0.084 C 
BRANCH   7   8
ATOM      8  C   UNL A   1      32.709  23.660  24.624  1.00  0.00     0.013 C 
BRANCH   8   9
ATOM      9  C   UNL A   1      33.499  24.432  23.562  1.00  0.00    -0.003 C 
ATOM     10  C   UNL A   1      34.073  25.744  24.077  1.00  0.00     0.004 C 
ENDBRANCH   8   9
ENDBRANCH   7   8
BRANCH   7  11
ATOM     11  C   UNL A   1      33.838  23.338  26.978  1.00  0.00     0.071 C 
BRANCH  11  12
ATOM     12  C   UNL A   1      34.517  22.163  26.337  1.00  0.00     0.064 A 
ATOM     13  C   UNL A   1      35.842  22.066  25.849  1.00  0.00     0.046 A 
ATOM     14  N   UNL A   1      33.846  21.025  26.124  1.00  0.00    -0.173 NA
ATOM     15  C   UNL A   1      35.857  20.909  25.106  1.00  0.00     0.115 A 
ATOM     16  N   UNL A   1      34.633  20.322  25.281  1.00  0.00    -0.241 N 
BRANCH  16  17
ATOM     17  C   UNL A   1      34.100  19.274  24.515  1.00  0.00     0.065 A 
ATOM     18  C   UNL A   1      34.797  18.069  24.432  1.00  0.00     0.028 A 
ATOM     19  C   UNL A   1      32.869  19.453  23.873  1.00  0.00     0.028 A 
ATOM     20  C   UNL A   1      34.256  17.028  23.677  1.00  0.00     0.002 A 
ATOM     21  C   UNL A   1      32.337  18.403  23.129  1.00  0.00     0.002 A 
ATOM     22  C   UNL A   1      33.028  17.194  23.033  1.00  0.00     0.000 A 
ENDBRANCH  16  17
ENDBRANCH  11  12
ENDBRANCH   7  11
ENDBRANCH   4   7
ENDBRANCH   2   3
ENDBRANCH   1   2
BRANCH   1  23
ATOM     23  C   UNL A   1      32.235  29.375  26.738  1.00  0.00     0.023 C 
BRANCH  23  24
ATOM     24  C   UNL A   1      33.511  29.804  27.455  1.00  0.00     0.116 C 
BRANCH  24  25
ATOM     25  N   UNL A   1      33.949  31.158  27.114  1.00  0.00    -0.352 N 
ATOM     26  C   UNL A   1      34.999  31.875  27.665  1.00  0.00     0.251 C 
ATOM     27  H   UNL A   1      33.436  31.614  26.407  1.00  0.00     0.163 HD
ATOM     28  O   UNL A   1      35.033  33.093  27.620  1.00  0.00    -0.269 OA
BRANCH  26  29
ATOM     29  C   UNL A   1      36.094  31.120  28.307  1.00  0.00     0.039 A 
ATOM     30  C   UNL A   1      36.297  29.768  28.024  1.00  0.00     0.014 A 
ATOM     31  C   UNL A   1      36.955  31.810  29.159  1.00  0.00     0.014 A 
ATOM     32  C   UNL A   1      37.456  29.156  28.495  1.00  0.00     0.010 A 
ATOM     33  C   UNL A   1      38.154  31.244  29.518  1.00  0.00     0.010 A 
ATOM     34  C   UNL A   1      38.408  29.914  29.197  1.00  0.00    -0.014 A 
BRANCH  34  35
ATOM     35  C   UNL A   1      39.756  29.387  29.406  1.00  0.00     0.031 A 
ATOM     36  C   UNL A   1      40.071  29.085  30.836  1.00  0.00     0.074 A 
ATOM     37  C   UNL A   1      40.564  28.966  28.408  1.00  0.00     0.049 A 
ATOM     38  N   UNL A   1      40.881  29.722  31.615  1.00  0.00    -0.248 NA
ATOM     39  C   UNL A   1      39.265  28.065  31.531  1.00  0.00     0.031 C 
ATOM     40  C   UNL A   1      40.274  28.884  26.973  1.00  0.00     0.029 A 
ATOM     41  N   UNL A   1      41.797  28.396  28.489  1.00  0.00    -0.354 N 
ATOM     42  C   UNL A   1      40.871  29.036  32.828  1.00  0.00     0.074 A 
ATOM     43  C   UNL A   1      39.722  28.169  32.782  1.00  0.00     0.031 C 
ATOM     44  C   UNL A   1      41.180  28.081  26.371  1.00  0.00     0.029 A 
ATOM     45  C   UNL A   1      42.209  27.737  27.335  1.00  0.00     0.049 A 
ATOM     46  H   UNL A   1      42.354  28.447  29.300  1.00  0.00     0.167 HD
ATOM     47  C   UNL A   1      41.953  29.048  33.659  1.00  0.00     0.031 A 
ATOM     48  C   UNL A   1      43.300  26.940  27.193  1.00  0.00     0.031 A 
ATOM     49  C   UNL A   1      42.908  30.052  33.257  1.00  0.00     0.049 A 
ATOM     50  C   UNL A   1      44.229  27.284  28.297  1.00  0.00     0.074 A 
ATOM     51  C   UNL A   1      42.885  31.423  33.109  1.00  0.00     0.029 A 
ATOM     52  N   UNL A   1      43.996  29.609  32.541  1.00  0.00    -0.354 N 
ATOM     53  N   UNL A   1      44.804  28.449  28.406  1.00  0.00    -0.248 NA
ATOM     54  C   UNL A   1      44.143  26.514  29.526  1.00  0.00     0.031 C 
ATOM     55  C   UNL A   1      43.652  31.673  31.932  1.00  0.00     0.029 A 
ATOM     56  C   UNL A   1      44.168  30.456  31.480  1.00  0.00     0.049 A 
ATOM     57  H   UNL A   1      44.551  28.824  32.754  1.00  0.00     0.167 HD
ATOM     58  C   UNL A   1      44.743  28.748  29.759  1.00  0.00     0.074 A 
ATOM     59  C   UNL A   1      44.412  27.480  30.410  1.00  0.00     0.031 C 
ATOM     60  C   UNL A   1      44.687  30.042  30.195  1.00  0.00     0.031 A 
BRANCH  47  61
ATOM     61  C   UNL A   1      42.374  27.883  34.531  1.00  0.00    -0.014 A 
ATOM     62  C   UNL A   1      42.886  28.166  35.816  1.00  0.00     0.010 A 
ATOM     63  C   UNL A   1      42.576  26.578  34.041  1.00  0.00     0.010 A 
ATOM     64  C   UNL A   1      43.667  27.235  36.513  1.00  0.00     0.020 A 
ATOM     65  C   UNL A   1      43.316  25.627  34.748  1.00  0.00     0.020 A 
ATOM     66  C   UNL A   1      43.895  25.978  35.959  1.00  0.00     0.054 A 
BRANCH  66  67
ATOM     67  S   UNL A   1      45.014  24.832  36.801  1.00  0.00     0.124 S 
ATOM     68  O   UNL A   1      44.832  23.612  36.021  1.00  0.00    -0.237 OA
ATOM     69  O   UNL A   1      46.306  25.496  36.650  1.00  0.00    -0.237 OA
ATOM     70  O   UNL A   1      44.495  24.790  38.165  1.00  0.00    -0.744 OA
ENDBRANCH  66  67
ENDBRANCH  47  61
BRANCH  48  71
ATOM     71  C   UNL A   1      43.444  25.703  26.379  1.00  0.00    -0.014 A 
ATOM     72  C   UNL A   1      44.498  25.551  25.456  1.00  0.00     0.010 A 
ATOM     73  C   UNL A   1      42.711  24.549  26.724  1.00  0.00     0.010 A 
ATOM     74  C   UNL A   1      44.844  24.284  24.948  1.00  0.00     0.020 A 
ATOM     75  C   UNL A   1      43.048  23.285  26.221  1.00  0.00     0.020 A 
ATOM     76  C   UNL A   1      44.129  23.154  25.352  1.00  0.00     0.054 A 
BRANCH  76  77
ATOM     77  S   UNL A   1      44.693  21.500  24.842  1.00  0.00     0.124 S 
ATOM     78  O   UNL A   1      45.973  21.381  25.534  1.00  0.00    -0.237 OA
ATOM     79  O   UNL A   1      43.626  20.633  25.335  1.00  0.00    -0.237 OA
ATOM     80  O   UNL A   1      44.783  21.601  23.387  1.00  0.00    -0.744 OA
ENDBRANCH  76  77
ENDBRANCH  48  71
BRANCH  60  81
ATOM     81  C   UNL A   1      44.983  31.151  29.212  1.00  0.00    -0.014 A 
ATOM     82  C   UNL A   1      46.271  31.659  28.954  1.00  0.00     0.010 A 
ATOM     83  C   UNL A   1      43.918  31.579  28.400  1.00  0.00     0.010 A 
ATOM     84  C   UNL A   1      46.479  32.590  27.922  1.00  0.00     0.020 A 
ATOM     85  C   UNL A   1      44.120  32.489  27.362  1.00  0.00     0.020 A 
ATOM     86  C   UNL A   1      45.398  32.999  27.133  1.00  0.00     0.054 A 
BRANCH  86  87
ATOM     87  S   UNL A   1      45.670  34.173  25.776  1.00  0.00     0.124 S 
ATOM     88  O   UNL A   1      45.191  35.430  26.342  1.00  0.00    -0.237 OA
ATOM     89  O   UNL A   1      47.113  34.090  25.558  1.00  0.00    -0.237 OA
ATOM     90  O   UNL A   1      44.858  33.637  24.684  1.00  0.00    -0.744 OA
ENDBRANCH  86  87
ENDBRANCH  60  81
ENDBRANCH  34  35
ENDBRANCH  26  29
ENDBRANCH  24  25
ENDBRANCH  23  24
ENDBRANCH   1  23
TORSDOF 19
ENDMDL
MODEL 3
REMARK VINA RESULT:     -10.5      1.882      4.578
REMARK SMILES CCC[C@H](Cc1ccn(-c2ccccc2)n1)C(=O)NCCCCNC(=O)c1ccc(-c2c3nc(c(-c4ccc(S(=O)(=O)[O-])cc4)c4ccc([nH]4)c(-c4ccc(S(=O)(=O)[O-])cc4)c4nc(c(-c5ccc(S(=O)(=O)[O-])cc5)c5ccc2[nH]5)C=C4)C=C3)cc1
REMARK SMILES IDX 21 1 20 2 19 3 17 4 18 5 4 7 3 8 2 9 1 10 5 11 6 12 7 13
REMARK SMILES IDX 16 14 8 15 9 16 10 17 11 18 15 19 12 20 14 21 13 22 22 23
REMARK SMILES IDX 23 24 24 25 25 26 26 28 27 29 28 30 86 31 29 32 85 33 30 34
REMARK SMILES IDX 31 35 32 36 79 37 33 38 84 39 78 40 80 41 34 42 83 43 77 44
REMARK SMILES IDX 76 45 35 47 65 48 46 49 64 50 47 51 50 52 63 53 81 54 48 55
REMARK SMILES IDX 49 56 62 58 82 59 51 60 36 61 37 62 45 63 38 64 44 65 39 66
REMARK SMILES IDX 40 67 41 68 42 69 43 70 66 71 67 72 75 73 68 74 74 75 69 76
REMARK SMILES IDX 70 77 71 78 72 79 73 80 52 81 53 82 61 83 54 84 60 85 55 86
REMARK SMILES IDX 56 87 57 88 58 89 59 90
REMARK H PARENT 19 6 24 27 80 46 50 57
REMARK Flexibility Score: inf
ROOT
ATOM      1  C   UNL A   1      35.497  22.582  24.898  1.00  0.00     0.023 C 
ENDROOT
BRANCH   1   2
ATOM      2  C   UNL A   1      35.649  24.098  24.715  1.00  0.00     0.116 C 
BRANCH   2   3
ATOM      3  N   UNL A   1      34.498  24.821  25.217  1.00  0.00    -0.356 N 
ATOM      4  C   UNL A   1      33.359  25.234  24.607  1.00  0.00     0.223 C 
ATOM      5  O   UNL A   1      32.598  25.943  25.275  1.00  0.00    -0.275 OA
ATOM      6  H   UNL A   1      34.552  25.052  26.172  1.00  0.00     0.163 HD
BRANCH   4   7
ATOM      7  C   UNL A   1      32.956  24.845  23.180  1.00  0.00     0.084 C 
BRANCH   7   8
ATOM      8  C   UNL A   1      32.997  26.032  22.197  1.00  0.00     0.013 C 
BRANCH   8   9
ATOM      9  C   UNL A   1      31.683  26.797  22.007  1.00  0.00    -0.003 C 
ATOM     10  C   UNL A   1      31.676  28.157  22.690  1.00  0.00     0.004 C 
ENDBRANCH   8   9
ENDBRANCH   7   8
BRANCH   7  11
ATOM     11  C   UNL A   1      31.702  23.934  23.114  1.00  0.00     0.071 C 
BRANCH  11  12
ATOM     12  C   UNL A   1      31.764  22.657  23.899  1.00  0.00     0.064 A 
ATOM     13  C   UNL A   1      31.690  22.477  25.301  1.00  0.00     0.046 A 
ATOM     14  N   UNL A   1      31.951  21.487  23.278  1.00  0.00    -0.173 NA
ATOM     15  C   UNL A   1      32.095  21.180  25.508  1.00  0.00     0.115 A 
ATOM     16  N   UNL A   1      32.261  20.624  24.268  1.00  0.00    -0.241 N 
BRANCH  16  17
ATOM     17  C   UNL A   1      32.915  19.416  23.983  1.00  0.00     0.065 A 
ATOM     18  C   UNL A   1      32.392  18.574  23.001  1.00  0.00     0.028 A 
ATOM     19  C   UNL A   1      34.090  19.095  24.672  1.00  0.00     0.028 A 
ATOM     20  C   UNL A   1      33.053  17.379  22.716  1.00  0.00     0.002 A 
ATOM     21  C   UNL A   1      34.744  17.902  24.371  1.00  0.00     0.002 A 
ATOM     22  C   UNL A   1      34.228  17.048  23.396  1.00  0.00     0.000 A 
ENDBRANCH  16  17
ENDBRANCH  11  12
ENDBRANCH   7  11
ENDBRANCH   4   7
ENDBRANCH   2   3
ENDBRANCH   1   2
BRANCH   1  23
ATOM     23  C   UNL A   1      36.780  21.757  24.740  1.00  0.00     0.023 C 
BRANCH  23  24
ATOM     24  C   UNL A   1      38.028  22.435  25.299  1.00  0.00     0.116 C 
BRANCH  24  25
ATOM     25  N   UNL A   1      38.718  21.644  26.318  1.00  0.00    -0.352 N 
ATOM     26  C   UNL A   1      39.809  22.017  27.087  1.00  0.00     0.251 C 
ATOM     27  H   UNL A   1      38.365  20.738  26.477  1.00  0.00     0.163 HD
ATOM     28  O   UNL A   1      40.547  21.187  27.591  1.00  0.00    -0.269 OA
BRANCH  26  29
ATOM     29  C   UNL A   1      40.054  23.458  27.293  1.00  0.00     0.039 A 
ATOM     30  C   UNL A   1      38.995  24.367  27.337  1.00  0.00     0.014 A 
ATOM     31  C   UNL A   1      41.367  23.878  27.501  1.00  0.00     0.014 A 
ATOM     32  C   UNL A   1      39.258  25.677  27.732  1.00  0.00     0.010 A 
ATOM     33  C   UNL A   1      41.607  25.132  28.009  1.00  0.00     0.010 A 
ATOM     34  C   UNL A   1      40.559  26.040  28.119  1.00  0.00    -0.014 A 
BRANCH  34  35
ATOM     35  C   UNL A   1      40.788  27.291  28.841  1.00  0.00     0.031 A 
ATOM     36  C   UNL A   1      41.826  28.166  28.217  1.00  0.00     0.074 A 
ATOM     37  C   UNL A   1      39.985  27.751  29.825  1.00  0.00     0.049 A 
ATOM     38  N   UNL A   1      43.009  28.427  28.665  1.00  0.00    -0.248 NA
ATOM     39  C   UNL A   1      41.588  28.675  26.853  1.00  0.00     0.031 C 
ATOM     40  C   UNL A   1      38.734  27.171  30.327  1.00  0.00     0.029 A 
ATOM     41  N   UNL A   1      40.058  28.924  30.511  1.00  0.00    -0.354 N 
ATOM     42  C   UNL A   1      43.576  29.325  27.763  1.00  0.00     0.074 A 
ATOM     43  C   UNL A   1      42.749  29.276  26.585  1.00  0.00     0.031 C 
ATOM     44  C   UNL A   1      38.054  28.102  31.035  1.00  0.00     0.029 A 
ATOM     45  C   UNL A   1      38.892  29.276  31.185  1.00  0.00     0.049 A 
ATOM     46  H   UNL A   1      40.871  29.479  30.528  1.00  0.00     0.167 HD
ATOM     47  C   UNL A   1      44.523  30.224  28.157  1.00  0.00     0.031 A 
ATOM     48  C   UNL A   1      38.626  30.461  31.794  1.00  0.00     0.031 A 
ATOM     49  C   UNL A   1      45.023  29.911  29.473  1.00  0.00     0.049 A 
ATOM     50  C   UNL A   1      39.933  31.114  32.052  1.00  0.00     0.074 A 
ATOM     51  C   UNL A   1      45.667  28.835  30.047  1.00  0.00     0.029 A 
ATOM     52  N   UNL A   1      44.503  30.645  30.514  1.00  0.00    -0.354 N 
ATOM     53  N   UNL A   1      40.823  30.626  32.871  1.00  0.00    -0.248 NA
ATOM     54  C   UNL A   1      40.445  32.035  31.052  1.00  0.00     0.031 C 
ATOM     55  C   UNL A   1      45.087  28.716  31.345  1.00  0.00     0.029 A 
ATOM     56  C   UNL A   1      44.190  29.773  31.521  1.00  0.00     0.049 A 
ATOM     57  H   UNL A   1      44.379  31.622  30.533  1.00  0.00     0.167 HD
ATOM     58  C   UNL A   1      42.036  30.811  32.225  1.00  0.00     0.074 A 
ATOM     59  C   UNL A   1      41.751  31.768  31.155  1.00  0.00     0.031 C 
ATOM     60  C   UNL A   1      43.087  29.963  32.438  1.00  0.00     0.031 A 
BRANCH  47  61
ATOM     61  C   UNL A   1      44.669  31.619  27.583  1.00  0.00    -0.014 A 
ATOM     62  C   UNL A   1      45.823  31.907  26.821  1.00  0.00     0.010 A 
ATOM     63  C   UNL A   1      43.899  32.719  28.009  1.00  0.00     0.010 A 
ATOM     64  C   UNL A   1      46.249  33.223  26.609  1.00  0.00     0.020 A 
ATOM     65  C   UNL A   1      44.292  34.038  27.764  1.00  0.00     0.020 A 
ATOM     66  C   UNL A   1      45.489  34.281  27.106  1.00  0.00     0.054 A 
BRANCH  66  67
ATOM     67  S   UNL A   1      46.116  35.970  26.945  1.00  0.00     0.124 S 
ATOM     68  O   UNL A   1      46.948  36.092  28.139  1.00  0.00    -0.237 OA
ATOM     69  O   UNL A   1      46.832  35.914  25.674  1.00  0.00    -0.237 OA
ATOM     70  O   UNL A   1      44.903  36.783  26.938  1.00  0.00    -0.744 OA
ENDBRANCH  66  67
ENDBRANCH  47  61
BRANCH  48  71
ATOM     71  C   UNL A   1      37.334  31.194  31.869  1.00  0.00    -0.014 A 
ATOM     72  C   UNL A   1      36.782  31.583  33.105  1.00  0.00     0.010 A 
ATOM     73  C   UNL A   1      36.789  31.771  30.704  1.00  0.00     0.010 A 
ATOM     74  C   UNL A   1      35.768  32.558  33.176  1.00  0.00     0.020 A 
ATOM     75  C   UNL A   1      35.778  32.740  30.766  1.00  0.00     0.020 A 
ATOM     76  C   UNL A   1      35.287  33.147  32.004  1.00  0.00     0.054 A 
BRANCH  76  77
ATOM     77  S   UNL A   1      34.114  34.534  32.108  1.00  0.00     0.124 S 
ATOM     78  O   UNL A   1      33.654  34.657  30.727  1.00  0.00    -0.237 OA
ATOM     79  O   UNL A   1      33.122  34.044  33.061  1.00  0.00    -0.237 OA
ATOM     80  O   UNL A   1      34.935  35.643  32.587  1.00  0.00    -0.744 OA
ENDBRANCH  76  77
ENDBRANCH  48  71
BRANCH  60  81
ATOM     81  C   UNL A   1      43.014  28.996  33.596  1.00  0.00    -0.014 A 
ATOM     82  C   UNL A   1      43.673  29.181  34.827  1.00  0.00     0.010 A 
ATOM     83  C   UNL A   1      42.100  27.934  33.477  1.00  0.00     0.010 A 
ATOM     84  C   UNL A   1      43.439  28.307  35.902  1.00  0.00     0.020 A 
ATOM     85  C   UNL A   1      41.849  27.073  34.546  1.00  0.00     0.020 A 
ATOM     86  C   UNL A   1      42.526  27.257  35.752  1.00  0.00     0.054 A 
BRANCH  86  87
ATOM     87  S   UNL A   1      42.193  26.149  37.151  1.00  0.00     0.124 S 
ATOM     88  O   UNL A   1      43.059  26.687  38.196  1.00  0.00    -0.237 OA
ATOM     89  O   UNL A   1      40.759  26.323  37.369  1.00  0.00    -0.237 OA
ATOM     90  O   UNL A   1      42.577  24.830  36.649  1.00  0.00    -0.744 OA
ENDBRANCH  86  87
ENDBRANCH  60  81
ENDBRANCH  34  35
ENDBRANCH  26  29
ENDBRANCH  24  25
ENDBRANCH  23  24
ENDBRANCH   1  23
TORSDOF 19
ENDMDL
