MODEL 1
REMARK VINA RESULT:     -14.1      0.000      0.000
REMARK SMILES Cc1cccc(-n2ncc(C(=O)Nc3cccc(C(=O)NCCCCNC(=O)c4ccc(-c5c6nc(c(-c7ccc(S(=O)(=O)[O-])cc7)c7ccc([nH]7)c(-c7ccc(S(=O)(=O)[O-])cc7)c7nc(c(-c8ccc(S(=O)(=O)[O-])cc8)c8ccc5[nH]8)C=C7)C=C6)cc4)c3C)c2C)c1
REMARK SMILES IDX 23 1 22 2 21 3 19 4 20 5 18 7 14 8 15 9 89 10 16 11 90 12
REMARK SMILES IDX 17 13 13 14 11 15 12 16 10 18 7 19 8 20 91 21 9 22 92 23
REMARK SMILES IDX 6 24 1 25 2 26 3 27 93 28 4 29 5 30 24 31 25 32 26 33 27 34
REMARK SMILES IDX 28 36 29 37 30 38 88 39 31 40 87 41 32 42 33 43 34 44 81 45
REMARK SMILES IDX 35 46 86 47 80 48 82 49 36 50 85 51 79 52 78 53 37 55 67 56
REMARK SMILES IDX 48 57 66 58 49 59 52 60 65 61 83 62 50 63 51 64 64 66 84 67
REMARK SMILES IDX 53 68 38 69 39 70 47 71 40 72 46 73 41 74 42 75 43 76 44 77
REMARK SMILES IDX 45 78 68 79 69 80 77 81 70 82 76 83 71 84 72 85 73 86 74 87
REMARK SMILES IDX 75 88 54 89 55 90 63 91 56 92 62 93 57 94 58 95 59 96 60 97
REMARK SMILES IDX 61 98
REMARK H PARENT 21 6 13 17 26 35 82 54 52 65
REMARK Flexibility Score: inf
ROOT
ATOM      1  C   UNL A   1      32.241  29.998  25.974  1.00  0.00     0.023 C 
ENDROOT
BRANCH   1   2
ATOM      2  C   UNL A   1      32.685  29.236  24.725  1.00  0.00     0.116 C 
BRANCH   2   3
ATOM      3  N   UNL A   1      31.764  29.355  23.597  1.00  0.00    -0.352 N 
ATOM      4  C   UNL A   1      31.099  28.519  22.732  1.00  0.00     0.251 C 
ATOM      5  O   UNL A   1      30.311  29.083  21.968  1.00  0.00    -0.269 OA
ATOM      6  H   UNL A   1      31.562  30.299  23.401  1.00  0.00     0.163 HD
BRANCH   4   7
ATOM      7  C   UNL A   1      31.245  27.021  22.654  1.00  0.00     0.044 A 
ATOM      8  C   UNL A   1      30.758  24.786  23.508  1.00  0.00     0.045 A 
ATOM      9  C   UNL A   1      31.723  24.238  22.660  1.00  0.00     0.026 A 
ATOM     10  C   UNL A   1      30.401  26.154  23.416  1.00  0.00    -0.015 A 
ATOM     11  C   UNL A   1      32.503  25.066  21.882  1.00  0.00     0.003 A 
ATOM     12  C   UNL A   1      29.251  26.672  24.249  1.00  0.00     0.047 C 
ATOM     13  C   UNL A   1      32.314  26.443  21.956  1.00  0.00     0.014 A 
BRANCH   8  14
ATOM     14  N   UNL A   1      30.234  23.972  24.532  1.00  0.00    -0.322 N 
ATOM     15  C   UNL A   1      30.939  23.140  25.390  1.00  0.00     0.259 C 
ATOM     16  O   UNL A   1      30.317  22.267  25.997  1.00  0.00    -0.269 OA
ATOM     17  H   UNL A   1      29.259  23.997  24.653  1.00  0.00     0.170 HD
BRANCH  15  18
ATOM     18  C   UNL A   1      32.367  23.383  25.636  1.00  0.00     0.081 A 
ATOM     19  N   UNL A   1      34.581  23.141  25.854  1.00  0.00    -0.237 N 
ATOM     20  N   UNL A   1      34.315  24.391  26.297  1.00  0.00    -0.175 NA
ATOM     21  C   UNL A   1      33.404  22.450  25.575  1.00  0.00     0.054 A 
ATOM     22  C   UNL A   1      33.005  24.537  26.143  1.00  0.00     0.149 A 
ATOM     23  C   UNL A   1      33.311  20.975  25.398  1.00  0.00     0.068 C 
BRANCH  19  24
ATOM     24  C   UNL A   1      35.938  22.714  25.786  1.00  0.00     0.065 A 
ATOM     25  C   UNL A   1      37.803  19.539  24.789  1.00  0.00     0.044 C 
ATOM     26  C   UNL A   1      37.523  20.932  25.270  1.00  0.00    -0.049 A 
ATOM     27  C   UNL A   1      38.576  21.814  25.537  1.00  0.00     0.003 A 
ATOM     28  C   UNL A   1      36.205  21.382  25.423  1.00  0.00     0.031 A 
ATOM     29  C   UNL A   1      38.316  23.120  25.956  1.00  0.00     0.002 A 
ATOM     30  C   UNL A   1      37.001  23.574  26.080  1.00  0.00     0.028 A 
ENDBRANCH  19  24
ENDBRANCH  15  18
ENDBRANCH   8  14
ENDBRANCH   4   7
ENDBRANCH   2   3
ENDBRANCH   1   2
BRANCH   1  31
ATOM     31  C   UNL A   1      32.923  29.562  27.270  1.00  0.00     0.023 C 
BRANCH  31  32
ATOM     32  C   UNL A   1      34.444  29.493  27.196  1.00  0.00     0.116 C 
BRANCH  32  33
ATOM     33  N   UNL A   1      35.136  30.747  27.433  1.00  0.00    -0.352 N 
ATOM     34  C   UNL A   1      36.369  30.927  28.053  1.00  0.00     0.251 C 
ATOM     35  H   UNL A   1      34.680  31.563  27.122  1.00  0.00     0.163 HD
ATOM     36  O   UNL A   1      36.747  32.009  28.441  1.00  0.00    -0.269 OA
BRANCH  34  37
ATOM     37  C   UNL A   1      37.265  29.744  28.115  1.00  0.00     0.039 A 
ATOM     38  C   UNL A   1      37.360  29.080  29.344  1.00  0.00     0.014 A 
ATOM     39  C   UNL A   1      38.172  29.484  27.092  1.00  0.00     0.014 A 
ATOM     40  C   UNL A   1      38.484  28.304  29.618  1.00  0.00     0.010 A 
ATOM     41  C   UNL A   1      39.329  28.792  27.398  1.00  0.00     0.010 A 
ATOM     42  C   UNL A   1      39.510  28.250  28.679  1.00  0.00    -0.014 A 
BRANCH  42  43
ATOM     43  C   UNL A   1      40.837  27.711  28.953  1.00  0.00     0.031 A 
ATOM     44  C   UNL A   1      41.132  26.289  28.661  1.00  0.00     0.074 A 
ATOM     45  C   UNL A   1      41.839  28.519  29.373  1.00  0.00     0.049 A 
ATOM     46  N   UNL A   1      42.156  25.654  29.125  1.00  0.00    -0.248 NA
ATOM     47  C   UNL A   1      40.240  25.432  27.879  1.00  0.00     0.031 C 
ATOM     48  C   UNL A   1      43.271  28.224  29.339  1.00  0.00     0.029 A 
ATOM     49  N   UNL A   1      41.760  29.686  30.136  1.00  0.00    -0.354 N 
ATOM     50  C   UNL A   1      42.255  24.480  28.419  1.00  0.00     0.074 A 
ATOM     51  C   UNL A   1      40.964  24.312  27.800  1.00  0.00     0.031 C 
ATOM     52  C   UNL A   1      43.884  28.969  30.271  1.00  0.00     0.029 A 
ATOM     53  C   UNL A   1      42.844  29.634  31.034  1.00  0.00     0.049 A 
ATOM     54  H   UNL A   1      41.086  30.399  30.061  1.00  0.00     0.167 HD
ATOM     55  C   UNL A   1      43.470  23.877  28.298  1.00  0.00     0.031 A 
ATOM     56  C   UNL A   1      42.707  29.581  32.393  1.00  0.00     0.031 A 
ATOM     57  C   UNL A   1      44.455  24.415  29.241  1.00  0.00     0.049 A 
ATOM     58  C   UNL A   1      43.354  28.361  33.034  1.00  0.00     0.074 A 
ATOM     59  C   UNL A   1      45.660  25.087  29.138  1.00  0.00     0.029 A 
ATOM     60  N   UNL A   1      44.117  24.456  30.587  1.00  0.00    -0.354 N 
ATOM     61  N   UNL A   1      44.011  27.442  32.382  1.00  0.00    -0.248 NA
ATOM     62  C   UNL A   1      43.210  28.027  34.453  1.00  0.00     0.031 C 
ATOM     63  C   UNL A   1      46.030  25.543  30.442  1.00  0.00     0.029 A 
ATOM     64  C   UNL A   1      45.064  25.121  31.335  1.00  0.00     0.049 A 
ATOM     65  H   UNL A   1      43.299  24.056  30.962  1.00  0.00     0.167 HD
ATOM     66  C   UNL A   1      44.292  26.392  33.218  1.00  0.00     0.074 A 
ATOM     67  C   UNL A   1      43.792  26.815  34.514  1.00  0.00     0.031 C 
ATOM     68  C   UNL A   1      44.850  25.228  32.772  1.00  0.00     0.031 A 
BRANCH  55  69
ATOM     69  C   UNL A   1      43.822  22.907  27.185  1.00  0.00    -0.014 A 
ATOM     70  C   UNL A   1      42.901  21.908  26.801  1.00  0.00     0.010 A 
ATOM     71  C   UNL A   1      45.086  22.846  26.560  1.00  0.00     0.010 A 
ATOM     72  C   UNL A   1      43.237  20.897  25.881  1.00  0.00     0.020 A 
ATOM     73  C   UNL A   1      45.422  21.868  25.615  1.00  0.00     0.020 A 
ATOM     74  C   UNL A   1      44.503  20.880  25.298  1.00  0.00     0.054 A 
BRANCH  74  75
ATOM     75  S   UNL A   1      44.960  19.550  24.157  1.00  0.00     0.124 S 
ATOM     76  O   UNL A   1      44.584  20.110  22.862  1.00  0.00    -0.237 OA
ATOM     77  O   UNL A   1      46.393  19.402  24.392  1.00  0.00    -0.237 OA
ATOM     78  O   UNL A   1      44.144  18.419  24.600  1.00  0.00    -0.744 OA
ENDBRANCH  74  75
ENDBRANCH  55  69
BRANCH  56  79
ATOM     79  C   UNL A   1      41.486  30.269  32.899  1.00  0.00    -0.014 A 
ATOM     80  C   UNL A   1      41.503  31.681  32.915  1.00  0.00     0.010 A 
ATOM     81  C   UNL A   1      40.249  29.600  32.919  1.00  0.00     0.010 A 
ATOM     82  C   UNL A   1      40.320  32.404  32.757  1.00  0.00     0.020 A 
ATOM     83  C   UNL A   1      39.059  30.326  32.773  1.00  0.00     0.020 A 
ATOM     84  C   UNL A   1      39.115  31.714  32.617  1.00  0.00     0.054 A 
BRANCH  84  85
ATOM     85  S   UNL A   1      37.678  32.640  31.998  1.00  0.00     0.124 S 
ATOM     86  O   UNL A   1      36.792  31.576  31.537  1.00  0.00    -0.237 OA
ATOM     87  O   UNL A   1      37.241  33.345  33.204  1.00  0.00    -0.237 OA
ATOM     88  O   UNL A   1      38.248  33.485  30.953  1.00  0.00    -0.744 OA
ENDBRANCH  84  85
ENDBRANCH  56  79
BRANCH  68  89
ATOM     89  C   UNL A   1      45.172  24.036  33.641  1.00  0.00    -0.014 A 
ATOM     90  C   UNL A   1      46.480  23.684  34.014  1.00  0.00     0.010 A 
ATOM     91  C   UNL A   1      44.138  23.144  34.013  1.00  0.00     0.010 A 
ATOM     92  C   UNL A   1      46.732  22.528  34.772  1.00  0.00     0.020 A 
ATOM     93  C   UNL A   1      44.380  21.982  34.750  1.00  0.00     0.020 A 
ATOM     94  C   UNL A   1      45.678  21.688  35.140  1.00  0.00     0.054 A 
BRANCH  94  95
ATOM     95  S   UNL A   1      46.031  20.181  36.081  1.00  0.00     0.124 S 
ATOM     96  O   UNL A   1      47.474  20.028  35.909  1.00  0.00    -0.237 OA
ATOM     97  O   UNL A   1      45.597  20.554  37.425  1.00  0.00    -0.237 OA
ATOM     98  O   UNL A   1      45.218  19.158  35.426  1.00  0.00    -0.744 OA
ENDBRANCH  94  95
ENDBRANCH  68  89
ENDBRANCH  42  43
ENDBRANCH  34  37
ENDBRANCH  32  33
ENDBRANCH  31  32
ENDBRANCH   1  31
TORSDOF 17
ENDMDL
MODEL 2
REMARK VINA RESULT:     -13.6      1.585      2.361
REMARK SMILES Cc1cccc(-n2ncc(C(=O)Nc3cccc(C(=O)NCCCCNC(=O)c4ccc(-c5c6nc(c(-c7ccc(S(=O)(=O)[O-])cc7)c7ccc([nH]7)c(-c7ccc(S(=O)(=O)[O-])cc7)c7nc(c(-c8ccc(S(=O)(=O)[O-])cc8)c8ccc5[nH]8)C=C7)C=C6)cc4)c3C)c2C)c1
REMARK SMILES IDX 23 1 22 2 21 3 19 4 20 5 18 7 14 8 15 9 89 10 16 11 90 12
REMARK SMILES IDX 17 13 13 14 11 15 12 16 10 18 7 19 8 20 91 21 9 22 92 23
REMARK SMILES IDX 6 24 1 25 2 26 3 27 93 28 4 29 5 30 24 31 25 32 26 33 27 34
REMARK SMILES IDX 28 36 29 37 30 38 88 39 31 40 87 41 32 42 33 43 34 44 81 45
REMARK SMILES IDX 35 46 86 47 80 48 82 49 36 50 85 51 79 52 78 53 37 55 67 56
REMARK SMILES IDX 48 57 66 58 49 59 52 60 65 61 83 62 50 63 51 64 64 66 84 67
REMARK SMILES IDX 53 68 38 69 39 70 47 71 40 72 46 73 41 74 42 75 43 76 44 77
REMARK SMILES IDX 45 78 68 79 69 80 77 81 70 82 76 83 71 84 72 85 73 86 74 87
REMARK SMILES IDX 75 88 54 89 55 90 63 91 56 92 62 93 57 94 58 95 59 96 60 97
REMARK SMILES IDX 61 98
REMARK H PARENT 21 6 13 17 26 35 82 54 52 65
REMARK Flexibility Score: inf
ROOT
ATOM      1  C   UNL A   1      32.167  29.297  25.993  1.00  0.00     0.023 C 
ENDROOT
BRANCH   1   2
ATOM      2  C   UNL A   1      31.448  30.646  26.029  1.00  0.00     0.116 C 
BRANCH   2   3
ATOM      3  N   UNL A   1      30.585  30.892  24.875  1.00  0.00    -0.352 N 
ATOM      4  C   UNL A   1      29.969  30.158  23.890  1.00  0.00     0.251 C 
ATOM      5  O   UNL A   1      29.218  30.804  23.154  1.00  0.00    -0.269 OA
ATOM      6  H   UNL A   1      30.389  31.852  24.776  1.00  0.00     0.163 HD
BRANCH   4   7
ATOM      7  C   UNL A   1      30.126  28.678  23.653  1.00  0.00     0.044 A 
ATOM      8  C   UNL A   1      30.953  26.811  22.313  1.00  0.00     0.045 A 
ATOM      9  C   UNL A   1      30.201  25.914  23.076  1.00  0.00     0.026 A 
ATOM     10  C   UNL A   1      31.044  28.177  22.677  1.00  0.00    -0.015 A 
ATOM     11  C   UNL A   1      29.355  26.388  24.055  1.00  0.00     0.003 A 
ATOM     12  C   UNL A   1      31.984  29.082  21.913  1.00  0.00     0.047 C 
ATOM     13  C   UNL A   1      29.264  27.761  24.268  1.00  0.00     0.014 A 
BRANCH   8  14
ATOM     14  N   UNL A   1      31.522  26.347  21.111  1.00  0.00    -0.322 N 
ATOM     15  C   UNL A   1      32.735  25.693  20.951  1.00  0.00     0.259 C 
ATOM     16  O   UNL A   1      33.229  25.648  19.823  1.00  0.00    -0.269 OA
ATOM     17  H   UNL A   1      31.000  26.504  20.292  1.00  0.00     0.170 HD
BRANCH  15  18
ATOM     18  C   UNL A   1      33.341  24.986  22.088  1.00  0.00     0.081 A 
ATOM     19  N   UNL A   1      34.069  23.405  23.494  1.00  0.00    -0.237 N 
ATOM     20  N   UNL A   1      34.291  24.577  24.132  1.00  0.00    -0.175 NA
ATOM     21  C   UNL A   1      33.366  23.608  22.309  1.00  0.00     0.054 A 
ATOM     22  C   UNL A   1      33.878  25.511  23.285  1.00  0.00     0.149 A 
ATOM     23  C   UNL A   1      32.671  22.537  21.544  1.00  0.00     0.068 C 
BRANCH  19  24
ATOM     24  C   UNL A   1      34.513  22.198  24.106  1.00  0.00     0.065 A 
ATOM     25  C   UNL A   1      32.926  18.935  25.284  1.00  0.00     0.044 C 
ATOM     26  C   UNL A   1      33.944  19.999  24.997  1.00  0.00    -0.049 A 
ATOM     27  C   UNL A   1      35.303  19.759  25.228  1.00  0.00     0.003 A 
ATOM     28  C   UNL A   1      33.554  21.232  24.461  1.00  0.00     0.031 A 
ATOM     29  C   UNL A   1      36.254  20.736  24.933  1.00  0.00     0.002 A 
ATOM     30  C   UNL A   1      35.864  21.955  24.371  1.00  0.00     0.028 A 
ENDBRANCH  19  24
ENDBRANCH  15  18
ENDBRANCH   8  14
ENDBRANCH   4   7
ENDBRANCH   2   3
ENDBRANCH   1   2
BRANCH   1  31
ATOM     31  C   UNL A   1      33.680  29.379  25.800  1.00  0.00     0.023 C 
BRANCH  31  32
ATOM     32  C   UNL A   1      34.483  29.439  27.095  1.00  0.00     0.116 C 
BRANCH  32  33
ATOM     33  N   UNL A   1      35.159  30.698  27.348  1.00  0.00    -0.352 N 
ATOM     34  C   UNL A   1      36.401  30.883  27.950  1.00  0.00     0.251 C 
ATOM     35  H   UNL A   1      34.686  31.513  27.063  1.00  0.00     0.163 HD
ATOM     36  O   UNL A   1      36.769  31.961  28.356  1.00  0.00    -0.269 OA
BRANCH  34  37
ATOM     37  C   UNL A   1      37.315  29.713  27.971  1.00  0.00     0.039 A 
ATOM     38  C   UNL A   1      37.382  28.976  29.160  1.00  0.00     0.014 A 
ATOM     39  C   UNL A   1      38.260  29.530  26.965  1.00  0.00     0.014 A 
ATOM     40  C   UNL A   1      38.510  28.203  29.424  1.00  0.00     0.010 A 
ATOM     41  C   UNL A   1      39.418  28.840  27.268  1.00  0.00     0.010 A 
ATOM     42  C   UNL A   1      39.567  28.223  28.518  1.00  0.00    -0.014 A 
BRANCH  42  43
ATOM     43  C   UNL A   1      40.894  27.689  28.804  1.00  0.00     0.031 A 
ATOM     44  C   UNL A   1      41.190  26.262  28.538  1.00  0.00     0.074 A 
ATOM     45  C   UNL A   1      41.894  28.505  29.212  1.00  0.00     0.049 A 
ATOM     46  N   UNL A   1      42.213  25.636  29.015  1.00  0.00    -0.248 NA
ATOM     47  C   UNL A   1      40.299  25.391  27.770  1.00  0.00     0.031 C 
ATOM     48  C   UNL A   1      43.327  28.210  29.186  1.00  0.00     0.029 A 
ATOM     49  N   UNL A   1      41.814  29.685  29.953  1.00  0.00    -0.354 N 
ATOM     50  C   UNL A   1      42.314  24.450  28.330  1.00  0.00     0.074 A 
ATOM     51  C   UNL A   1      41.024  24.270  27.712  1.00  0.00     0.031 C 
ATOM     52  C   UNL A   1      43.938  28.971  30.105  1.00  0.00     0.029 A 
ATOM     53  C   UNL A   1      42.896  29.649  30.855  1.00  0.00     0.049 A 
ATOM     54  H   UNL A   1      41.140  30.397  29.865  1.00  0.00     0.167 HD
ATOM     55  C   UNL A   1      43.530  23.845  28.221  1.00  0.00     0.031 A 
ATOM     56  C   UNL A   1      42.758  29.620  32.214  1.00  0.00     0.031 A 
ATOM     57  C   UNL A   1      44.512  24.401  29.156  1.00  0.00     0.049 A 
ATOM     58  C   UNL A   1      43.404  28.412  32.877  1.00  0.00     0.074 A 
ATOM     59  C   UNL A   1      45.718  25.071  29.043  1.00  0.00     0.029 A 
ATOM     60  N   UNL A   1      44.173  24.464  30.501  1.00  0.00    -0.354 N 
ATOM     61  N   UNL A   1      44.062  27.482  32.243  1.00  0.00    -0.248 NA
ATOM     62  C   UNL A   1      43.258  28.103  34.302  1.00  0.00     0.031 C 
ATOM     63  C   UNL A   1      46.085  25.550  30.339  1.00  0.00     0.029 A 
ATOM     64  C   UNL A   1      45.118  25.144  31.238  1.00  0.00     0.049 A 
ATOM     65  H   UNL A   1      43.354  24.071  30.881  1.00  0.00     0.167 HD
ATOM     66  C   UNL A   1      44.342  26.447  33.097  1.00  0.00     0.074 A 
ATOM     67  C   UNL A   1      43.840  26.893  34.385  1.00  0.00     0.031 C 
ATOM     68  C   UNL A   1      44.901  25.275  32.673  1.00  0.00     0.031 A 
BRANCH  55  69
ATOM     69  C   UNL A   1      43.883  22.856  27.126  1.00  0.00    -0.014 A 
ATOM     70  C   UNL A   1      43.001  21.798  26.818  1.00  0.00     0.010 A 
ATOM     71  C   UNL A   1      45.120  22.838  26.446  1.00  0.00     0.010 A 
ATOM     72  C   UNL A   1      43.350  20.774  25.917  1.00  0.00     0.020 A 
ATOM     73  C   UNL A   1      45.466  21.847  25.520  1.00  0.00     0.020 A 
ATOM     74  C   UNL A   1      44.588  20.802  25.278  1.00  0.00     0.054 A 
BRANCH  74  75
ATOM     75  S   UNL A   1      45.065  19.458  24.162  1.00  0.00     0.124 S 
ATOM     76  O   UNL A   1      44.488  19.890  22.892  1.00  0.00    -0.237 OA
ATOM     77  O   UNL A   1      46.523  19.479  24.236  1.00  0.00    -0.237 OA
ATOM     78  O   UNL A   1      44.436  18.277  24.754  1.00  0.00    -0.744 OA
ENDBRANCH  74  75
ENDBRANCH  55  69
BRANCH  56  79
ATOM     79  C   UNL A   1      41.535  30.316  32.706  1.00  0.00    -0.014 A 
ATOM     80  C   UNL A   1      40.419  29.512  33.021  1.00  0.00     0.010 A 
ATOM     81  C   UNL A   1      41.626  31.606  33.260  1.00  0.00     0.010 A 
ATOM     82  C   UNL A   1      39.519  29.907  34.012  1.00  0.00     0.020 A 
ATOM     83  C   UNL A   1      40.716  32.009  34.247  1.00  0.00     0.020 A 
ATOM     84  C   UNL A   1      39.718  31.123  34.666  1.00  0.00     0.054 A 
BRANCH  84  85
ATOM     85  S   UNL A   1      38.805  31.413  36.211  1.00  0.00     0.124 S 
ATOM     86  O   UNL A   1      39.842  31.929  37.098  1.00  0.00    -0.237 OA
ATOM     87  O   UNL A   1      37.801  32.387  35.779  1.00  0.00    -0.237 OA
ATOM     88  O   UNL A   1      38.287  30.090  36.546  1.00  0.00    -0.744 OA
ENDBRANCH  84  85
ENDBRANCH  56  79
BRANCH  68  89
ATOM     89  C   UNL A   1      45.223  24.099  33.564  1.00  0.00    -0.014 A 
ATOM     90  C   UNL A   1      46.505  23.850  34.079  1.00  0.00     0.010 A 
ATOM     91  C   UNL A   1      44.232  23.119  33.809  1.00  0.00     0.010 A 
ATOM     92  C   UNL A   1      46.766  22.706  34.851  1.00  0.00     0.020 A 
ATOM     93  C   UNL A   1      44.486  21.968  34.559  1.00  0.00     0.020 A 
ATOM     94  C   UNL A   1      45.753  21.775  35.091  1.00  0.00     0.054 A 
BRANCH  94  95
ATOM     95  S   UNL A   1      46.122  20.286  36.054  1.00  0.00     0.124 S 
ATOM     96  O   UNL A   1      45.293  19.273  35.404  1.00  0.00    -0.237 OA
ATOM     97  O   UNL A   1      47.561  20.142  35.850  1.00  0.00    -0.237 OA
ATOM     98  O   UNL A   1      45.717  20.636  37.413  1.00  0.00    -0.744 OA
ENDBRANCH  94  95
ENDBRANCH  68  89
ENDBRANCH  42  43
ENDBRANCH  34  37
ENDBRANCH  32  33
ENDBRANCH  31  32
ENDBRANCH   1  31
TORSDOF 17
ENDMDL
MODEL 3
REMARK VINA RESULT:     -13.2      4.165     10.724
REMARK SMILES Cc1cccc(-n2ncc(C(=O)Nc3cccc(C(=O)NCCCCNC(=O)c4ccc(-c5c6nc(c(-c7ccc(S(=O)(=O)[O-])cc7)c7ccc([nH]7)c(-c7ccc(S(=O)(=O)[O-])cc7)c7nc(c(-c8ccc(S(=O)(=O)[O-])cc8)c8ccc5[nH]8)C=C7)C=C6)cc4)c3C)c2C)c1
REMARK SMILES IDX 23 1 22 2 21 3 19 4 20 5 18 7 14 8 15 9 89 10 16 11 90 12
REMARK SMILES IDX 17 13 13 14 11 15 12 16 10 18 7 19 8 20 91 21 9 22 92 23
REMARK SMILES IDX 6 24 1 25 2 26 3 27 93 28 4 29 5 30 24 31 25 32 26 33 27 34
REMARK SMILES IDX 28 36 29 37 30 38 88 39 31 40 87 41 32 42 33 43 34 44 81 45
REMARK SMILES IDX 35 46 86 47 80 48 82 49 36 50 85 51 79 52 78 53 37 55 67 56
REMARK SMILES IDX 48 57 66 58 49 59 52 60 65 61 83 62 50 63 51 64 64 66 84 67
REMARK SMILES IDX 53 68 38 69 39 70 47 71 40 72 46 73 41 74 42 75 43 76 44 77
REMARK SMILES IDX 45 78 68 79 69 80 77 81 70 82 76 83 71 84 72 85 73 86 74 87
REMARK SMILES IDX 75 88 54 89 55 90 63 91 56 92 62 93 57 94 58 95 59 96 60 97
REMARK SMILES IDX 61 98
REMARK H PARENT 21 6 13 17 26 35 82 54 52 65
REMARK Flexibility Score: inf
ROOT
ATOM      1  C   UNL A   1      36.607  20.504  25.021  1.00  0.00     0.023 C 
ENDROOT
BRANCH   1   2
ATOM      2  C   UNL A   1      35.299  20.991  25.647  1.00  0.00     0.116 C 
BRANCH   2   3
ATOM      3  N   UNL A   1      35.323  22.391  26.064  1.00  0.00    -0.352 N 
ATOM      4  C   UNL A   1      34.496  23.486  26.001  1.00  0.00     0.251 C 
ATOM      5  O   UNL A   1      34.906  24.482  26.604  1.00  0.00    -0.269 OA
ATOM      6  H   UNL A   1      36.169  22.612  26.518  1.00  0.00     0.163 HD
BRANCH   4   7
ATOM      7  C   UNL A   1      33.171  23.561  25.286  1.00  0.00     0.044 A 
ATOM      8  C   UNL A   1      31.858  23.978  23.270  1.00  0.00     0.045 A 
ATOM      9  C   UNL A   1      30.678  23.946  24.017  1.00  0.00     0.026 A 
ATOM     10  C   UNL A   1      33.101  23.642  23.860  1.00  0.00    -0.015 A 
ATOM     11  C   UNL A   1      30.737  23.814  25.387  1.00  0.00     0.003 A 
ATOM     12  C   UNL A   1      34.330  23.544  22.985  1.00  0.00     0.047 C 
ATOM     13  C   UNL A   1      31.978  23.712  26.007  1.00  0.00     0.014 A 
BRANCH   8  14
ATOM     14  N   UNL A   1      31.796  24.463  21.949  1.00  0.00    -0.322 N 
ATOM     15  C   UNL A   1      31.925  25.778  21.528  1.00  0.00     0.259 C 
ATOM     16  O   UNL A   1      31.527  26.071  20.400  1.00  0.00    -0.269 OA
ATOM     17  H   UNL A   1      31.644  23.793  21.245  1.00  0.00     0.170 HD
BRANCH  15  18
ATOM     18  C   UNL A   1      32.621  26.753  22.378  1.00  0.00     0.081 A 
ATOM     19  N   UNL A   1      33.138  28.210  23.997  1.00  0.00    -0.237 N 
ATOM     20  N   UNL A   1      34.171  28.266  23.125  1.00  0.00    -0.175 NA
ATOM     21  C   UNL A   1      32.114  27.405  23.505  1.00  0.00     0.054 A 
ATOM     22  C   UNL A   1      33.869  27.384  22.181  1.00  0.00     0.149 A 
ATOM     23  C   UNL A   1      30.722  27.391  24.031  1.00  0.00     0.068 C 
BRANCH  19  24
ATOM     24  C   UNL A   1      33.214  28.973  25.198  1.00  0.00     0.065 A 
ATOM     25  C   UNL A   1      31.331  31.905  26.748  1.00  0.00     0.044 C 
ATOM     26  C   UNL A   1      32.326  30.802  26.546  1.00  0.00    -0.049 A 
ATOM     27  C   UNL A   1      33.229  30.468  27.563  1.00  0.00     0.003 A 
ATOM     28  C   UNL A   1      32.343  30.066  25.355  1.00  0.00     0.031 A 
ATOM     29  C   UNL A   1      34.136  29.421  27.388  1.00  0.00     0.002 A 
ATOM     30  C   UNL A   1      34.130  28.671  26.210  1.00  0.00     0.028 A 
ENDBRANCH  19  24
ENDBRANCH  15  18
ENDBRANCH   8  14
ENDBRANCH   4   7
ENDBRANCH   2   3
ENDBRANCH   1   2
BRANCH   1  31
ATOM     31  C   UNL A   1      37.488  21.606  24.435  1.00  0.00     0.023 C 
BRANCH  31  32
ATOM     32  C   UNL A   1      38.096  22.550  25.466  1.00  0.00     0.116 C 
BRANCH  32  33
ATOM     33  N   UNL A   1      39.380  22.140  26.004  1.00  0.00    -0.352 N 
ATOM     34  C   UNL A   1      40.407  22.963  26.458  1.00  0.00     0.251 C 
ATOM     35  H   UNL A   1      39.544  21.170  26.052  1.00  0.00     0.163 HD
ATOM     36  O   UNL A   1      41.530  22.555  26.642  1.00  0.00    -0.269 OA
BRANCH  34  37
ATOM     37  C   UNL A   1      40.036  24.355  26.822  1.00  0.00     0.039 A 
ATOM     38  C   UNL A   1      40.640  25.387  26.093  1.00  0.00     0.014 A 
ATOM     39  C   UNL A   1      39.352  24.622  28.004  1.00  0.00     0.014 A 
ATOM     40  C   UNL A   1      40.729  26.659  26.653  1.00  0.00     0.010 A 
ATOM     41  C   UNL A   1      39.522  25.858  28.598  1.00  0.00     0.010 A 
ATOM     42  C   UNL A   1      40.259  26.859  27.948  1.00  0.00    -0.014 A 
BRANCH  42  43
ATOM     43  C   UNL A   1      40.539  28.051  28.741  1.00  0.00     0.031 A 
ATOM     44  C   UNL A   1      39.583  29.183  28.736  1.00  0.00     0.074 A 
ATOM     45  C   UNL A   1      41.610  28.096  29.567  1.00  0.00     0.049 A 
ATOM     46  N   UNL A   1      39.868  30.370  29.158  1.00  0.00    -0.248 NA
ATOM     47  C   UNL A   1      38.238  29.091  28.169  1.00  0.00     0.031 C 
ATOM     48  C   UNL A   1      41.824  29.033  30.670  1.00  0.00     0.029 A 
ATOM     49  N   UNL A   1      42.842  27.452  29.438  1.00  0.00    -0.354 N 
ATOM     50  C   UNL A   1      38.682  31.051  29.273  1.00  0.00     0.074 A 
ATOM     51  C   UNL A   1      37.742  30.290  28.489  1.00  0.00     0.031 C 
ATOM     52  C   UNL A   1      43.141  29.129  30.901  1.00  0.00     0.029 A 
ATOM     53  C   UNL A   1      43.812  28.388  29.850  1.00  0.00     0.049 A 
ATOM     54  H   UNL A   1      43.001  26.533  29.125  1.00  0.00     0.167 HD
ATOM     55  C   UNL A   1      38.589  32.083  30.158  1.00  0.00     0.031 A 
ATOM     56  C   UNL A   1      44.786  28.887  29.032  1.00  0.00     0.031 A 
ATOM     57  C   UNL A   1      39.903  32.530  30.629  1.00  0.00     0.049 A 
ATOM     58  C   UNL A   1      44.764  30.403  28.895  1.00  0.00     0.074 A 
ATOM     59  C   UNL A   1      40.552  32.580  31.851  1.00  0.00     0.029 A 
ATOM     60  N   UNL A   1      40.864  32.851  29.681  1.00  0.00    -0.354 N 
ATOM     61  N   UNL A   1      43.924  31.190  29.507  1.00  0.00    -0.248 NA
ATOM     62  C   UNL A   1      45.623  31.139  27.963  1.00  0.00     0.031 C 
ATOM     63  C   UNL A   1      41.921  32.921  31.614  1.00  0.00     0.029 A 
ATOM     64  C   UNL A   1      42.090  33.105  30.256  1.00  0.00     0.049 A 
ATOM     65  H   UNL A   1      40.690  32.892  28.712  1.00  0.00     0.167 HD
ATOM     66  C   UNL A   1      44.045  32.466  29.020  1.00  0.00     0.074 A 
ATOM     67  C   UNL A   1      45.141  32.390  28.071  1.00  0.00     0.031 C 
ATOM     68  C   UNL A   1      43.194  33.472  29.379  1.00  0.00     0.031 A 
BRANCH  55  69
ATOM     69  C   UNL A   1      37.278  32.577  30.742  1.00  0.00    -0.014 A 
ATOM     70  C   UNL A   1      36.485  33.494  30.022  1.00  0.00     0.010 A 
ATOM     71  C   UNL A   1      36.830  32.272  32.045  1.00  0.00     0.010 A 
ATOM     72  C   UNL A   1      35.340  34.092  30.582  1.00  0.00     0.020 A 
ATOM     73  C   UNL A   1      35.673  32.830  32.603  1.00  0.00     0.020 A 
ATOM     74  C   UNL A   1      34.946  33.760  31.877  1.00  0.00     0.054 A 
BRANCH  74  75
ATOM     75  S   UNL A   1      33.507  34.568  32.623  1.00  0.00     0.124 S 
ATOM     76  O   UNL A   1      34.127  35.575  33.479  1.00  0.00    -0.237 OA
ATOM     77  O   UNL A   1      32.786  35.080  31.462  1.00  0.00    -0.237 OA
ATOM     78  O   UNL A   1      32.832  33.484  33.337  1.00  0.00    -0.744 OA
ENDBRANCH  74  75
ENDBRANCH  55  69
BRANCH  56  79
ATOM     79  C   UNL A   1      45.222  27.937  27.970  1.00  0.00    -0.014 A 
ATOM     80  C   UNL A   1      44.607  28.060  26.704  1.00  0.00     0.010 A 
ATOM     81  C   UNL A   1      46.463  27.283  28.065  1.00  0.00     0.010 A 
ATOM     82  C   UNL A   1      45.302  27.715  25.544  1.00  0.00     0.020 A 
ATOM     83  C   UNL A   1      47.157  26.925  26.901  1.00  0.00     0.020 A 
ATOM     84  C   UNL A   1      46.600  27.216  25.652  1.00  0.00     0.054 A 
BRANCH  84  85
ATOM     85  S   UNL A   1      47.619  27.178  24.147  1.00  0.00     0.124 S 
ATOM     86  O   UNL A   1      48.864  27.795  24.594  1.00  0.00    -0.237 OA
ATOM     87  O   UNL A   1      47.690  25.741  23.877  1.00  0.00    -0.237 OA
ATOM     88  O   UNL A   1      46.835  27.955  23.192  1.00  0.00    -0.744 OA
ENDBRANCH  84  85
ENDBRANCH  56  79
BRANCH  68  89
ATOM     89  C   UNL A   1      43.272  34.892  28.869  1.00  0.00    -0.014 A 
ATOM     90  C   UNL A   1      42.535  35.357  27.768  1.00  0.00     0.010 A 
ATOM     91  C   UNL A   1      44.213  35.785  29.434  1.00  0.00     0.010 A 
ATOM     92  C   UNL A   1      42.692  36.670  27.293  1.00  0.00     0.020 A 
ATOM     93  C   UNL A   1      44.391  37.086  28.957  1.00  0.00     0.020 A 
ATOM     94  C   UNL A   1      43.615  37.528  27.896  1.00  0.00     0.054 A 
BRANCH  94  95
ATOM     95  S   UNL A   1      43.830  39.203  27.241  1.00  0.00     0.124 S 
ATOM     96  O   UNL A   1      42.603  39.405  26.473  1.00  0.00    -0.237 OA
ATOM     97  O   UNL A   1      43.940  39.995  28.463  1.00  0.00    -0.237 OA
ATOM     98  O   UNL A   1      45.051  39.115  26.444  1.00  0.00    -0.744 OA
ENDBRANCH  94  95
ENDBRANCH  68  89
ENDBRANCH  42  43
ENDBRANCH  34  37
ENDBRANCH  32  33
ENDBRANCH  31  32
ENDBRANCH   1  31
TORSDOF 17
ENDMDL
