MODEL 1
REMARK VINA RESULT:     -12.3      0.000      0.000
REMARK SMILES Cc1c(Cl)cccc1NC(=O)C[C@](C)(C(=O)NCCCCNC(=O)c1ccc(-c2c3nc(c(-c4ccc(S(=O)(=O)[O-])cc4)c4ccc([nH]4)c(-c4ccc(S(=O)(=O)[O-])cc4)c4nc(c(-c5ccc(S(=O)(=O)[O-])cc5)c5ccc2[nH]5)C=C4)C=C3)cc1)c1ccccc1
REMARK SMILES IDX 19 1 18 2 17 3 15 4 16 5 13 7 14 8 12 9 10 10 9 11 11 13
REMARK SMILES IDX 8 14 1 15 2 16 3 17 4 18 5 19 7 20 6 21 85 22 86 23 90 24
REMARK SMILES IDX 87 25 89 26 88 27 20 28 21 29 22 30 23 31 24 33 25 34 26 35
REMARK SMILES IDX 84 36 27 37 83 38 28 39 29 40 30 41 77 42 31 43 82 44 76 45
REMARK SMILES IDX 78 46 32 47 81 48 75 49 74 50 33 52 63 53 44 54 62 55 45 56
REMARK SMILES IDX 48 57 61 58 79 59 46 60 47 61 60 63 80 64 49 65 34 66 35 67
REMARK SMILES IDX 43 68 36 69 42 70 37 71 38 72 39 73 40 74 41 75 64 76 65 77
REMARK SMILES IDX 73 78 66 79 72 80 67 81 68 82 69 83 70 84 71 85 50 86 51 87
REMARK SMILES IDX 59 88 52 89 58 90 53 91 54 92 55 93 56 94 57 95
REMARK H PARENT 17 6 9 12 22 32 78 51 48 62
REMARK Flexibility Score: inf
ROOT
ATOM      1  C   UNL A   1      38.432  23.026  26.129  1.00  0.00     0.023 C 
ENDROOT
BRANCH   1   2
ATOM      2  C   UNL A   1      37.033  23.456  25.213  1.00  0.00     0.116 C 
BRANCH   2   3
ATOM      3  N   UNL A   1      35.225  22.461  24.873  1.00  0.00    -0.355 N 
ATOM      4  C   UNL A   1      33.809  22.407  24.641  1.00  0.00     0.230 C 
ATOM      5  O   UNL A   1      33.475  21.223  24.447  1.00  0.00    -0.274 OA
ATOM      6  H   UNL A   1      35.489  21.512  24.870  1.00  0.00     0.163 HD
BRANCH   4   7
ATOM      7  C   UNL A   1      32.669  23.563  24.674  1.00  0.00     0.080 C 
ATOM      8  C   UNL A   1      31.391  22.956  23.978  1.00  0.00     0.027 C 
BRANCH   7   9
ATOM      9  C   UNL A   1      32.359  24.202  26.076  1.00  0.00     0.121 C 
BRANCH   9  10
ATOM     10  C   UNL A   1      30.926  24.281  26.566  1.00  0.00     0.225 C 
ATOM     11  N   UNL A   1      30.194  25.420  26.415  1.00  0.00    -0.326 N 
ATOM     12  H   UNL A   1      29.422  25.559  27.011  1.00  0.00     0.169 HD
ATOM     13  O   UNL A   1      30.406  23.329  27.155  1.00  0.00    -0.275 OA
BRANCH  11  14
ATOM     14  C   UNL A   1      30.477  26.400  25.466  1.00  0.00     0.045 A 
ATOM     15  C   UNL A   1      32.321  27.724  27.238  1.00  0.00     0.048 C 
ATOM     16  C   UNL A   1      31.308  27.862  26.138  1.00  0.00    -0.009 A 
ATOM     17  C   UNL A   1      31.192  29.433  25.260  1.00  0.00     0.046 A 
ATOM     18  Cl  UNL A   1      32.051  30.813  25.814  1.00  0.00    -0.084 Cl
ATOM     19  C   UNL A   1      30.164  29.584  23.791  1.00  0.00     0.021 A 
ATOM     20  C   UNL A   1      29.538  26.505  23.895  1.00  0.00     0.026 A 
ATOM     21  C   UNL A   1      29.354  28.120  23.085  1.00  0.00     0.004 A 
ENDBRANCH  11  14
ENDBRANCH   9  10
ENDBRANCH   7   9
BRANCH   7  22
ATOM     22  C   UNL A   1      32.924  24.830  23.753  1.00  0.00    -0.032 A 
ATOM     23  C   UNL A   1      33.722  25.889  24.281  1.00  0.00     0.005 A 
ATOM     24  C   UNL A   1      32.425  25.011  22.463  1.00  0.00     0.005 A 
ATOM     25  C   UNL A   1      33.883  27.106  23.629  1.00  0.00     0.000 A 
ATOM     26  C   UNL A   1      32.603  26.233  21.795  1.00  0.00     0.000 A 
ATOM     27  C   UNL A   1      33.302  27.285  22.385  1.00  0.00     0.000 A 
ENDBRANCH   7  22
ENDBRANCH   4   7
ENDBRANCH   2   3
ENDBRANCH   1   2
BRANCH   1  28
ATOM     28  C   UNL A   1      39.035  21.663  25.789  1.00  0.00     0.023 C 
BRANCH  28  29
ATOM     29  C   UNL A   1      40.042  21.152  26.794  1.00  0.00     0.116 C 
BRANCH  29  30
ATOM     30  N   UNL A   1      40.798  20.017  26.283  1.00  0.00    -0.352 N 
ATOM     31  C   UNL A   1      42.095  20.076  25.834  1.00  0.00     0.251 C 
ATOM     32  H   UNL A   1      40.346  19.142  26.256  1.00  0.00     0.163 HD
ATOM     33  O   UNL A   1      42.626  19.158  25.229  1.00  0.00    -0.269 OA
BRANCH  31  34
ATOM     34  C   UNL A   1      42.793  21.339  26.121  1.00  0.00     0.039 A 
ATOM     35  C   UNL A   1      42.782  22.349  25.163  1.00  0.00     0.014 A 
ATOM     36  C   UNL A   1      43.161  21.586  27.450  1.00  0.00     0.014 A 
ATOM     37  C   UNL A   1      43.158  23.633  25.545  1.00  0.00     0.010 A 
ATOM     38  C   UNL A   1      43.418  22.889  27.845  1.00  0.00     0.010 A 
ATOM     39  C   UNL A   1      43.469  23.913  26.889  1.00  0.00    -0.014 A 
BRANCH  39  40
ATOM     40  C   UNL A   1      43.957  25.257  27.282  1.00  0.00     0.031 A 
ATOM     41  C   UNL A   1      45.383  25.627  26.967  1.00  0.00     0.074 A 
ATOM     42  C   UNL A   1      43.134  26.136  27.883  1.00  0.00     0.049 A 
ATOM     43  N   UNL A   1      46.002  26.762  27.165  1.00  0.00    -0.248 NA
ATOM     44  C   UNL A   1      46.235  24.581  26.371  1.00  0.00     0.031 C 
ATOM     45  C   UNL A   1      41.744  25.877  28.267  1.00  0.00     0.029 A 
ATOM     46  N   UNL A   1      43.342  27.440  28.258  1.00  0.00    -0.354 N 
ATOM     47  C   UNL A   1      47.304  26.559  26.724  1.00  0.00     0.074 A 
ATOM     48  C   UNL A   1      47.415  25.176  26.329  1.00  0.00     0.031 C 
ATOM     49  C   UNL A   1      41.209  27.003  28.768  1.00  0.00     0.029 A 
ATOM     50  C   UNL A   1      42.227  28.049  28.785  1.00  0.00     0.049 A 
ATOM     51  H   UNL A   1      44.209  27.897  28.158  1.00  0.00     0.167 HD
ATOM     52  C   UNL A   1      48.312  27.453  26.618  1.00  0.00     0.031 A 
ATOM     53  C   UNL A   1      42.049  29.310  29.227  1.00  0.00     0.031 A 
ATOM     54  C   UNL A   1      48.193  28.831  27.004  1.00  0.00     0.049 A 
ATOM     55  C   UNL A   1      43.201  30.277  29.141  1.00  0.00     0.074 A 
ATOM     56  C   UNL A   1      49.140  29.833  26.907  1.00  0.00     0.029 A 
ATOM     57  N   UNL A   1      47.059  29.398  27.566  1.00  0.00    -0.354 N 
ATOM     58  N   UNL A   1      44.405  30.085  28.654  1.00  0.00    -0.248 NA
ATOM     59  C   UNL A   1      42.967  31.633  29.653  1.00  0.00     0.031 C 
ATOM     60  C   UNL A   1      48.603  30.989  27.479  1.00  0.00     0.029 A 
ATOM     61  C   UNL A   1      47.294  30.730  27.853  1.00  0.00     0.049 A 
ATOM     62  H   UNL A   1      46.213  28.922  27.734  1.00  0.00     0.167 HD
ATOM     63  C   UNL A   1      45.061  31.306  28.774  1.00  0.00     0.074 A 
ATOM     64  C   UNL A   1      44.112  32.233  29.357  1.00  0.00     0.031 C 
ATOM     65  C   UNL A   1      46.332  31.634  28.434  1.00  0.00     0.031 A 
BRANCH  52  66
ATOM     66  C   UNL A   1      49.626  26.961  26.071  1.00  0.00    -0.014 A 
ATOM     67  C   UNL A   1      49.995  27.198  24.733  1.00  0.00     0.010 A 
ATOM     68  C   UNL A   1      50.517  26.274  26.914  1.00  0.00     0.010 A 
ATOM     69  C   UNL A   1      51.215  26.726  24.241  1.00  0.00     0.020 A 
ATOM     70  C   UNL A   1      51.753  25.833  26.436  1.00  0.00     0.020 A 
ATOM     71  C   UNL A   1      52.088  26.050  25.098  1.00  0.00     0.054 A 
BRANCH  71  72
ATOM     72  S   UNL A   1      53.681  25.486  24.441  1.00  0.00     0.124 S 
ATOM     73  O   UNL A   1      53.655  24.063  24.769  1.00  0.00    -0.237 OA
ATOM     74  O   UNL A   1      53.568  25.805  23.020  1.00  0.00    -0.237 OA
ATOM     75  O   UNL A   1      54.661  26.276  25.180  1.00  0.00    -0.744 OA
ENDBRANCH  71  72
ENDBRANCH  52  66
BRANCH  53  76
ATOM     76  C   UNL A   1      40.732  29.735  29.782  1.00  0.00    -0.014 A 
ATOM     77  C   UNL A   1      39.659  30.061  28.931  1.00  0.00     0.010 A 
ATOM     78  C   UNL A   1      40.546  29.825  31.174  1.00  0.00     0.010 A 
ATOM     79  C   UNL A   1      38.439  30.493  29.460  1.00  0.00     0.020 A 
ATOM     80  C   UNL A   1      39.317  30.224  31.707  1.00  0.00     0.020 A 
ATOM     81  C   UNL A   1      38.275  30.569  30.845  1.00  0.00     0.054 A 
BRANCH  81  82
ATOM     82  S   UNL A   1      36.671  31.096  31.510  1.00  0.00     0.124 S 
ATOM     83  O   UNL A   1      36.046  31.712  30.344  1.00  0.00    -0.237 OA
ATOM     84  O   UNL A   1      36.085  29.833  31.950  1.00  0.00    -0.237 OA
ATOM     85  O   UNL A   1      37.032  32.016  32.586  1.00  0.00    -0.744 OA
ENDBRANCH  81  82
ENDBRANCH  53  76
BRANCH  65  86
ATOM     86  C   UNL A   1      46.763  33.062  28.644  1.00  0.00    -0.014 A 
ATOM     87  C   UNL A   1      47.397  33.471  29.831  1.00  0.00     0.010 A 
ATOM     88  C   UNL A   1      46.587  33.996  27.605  1.00  0.00     0.010 A 
ATOM     89  C   UNL A   1      47.812  34.795  29.989  1.00  0.00     0.020 A 
ATOM     90  C   UNL A   1      47.035  35.310  27.744  1.00  0.00     0.020 A 
ATOM     91  C   UNL A   1      47.631  35.705  28.942  1.00  0.00     0.054 A 
BRANCH  91  92
ATOM     92  S   UNL A   1      48.220  37.406  29.158  1.00  0.00     0.124 S 
ATOM     93  O   UNL A   1      49.358  37.452  28.244  1.00  0.00    -0.237 OA
ATOM     94  O   UNL A   1      47.059  38.197  28.758  1.00  0.00    -0.237 OA
ATOM     95  O   UNL A   1      48.558  37.479  30.577  1.00  0.00    -0.744 OA
ENDBRANCH  91  92
ENDBRANCH  65  86
ENDBRANCH  39  40
ENDBRANCH  31  34
ENDBRANCH  29  30
ENDBRANCH  28  29
ENDBRANCH   1  28
TORSDOF 18
ENDMDL
MODEL 2
REMARK VINA RESULT:     -12.3      5.807      7.999
REMARK SMILES Cc1c(Cl)cccc1NC(=O)C[C@](C)(C(=O)NCCCCNC(=O)c1ccc(-c2c3nc(c(-c4ccc(S(=O)(=O)[O-])cc4)c4ccc([nH]4)c(-c4ccc(S(=O)(=O)[O-])cc4)c4nc(c(-c5ccc(S(=O)(=O)[O-])cc5)c5ccc2[nH]5)C=C4)C=C3)cc1)c1ccccc1
REMARK SMILES IDX 19 1 18 2 17 3 15 4 16 5 13 7 14 8 12 9 10 10 9 11 11 13
REMARK SMILES IDX 8 14 1 15 2 16 3 17 4 18 5 19 7 20 6 21 85 22 86 23 90 24
REMARK SMILES IDX 87 25 89 26 88 27 20 28 21 29 22 30 23 31 24 33 25 34 26 35
REMARK SMILES IDX 84 36 27 37 83 38 28 39 29 40 30 41 77 42 31 43 82 44 76 45
REMARK SMILES IDX 78 46 32 47 81 48 75 49 74 50 33 52 63 53 44 54 62 55 45 56
REMARK SMILES IDX 48 57 61 58 79 59 46 60 47 61 60 63 80 64 49 65 34 66 35 67
REMARK SMILES IDX 43 68 36 69 42 70 37 71 38 72 39 73 40 74 41 75 64 76 65 77
REMARK SMILES IDX 73 78 66 79 72 80 67 81 68 82 69 83 70 84 71 85 50 86 51 87
REMARK SMILES IDX 59 88 52 89 58 90 53 91 54 92 55 93 56 94 57 95
REMARK H PARENT 17 6 9 12 22 32 78 51 48 62
REMARK Flexibility Score: inf
ROOT
ATOM      1  C   UNL A   1      38.428  23.626  26.897  1.00  0.00     0.023 C 
ENDROOT
BRANCH   1   2
ATOM      2  C   UNL A   1      37.348  23.574  25.550  1.00  0.00     0.116 C 
BRANCH   2   3
ATOM      3  N   UNL A   1      35.610  22.466  25.194  1.00  0.00    -0.355 N 
ATOM      4  C   UNL A   1      34.207  22.324  24.921  1.00  0.00     0.230 C 
ATOM      5  O   UNL A   1      33.945  21.117  24.765  1.00  0.00    -0.274 OA
ATOM      6  H   UNL A   1      35.925  21.535  25.239  1.00  0.00     0.163 HD
BRANCH   4   7
ATOM      7  C   UNL A   1      33.006  23.416  24.871  1.00  0.00     0.080 C 
ATOM      8  C   UNL A   1      31.760  22.685  24.239  1.00  0.00     0.027 C 
BRANCH   7   9
ATOM      9  C   UNL A   1      32.668  24.149  26.219  1.00  0.00     0.121 C 
BRANCH   9  10
ATOM     10  C   UNL A   1      31.233  24.207  26.705  1.00  0.00     0.225 C 
ATOM     11  N   UNL A   1      30.476  25.327  26.527  1.00  0.00    -0.326 N 
ATOM     12  H   UNL A   1      29.701  25.462  27.118  1.00  0.00     0.169 HD
ATOM     13  O   UNL A   1      30.732  23.258  27.313  1.00  0.00    -0.275 OA
BRANCH  11  14
ATOM     14  C   UNL A   1      30.740  26.291  25.557  1.00  0.00     0.045 A 
ATOM     15  C   UNL A   1      32.421  27.784  27.358  1.00  0.00     0.048 C 
ATOM     16  C   UNL A   1      31.450  27.823  26.212  1.00  0.00    -0.009 A 
ATOM     17  C   UNL A   1      31.277  29.355  25.276  1.00  0.00     0.046 A 
ATOM     18  Cl  UNL A   1      32.026  30.803  25.817  1.00  0.00    -0.084 Cl
ATOM     19  C   UNL A   1      30.307  29.394  23.760  1.00  0.00     0.021 A 
ATOM     20  C   UNL A   1      29.866  26.287  23.946  1.00  0.00     0.026 A 
ATOM     21  C   UNL A   1      29.620  27.860  23.073  1.00  0.00     0.004 A 
ENDBRANCH  11  14
ENDBRANCH   9  10
ENDBRANCH   7   9
BRANCH   7  22
ATOM     22  C   UNL A   1      33.186  24.616  23.848  1.00  0.00    -0.032 A 
ATOM     23  C   UNL A   1      33.816  25.806  24.320  1.00  0.00     0.005 A 
ATOM     24  C   UNL A   1      32.771  24.617  22.517  1.00  0.00     0.005 A 
ATOM     25  C   UNL A   1      33.887  26.970  23.563  1.00  0.00     0.000 A 
ATOM     26  C   UNL A   1      32.860  25.786  21.743  1.00  0.00     0.000 A 
ATOM     27  C   UNL A   1      33.388  26.964  22.272  1.00  0.00     0.000 A 
ENDBRANCH   7  22
ENDBRANCH   4   7
ENDBRANCH   2   3
ENDBRANCH   1   2
BRANCH   1  28
ATOM     28  C   UNL A   1      39.748  22.879  26.699  1.00  0.00     0.023 C 
BRANCH  28  29
ATOM     29  C   UNL A   1      40.981  23.673  27.066  1.00  0.00     0.116 C 
BRANCH  29  30
ATOM     30  N   UNL A   1      41.509  24.418  25.931  1.00  0.00    -0.352 N 
ATOM     31  C   UNL A   1      41.708  25.778  25.909  1.00  0.00     0.251 C 
ATOM     32  H   UNL A   1      41.740  23.910  25.120  1.00  0.00     0.163 HD
ATOM     33  O   UNL A   1      41.959  26.390  24.883  1.00  0.00    -0.269 OA
BRANCH  31  34
ATOM     34  C   UNL A   1      41.579  26.444  27.214  1.00  0.00     0.039 A 
ATOM     35  C   UNL A   1      42.519  27.405  27.577  1.00  0.00     0.014 A 
ATOM     36  C   UNL A   1      40.357  26.315  27.887  1.00  0.00     0.014 A 
ATOM     37  C   UNL A   1      42.231  28.249  28.645  1.00  0.00     0.010 A 
ATOM     38  C   UNL A   1      40.031  27.236  28.870  1.00  0.00     0.010 A 
ATOM     39  C   UNL A   1      40.982  28.176  29.292  1.00  0.00    -0.014 A 
BRANCH  39  40
ATOM     40  C   UNL A   1      40.707  29.009  30.487  1.00  0.00     0.031 A 
ATOM     41  C   UNL A   1      41.587  28.848  31.698  1.00  0.00     0.074 A 
ATOM     42  C   UNL A   1      39.707  29.911  30.477  1.00  0.00     0.049 A 
ATOM     43  N   UNL A   1      41.567  29.510  32.825  1.00  0.00    -0.248 NA
ATOM     44  C   UNL A   1      42.613  27.789  31.649  1.00  0.00     0.031 C 
ATOM     45  C   UNL A   1      38.769  30.132  29.373  1.00  0.00     0.029 A 
ATOM     46  N   UNL A   1      39.326  30.829  31.423  1.00  0.00    -0.354 N 
ATOM     47  C   UNL A   1      42.566  28.945  33.609  1.00  0.00     0.074 A 
ATOM     48  C   UNL A   1      43.117  27.836  32.870  1.00  0.00     0.031 C 
ATOM     49  C   UNL A   1      37.961  31.159  29.682  1.00  0.00     0.029 A 
ATOM     50  C   UNL A   1      38.290  31.640  31.021  1.00  0.00     0.049 A 
ATOM     51  H   UNL A   1      39.754  30.902  32.306  1.00  0.00     0.167 HD
ATOM     52  C   UNL A   1      43.016  29.338  34.821  1.00  0.00     0.031 A 
ATOM     53  C   UNL A   1      37.680  32.658  31.662  1.00  0.00     0.031 A 
ATOM     54  C   UNL A   1      42.469  30.449  35.548  1.00  0.00     0.049 A 
ATOM     55  C   UNL A   1      38.168  33.048  33.032  1.00  0.00     0.074 A 
ATOM     56  C   UNL A   1      42.871  30.956  36.769  1.00  0.00     0.029 A 
ATOM     57  N   UNL A   1      41.398  31.220  35.122  1.00  0.00    -0.354 N 
ATOM     58  N   UNL A   1      39.163  32.547  33.727  1.00  0.00    -0.248 NA
ATOM     59  C   UNL A   1      37.461  34.148  33.699  1.00  0.00     0.031 C 
ATOM     60  C   UNL A   1      41.996  31.988  37.116  1.00  0.00     0.029 A 
ATOM     61  C   UNL A   1      41.103  32.179  36.073  1.00  0.00     0.049 A 
ATOM     62  H   UNL A   1      40.920  31.102  34.269  1.00  0.00     0.167 HD
ATOM     63  C   UNL A   1      39.219  33.292  34.901  1.00  0.00     0.074 A 
ATOM     64  C   UNL A   1      38.173  34.291  34.808  1.00  0.00     0.031 C 
ATOM     65  C   UNL A   1      40.057  33.165  35.959  1.00  0.00     0.031 A 
BRANCH  52  66
ATOM     66  C   UNL A   1      44.146  28.552  35.433  1.00  0.00    -0.014 A 
ATOM     67  C   UNL A   1      45.489  28.902  35.198  1.00  0.00     0.010 A 
ATOM     68  C   UNL A   1      43.861  27.465  36.278  1.00  0.00     0.010 A 
ATOM     69  C   UNL A   1      46.525  28.157  35.767  1.00  0.00     0.020 A 
ATOM     70  C   UNL A   1      44.893  26.741  36.879  1.00  0.00     0.020 A 
ATOM     71  C   UNL A   1      46.219  27.082  36.607  1.00  0.00     0.054 A 
BRANCH  71  72
ATOM     72  S   UNL A   1      47.584  26.160  37.364  1.00  0.00     0.124 S 
ATOM     73  O   UNL A   1      48.260  27.200  38.135  1.00  0.00    -0.237 OA
ATOM     74  O   UNL A   1      46.884  25.149  38.153  1.00  0.00    -0.237 OA
ATOM     75  O   UNL A   1      48.334  25.647  36.221  1.00  0.00    -0.744 OA
ENDBRANCH  71  72
ENDBRANCH  52  66
BRANCH  53  76
ATOM     76  C   UNL A   1      36.548  33.383  31.016  1.00  0.00    -0.014 A 
ATOM     77  C   UNL A   1      36.713  34.019  29.771  1.00  0.00     0.010 A 
ATOM     78  C   UNL A   1      35.295  33.451  31.653  1.00  0.00     0.010 A 
ATOM     79  C   UNL A   1      35.656  34.729  29.192  1.00  0.00     0.020 A 
ATOM     80  C   UNL A   1      34.227  34.129  31.059  1.00  0.00     0.020 A 
ATOM     81  C   UNL A   1      34.419  34.776  29.838  1.00  0.00     0.054 A 
BRANCH  81  82
ATOM     82  S   UNL A   1      33.051  35.671  29.048  1.00  0.00     0.124 S 
ATOM     83  O   UNL A   1      33.755  36.720  28.319  1.00  0.00    -0.237 OA
ATOM     84  O   UNL A   1      32.434  34.633  28.227  1.00  0.00    -0.237 OA
ATOM     85  O   UNL A   1      32.243  36.126  30.176  1.00  0.00    -0.744 OA
ENDBRANCH  81  82
ENDBRANCH  53  76
BRANCH  65  86
ATOM     86  C   UNL A   1      39.908  34.151  37.088  1.00  0.00    -0.014 A 
ATOM     87  C   UNL A   1      40.661  35.339  37.129  1.00  0.00     0.010 A 
ATOM     88  C   UNL A   1      38.950  33.912  38.091  1.00  0.00     0.010 A 
ATOM     89  C   UNL A   1      40.483  36.250  38.174  1.00  0.00     0.020 A 
ATOM     90  C   UNL A   1      38.743  34.837  39.114  1.00  0.00     0.020 A 
ATOM     91  C   UNL A   1      39.521  35.994  39.157  1.00  0.00     0.054 A 
BRANCH  91  92
ATOM     92  S   UNL A   1      39.281  37.216  40.475  1.00  0.00     0.124 S 
ATOM     93  O   UNL A   1      40.604  37.824  40.572  1.00  0.00    -0.237 OA
ATOM     94  O   UNL A   1      38.233  38.073  39.925  1.00  0.00    -0.237 OA
ATOM     95  O   UNL A   1      38.879  36.411  41.626  1.00  0.00    -0.744 OA
ENDBRANCH  91  92
ENDBRANCH  65  86
ENDBRANCH  39  40
ENDBRANCH  31  34
ENDBRANCH  29  30
ENDBRANCH  28  29
ENDBRANCH   1  28
TORSDOF 18
ENDMDL
MODEL 3
REMARK VINA RESULT:     -11.9      1.175      2.166
REMARK SMILES Cc1c(Cl)cccc1NC(=O)C[C@](C)(C(=O)NCCCCNC(=O)c1ccc(-c2c3nc(c(-c4ccc(S(=O)(=O)[O-])cc4)c4ccc([nH]4)c(-c4ccc(S(=O)(=O)[O-])cc4)c4nc(c(-c5ccc(S(=O)(=O)[O-])cc5)c5ccc2[nH]5)C=C4)C=C3)cc1)c1ccccc1
REMARK SMILES IDX 19 1 18 2 17 3 15 4 16 5 13 7 14 8 12 9 10 10 9 11 11 13
REMARK SMILES IDX 8 14 1 15 2 16 3 17 4 18 5 19 7 20 6 21 85 22 86 23 90 24
REMARK SMILES IDX 87 25 89 26 88 27 20 28 21 29 22 30 23 31 24 33 25 34 26 35
REMARK SMILES IDX 84 36 27 37 83 38 28 39 29 40 30 41 77 42 31 43 82 44 76 45
REMARK SMILES IDX 78 46 32 47 81 48 75 49 74 50 33 52 63 53 44 54 62 55 45 56
REMARK SMILES IDX 48 57 61 58 79 59 46 60 47 61 60 63 80 64 49 65 34 66 35 67
REMARK SMILES IDX 43 68 36 69 42 70 37 71 38 72 39 73 40 74 41 75 64 76 65 77
REMARK SMILES IDX 73 78 66 79 72 80 67 81 68 82 69 83 70 84 71 85 50 86 51 87
REMARK SMILES IDX 59 88 52 89 58 90 53 91 54 92 55 93 56 94 57 95
REMARK H PARENT 17 6 9 12 22 32 78 51 48 62
REMARK Flexibility Score: inf
ROOT
ATOM      1  C   UNL A   1      37.674  21.223  24.626  1.00  0.00     0.023 C 
ENDROOT
BRANCH   1   2
ATOM      2  C   UNL A   1      37.125  22.391  25.774  1.00  0.00     0.116 C 
BRANCH   2   3
ATOM      3  N   UNL A   1      35.253  22.723  26.644  1.00  0.00    -0.355 N 
ATOM      4  C   UNL A   1      33.914  23.244  26.660  1.00  0.00     0.230 C 
ATOM      5  O   UNL A   1      33.350  22.880  27.708  1.00  0.00    -0.274 OA
ATOM      6  H   UNL A   1      35.332  22.282  27.520  1.00  0.00     0.163 HD
BRANCH   4   7
ATOM      7  C   UNL A   1      33.130  24.224  25.629  1.00  0.00     0.080 C 
ATOM      8  C   UNL A   1      34.065  24.398  24.372  1.00  0.00     0.027 C 
BRANCH   7   9
ATOM      9  C   UNL A   1      31.662  23.811  25.250  1.00  0.00     0.121 C 
BRANCH   9  10
ATOM     10  C   UNL A   1      31.390  23.142  23.917  1.00  0.00     0.225 C 
ATOM     11  N   UNL A   1      30.742  23.804  22.918  1.00  0.00    -0.326 N 
ATOM     12  H   UNL A   1      30.297  23.271  22.220  1.00  0.00     0.169 HD
ATOM     13  O   UNL A   1      31.710  21.966  23.723  1.00  0.00    -0.275 OA
BRANCH  11  14
ATOM     14  C   UNL A   1      30.672  25.193  22.829  1.00  0.00     0.045 A 
ATOM     15  C   UNL A   1      33.000  25.301  21.137  1.00  0.00     0.048 C 
ATOM     16  C   UNL A   1      32.184  25.971  22.205  1.00  0.00    -0.009 A 
ATOM     17  C   UNL A   1      32.521  27.697  22.598  1.00  0.00     0.046 A 
ATOM     18  Cl  UNL A   1      33.892  28.495  21.938  1.00  0.00    -0.084 Cl
ATOM     19  C   UNL A   1      31.431  28.614  23.698  1.00  0.00     0.021 A 
ATOM     20  C   UNL A   1      29.481  26.153  23.839  1.00  0.00     0.026 A 
ATOM     21  C   UNL A   1      29.895  27.859  24.302  1.00  0.00     0.004 A 
ENDBRANCH  11  14
ENDBRANCH   9  10
ENDBRANCH   7   9
BRANCH   7  22
ATOM     22  C   UNL A   1      32.969  25.737  26.081  1.00  0.00    -0.032 A 
ATOM     23  C   UNL A   1      34.015  26.649  25.746  1.00  0.00     0.005 A 
ATOM     24  C   UNL A   1      31.890  26.262  26.792  1.00  0.00     0.005 A 
ATOM     25  C   UNL A   1      34.054  27.955  26.220  1.00  0.00     0.000 A 
ATOM     26  C   UNL A   1      31.920  27.588  27.257  1.00  0.00     0.000 A 
ATOM     27  C   UNL A   1      33.008  28.420  26.997  1.00  0.00     0.000 A 
ENDBRANCH   7  22
ENDBRANCH   4   7
ENDBRANCH   2   3
ENDBRANCH   1   2
BRANCH   1  28
ATOM     28  C   UNL A   1      38.357  19.995  25.228  1.00  0.00     0.023 C 
BRANCH  28  29
ATOM     29  C   UNL A   1      39.451  20.308  26.223  1.00  0.00     0.116 C 
BRANCH  29  30
ATOM     30  N   UNL A   1      40.576  19.389  26.107  1.00  0.00    -0.352 N 
ATOM     31  C   UNL A   1      41.898  19.763  26.114  1.00  0.00     0.251 C 
ATOM     32  H   UNL A   1      40.374  18.430  26.015  1.00  0.00     0.163 HD
ATOM     33  O   UNL A   1      42.801  18.997  25.814  1.00  0.00    -0.269 OA
BRANCH  31  34
ATOM     34  C   UNL A   1      42.144  21.162  26.495  1.00  0.00     0.039 A 
ATOM     35  C   UNL A   1      42.495  21.452  27.811  1.00  0.00     0.014 A 
ATOM     36  C   UNL A   1      42.324  22.091  25.461  1.00  0.00     0.014 A 
ATOM     37  C   UNL A   1      43.029  22.705  28.097  1.00  0.00     0.010 A 
ATOM     38  C   UNL A   1      42.964  23.289  25.737  1.00  0.00     0.010 A 
ATOM     39  C   UNL A   1      43.275  23.627  27.062  1.00  0.00    -0.014 A 
BRANCH  39  40
ATOM     40  C   UNL A   1      43.758  24.993  27.374  1.00  0.00     0.031 A 
ATOM     41  C   UNL A   1      45.206  25.323  27.121  1.00  0.00     0.074 A 
ATOM     42  C   UNL A   1      42.912  25.927  27.849  1.00  0.00     0.049 A 
ATOM     43  N   UNL A   1      45.828  26.464  27.264  1.00  0.00    -0.248 NA
ATOM     44  C   UNL A   1      46.077  24.223  26.667  1.00  0.00     0.031 C 
ATOM     45  C   UNL A   1      41.497  25.713  28.164  1.00  0.00     0.029 A 
ATOM     46  N   UNL A   1      43.115  27.255  28.129  1.00  0.00    -0.354 N 
ATOM     47  C   UNL A   1      47.151  26.213  26.924  1.00  0.00     0.074 A 
ATOM     48  C   UNL A   1      47.266  24.801  26.651  1.00  0.00     0.031 C 
ATOM     49  C   UNL A   1      40.949  26.882  28.538  1.00  0.00     0.029 A 
ATOM     50  C   UNL A   1      41.979  27.916  28.533  1.00  0.00     0.049 A 
ATOM     51  H   UNL A   1      43.993  27.694  28.047  1.00  0.00     0.167 HD
ATOM     52  C   UNL A   1      48.177  27.086  26.810  1.00  0.00     0.031 A 
ATOM     53  C   UNL A   1      41.793  29.211  28.859  1.00  0.00     0.031 A 
ATOM     54  C   UNL A   1      48.055  28.492  27.075  1.00  0.00     0.049 A 
ATOM     55  C   UNL A   1      42.962  30.156  28.768  1.00  0.00     0.074 A 
ATOM     56  C   UNL A   1      49.021  29.474  26.956  1.00  0.00     0.029 A 
ATOM     57  N   UNL A   1      46.897  29.113  27.516  1.00  0.00    -0.354 N 
ATOM     58  N   UNL A   1      44.191  29.914  28.375  1.00  0.00    -0.248 NA
ATOM     59  C   UNL A   1      42.716  31.552  29.152  1.00  0.00     0.031 C 
ATOM     60  C   UNL A   1      48.467  30.678  27.397  1.00  0.00     0.029 A 
ATOM     61  C   UNL A   1      47.133  30.462  27.708  1.00  0.00     0.049 A 
ATOM     62  H   UNL A   1      46.035  28.662  27.668  1.00  0.00     0.167 HD
ATOM     63  C   UNL A   1      44.856  31.134  28.436  1.00  0.00     0.074 A 
ATOM     64  C   UNL A   1      43.886  32.114  28.880  1.00  0.00     0.031 C 
ATOM     65  C   UNL A   1      46.151  31.421  28.151  1.00  0.00     0.031 A 
BRANCH  52  66
ATOM     66  C   UNL A   1      49.515  26.537  26.389  1.00  0.00    -0.014 A 
ATOM     67  C   UNL A   1      49.920  26.554  25.040  1.00  0.00     0.010 A 
ATOM     68  C   UNL A   1      50.393  26.022  27.359  1.00  0.00     0.010 A 
ATOM     69  C   UNL A   1      51.161  26.034  24.667  1.00  0.00     0.020 A 
ATOM     70  C   UNL A   1      51.650  25.535  26.995  1.00  0.00     0.020 A 
ATOM     71  C   UNL A   1      52.020  25.530  25.649  1.00  0.00     0.054 A 
BRANCH  71  72
ATOM     72  S   UNL A   1      53.641  24.899  25.139  1.00  0.00     0.124 S 
ATOM     73  O   UNL A   1      54.493  25.327  26.245  1.00  0.00    -0.237 OA
ATOM     74  O   UNL A   1      53.407  23.460  25.048  1.00  0.00    -0.237 OA
ATOM     75  O   UNL A   1      53.892  25.570  23.866  1.00  0.00    -0.744 OA
ENDBRANCH  71  72
ENDBRANCH  52  66
BRANCH  53  76
ATOM     76  C   UNL A   1      40.450  29.692  29.293  1.00  0.00    -0.014 A 
ATOM     77  C   UNL A   1      40.169  29.923  30.653  1.00  0.00     0.010 A 
ATOM     78  C   UNL A   1      39.436  29.913  28.343  1.00  0.00     0.010 A 
ATOM     79  C   UNL A   1      38.895  30.338  31.054  1.00  0.00     0.020 A 
ATOM     80  C   UNL A   1      38.172  30.362  28.737  1.00  0.00     0.020 A 
ATOM     81  C   UNL A   1      37.906  30.559  30.093  1.00  0.00     0.054 A 
BRANCH  81  82
ATOM     82  S   UNL A   1      36.271  31.134  30.633  1.00  0.00     0.124 S 
ATOM     83  O   UNL A   1      35.499  31.060  29.398  1.00  0.00    -0.237 OA
ATOM     84  O   UNL A   1      35.921  30.156  31.660  1.00  0.00    -0.237 OA
ATOM     85  O   UNL A   1      36.530  32.483  31.130  1.00  0.00    -0.744 OA
ENDBRANCH  81  82
ENDBRANCH  53  76
BRANCH  65  86
ATOM     86  C   UNL A   1      46.589  32.856  28.271  1.00  0.00    -0.014 A 
ATOM     87  C   UNL A   1      46.380  33.778  27.229  1.00  0.00     0.010 A 
ATOM     88  C   UNL A   1      47.162  33.304  29.477  1.00  0.00     0.010 A 
ATOM     89  C   UNL A   1      46.772  35.111  27.377  1.00  0.00     0.020 A 
ATOM     90  C   UNL A   1      47.519  34.643  29.643  1.00  0.00     0.020 A 
ATOM     91  C   UNL A   1      47.335  35.535  28.586  1.00  0.00     0.054 A 
BRANCH  91  92
ATOM     92  S   UNL A   1      47.790  37.280  28.766  1.00  0.00     0.124 S 
ATOM     93  O   UNL A   1      46.596  37.844  29.388  1.00  0.00    -0.237 OA
ATOM     94  O   UNL A   1      48.973  37.213  29.621  1.00  0.00    -0.237 OA
ATOM     95  O   UNL A   1      48.044  37.717  27.395  1.00  0.00    -0.744 OA
ENDBRANCH  91  92
ENDBRANCH  65  86
ENDBRANCH  39  40
ENDBRANCH  31  34
ENDBRANCH  29  30
ENDBRANCH  28  29
ENDBRANCH   1  28
TORSDOF 18
ENDMDL
