MODEL 1
REMARK VINA RESULT:     -11.2      0.000      0.000
REMARK SMILES CC(=O)N1CCN(C(=O)c2ccc(=O)n(CCC(=O)NCCCCNC(=O)c3ccc(-c4c5nc(c(-c6ccc(S(=O)(=O)[O-])cc6)c6ccc([nH]6)c(-c6ccc(S(=O)(=O)[O-])cc6)c6nc(c(-c7ccc(S(=O)(=O)[O-])cc7)c7ccc4[nH]7)C=C6)C=C5)cc3)n2)CC1
REMARK SMILES IDX 22 1 21 2 20 3 18 4 19 5 17 7 16 8 15 9 10 10 11 11 88 12
REMARK SMILES IDX 12 13 13 14 14 15 8 16 1 17 2 18 3 19 4 20 5 21 90 22 6 23
REMARK SMILES IDX 89 24 7 25 9 26 23 27 24 28 25 29 26 30 27 32 28 33 29 34
REMARK SMILES IDX 87 35 30 36 86 37 31 38 32 39 33 40 80 41 34 42 85 43 79 44
REMARK SMILES IDX 81 45 35 46 84 47 78 48 77 49 36 51 66 52 47 53 65 54 48 55
REMARK SMILES IDX 51 56 64 57 82 58 49 59 50 60 63 62 83 63 52 64 37 65 38 66
REMARK SMILES IDX 46 67 39 68 45 69 40 70 41 71 42 72 43 73 44 74 67 75 68 76
REMARK SMILES IDX 76 77 69 78 75 79 70 80 71 81 72 82 73 83 74 84 53 85 54 86
REMARK SMILES IDX 62 87 55 88 61 89 56 90 57 91 58 92 59 93 60 94
REMARK H PARENT 20 6 25 31 81 50 51 61
REMARK Flexibility Score: inf
ROOT
ATOM      1  C   UNL A   1      35.485  22.574  24.235  1.00  0.00     0.023 C 
ENDROOT
BRANCH   1   2
ATOM      2  C   UNL A   1      34.849  22.298  25.598  1.00  0.00     0.116 C 
BRANCH   2   3
ATOM      3  N   UNL A   1      33.806  21.291  25.523  1.00  0.00    -0.356 N 
ATOM      4  C   UNL A   1      32.474  21.407  25.278  1.00  0.00     0.221 C 
ATOM      5  O   UNL A   1      31.791  20.382  25.216  1.00  0.00    -0.275 OA
ATOM      6  H   UNL A   1      34.116  20.370  25.677  1.00  0.00     0.163 HD
BRANCH   4   7
ATOM      7  C   UNL A   1      31.852  22.762  25.038  1.00  0.00     0.124 C 
BRANCH   7   8
ATOM      8  C   UNL A   1      31.469  22.911  23.564  1.00  0.00     0.158 C 
BRANCH   8   9
ATOM      9  N   UNL A   1      31.837  24.232  23.059  1.00  0.00    -0.229 N 
ATOM     10  C   UNL A   1      31.459  26.474  23.135  1.00  0.00     0.149 A 
ATOM     11  C   UNL A   1      32.261  26.732  21.927  1.00  0.00     0.042 A 
ATOM     12  N   UNL A   1      31.211  25.311  23.648  1.00  0.00    -0.164 NA
ATOM     13  C   UNL A   1      32.937  25.687  21.448  1.00  0.00     0.076 A 
ATOM     14  C   UNL A   1      32.807  24.348  22.069  1.00  0.00     0.266 A 
ATOM     15  O   UNL A   1      33.496  23.424  21.653  1.00  0.00    -0.268 OA
BRANCH  10  16
ATOM     16  C   UNL A   1      30.982  27.703  23.886  1.00  0.00     0.274 C 
ATOM     17  C   UNL A   1      35.828  29.486  27.465  1.00  0.00     0.114 C 
ATOM     18  C   UNL A   1      34.391  29.941  27.505  1.00  0.00     0.219 C 
ATOM     19  O   UNL A   1      34.109  31.063  27.926  1.00  0.00    -0.275 OA
ATOM     20  N   UNL A   1      33.435  29.056  27.042  1.00  0.00    -0.339 N 
ATOM     21  C   UNL A   1      32.030  29.469  26.963  1.00  0.00     0.141 C 
ATOM     22  C   UNL A   1      33.700  27.748  26.443  1.00  0.00     0.141 C 
ATOM     23  C   UNL A   1      31.549  29.479  25.503  1.00  0.00     0.141 C 
ATOM     24  C   UNL A   1      33.267  27.745  24.972  1.00  0.00     0.141 C 
ATOM     25  N   UNL A   1      31.888  28.236  24.798  1.00  0.00    -0.334 N 
ATOM     26  O   UNL A   1      29.872  28.150  23.634  1.00  0.00    -0.267 OA
ENDBRANCH  10  16
ENDBRANCH   8   9
ENDBRANCH   7   8
ENDBRANCH   4   7
ENDBRANCH   2   3
ENDBRANCH   1   2
BRANCH   1  27
ATOM     27  C   UNL A   1      37.008  22.430  24.231  1.00  0.00     0.023 C 
BRANCH  27  28
ATOM     28  C   UNL A   1      37.623  22.354  25.626  1.00  0.00     0.116 C 
BRANCH  28  29
ATOM     29  N   UNL A   1      38.870  21.598  25.664  1.00  0.00    -0.352 N 
ATOM     30  C   UNL A   1      40.120  21.907  26.156  1.00  0.00     0.251 C 
ATOM     31  H   UNL A   1      38.807  20.701  25.263  1.00  0.00     0.163 HD
ATOM     32  O   UNL A   1      41.052  21.143  25.904  1.00  0.00    -0.269 OA
BRANCH  30  33
ATOM     33  C   UNL A   1      40.381  23.157  26.916  1.00  0.00     0.039 A 
ATOM     34  C   UNL A   1      39.874  24.389  26.517  1.00  0.00     0.014 A 
ATOM     35  C   UNL A   1      41.161  23.095  28.080  1.00  0.00     0.014 A 
ATOM     36  C   UNL A   1      40.345  25.561  27.106  1.00  0.00     0.010 A 
ATOM     37  C   UNL A   1      41.540  24.271  28.745  1.00  0.00     0.010 A 
ATOM     38  C   UNL A   1      41.210  25.524  28.212  1.00  0.00    -0.014 A 
BRANCH  38  39
ATOM     39  C   UNL A   1      41.832  26.793  28.696  1.00  0.00     0.031 A 
ATOM     40  C   UNL A   1      43.245  27.154  28.295  1.00  0.00     0.074 A 
ATOM     41  C   UNL A   1      41.097  27.711  29.359  1.00  0.00     0.049 A 
ATOM     42  N   UNL A   1      43.936  28.223  28.604  1.00  0.00    -0.248 NA
ATOM     43  C   UNL A   1      43.981  26.197  27.453  1.00  0.00     0.031 C 
ATOM     44  C   UNL A   1      39.707  27.538  29.788  1.00  0.00     0.029 A 
ATOM     45  N   UNL A   1      41.384  29.014  29.688  1.00  0.00    -0.354 N 
ATOM     46  C   UNL A   1      45.206  28.025  28.076  1.00  0.00     0.074 A 
ATOM     47  C   UNL A   1      45.183  26.751  27.391  1.00  0.00     0.031 C 
ATOM     48  C   UNL A   1      39.214  28.731  30.155  1.00  0.00     0.029 A 
ATOM     49  C   UNL A   1      40.269  29.735  30.049  1.00  0.00     0.049 A 
ATOM     50  H   UNL A   1      42.293  29.393  29.667  1.00  0.00     0.167 HD
ATOM     51  C   UNL A   1      46.301  28.817  28.168  1.00  0.00     0.031 A 
ATOM     52  C   UNL A   1      40.097  31.059  30.223  1.00  0.00     0.031 A 
ATOM     53  C   UNL A   1      46.310  30.120  28.769  1.00  0.00     0.049 A 
ATOM     54  C   UNL A   1      41.268  31.990  30.128  1.00  0.00     0.074 A 
ATOM     55  C   UNL A   1      47.385  30.942  29.061  1.00  0.00     0.029 A 
ATOM     56  N   UNL A   1      45.166  30.825  29.097  1.00  0.00    -0.354 N 
ATOM     57  N   UNL A   1      42.514  31.705  29.847  1.00  0.00    -0.248 NA
ATOM     58  C   UNL A   1      41.015  33.411  30.401  1.00  0.00     0.031 C 
ATOM     59  C   UNL A   1      46.883  32.166  29.527  1.00  0.00     0.029 A 
ATOM     60  C   UNL A   1      45.500  32.098  29.521  1.00  0.00     0.049 A 
ATOM     61  H   UNL A   1      44.248  30.473  29.038  1.00  0.00     0.167 HD
ATOM     62  C   UNL A   1      43.206  32.904  29.957  1.00  0.00     0.074 A 
ATOM     63  C   UNL A   1      42.233  33.927  30.279  1.00  0.00     0.031 C 
ATOM     64  C   UNL A   1      44.538  33.119  29.837  1.00  0.00     0.031 A 
BRANCH  51  65
ATOM     65  C   UNL A   1      47.586  28.256  27.638  1.00  0.00    -0.014 A 
ATOM     66  C   UNL A   1      48.447  27.568  28.511  1.00  0.00     0.010 A 
ATOM     67  C   UNL A   1      47.927  28.377  26.281  1.00  0.00     0.010 A 
ATOM     68  C   UNL A   1      49.621  26.983  28.033  1.00  0.00     0.020 A 
ATOM     69  C   UNL A   1      49.097  27.784  25.797  1.00  0.00     0.020 A 
ATOM     70  C   UNL A   1      49.937  27.091  26.677  1.00  0.00     0.054 A 
BRANCH  70  71
ATOM     71  S   UNL A   1      51.408  26.253  26.022  1.00  0.00     0.124 S 
ATOM     72  O   UNL A   1      51.219  26.379  24.580  1.00  0.00    -0.237 OA
ATOM     73  O   UNL A   1      52.514  27.028  26.581  1.00  0.00    -0.237 OA
ATOM     74  O   UNL A   1      51.277  24.901  26.561  1.00  0.00    -0.744 OA
ENDBRANCH  70  71
ENDBRANCH  51  65
BRANCH  52  75
ATOM     75  C   UNL A   1      38.724  31.585  30.419  1.00  0.00    -0.014 A 
ATOM     76  C   UNL A   1      37.969  32.069  29.340  1.00  0.00     0.010 A 
ATOM     77  C   UNL A   1      38.200  31.660  31.722  1.00  0.00     0.010 A 
ATOM     78  C   UNL A   1      36.715  32.646  29.562  1.00  0.00     0.020 A 
ATOM     79  C   UNL A   1      36.947  32.231  31.947  1.00  0.00     0.020 A 
ATOM     80  C   UNL A   1      36.220  32.739  30.867  1.00  0.00     0.054 A 
BRANCH  80  81
ATOM     81  S   UNL A   1      34.616  33.522  31.186  1.00  0.00     0.124 S 
ATOM     82  O   UNL A   1      34.006  32.581  32.122  1.00  0.00    -0.237 OA
ATOM     83  O   UNL A   1      34.978  34.820  31.750  1.00  0.00    -0.237 OA
ATOM     84  O   UNL A   1      34.012  33.570  29.857  1.00  0.00    -0.744 OA
ENDBRANCH  80  81
ENDBRANCH  52  75
BRANCH  64  85
ATOM     85  C   UNL A   1      45.038  34.509  30.089  1.00  0.00    -0.014 A 
ATOM     86  C   UNL A   1      45.171  35.422  29.031  1.00  0.00     0.010 A 
ATOM     87  C   UNL A   1      45.421  34.888  31.387  1.00  0.00     0.010 A 
ATOM     88  C   UNL A   1      45.680  36.702  29.267  1.00  0.00     0.020 A 
ATOM     89  C   UNL A   1      45.929  36.167  31.626  1.00  0.00     0.020 A 
ATOM     90  C   UNL A   1      46.065  37.063  30.562  1.00  0.00     0.054 A 
BRANCH  90  91
ATOM     91  S   UNL A   1      46.711  38.729  30.880  1.00  0.00     0.124 S 
ATOM     92  O   UNL A   1      45.515  39.554  30.734  1.00  0.00    -0.237 OA
ATOM     93  O   UNL A   1      47.243  38.628  32.238  1.00  0.00    -0.237 OA
ATOM     94  O   UNL A   1      47.721  38.898  29.837  1.00  0.00    -0.744 OA
ENDBRANCH  90  91
ENDBRANCH  64  85
ENDBRANCH  38  39
ENDBRANCH  30  33
ENDBRANCH  28  29
ENDBRANCH  27  28
ENDBRANCH   1  27
TORSDOF 17
ENDMDL
MODEL 2
REMARK VINA RESULT:     -11.2      4.416      8.618
REMARK SMILES CC(=O)N1CCN(C(=O)c2ccc(=O)n(CCC(=O)NCCCCNC(=O)c3ccc(-c4c5nc(c(-c6ccc(S(=O)(=O)[O-])cc6)c6ccc([nH]6)c(-c6ccc(S(=O)(=O)[O-])cc6)c6nc(c(-c7ccc(S(=O)(=O)[O-])cc7)c7ccc4[nH]7)C=C6)C=C5)cc3)n2)CC1
REMARK SMILES IDX 22 1 21 2 20 3 18 4 19 5 17 7 16 8 15 9 10 10 11 11 88 12
REMARK SMILES IDX 12 13 13 14 14 15 8 16 1 17 2 18 3 19 4 20 5 21 90 22 6 23
REMARK SMILES IDX 89 24 7 25 9 26 23 27 24 28 25 29 26 30 27 32 28 33 29 34
REMARK SMILES IDX 87 35 30 36 86 37 31 38 32 39 33 40 80 41 34 42 85 43 79 44
REMARK SMILES IDX 81 45 35 46 84 47 78 48 77 49 36 51 66 52 47 53 65 54 48 55
REMARK SMILES IDX 51 56 64 57 82 58 49 59 50 60 63 62 83 63 52 64 37 65 38 66
REMARK SMILES IDX 46 67 39 68 45 69 40 70 41 71 42 72 43 73 44 74 67 75 68 76
REMARK SMILES IDX 76 77 69 78 75 79 70 80 71 81 72 82 73 83 74 84 53 85 54 86
REMARK SMILES IDX 62 87 55 88 61 89 56 90 57 91 58 92 59 93 60 94
REMARK H PARENT 20 6 25 31 81 50 51 61
REMARK Flexibility Score: inf
ROOT
ATOM      1  C   UNL A   1      35.599  23.246  24.274  1.00  0.00     0.023 C 
ENDROOT
BRANCH   1   2
ATOM      2  C   UNL A   1      34.890  22.924  25.590  1.00  0.00     0.116 C 
BRANCH   2   3
ATOM      3  N   UNL A   1      34.057  21.740  25.491  1.00  0.00    -0.356 N 
ATOM      4  C   UNL A   1      32.707  21.607  25.418  1.00  0.00     0.221 C 
ATOM      5  O   UNL A   1      32.228  20.478  25.287  1.00  0.00    -0.275 OA
ATOM      6  H   UNL A   1      34.554  20.891  25.474  1.00  0.00     0.163 HD
BRANCH   4   7
ATOM      7  C   UNL A   1      31.812  22.822  25.448  1.00  0.00     0.124 C 
BRANCH   7   8
ATOM      8  C   UNL A   1      31.044  22.943  24.130  1.00  0.00     0.158 C 
BRANCH   8   9
ATOM      9  N   UNL A   1      31.461  24.133  23.389  1.00  0.00    -0.229 N 
ATOM     10  C   UNL A   1      31.189  26.369  23.067  1.00  0.00     0.149 A 
ATOM     11  C   UNL A   1      31.971  26.366  21.820  1.00  0.00     0.042 A 
ATOM     12  N   UNL A   1      30.900  25.329  23.785  1.00  0.00    -0.164 NA
ATOM     13  C   UNL A   1      32.586  25.219  21.525  1.00  0.00     0.076 A 
ATOM     14  C   UNL A   1      32.410  24.022  22.378  1.00  0.00     0.266 A 
ATOM     15  O   UNL A   1      33.044  23.004  22.123  1.00  0.00    -0.268 OA
BRANCH  10  16
ATOM     16  C   UNL A   1      30.789  27.734  23.593  1.00  0.00     0.274 C 
ATOM     17  C   UNL A   1      35.474  29.532  27.373  1.00  0.00     0.114 C 
ATOM     18  C   UNL A   1      34.099  30.128  27.205  1.00  0.00     0.219 C 
ATOM     19  O   UNL A   1      33.908  31.320  27.440  1.00  0.00    -0.275 OA
ATOM     20  N   UNL A   1      33.094  29.283  26.771  1.00  0.00    -0.339 N 
ATOM     21  C   UNL A   1      31.756  29.816  26.494  1.00  0.00     0.141 C 
ATOM     22  C   UNL A   1      33.262  27.882  26.384  1.00  0.00     0.141 C 
ATOM     23  C   UNL A   1      31.408  29.661  25.004  1.00  0.00     0.141 C 
ATOM     24  C   UNL A   1      32.961  27.709  24.891  1.00  0.00     0.141 C 
ATOM     25  N   UNL A   1      31.666  28.302  24.512  1.00  0.00    -0.334 N 
ATOM     26  O   UNL A   1      29.762  28.247  23.172  1.00  0.00    -0.267 OA
ENDBRANCH  10  16
ENDBRANCH   8   9
ENDBRANCH   7   8
ENDBRANCH   4   7
ENDBRANCH   2   3
ENDBRANCH   1   2
BRANCH   1  27
ATOM     27  C   UNL A   1      37.124  23.179  24.369  1.00  0.00     0.023 C 
BRANCH  27  28
ATOM     28  C   UNL A   1      37.661  23.334  25.789  1.00  0.00     0.116 C 
BRANCH  28  29
ATOM     29  N   UNL A   1      39.021  22.834  25.947  1.00  0.00    -0.352 N 
ATOM     30  C   UNL A   1      40.151  23.394  26.505  1.00  0.00     0.251 C 
ATOM     31  H   UNL A   1      39.158  21.927  25.588  1.00  0.00     0.163 HD
ATOM     32  O   UNL A   1      41.226  22.815  26.354  1.00  0.00    -0.269 OA
BRANCH  30  33
ATOM     33  C   UNL A   1      40.113  24.698  27.218  1.00  0.00     0.039 A 
ATOM     34  C   UNL A   1      40.844  25.800  26.789  1.00  0.00     0.014 A 
ATOM     35  C   UNL A   1      39.310  24.825  28.360  1.00  0.00     0.014 A 
ATOM     36  C   UNL A   1      40.980  26.913  27.618  1.00  0.00     0.010 A 
ATOM     37  C   UNL A   1      39.356  25.994  29.135  1.00  0.00     0.010 A 
ATOM     38  C   UNL A   1      40.261  27.017  28.820  1.00  0.00    -0.014 A 
BRANCH  38  39
ATOM     39  C   UNL A   1      40.570  28.135  29.762  1.00  0.00     0.031 A 
ATOM     40  C   UNL A   1      39.560  29.234  30.002  1.00  0.00     0.074 A 
ATOM     41  C   UNL A   1      41.677  28.098  30.534  1.00  0.00     0.049 A 
ATOM     42  N   UNL A   1      39.649  30.269  30.801  1.00  0.00    -0.248 NA
ATOM     43  C   UNL A   1      38.296  29.176  29.249  1.00  0.00     0.031 C 
ATOM     44  C   UNL A   1      42.733  27.086  30.458  1.00  0.00     0.029 A 
ATOM     45  N   UNL A   1      42.040  28.874  31.609  1.00  0.00    -0.354 N 
ATOM     46  C   UNL A   1      38.506  31.026  30.577  1.00  0.00     0.074 A 
ATOM     47  C   UNL A   1      37.714  30.314  29.598  1.00  0.00     0.031 C 
ATOM     48  C   UNL A   1      43.518  27.195  31.541  1.00  0.00     0.029 A 
ATOM     49  C   UNL A   1      43.060  28.322  32.349  1.00  0.00     0.049 A 
ATOM     50  H   UNL A   1      41.614  29.734  31.827  1.00  0.00     0.167 HD
ATOM     51  C   UNL A   1      38.152  32.215  31.120  1.00  0.00     0.031 A 
ATOM     52  C   UNL A   1      43.541  28.648  33.564  1.00  0.00     0.031 A 
ATOM     53  C   UNL A   1      38.887  32.885  32.153  1.00  0.00     0.049 A 
ATOM     54  C   UNL A   1      43.017  29.856  34.281  1.00  0.00     0.074 A 
ATOM     55  C   UNL A   1      38.715  34.160  32.665  1.00  0.00     0.029 A 
ATOM     56  N   UNL A   1      39.893  32.290  32.894  1.00  0.00    -0.354 N 
ATOM     57  N   UNL A   1      42.075  30.682  33.905  1.00  0.00    -0.248 NA
ATOM     58  C   UNL A   1      43.640  30.189  35.570  1.00  0.00     0.031 C 
ATOM     59  C   UNL A   1      39.593  34.318  33.747  1.00  0.00     0.029 A 
ATOM     60  C   UNL A   1      40.304  33.140  33.903  1.00  0.00     0.049 A 
ATOM     61  H   UNL A   1      40.262  31.392  32.726  1.00  0.00     0.167 HD
ATOM     62  C   UNL A   1      42.023  31.663  34.886  1.00  0.00     0.074 A 
ATOM     63  C   UNL A   1      42.993  31.301  35.899  1.00  0.00     0.031 C 
ATOM     64  C   UNL A   1      41.262  32.783  34.915  1.00  0.00     0.031 A 
BRANCH  51  65
ATOM     65  C   UNL A   1      36.931  32.878  30.554  1.00  0.00    -0.014 A 
ATOM     66  C   UNL A   1      35.722  32.816  31.269  1.00  0.00     0.010 A 
ATOM     67  C   UNL A   1      36.985  33.584  29.341  1.00  0.00     0.010 A 
ATOM     68  C   UNL A   1      34.585  33.474  30.795  1.00  0.00     0.020 A 
ATOM     69  C   UNL A   1      35.850  34.252  28.869  1.00  0.00     0.020 A 
ATOM     70  C   UNL A   1      34.658  34.192  29.600  1.00  0.00     0.054 A 
BRANCH  70  71
ATOM     71  S   UNL A   1      33.218  35.133  29.022  1.00  0.00     0.124 S 
ATOM     72  O   UNL A   1      32.501  35.396  30.265  1.00  0.00    -0.237 OA
ATOM     73  O   UNL A   1      33.814  36.302  28.379  1.00  0.00    -0.237 OA
ATOM     74  O   UNL A   1      32.569  34.199  28.103  1.00  0.00    -0.744 OA
ENDBRANCH  70  71
ENDBRANCH  51  65
BRANCH  52  75
ATOM     75  C   UNL A   1      44.524  27.748  34.213  1.00  0.00    -0.014 A 
ATOM     76  C   UNL A   1      44.108  26.682  35.026  1.00  0.00     0.010 A 
ATOM     77  C   UNL A   1      45.897  28.011  34.060  1.00  0.00     0.010 A 
ATOM     78  C   UNL A   1      45.054  25.905  35.703  1.00  0.00     0.020 A 
ATOM     79  C   UNL A   1      46.843  27.234  34.731  1.00  0.00     0.020 A 
ATOM     80  C   UNL A   1      46.414  26.197  35.563  1.00  0.00     0.054 A 
BRANCH  80  81
ATOM     81  S   UNL A   1      47.657  25.231  36.465  1.00  0.00     0.124 S 
ATOM     82  O   UNL A   1      48.756  26.187  36.573  1.00  0.00    -0.237 OA
ATOM     83  O   UNL A   1      46.987  24.903  37.720  1.00  0.00    -0.237 OA
ATOM     84  O   UNL A   1      47.893  24.099  35.573  1.00  0.00    -0.744 OA
ENDBRANCH  80  81
ENDBRANCH  52  75
BRANCH  64  85
ATOM     85  C   UNL A   1      41.465  33.727  36.061  1.00  0.00    -0.014 A 
ATOM     86  C   UNL A   1      40.727  33.578  37.247  1.00  0.00     0.010 A 
ATOM     87  C   UNL A   1      42.367  34.796  35.934  1.00  0.00     0.010 A 
ATOM     88  C   UNL A   1      40.890  34.488  38.295  1.00  0.00     0.020 A 
ATOM     89  C   UNL A   1      42.533  35.707  36.980  1.00  0.00     0.020 A 
ATOM     90  C   UNL A   1      41.785  35.553  38.150  1.00  0.00     0.054 A 
BRANCH  90  91
ATOM     91  S   UNL A   1      42.015  36.729  39.513  1.00  0.00     0.124 S 
ATOM     92  O   UNL A   1      43.308  37.325  39.188  1.00  0.00    -0.237 OA
ATOM     93  O   UNL A   1      40.863  37.619  39.383  1.00  0.00    -0.237 OA
ATOM     94  O   UNL A   1      41.998  35.873  40.697  1.00  0.00    -0.744 OA
ENDBRANCH  90  91
ENDBRANCH  64  85
ENDBRANCH  38  39
ENDBRANCH  30  33
ENDBRANCH  28  29
ENDBRANCH  27  28
ENDBRANCH   1  27
TORSDOF 17
ENDMDL
MODEL 3
REMARK VINA RESULT:     -11.2      5.109     13.458
REMARK SMILES CC(=O)N1CCN(C(=O)c2ccc(=O)n(CCC(=O)NCCCCNC(=O)c3ccc(-c4c5nc(c(-c6ccc(S(=O)(=O)[O-])cc6)c6ccc([nH]6)c(-c6ccc(S(=O)(=O)[O-])cc6)c6nc(c(-c7ccc(S(=O)(=O)[O-])cc7)c7ccc4[nH]7)C=C6)C=C5)cc3)n2)CC1
REMARK SMILES IDX 22 1 21 2 20 3 18 4 19 5 17 7 16 8 15 9 10 10 11 11 88 12
REMARK SMILES IDX 12 13 13 14 14 15 8 16 1 17 2 18 3 19 4 20 5 21 90 22 6 23
REMARK SMILES IDX 89 24 7 25 9 26 23 27 24 28 25 29 26 30 27 32 28 33 29 34
REMARK SMILES IDX 87 35 30 36 86 37 31 38 32 39 33 40 80 41 34 42 85 43 79 44
REMARK SMILES IDX 81 45 35 46 84 47 78 48 77 49 36 51 66 52 47 53 65 54 48 55
REMARK SMILES IDX 51 56 64 57 82 58 49 59 50 60 63 62 83 63 52 64 37 65 38 66
REMARK SMILES IDX 46 67 39 68 45 69 40 70 41 71 42 72 43 73 44 74 67 75 68 76
REMARK SMILES IDX 76 77 69 78 75 79 70 80 71 81 72 82 73 83 74 84 53 85 54 86
REMARK SMILES IDX 62 87 55 88 61 89 56 90 57 91 58 92 59 93 60 94
REMARK H PARENT 20 6 25 31 81 50 51 61
REMARK Flexibility Score: inf
ROOT
ATOM      1  C   UNL A   1      42.720  35.236  28.867  1.00  0.00     0.023 C 
ENDROOT
BRANCH   1   2
ATOM      2  C   UNL A   1      42.367  34.839  30.300  1.00  0.00     0.116 C 
BRANCH   2   3
ATOM      3  N   UNL A   1      41.589  33.616  30.355  1.00  0.00    -0.356 N 
ATOM      4  C   UNL A   1      40.338  33.378  30.832  1.00  0.00     0.221 C 
ATOM      5  O   UNL A   1      39.867  32.244  30.720  1.00  0.00    -0.275 OA
ATOM      6  H   UNL A   1      42.043  32.825  29.985  1.00  0.00     0.163 HD
BRANCH   4   7
ATOM      7  C   UNL A   1      39.524  34.493  31.443  1.00  0.00     0.124 C 
BRANCH   7   8
ATOM      8  C   UNL A   1      39.588  34.413  32.970  1.00  0.00     0.158 C 
BRANCH   8   9
ATOM      9  N   UNL A   1      38.258  34.198  33.538  1.00  0.00    -0.229 N 
ATOM     10  C   UNL A   1      36.084  34.865  33.605  1.00  0.00     0.149 A 
ATOM     11  C   UNL A   1      35.788  34.054  34.798  1.00  0.00     0.042 A 
ATOM     12  N   UNL A   1      37.242  34.982  33.034  1.00  0.00    -0.164 NA
ATOM     13  C   UNL A   1      36.760  33.230  35.193  1.00  0.00     0.076 A 
ATOM     14  C   UNL A   1      38.069  33.212  34.501  1.00  0.00     0.266 A 
ATOM     15  O   UNL A   1      38.916  32.393  34.840  1.00  0.00    -0.268 OA
BRANCH  10  16
ATOM     16  C   UNL A   1      34.891  35.526  32.942  1.00  0.00     0.274 C 
ATOM     17  C   UNL A   1      33.848  32.256  27.681  1.00  0.00     0.114 C 
ATOM     18  C   UNL A   1      33.278  33.584  28.110  1.00  0.00     0.219 C 
ATOM     19  O   UNL A   1      32.178  33.948  27.694  1.00  0.00    -0.275 OA
ATOM     20  N   UNL A   1      34.034  34.343  28.983  1.00  0.00    -0.339 N 
ATOM     21  C   UNL A   1      33.498  35.601  29.516  1.00  0.00     0.141 C 
ATOM     22  C   UNL A   1      35.302  33.939  29.590  1.00  0.00     0.141 C 
ATOM     23  C   UNL A   1      33.318  35.510  31.040  1.00  0.00     0.141 C 
ATOM     24  C   UNL A   1      35.138  33.801  31.108  1.00  0.00     0.141 C 
ATOM     25  N   UNL A   1      34.519  34.995  31.711  1.00  0.00    -0.334 N 
ATOM     26  O   UNL A   1      34.330  36.443  33.525  1.00  0.00    -0.267 OA
ENDBRANCH  10  16
ENDBRANCH   8   9
ENDBRANCH   7   8
ENDBRANCH   4   7
ENDBRANCH   2   3
ENDBRANCH   1   2
BRANCH   1  27
ATOM     27  C   UNL A   1      42.825  36.748  28.660  1.00  0.00     0.023 C 
BRANCH  27  28
ATOM     28  C   UNL A   1      43.740  37.150  27.506  1.00  0.00     0.116 C 
BRANCH  28  29
ATOM     29  N   UNL A   1      44.990  37.757  27.947  1.00  0.00    -0.352 N 
ATOM     30  C   UNL A   1      46.202  37.209  28.312  1.00  0.00     0.251 C 
ATOM     31  H   UNL A   1      44.964  38.740  27.994  1.00  0.00     0.163 HD
ATOM     32  O   UNL A   1      47.050  37.948  28.813  1.00  0.00    -0.269 OA
BRANCH  30  33
ATOM     33  C   UNL A   1      46.482  35.755  28.178  1.00  0.00     0.039 A 
ATOM     34  C   UNL A   1      46.689  35.149  26.944  1.00  0.00     0.014 A 
ATOM     35  C   UNL A   1      46.544  34.966  29.335  1.00  0.00     0.014 A 
ATOM     36  C   UNL A   1      46.695  33.759  26.842  1.00  0.00     0.010 A 
ATOM     37  C   UNL A   1      46.670  33.571  29.239  1.00  0.00     0.010 A 
ATOM     38  C   UNL A   1      46.656  32.945  27.985  1.00  0.00    -0.014 A 
BRANCH  38  39
ATOM     39  C   UNL A   1      46.482  31.469  27.826  1.00  0.00     0.031 A 
ATOM     40  C   UNL A   1      45.099  30.857  27.832  1.00  0.00     0.074 A 
ATOM     41  C   UNL A   1      47.533  30.682  27.513  1.00  0.00     0.049 A 
ATOM     42  N   UNL A   1      44.758  29.601  27.685  1.00  0.00    -0.248 NA
ATOM     43  C   UNL A   1      43.954  31.760  28.037  1.00  0.00     0.031 C 
ATOM     44  C   UNL A   1      48.928  31.121  27.427  1.00  0.00     0.029 A 
ATOM     45  N   UNL A   1      47.573  29.372  27.100  1.00  0.00    -0.354 N 
ATOM     46  C   UNL A   1      43.382  29.552  27.872  1.00  0.00     0.074 A 
ATOM     47  C   UNL A   1      42.940  30.910  28.103  1.00  0.00     0.031 C 
ATOM     48  C   UNL A   1      49.648  30.162  26.825  1.00  0.00     0.029 A 
ATOM     49  C   UNL A   1      48.781  29.021  26.544  1.00  0.00     0.049 A 
ATOM     50  H   UNL A   1      46.815  28.749  27.192  1.00  0.00     0.167 HD
ATOM     51  C   UNL A   1      42.560  28.476  27.872  1.00  0.00     0.031 A 
ATOM     52  C   UNL A   1      49.142  27.930  25.840  1.00  0.00     0.031 A 
ATOM     53  C   UNL A   1      42.976  27.139  27.558  1.00  0.00     0.049 A 
ATOM     54  C   UNL A   1      48.173  26.802  25.652  1.00  0.00     0.074 A 
ATOM     55  C   UNL A   1      42.273  25.952  27.681  1.00  0.00     0.029 A 
ATOM     56  N   UNL A   1      44.192  26.826  26.977  1.00  0.00    -0.354 N 
ATOM     57  N   UNL A   1      46.933  26.716  26.060  1.00  0.00    -0.248 NA
ATOM     58  C   UNL A   1      48.661  25.615  24.935  1.00  0.00     0.031 C 
ATOM     59  C   UNL A   1      43.053  24.925  27.131  1.00  0.00     0.029 A 
ATOM     60  C   UNL A   1      44.235  25.479  26.668  1.00  0.00     0.049 A 
ATOM     61  H   UNL A   1      44.919  27.467  26.809  1.00  0.00     0.167 HD
ATOM     62  C   UNL A   1      46.505  25.447  25.694  1.00  0.00     0.074 A 
ATOM     63  C   UNL A   1      47.601  24.818  24.985  1.00  0.00     0.031 C 
ATOM     64  C   UNL A   1      45.318  24.851  25.960  1.00  0.00     0.031 A 
BRANCH  51  65
ATOM     65  C   UNL A   1      41.136  28.716  28.274  1.00  0.00    -0.014 A 
ATOM     66  C   UNL A   1      40.788  28.670  29.636  1.00  0.00     0.010 A 
ATOM     67  C   UNL A   1      40.153  29.017  27.317  1.00  0.00     0.010 A 
ATOM     68  C   UNL A   1      39.482  28.948  30.043  1.00  0.00     0.020 A 
ATOM     69  C   UNL A   1      38.846  29.305  27.723  1.00  0.00     0.020 A 
ATOM     70  C   UNL A   1      38.519  29.269  29.083  1.00  0.00     0.054 A 
BRANCH  70  71
ATOM     71  S   UNL A   1      36.843  29.729  29.604  1.00  0.00     0.124 S 
ATOM     72  O   UNL A   1      36.948  31.178  29.739  1.00  0.00    -0.237 OA
ATOM     73  O   UNL A   1      36.006  29.259  28.502  1.00  0.00    -0.237 OA
ATOM     74  O   UNL A   1      36.678  28.987  30.853  1.00  0.00    -0.744 OA
ENDBRANCH  70  71
ENDBRANCH  51  65
BRANCH  52  75
ATOM     75  C   UNL A   1      50.471  27.906  25.185  1.00  0.00    -0.014 A 
ATOM     76  C   UNL A   1      50.613  28.184  23.816  1.00  0.00     0.010 A 
ATOM     77  C   UNL A   1      51.599  27.533  25.938  1.00  0.00     0.010 A 
ATOM     78  C   UNL A   1      51.863  28.062  23.201  1.00  0.00     0.020 A 
ATOM     79  C   UNL A   1      52.848  27.415  25.328  1.00  0.00     0.020 A 
ATOM     80  C   UNL A   1      52.969  27.662  23.958  1.00  0.00     0.054 A 
BRANCH  80  81
ATOM     81  S   UNL A   1      54.591  27.456  23.173  1.00  0.00     0.124 S 
ATOM     82  O   UNL A   1      55.389  26.922  24.274  1.00  0.00    -0.237 OA
ATOM     83  O   UNL A   1      54.324  26.522  22.083  1.00  0.00    -0.237 OA
ATOM     84  O   UNL A   1      54.922  28.816  22.757  1.00  0.00    -0.744 OA
ENDBRANCH  80  81
ENDBRANCH  52  75
BRANCH  64  85
ATOM     85  C   UNL A   1      45.144  23.430  25.518  1.00  0.00    -0.014 A 
ATOM     86  C   UNL A   1      44.548  23.136  24.281  1.00  0.00     0.010 A 
ATOM     87  C   UNL A   1      45.539  22.381  26.366  1.00  0.00     0.010 A 
ATOM     88  C   UNL A   1      44.349  21.807  23.895  1.00  0.00     0.020 A 
ATOM     89  C   UNL A   1      45.343  21.053  25.982  1.00  0.00     0.020 A 
ATOM     90  C   UNL A   1      44.739  20.774  24.753  1.00  0.00     0.054 A 
BRANCH  90  91
ATOM     91  S   UNL A   1      44.500  19.047  24.251  1.00  0.00     0.124 S 
ATOM     92  O   UNL A   1      43.103  18.816  24.609  1.00  0.00    -0.237 OA
ATOM     93  O   UNL A   1      44.786  19.072  22.818  1.00  0.00    -0.237 OA
ATOM     94  O   UNL A   1      45.481  18.327  25.060  1.00  0.00    -0.744 OA
ENDBRANCH  90  91
ENDBRANCH  64  85
ENDBRANCH  38  39
ENDBRANCH  30  33
ENDBRANCH  28  29
ENDBRANCH  27  28
ENDBRANCH   1  27
TORSDOF 17
ENDMDL
