MODEL 1
REMARK VINA RESULT:      -9.5      0.000      0.000
REMARK SMILES CCc1n[nH]c2cc(CCC(=O)NCCCCNC(=O)c3ccc(-c4c5nc(c(-c6ccc(S(=O)(=O)[O-])cc6)c6ccc([nH]6)c(-c6ccc(S(=O)(=O)[O-])cc6)c6nc(c(-c7ccc(S(=O)(=O)[O-])cc7)c7ccc4[nH]7)C=C6)C=C5)cc3)ccc12
REMARK SMILES IDX 15 1 14 2 13 3 11 4 12 5 10 7 9 8 8 9 3 10 4 11 83 12 5 13
REMARK SMILES IDX 6 14 82 15 7 17 81 18 2 19 1 20 16 21 17 22 18 23 19 24
REMARK SMILES IDX 20 26 21 27 22 28 80 29 23 30 79 31 24 32 25 33 26 34 73 35
REMARK SMILES IDX 27 36 78 37 72 38 74 39 28 40 77 41 71 42 70 43 29 45 59 46
REMARK SMILES IDX 40 47 58 48 41 49 44 50 57 51 75 52 42 53 43 54 56 56 76 57
REMARK SMILES IDX 45 58 30 59 31 60 39 61 32 62 38 63 33 64 34 65 35 66 36 67
REMARK SMILES IDX 37 68 60 69 61 70 69 71 62 72 68 73 63 74 64 75 65 76 66 77
REMARK SMILES IDX 67 78 46 79 47 80 55 81 48 82 54 83 49 84 50 85 51 86 52 87
REMARK SMILES IDX 53 88
REMARK H PARENT 13 6 5 16 18 25 74 44 44 55
REMARK Flexibility Score: inf
ROOT
ATOM      1  C   UNL A   1      33.924  35.014  29.776  1.00  0.00     0.023 C 
ENDROOT
BRANCH   1   2
ATOM      2  C   UNL A   1      32.921  35.191  30.906  1.00  0.00     0.116 C 
BRANCH   2   3
ATOM      3  N   UNL A   1      33.328  36.304  31.742  1.00  0.00    -0.356 N 
ATOM      4  C   UNL A   1      34.020  36.268  32.917  1.00  0.00     0.220 C 
ATOM      5  O   UNL A   1      34.011  37.270  33.635  1.00  0.00    -0.275 OA
ATOM      6  H   UNL A   1      33.070  37.199  31.421  1.00  0.00     0.163 HD
BRANCH   4   7
ATOM      7  C   UNL A   1      34.828  35.041  33.306  1.00  0.00     0.105 C 
BRANCH   7   8
ATOM      8  C   UNL A   1      36.221  34.976  32.660  1.00  0.00     0.045 C 
BRANCH   8   9
ATOM      9  C   UNL A   1      37.098  33.860  33.194  1.00  0.00    -0.045 A 
ATOM     10  C   UNL A   1      39.481  30.464  33.897  1.00  0.00     0.070 A 
ATOM     11  N   UNL A   1      38.583  29.501  33.636  1.00  0.00    -0.180 NA
ATOM     12  C   UNL A   1      38.884  31.761  33.820  1.00  0.00     0.023 A 
ATOM     13  N   UNL A   1      37.448  30.161  33.383  1.00  0.00    -0.278 N 
ATOM     14  C   UNL A   1      37.555  31.521  33.479  1.00  0.00     0.066 A 
ATOM     15  C   UNL A   1      39.297  33.100  33.951  1.00  0.00     0.012 A 
ATOM     16  H   UNL A   1      36.607  29.706  33.149  1.00  0.00     0.190 HD
ATOM     17  C   UNL A   1      36.627  32.539  33.213  1.00  0.00     0.032 A 
ATOM     18  C   UNL A   1      38.404  34.133  33.623  1.00  0.00     0.004 A 
BRANCH  10  19
ATOM     19  C   UNL A   1      40.895  30.030  34.141  1.00  0.00     0.055 C 
ATOM     20  C   UNL A   1      41.130  28.546  34.342  1.00  0.00     0.011 C 
ENDBRANCH  10  19
ENDBRANCH   8   9
ENDBRANCH   7   8
ENDBRANCH   4   7
ENDBRANCH   2   3
ENDBRANCH   1   2
BRANCH   1  21
ATOM     21  C   UNL A   1      34.747  33.741  29.787  1.00  0.00     0.023 C 
BRANCH  21  22
ATOM     22  C   UNL A   1      35.033  33.161  28.414  1.00  0.00     0.116 C 
BRANCH  22  23
ATOM     23  N   UNL A   1      34.111  32.114  27.987  1.00  0.00    -0.352 N 
ATOM     24  C   UNL A   1      34.290  30.749  27.921  1.00  0.00     0.251 C 
ATOM     25  H   UNL A   1      33.223  32.432  27.704  1.00  0.00     0.163 HD
ATOM     26  O   UNL A   1      33.371  30.019  27.590  1.00  0.00    -0.269 OA
BRANCH  24  27
ATOM     27  C   UNL A   1      35.618  30.176  28.222  1.00  0.00     0.039 A 
ATOM     28  C   UNL A   1      36.590  30.156  27.220  1.00  0.00     0.014 A 
ATOM     29  C   UNL A   1      35.915  29.710  29.502  1.00  0.00     0.014 A 
ATOM     30  C   UNL A   1      37.885  29.734  27.527  1.00  0.00     0.010 A 
ATOM     31  C   UNL A   1      37.229  29.422  29.837  1.00  0.00     0.010 A 
ATOM     32  C   UNL A   1      38.224  29.407  28.850  1.00  0.00    -0.014 A 
BRANCH  32  33
ATOM     33  C   UNL A   1      39.601  29.011  29.234  1.00  0.00     0.031 A 
ATOM     34  C   UNL A   1      40.485  30.002  29.949  1.00  0.00     0.074 A 
ATOM     35  C   UNL A   1      40.080  27.806  28.867  1.00  0.00     0.049 A 
ATOM     36  N   UNL A   1      41.747  29.902  30.271  1.00  0.00    -0.248 NA
ATOM     37  C   UNL A   1      39.880  31.299  30.305  1.00  0.00     0.031 C 
ATOM     38  C   UNL A   1      39.339  26.786  28.119  1.00  0.00     0.029 A 
ATOM     39  N   UNL A   1      41.311  27.235  29.071  1.00  0.00    -0.354 N 
ATOM     40  C   UNL A   1      42.092  31.128  30.830  1.00  0.00     0.074 A 
ATOM     41  C   UNL A   1      40.928  31.979  30.742  1.00  0.00     0.031 C 
ATOM     42  C   UNL A   1      40.115  25.701  27.964  1.00  0.00     0.029 A 
ATOM     43  C   UNL A   1      41.421  25.963  28.558  1.00  0.00     0.049 A 
ATOM     44  H   UNL A   1      42.045  27.691  29.539  1.00  0.00     0.167 HD
ATOM     45  C   UNL A   1      43.264  31.504  31.394  1.00  0.00     0.031 A 
ATOM     46  C   UNL A   1      42.459  25.106  28.565  1.00  0.00     0.031 A 
ATOM     47  C   UNL A   1      44.403  30.634  31.513  1.00  0.00     0.049 A 
ATOM     48  C   UNL A   1      43.740  25.533  29.231  1.00  0.00     0.074 A 
ATOM     49  C   UNL A   1      45.616  30.882  32.130  1.00  0.00     0.029 A 
ATOM     50  N   UNL A   1      44.462  29.342  31.013  1.00  0.00    -0.354 N 
ATOM     51  N   UNL A   1      44.028  26.677  29.807  1.00  0.00    -0.248 NA
ATOM     52  C   UNL A   1      44.828  24.548  29.260  1.00  0.00     0.031 C 
ATOM     53  C   UNL A   1      46.427  29.754  31.959  1.00  0.00     0.029 A 
ATOM     54  C   UNL A   1      45.697  28.783  31.290  1.00  0.00     0.049 A 
ATOM     55  H   UNL A   1      43.732  28.888  30.533  1.00  0.00     0.167 HD
ATOM     56  C   UNL A   1      45.326  26.541  30.286  1.00  0.00     0.074 A 
ATOM     57  C   UNL A   1      45.752  25.195  29.956  1.00  0.00     0.031 C 
ATOM     58  C   UNL A   1      46.100  27.446  30.937  1.00  0.00     0.031 A 
BRANCH  45  59
ATOM     59  C   UNL A   1      43.364  32.912  31.927  1.00  0.00    -0.014 A 
ATOM     60  C   UNL A   1      43.930  33.945  31.158  1.00  0.00     0.010 A 
ATOM     61  C   UNL A   1      42.862  33.212  33.206  1.00  0.00     0.010 A 
ATOM     62  C   UNL A   1      44.036  35.239  31.674  1.00  0.00     0.020 A 
ATOM     63  C   UNL A   1      42.934  34.513  33.713  1.00  0.00     0.020 A 
ATOM     64  C   UNL A   1      43.538  35.515  32.950  1.00  0.00     0.054 A 
BRANCH  64  65
ATOM     65  S   UNL A   1      43.661  37.210  33.582  1.00  0.00     0.124 S 
ATOM     66  O   UNL A   1      42.468  37.307  34.419  1.00  0.00    -0.237 OA
ATOM     67  O   UNL A   1      44.932  37.190  34.302  1.00  0.00    -0.237 OA
ATOM     68  O   UNL A   1      43.644  38.033  32.376  1.00  0.00    -0.744 OA
ENDBRANCH  64  65
ENDBRANCH  45  59
BRANCH  46  69
ATOM     69  C   UNL A   1      42.321  23.757  27.949  1.00  0.00    -0.014 A 
ATOM     70  C   UNL A   1      42.678  23.548  26.604  1.00  0.00     0.010 A 
ATOM     71  C   UNL A   1      41.848  22.670  28.706  1.00  0.00     0.010 A 
ATOM     72  C   UNL A   1      42.546  22.282  26.024  1.00  0.00     0.020 A 
ATOM     73  C   UNL A   1      41.744  21.396  28.137  1.00  0.00     0.020 A 
ATOM     74  C   UNL A   1      42.082  21.214  26.795  1.00  0.00     0.054 A 
BRANCH  74  75
ATOM     75  S   UNL A   1      41.969  19.569  26.035  1.00  0.00     0.124 S 
ATOM     76  O   UNL A   1      42.369  18.698  27.136  1.00  0.00    -0.237 OA
ATOM     77  O   UNL A   1      40.561  19.497  25.650  1.00  0.00    -0.237 OA
ATOM     78  O   UNL A   1      42.909  19.642  24.919  1.00  0.00    -0.744 OA
ENDBRANCH  74  75
ENDBRANCH  46  69
BRANCH  58  79
ATOM     79  C   UNL A   1      47.474  26.994  31.347  1.00  0.00    -0.014 A 
ATOM     80  C   UNL A   1      48.586  27.188  30.507  1.00  0.00     0.010 A 
ATOM     81  C   UNL A   1      47.658  26.381  32.599  1.00  0.00     0.010 A 
ATOM     82  C   UNL A   1      49.846  26.726  30.889  1.00  0.00     0.020 A 
ATOM     83  C   UNL A   1      48.924  25.948  32.999  1.00  0.00     0.020 A 
ATOM     84  C   UNL A   1      50.006  26.103  32.130  1.00  0.00     0.054 A 
BRANCH  84  85
ATOM     85  S   UNL A   1      51.654  25.515  32.605  1.00  0.00     0.124 S 
ATOM     86  O   UNL A   1      51.623  25.669  34.057  1.00  0.00    -0.237 OA
ATOM     87  O   UNL A   1      51.656  24.137  32.117  1.00  0.00    -0.237 OA
ATOM     88  O   UNL A   1      52.560  26.420  31.901  1.00  0.00    -0.744 OA
ENDBRANCH  84  85
ENDBRANCH  58  79
ENDBRANCH  32  33
ENDBRANCH  24  27
ENDBRANCH  22  23
ENDBRANCH  21  22
ENDBRANCH   1  21
TORSDOF 17
ENDMDL
MODEL 2
REMARK VINA RESULT:      -9.3      4.142      7.434
REMARK SMILES CCc1n[nH]c2cc(CCC(=O)NCCCCNC(=O)c3ccc(-c4c5nc(c(-c6ccc(S(=O)(=O)[O-])cc6)c6ccc([nH]6)c(-c6ccc(S(=O)(=O)[O-])cc6)c6nc(c(-c7ccc(S(=O)(=O)[O-])cc7)c7ccc4[nH]7)C=C6)C=C5)cc3)ccc12
REMARK SMILES IDX 15 1 14 2 13 3 11 4 12 5 10 7 9 8 8 9 3 10 4 11 83 12 5 13
REMARK SMILES IDX 6 14 82 15 7 17 81 18 2 19 1 20 16 21 17 22 18 23 19 24
REMARK SMILES IDX 20 26 21 27 22 28 80 29 23 30 79 31 24 32 25 33 26 34 73 35
REMARK SMILES IDX 27 36 78 37 72 38 74 39 28 40 77 41 71 42 70 43 29 45 59 46
REMARK SMILES IDX 40 47 58 48 41 49 44 50 57 51 75 52 42 53 43 54 56 56 76 57
REMARK SMILES IDX 45 58 30 59 31 60 39 61 32 62 38 63 33 64 34 65 35 66 36 67
REMARK SMILES IDX 37 68 60 69 61 70 69 71 62 72 68 73 63 74 64 75 65 76 66 77
REMARK SMILES IDX 67 78 46 79 47 80 55 81 48 82 54 83 49 84 50 85 51 86 52 87
REMARK SMILES IDX 53 88
REMARK H PARENT 13 6 5 16 18 25 74 44 44 55
REMARK Flexibility Score: inf
ROOT
ATOM      1  C   UNL A   1      33.536  26.312  26.118  1.00  0.00     0.023 C 
ENDROOT
BRANCH   1   2
ATOM      2  C   UNL A   1      32.543  25.202  26.426  1.00  0.00     0.116 C 
BRANCH   2   3
ATOM      3  N   UNL A   1      33.058  23.941  25.928  1.00  0.00    -0.356 N 
ATOM      4  C   UNL A   1      32.429  23.027  25.134  1.00  0.00     0.220 C 
ATOM      5  O   UNL A   1      32.898  21.889  25.063  1.00  0.00    -0.275 OA
ATOM      6  H   UNL A   1      33.978  23.716  26.198  1.00  0.00     0.163 HD
BRANCH   4   7
ATOM      7  C   UNL A   1      31.209  23.417  24.316  1.00  0.00     0.105 C 
BRANCH   7   8
ATOM      8  C   UNL A   1      31.521  24.332  23.122  1.00  0.00     0.045 C 
BRANCH   8   9
ATOM      9  C   UNL A   1      30.852  25.691  23.193  1.00  0.00    -0.045 A 
ATOM     10  C   UNL A   1      28.949  29.390  22.558  1.00  0.00     0.070 A 
ATOM     11  N   UNL A   1      29.878  29.995  21.801  1.00  0.00    -0.180 NA
ATOM     12  C   UNL A   1      29.401  28.109  23.004  1.00  0.00     0.023 A 
ATOM     13  N   UNL A   1      30.889  29.121  21.750  1.00  0.00    -0.278 N 
ATOM     14  C   UNL A   1      30.671  27.968  22.453  1.00  0.00     0.066 A 
ATOM     15  C   UNL A   1      28.890  27.038  23.762  1.00  0.00     0.012 A 
ATOM     16  H   UNL A   1      31.719  29.293  21.249  1.00  0.00     0.190 HD
ATOM     17  C   UNL A   1      31.443  26.802  22.571  1.00  0.00     0.032 A 
ATOM     18  C   UNL A   1      29.616  25.838  23.835  1.00  0.00     0.004 A 
BRANCH  10  19
ATOM     19  C   UNL A   1      27.642  30.103  22.733  1.00  0.00     0.055 C 
ATOM     20  C   UNL A   1      27.654  31.352  23.592  1.00  0.00     0.011 C 
ENDBRANCH  10  19
ENDBRANCH   8   9
ENDBRANCH   7   8
ENDBRANCH   4   7
ENDBRANCH   2   3
ENDBRANCH   1   2
BRANCH   1  21
ATOM     21  C   UNL A   1      32.976  27.715  25.994  1.00  0.00     0.023 C 
BRANCH  21  22
ATOM     22  C   UNL A   1      34.023  28.804  25.845  1.00  0.00     0.116 C 
BRANCH  22  23
ATOM     23  N   UNL A   1      33.682  30.071  26.481  1.00  0.00    -0.352 N 
ATOM     24  C   UNL A   1      34.370  30.801  27.427  1.00  0.00     0.251 C 
ATOM     25  H   UNL A   1      32.829  30.467  26.189  1.00  0.00     0.163 HD
ATOM     26  O   UNL A   1      33.949  31.881  27.803  1.00  0.00    -0.269 OA
BRANCH  24  27
ATOM     27  C   UNL A   1      35.609  30.245  28.011  1.00  0.00     0.039 A 
ATOM     28  C   UNL A   1      36.815  30.415  27.329  1.00  0.00     0.014 A 
ATOM     29  C   UNL A   1      35.583  29.605  29.250  1.00  0.00     0.014 A 
ATOM     30  C   UNL A   1      38.007  30.005  27.929  1.00  0.00     0.010 A 
ATOM     31  C   UNL A   1      36.774  29.324  29.899  1.00  0.00     0.010 A 
ATOM     32  C   UNL A   1      37.999  29.498  29.239  1.00  0.00    -0.014 A 
BRANCH  32  33
ATOM     33  C   UNL A   1      39.247  29.106  29.938  1.00  0.00     0.031 A 
ATOM     34  C   UNL A   1      39.670  29.857  31.175  1.00  0.00     0.074 A 
ATOM     35  C   UNL A   1      40.034  28.142  29.419  1.00  0.00     0.049 A 
ATOM     36  N   UNL A   1      40.773  29.754  31.868  1.00  0.00    -0.248 NA
ATOM     37  C   UNL A   1      38.751  30.898  31.670  1.00  0.00     0.031 C 
ATOM     38  C   UNL A   1      39.759  27.387  28.193  1.00  0.00     0.029 A 
ATOM     39  N   UNL A   1      41.232  27.637  29.855  1.00  0.00    -0.354 N 
ATOM     40  C   UNL A   1      40.694  30.736  32.850  1.00  0.00     0.074 A 
ATOM     41  C   UNL A   1      39.471  31.468  32.623  1.00  0.00     0.031 C 
ATOM     42  C   UNL A   1      40.737  26.488  28.000  1.00  0.00     0.029 A 
ATOM     43  C   UNL A   1      41.730  26.633  29.057  1.00  0.00     0.049 A 
ATOM     44  H   UNL A   1      41.692  27.962  30.661  1.00  0.00     0.167 HD
ATOM     45  C   UNL A   1      41.550  30.987  33.869  1.00  0.00     0.031 A 
ATOM     46  C   UNL A   1      42.862  25.912  29.168  1.00  0.00     0.031 A 
ATOM     47  C   UNL A   1      42.745  30.224  34.110  1.00  0.00     0.049 A 
ATOM     48  C   UNL A   1      43.779  26.185  30.329  1.00  0.00     0.074 A 
ATOM     49  C   UNL A   1      43.647  30.340  35.151  1.00  0.00     0.029 A 
ATOM     50  N   UNL A   1      43.196  29.191  33.300  1.00  0.00    -0.354 N 
ATOM     51  N   UNL A   1      43.658  27.079  31.283  1.00  0.00    -0.248 NA
ATOM     52  C   UNL A   1      44.975  25.341  30.437  1.00  0.00     0.031 C 
ATOM     53  C   UNL A   1      44.671  29.409  34.944  1.00  0.00     0.029 A 
ATOM     54  C   UNL A   1      44.374  28.673  33.807  1.00  0.00     0.049 A 
ATOM     55  H   UNL A   1      42.743  28.874  32.485  1.00  0.00     0.167 HD
ATOM     56  C   UNL A   1      44.754  26.892  32.117  1.00  0.00     0.074 A 
ATOM     57  C   UNL A   1      45.507  25.780  31.569  1.00  0.00     0.031 C 
ATOM     58  C   UNL A   1      45.111  27.576  33.233  1.00  0.00     0.031 A 
BRANCH  45  59
ATOM     59  C   UNL A   1      41.215  32.128  34.797  1.00  0.00    -0.014 A 
ATOM     60  C   UNL A   1      41.705  33.427  34.564  1.00  0.00     0.010 A 
ATOM     61  C   UNL A   1      40.379  31.905  35.906  1.00  0.00     0.010 A 
ATOM     62  C   UNL A   1      41.405  34.468  35.445  1.00  0.00     0.020 A 
ATOM     63  C   UNL A   1      40.048  32.953  36.772  1.00  0.00     0.020 A 
ATOM     64  C   UNL A   1      40.579  34.225  36.544  1.00  0.00     0.054 A 
BRANCH  64  65
ATOM     65  S   UNL A   1      40.181  35.603  37.654  1.00  0.00     0.124 S 
ATOM     66  O   UNL A   1      39.817  36.656  36.710  1.00  0.00    -0.237 OA
ATOM     67  O   UNL A   1      39.079  35.065  38.448  1.00  0.00    -0.237 OA
ATOM     68  O   UNL A   1      41.423  35.826  38.389  1.00  0.00    -0.744 OA
ENDBRANCH  64  65
ENDBRANCH  45  59
BRANCH  46  69
ATOM     69  C   UNL A   1      43.175  24.852  28.169  1.00  0.00    -0.014 A 
ATOM     70  C   UNL A   1      43.980  25.139  27.052  1.00  0.00     0.010 A 
ATOM     71  C   UNL A   1      42.684  23.544  28.338  1.00  0.00     0.010 A 
ATOM     72  C   UNL A   1      44.271  24.145  26.113  1.00  0.00     0.020 A 
ATOM     73  C   UNL A   1      42.999  22.539  27.416  1.00  0.00     0.020 A 
ATOM     74  C   UNL A   1      43.781  22.850  26.302  1.00  0.00     0.054 A 
BRANCH  74  75
ATOM     75  S   UNL A   1      44.215  21.563  25.099  1.00  0.00     0.124 S 
ATOM     76  O   UNL A   1      43.226  20.530  25.388  1.00  0.00    -0.237 OA
ATOM     77  O   UNL A   1      44.051  22.257  23.823  1.00  0.00    -0.237 OA
ATOM     78  O   UNL A   1      45.595  21.225  25.442  1.00  0.00    -0.744 OA
ENDBRANCH  74  75
ENDBRANCH  46  69
BRANCH  58  79
ATOM     79  C   UNL A   1      46.359  27.122  33.939  1.00  0.00    -0.014 A 
ATOM     80  C   UNL A   1      47.607  27.706  33.658  1.00  0.00     0.010 A 
ATOM     81  C   UNL A   1      46.278  26.107  34.909  1.00  0.00     0.010 A 
ATOM     82  C   UNL A   1      48.760  27.244  34.295  1.00  0.00     0.020 A 
ATOM     83  C   UNL A   1      47.424  25.665  35.573  1.00  0.00     0.020 A 
ATOM     84  C   UNL A   1      48.662  26.222  35.244  1.00  0.00     0.054 A 
BRANCH  84  85
ATOM     85  S   UNL A   1      50.173  25.641  36.059  1.00  0.00     0.124 S 
ATOM     86  O   UNL A   1      51.206  26.058  35.116  1.00  0.00    -0.237 OA
ATOM     87  O   UNL A   1      50.150  26.363  37.329  1.00  0.00    -0.237 OA
ATOM     88  O   UNL A   1      49.974  24.197  36.167  1.00  0.00    -0.744 OA
ENDBRANCH  84  85
ENDBRANCH  58  79
ENDBRANCH  32  33
ENDBRANCH  24  27
ENDBRANCH  22  23
ENDBRANCH  21  22
ENDBRANCH   1  21
TORSDOF 17
ENDMDL
MODEL 3
REMARK VINA RESULT:      -9.2      1.081      8.482
REMARK SMILES CCc1n[nH]c2cc(CCC(=O)NCCCCNC(=O)c3ccc(-c4c5nc(c(-c6ccc(S(=O)(=O)[O-])cc6)c6ccc([nH]6)c(-c6ccc(S(=O)(=O)[O-])cc6)c6nc(c(-c7ccc(S(=O)(=O)[O-])cc7)c7ccc4[nH]7)C=C6)C=C5)cc3)ccc12
REMARK SMILES IDX 15 1 14 2 13 3 11 4 12 5 10 7 9 8 8 9 3 10 4 11 83 12 5 13
REMARK SMILES IDX 6 14 82 15 7 17 81 18 2 19 1 20 16 21 17 22 18 23 19 24
REMARK SMILES IDX 20 26 21 27 22 28 80 29 23 30 79 31 24 32 25 33 26 34 73 35
REMARK SMILES IDX 27 36 78 37 72 38 74 39 28 40 77 41 71 42 70 43 29 45 59 46
REMARK SMILES IDX 40 47 58 48 41 49 44 50 57 51 75 52 42 53 43 54 56 56 76 57
REMARK SMILES IDX 45 58 30 59 31 60 39 61 32 62 38 63 33 64 34 65 35 66 36 67
REMARK SMILES IDX 37 68 60 69 61 70 69 71 62 72 68 73 63 74 64 75 65 76 66 77
REMARK SMILES IDX 67 78 46 79 47 80 55 81 48 82 54 83 49 84 50 85 51 86 52 87
REMARK SMILES IDX 53 88
REMARK H PARENT 13 6 5 16 18 25 74 44 44 55
REMARK Flexibility Score: inf
ROOT
ATOM      1  C   UNL A   1      34.829  33.937  29.921  1.00  0.00     0.023 C 
ENDROOT
BRANCH   1   2
ATOM      2  C   UNL A   1      34.375  34.499  31.258  1.00  0.00     0.116 C 
BRANCH   2   3
ATOM      3  N   UNL A   1      35.529  34.966  32.003  1.00  0.00    -0.356 N 
ATOM      4  C   UNL A   1      36.109  34.402  33.101  1.00  0.00     0.220 C 
ATOM      5  O   UNL A   1      36.880  35.088  33.775  1.00  0.00    -0.275 OA
ATOM      6  H   UNL A   1      35.945  35.796  31.674  1.00  0.00     0.163 HD
BRANCH   4   7
ATOM      7  C   UNL A   1      35.853  32.946  33.454  1.00  0.00     0.105 C 
BRANCH   7   8
ATOM      8  C   UNL A   1      36.556  31.942  32.528  1.00  0.00     0.045 C 
BRANCH   8   9
ATOM      9  C   UNL A   1      37.804  31.320  33.125  1.00  0.00    -0.045 A 
ATOM     10  C   UNL A   1      41.454  29.411  33.984  1.00  0.00     0.070 A 
ATOM     11  N   UNL A   1      41.180  28.181  33.520  1.00  0.00    -0.180 NA
ATOM     12  C   UNL A   1      40.309  30.263  33.895  1.00  0.00     0.023 A 
ATOM     13  N   UNL A   1      39.903  28.247  33.130  1.00  0.00    -0.278 N 
ATOM     14  C   UNL A   1      39.317  29.467  33.329  1.00  0.00     0.066 A 
ATOM     15  C   UNL A   1      39.994  31.606  34.177  1.00  0.00     0.012 A 
ATOM     16  H   UNL A   1      39.425  27.483  32.734  1.00  0.00     0.190 HD
ATOM     17  C   UNL A   1      38.043  29.945  32.982  1.00  0.00     0.032 A 
ATOM     18  C   UNL A   1      38.751  32.121  33.776  1.00  0.00     0.004 A 
BRANCH  10  19
ATOM     19  C   UNL A   1      42.862  29.675  34.425  1.00  0.00     0.055 C 
ATOM     20  C   UNL A   1      43.866  28.559  34.212  1.00  0.00     0.011 C 
ENDBRANCH  10  19
ENDBRANCH   8   9
ENDBRANCH   7   8
ENDBRANCH   4   7
ENDBRANCH   2   3
ENDBRANCH   1   2
BRANCH   1  21
ATOM     21  C   UNL A   1      34.343  32.546  29.564  1.00  0.00     0.023 C 
BRANCH  21  22
ATOM     22  C   UNL A   1      34.210  32.284  28.075  1.00  0.00     0.116 C 
BRANCH  22  23
ATOM     23  N   UNL A   1      33.759  30.941  27.728  1.00  0.00    -0.352 N 
ATOM     24  C   UNL A   1      34.428  29.737  27.798  1.00  0.00     0.251 C 
ATOM     25  H   UNL A   1      32.835  30.886  27.393  1.00  0.00     0.163 HD
ATOM     26  O   UNL A   1      33.860  28.696  27.515  1.00  0.00    -0.269 OA
BRANCH  24  27
ATOM     27  C   UNL A   1      35.853  29.721  28.186  1.00  0.00     0.039 A 
ATOM     28  C   UNL A   1      36.197  29.350  29.487  1.00  0.00     0.014 A 
ATOM     29  C   UNL A   1      36.845  30.021  27.253  1.00  0.00     0.014 A 
ATOM     30  C   UNL A   1      37.544  29.211  29.829  1.00  0.00     0.010 A 
ATOM     31  C   UNL A   1      38.170  29.751  27.553  1.00  0.00     0.010 A 
ATOM     32  C   UNL A   1      38.539  29.366  28.850  1.00  0.00    -0.014 A 
BRANCH  32  33
ATOM     33  C   UNL A   1      39.977  29.169  29.153  1.00  0.00     0.031 A 
ATOM     34  C   UNL A   1      40.634  27.856  28.806  1.00  0.00     0.074 A 
ATOM     35  C   UNL A   1      40.663  30.126  29.810  1.00  0.00     0.049 A 
ATOM     36  N   UNL A   1      41.840  27.437  29.084  1.00  0.00    -0.248 NA
ATOM     37  C   UNL A   1      39.808  26.865  28.094  1.00  0.00     0.031 C 
ATOM     38  C   UNL A   1      40.118  31.413  30.251  1.00  0.00     0.029 A 
ATOM     39  N   UNL A   1      41.970  30.162  30.226  1.00  0.00    -0.354 N 
ATOM     40  C   UNL A   1      41.901  26.128  28.617  1.00  0.00     0.074 A 
ATOM     41  C   UNL A   1      40.593  25.800  28.099  1.00  0.00     0.031 C 
ATOM     42  C   UNL A   1      41.092  32.127  30.838  1.00  0.00     0.029 A 
ATOM     43  C   UNL A   1      42.316  31.334  30.858  1.00  0.00     0.049 A 
ATOM     44  H   UNL A   1      42.599  29.419  30.086  1.00  0.00     0.167 HD
ATOM     45  C   UNL A   1      42.959  25.284  28.592  1.00  0.00     0.031 A 
ATOM     46  C   UNL A   1      43.488  31.723  31.392  1.00  0.00     0.031 A 
ATOM     47  C   UNL A   1      44.268  25.637  29.073  1.00  0.00     0.049 A 
ATOM     48  C   UNL A   1      44.660  30.782  31.320  1.00  0.00     0.074 A 
ATOM     49  C   UNL A   1      45.431  24.891  29.032  1.00  0.00     0.029 A 
ATOM     50  N   UNL A   1      44.586  26.847  29.672  1.00  0.00    -0.354 N 
ATOM     51  N   UNL A   1      44.714  29.569  30.820  1.00  0.00    -0.248 NA
ATOM     52  C   UNL A   1      45.931  31.268  31.870  1.00  0.00     0.031 C 
ATOM     53  C   UNL A   1      46.443  25.631  29.652  1.00  0.00     0.029 A 
ATOM     54  C   UNL A   1      45.924  26.863  30.024  1.00  0.00     0.049 A 
ATOM     55  H   UNL A   1      43.954  27.586  29.824  1.00  0.00     0.167 HD
ATOM     56  C   UNL A   1      46.031  29.154  30.978  1.00  0.00     0.074 A 
ATOM     57  C   UNL A   1      46.743  30.258  31.592  1.00  0.00     0.031 C 
ATOM     58  C   UNL A   1      46.603  27.969  30.648  1.00  0.00     0.031 A 
BRANCH  45  59
ATOM     59  C   UNL A   1      42.740  23.905  28.022  1.00  0.00    -0.014 A 
ATOM     60  C   UNL A   1      42.135  22.888  28.783  1.00  0.00     0.010 A 
ATOM     61  C   UNL A   1      43.122  23.627  26.697  1.00  0.00     0.010 A 
ATOM     62  C   UNL A   1      41.960  21.609  28.249  1.00  0.00     0.020 A 
ATOM     63  C   UNL A   1      42.917  22.359  26.146  1.00  0.00     0.020 A 
ATOM     64  C   UNL A   1      42.353  21.352  26.933  1.00  0.00     0.054 A 
BRANCH  64  65
ATOM     65  S   UNL A   1      42.085  19.691  26.255  1.00  0.00     0.124 S 
ATOM     66  O   UNL A   1      40.640  19.681  26.043  1.00  0.00    -0.237 OA
ATOM     67  O   UNL A   1      42.897  19.708  25.040  1.00  0.00    -0.237 OA
ATOM     68  O   UNL A   1      42.566  18.804  27.310  1.00  0.00    -0.744 OA
ENDBRANCH  64  65
ENDBRANCH  45  59
BRANCH  46  69
ATOM     69  C   UNL A   1      43.617  33.070  32.015  1.00  0.00    -0.014 A 
ATOM     70  C   UNL A   1      44.070  34.165  31.256  1.00  0.00     0.010 A 
ATOM     71  C   UNL A   1      43.271  33.272  33.363  1.00  0.00     0.010 A 
ATOM     72  C   UNL A   1      44.193  35.430  31.840  1.00  0.00     0.020 A 
ATOM     73  C   UNL A   1      43.364  34.542  33.942  1.00  0.00     0.020 A 
ATOM     74  C   UNL A   1      43.837  35.611  33.179  1.00  0.00     0.054 A 
BRANCH  74  75
ATOM     75  S   UNL A   1      43.956  37.272  33.900  1.00  0.00     0.124 S 
ATOM     76  O   UNL A   1      43.920  38.122  32.715  1.00  0.00    -0.237 OA
ATOM     77  O   UNL A   1      42.773  37.328  34.756  1.00  0.00    -0.237 OA
ATOM     78  O   UNL A   1      45.231  37.245  34.614  1.00  0.00    -0.744 OA
ENDBRANCH  74  75
ENDBRANCH  46  69
BRANCH  58  79
ATOM     79  C   UNL A   1      48.073  27.822  30.932  1.00  0.00    -0.014 A 
ATOM     80  C   UNL A   1      49.039  28.169  29.970  1.00  0.00     0.010 A 
ATOM     81  C   UNL A   1      48.494  27.344  32.186  1.00  0.00     0.010 A 
ATOM     82  C   UNL A   1      50.397  27.988  30.238  1.00  0.00     0.020 A 
ATOM     83  C   UNL A   1      49.853  27.193  32.470  1.00  0.00     0.020 A 
ATOM     84  C   UNL A   1      50.794  27.495  31.484  1.00  0.00     0.054 A 
BRANCH  84  85
ATOM     85  S   UNL A   1      52.564  27.272  31.809  1.00  0.00     0.124 S 
ATOM     86  O   UNL A   1      52.555  26.216  32.818  1.00  0.00    -0.237 OA
ATOM     87  O   UNL A   1      53.085  26.888  30.500  1.00  0.00    -0.237 OA
ATOM     88  O   UNL A   1      52.996  28.584  32.285  1.00  0.00    -0.744 OA
ENDBRANCH  84  85
ENDBRANCH  58  79
ENDBRANCH  32  33
ENDBRANCH  24  27
ENDBRANCH  22  23
ENDBRANCH  21  22
ENDBRANCH   1  21
TORSDOF 17
ENDMDL
