MODEL 1
REMARK VINA RESULT:     -12.9      0.000      0.000
REMARK SMILES Cc1cc(C)c2nc(NS(=O)(=O)c3cc(C(=O)NCCCCNC(=O)c4ccc(-c5c6nc(c(-c7ccc(S(=O)(=O)[O-])cc7)c7ccc([nH]7)c(-c7ccc(S(=O)(=O)[O-])cc7)c7nc(c(-c8ccc(S(=O)(=O)[O-])cc8)c8ccc5[nH]8)C=C7)C=C6)cc4)ccc3Cl)sc2c1
REMARK SMILES IDX 20 1 19 2 18 3 16 4 17 5 15 7 13 8 14 9 88 10 87 11 89 12
REMARK SMILES IDX 86 13 10 14 11 15 12 16 9 17 8 19 1 20 2 21 3 22 92 23 4 24
REMARK SMILES IDX 91 25 5 26 6 27 90 28 7 29 21 30 22 31 23 32 24 33 25 35
REMARK SMILES IDX 26 36 27 37 85 38 28 39 84 40 29 41 30 42 31 43 78 44 32 45
REMARK SMILES IDX 83 46 77 47 79 48 33 49 82 50 76 51 75 52 34 54 64 55 45 56
REMARK SMILES IDX 63 57 46 58 49 59 62 60 80 61 47 62 48 63 61 65 81 66 50 67
REMARK SMILES IDX 35 68 36 69 44 70 37 71 43 72 38 73 39 74 40 75 41 76 42 77
REMARK SMILES IDX 65 78 66 79 74 80 67 81 73 82 68 83 69 84 70 85 71 86 72 87
REMARK SMILES IDX 51 88 52 89 60 90 53 91 59 92 54 93 55 94 56 95 57 96 58 97
REMARK H PARENT 18 6 9 18 23 34 79 53 49 64
REMARK Flexibility Score: inf
ROOT
ATOM      1  C   UNL A   1      35.357  23.495  26.309  1.00  0.00     0.023 C 
ENDROOT
BRANCH   1   2
ATOM      2  C   UNL A   1      34.623  24.536  25.459  1.00  0.00     0.116 C 
BRANCH   2   3
ATOM      3  N   UNL A   1      34.614  24.137  24.064  1.00  0.00    -0.352 N 
ATOM      4  C   UNL A   1      33.706  24.195  23.039  1.00  0.00     0.251 C 
ATOM      5  O   UNL A   1      34.022  23.610  22.001  1.00  0.00    -0.269 OA
ATOM      6  H   UNL A   1      35.465  23.726  23.787  1.00  0.00     0.163 HD
BRANCH   4   7
ATOM      7  C   UNL A   1      32.415  24.954  23.059  1.00  0.00     0.041 A 
ATOM      8  C   UNL A   1      31.343  27.137  23.426  1.00  0.00     0.107 A 
ATOM      9  C   UNL A   1      32.497  26.341  23.280  1.00  0.00     0.037 A 
ATOM     10  C   UNL A   1      30.098  26.526  23.512  1.00  0.00     0.061 A 
ATOM     11  C   UNL A   1      29.998  25.177  23.166  1.00  0.00     0.023 A 
ATOM     12  Cl  UNL A   1      28.651  27.340  23.971  1.00  0.00    -0.083 Cl
ATOM     13  C   UNL A   1      31.143  24.417  22.878  1.00  0.00     0.015 A 
BRANCH   8  14
ATOM     14  S   UNL A   1      31.544  28.895  23.257  1.00  0.00     0.265 S 
ATOM     15  O   UNL A   1      30.469  29.362  22.400  1.00  0.00    -0.201 OA
ATOM     16  O   UNL A   1      32.919  29.121  22.900  1.00  0.00    -0.201 OA
BRANCH  14  17
ATOM     17  N   UNL A   1      31.305  29.648  24.725  1.00  0.00    -0.255 N 
ATOM     18  H   UNL A   1      30.488  30.185  24.840  1.00  0.00     0.182 HD
BRANCH  17  19
ATOM     19  C   UNL A   1      32.196  29.565  25.812  1.00  0.00     0.197 A 
ATOM     20  C   UNL A   1      37.879  30.082  27.882  1.00  0.00     0.044 C 
ATOM     21  C   UNL A   1      36.389  30.198  27.727  1.00  0.00    -0.049 A 
ATOM     22  C   UNL A   1      35.759  31.421  27.983  1.00  0.00     0.009 A 
ATOM     23  C   UNL A   1      35.639  29.111  27.260  1.00  0.00     0.024 A 
ATOM     24  C   UNL A   1      34.392  31.626  27.709  1.00  0.00    -0.024 A 
ATOM     25  C   UNL A   1      34.290  29.326  26.945  1.00  0.00     0.057 A 
ATOM     26  C   UNL A   1      33.755  32.950  28.016  1.00  0.00     0.047 C 
ATOM     27  C   UNL A   1      33.686  30.579  27.071  1.00  0.00     0.087 A 
ATOM     28  S   UNL A   1      33.096  28.222  26.355  1.00  0.00    -0.096 S 
ATOM     29  N   UNL A   1      32.446  30.681  26.456  1.00  0.00    -0.219 NA
ENDBRANCH  17  19
ENDBRANCH  14  17
ENDBRANCH   8  14
ENDBRANCH   4   7
ENDBRANCH   2   3
ENDBRANCH   1   2
BRANCH   1  30
ATOM     30  C   UNL A   1      36.061  22.404  25.483  1.00  0.00     0.023 C 
BRANCH  30  31
ATOM     31  C   UNL A   1      37.565  22.618  25.306  1.00  0.00     0.116 C 
BRANCH  31  32
ATOM     32  N   UNL A   1      38.358  21.648  26.058  1.00  0.00    -0.352 N 
ATOM     33  C   UNL A   1      39.547  21.847  26.729  1.00  0.00     0.251 C 
ATOM     34  H   UNL A   1      37.998  20.732  26.088  1.00  0.00     0.163 HD
ATOM     35  O   UNL A   1      40.274  20.899  27.005  1.00  0.00    -0.269 OA
BRANCH  33  36
ATOM     36  C   UNL A   1      39.926  23.217  27.111  1.00  0.00     0.039 A 
ATOM     37  C   UNL A   1      38.962  24.224  27.217  1.00  0.00     0.014 A 
ATOM     38  C   UNL A   1      41.263  23.476  27.406  1.00  0.00     0.014 A 
ATOM     39  C   UNL A   1      39.338  25.471  27.716  1.00  0.00     0.010 A 
ATOM     40  C   UNL A   1      41.609  24.670  27.999  1.00  0.00     0.010 A 
ATOM     41  C   UNL A   1      40.660  25.686  28.133  1.00  0.00    -0.014 A 
BRANCH  41  42
ATOM     42  C   UNL A   1      41.027  26.929  28.818  1.00  0.00     0.031 A 
ATOM     43  C   UNL A   1      42.189  27.679  28.245  1.00  0.00     0.074 A 
ATOM     44  C   UNL A   1      40.235  27.518  29.741  1.00  0.00     0.049 A 
ATOM     45  N   UNL A   1      43.294  28.016  28.826  1.00  0.00    -0.248 NA
ATOM     46  C   UNL A   1      42.139  28.036  26.816  1.00  0.00     0.031 C 
ATOM     47  C   UNL A   1      38.901  27.097  30.186  1.00  0.00     0.029 A 
ATOM     48  N   UNL A   1      40.396  28.716  30.371  1.00  0.00    -0.354 N 
ATOM     49  C   UNL A   1      44.008  28.779  27.902  1.00  0.00     0.074 A 
ATOM     50  C   UNL A   1      43.314  28.643  26.646  1.00  0.00     0.031 C 
ATOM     51  C   UNL A   1      38.276  28.138  30.779  1.00  0.00     0.029 A 
ATOM     52  C   UNL A   1      39.226  29.224  30.924  1.00  0.00     0.049 A 
ATOM     53  H   UNL A   1      41.262  29.180  30.428  1.00  0.00     0.167 HD
ATOM     54  C   UNL A   1      45.011  29.628  28.266  1.00  0.00     0.031 A 
ATOM     55  C   UNL A   1      39.036  30.468  31.427  1.00  0.00     0.031 A 
ATOM     56  C   UNL A   1      45.445  29.407  29.618  1.00  0.00     0.049 A 
ATOM     57  C   UNL A   1      40.372  31.021  31.742  1.00  0.00     0.074 A 
ATOM     58  C   UNL A   1      46.016  28.355  30.303  1.00  0.00     0.029 A 
ATOM     59  N   UNL A   1      44.965  30.268  30.575  1.00  0.00    -0.354 N 
ATOM     60  N   UNL A   1      41.157  30.531  32.660  1.00  0.00    -0.248 NA
ATOM     61  C   UNL A   1      41.016  31.885  30.768  1.00  0.00     0.031 C 
ATOM     62  C   UNL A   1      45.432  28.403  31.602  1.00  0.00     0.029 A 
ATOM     63  C   UNL A   1      44.582  29.511  31.651  1.00  0.00     0.049 A 
ATOM     64  H   UNL A   1      44.907  31.248  30.502  1.00  0.00     0.167 HD
ATOM     65  C   UNL A   1      42.436  30.670  32.144  1.00  0.00     0.074 A 
ATOM     66  C   UNL A   1      42.295  31.617  31.041  1.00  0.00     0.031 C 
ATOM     67  C   UNL A   1      43.432  29.800  32.484  1.00  0.00     0.031 A 
BRANCH  54  68
ATOM     68  C   UNL A   1      45.360  30.896  27.522  1.00  0.00    -0.014 A 
ATOM     69  C   UNL A   1      46.704  31.147  27.173  1.00  0.00     0.010 A 
ATOM     70  C   UNL A   1      44.456  31.970  27.396  1.00  0.00     0.010 A 
ATOM     71  C   UNL A   1      47.127  32.423  26.770  1.00  0.00     0.020 A 
ATOM     72  C   UNL A   1      44.858  33.233  26.954  1.00  0.00     0.020 A 
ATOM     73  C   UNL A   1      46.200  33.462  26.676  1.00  0.00     0.054 A 
BRANCH  73  74
ATOM     74  S   UNL A   1      46.771  35.130  26.262  1.00  0.00     0.124 S 
ATOM     75  O   UNL A   1      45.512  35.837  26.055  1.00  0.00    -0.237 OA
ATOM     76  O   UNL A   1      47.520  35.506  27.458  1.00  0.00    -0.237 OA
ATOM     77  O   UNL A   1      47.582  34.925  25.064  1.00  0.00    -0.744 OA
ENDBRANCH  73  74
ENDBRANCH  54  68
BRANCH  55  78
ATOM     78  C   UNL A   1      37.813  31.307  31.368  1.00  0.00    -0.014 A 
ATOM     79  C   UNL A   1      36.721  31.036  32.211  1.00  0.00     0.010 A 
ATOM     80  C   UNL A   1      37.836  32.548  30.698  1.00  0.00     0.010 A 
ATOM     81  C   UNL A   1      35.732  32.005  32.445  1.00  0.00     0.020 A 
ATOM     82  C   UNL A   1      36.849  33.516  30.918  1.00  0.00     0.020 A 
ATOM     83  C   UNL A   1      35.820  33.251  31.819  1.00  0.00     0.054 A 
BRANCH  83  84
ATOM     84  S   UNL A   1      34.662  34.567  32.296  1.00  0.00     0.124 S 
ATOM     85  O   UNL A   1      35.492  35.420  33.142  1.00  0.00    -0.237 OA
ATOM     86  O   UNL A   1      34.281  35.134  31.005  1.00  0.00    -0.237 OA
ATOM     87  O   UNL A   1      33.595  33.850  32.993  1.00  0.00    -0.744 OA
ENDBRANCH  83  84
ENDBRANCH  55  78
BRANCH  67  88
ATOM     88  C   UNL A   1      43.216  28.884  33.668  1.00  0.00    -0.014 A 
ATOM     89  C   UNL A   1      43.602  29.201  34.985  1.00  0.00     0.010 A 
ATOM     90  C   UNL A   1      42.448  27.724  33.458  1.00  0.00     0.010 A 
ATOM     91  C   UNL A   1      43.246  28.369  36.058  1.00  0.00     0.020 A 
ATOM     92  C   UNL A   1      42.075  26.902  34.524  1.00  0.00     0.020 A 
ATOM     93  C   UNL A   1      42.480  27.224  35.819  1.00  0.00     0.054 A 
BRANCH  93  94
ATOM     94  S   UNL A   1      41.973  26.183  37.217  1.00  0.00     0.124 S 
ATOM     95  O   UNL A   1      43.039  26.410  38.187  1.00  0.00    -0.237 OA
ATOM     96  O   UNL A   1      40.668  26.735  37.576  1.00  0.00    -0.237 OA
ATOM     97  O   UNL A   1      41.930  24.835  36.649  1.00  0.00    -0.744 OA
ENDBRANCH  93  94
ENDBRANCH  67  88
ENDBRANCH  41  42
ENDBRANCH  33  36
ENDBRANCH  31  32
ENDBRANCH  30  31
ENDBRANCH   1  30
TORSDOF 17
ENDMDL
MODEL 2
REMARK VINA RESULT:     -12.7      2.152      3.559
REMARK SMILES Cc1cc(C)c2nc(NS(=O)(=O)c3cc(C(=O)NCCCCNC(=O)c4ccc(-c5c6nc(c(-c7ccc(S(=O)(=O)[O-])cc7)c7ccc([nH]7)c(-c7ccc(S(=O)(=O)[O-])cc7)c7nc(c(-c8ccc(S(=O)(=O)[O-])cc8)c8ccc5[nH]8)C=C7)C=C6)cc4)ccc3Cl)sc2c1
REMARK SMILES IDX 20 1 19 2 18 3 16 4 17 5 15 7 13 8 14 9 88 10 87 11 89 12
REMARK SMILES IDX 86 13 10 14 11 15 12 16 9 17 8 19 1 20 2 21 3 22 92 23 4 24
REMARK SMILES IDX 91 25 5 26 6 27 90 28 7 29 21 30 22 31 23 32 24 33 25 35
REMARK SMILES IDX 26 36 27 37 85 38 28 39 84 40 29 41 30 42 31 43 78 44 32 45
REMARK SMILES IDX 83 46 77 47 79 48 33 49 82 50 76 51 75 52 34 54 64 55 45 56
REMARK SMILES IDX 63 57 46 58 49 59 62 60 80 61 47 62 48 63 61 65 81 66 50 67
REMARK SMILES IDX 35 68 36 69 44 70 37 71 43 72 38 73 39 74 40 75 41 76 42 77
REMARK SMILES IDX 65 78 66 79 74 80 67 81 73 82 68 83 69 84 70 85 71 86 72 87
REMARK SMILES IDX 51 88 52 89 60 90 53 91 59 92 54 93 55 94 56 95 57 96 58 97
REMARK H PARENT 18 6 9 18 23 34 79 53 49 64
REMARK Flexibility Score: inf
ROOT
ATOM      1  C   UNL A   1      39.409  21.206  26.153  1.00  0.00     0.023 C 
ENDROOT
BRANCH   1   2
ATOM      2  C   UNL A   1      38.371  21.916  25.278  1.00  0.00     0.116 C 
BRANCH   2   3
ATOM      3  N   UNL A   1      37.162  21.119  25.178  1.00  0.00    -0.352 N 
ATOM      4  C   UNL A   1      35.821  21.390  25.096  1.00  0.00     0.251 C 
ATOM      5  O   UNL A   1      35.067  20.417  25.168  1.00  0.00    -0.269 OA
ATOM      6  H   UNL A   1      37.350  20.153  25.166  1.00  0.00     0.163 HD
BRANCH   4   7
ATOM      7  C   UNL A   1      35.215  22.739  24.864  1.00  0.00     0.041 A 
ATOM      8  C   UNL A   1      34.163  24.243  23.227  1.00  0.00     0.107 A 
ATOM      9  C   UNL A   1      34.662  22.977  23.592  1.00  0.00     0.037 A 
ATOM     10  C   UNL A   1      34.359  25.326  24.075  1.00  0.00     0.061 A 
ATOM     11  C   UNL A   1      34.786  25.074  25.381  1.00  0.00     0.023 A 
ATOM     12  Cl  UNL A   1      34.061  26.965  23.637  1.00  0.00    -0.083 Cl
ATOM     13  C   UNL A   1      35.147  23.779  25.787  1.00  0.00     0.015 A 
BRANCH   8  14
ATOM     14  S   UNL A   1      33.107  24.318  21.799  1.00  0.00     0.265 S 
ATOM     15  O   UNL A   1      33.253  23.053  21.099  1.00  0.00    -0.201 OA
ATOM     16  O   UNL A   1      33.396  25.562  21.136  1.00  0.00    -0.201 OA
BRANCH  14  17
ATOM     17  N   UNL A   1      31.508  24.389  22.265  1.00  0.00    -0.255 N 
ATOM     18  H   UNL A   1      30.875  23.765  21.839  1.00  0.00     0.182 HD
BRANCH  17  19
ATOM     19  C   UNL A   1      31.003  25.281  23.228  1.00  0.00     0.197 A 
ATOM     20  C   UNL A   1      32.099  29.642  27.308  1.00  0.00     0.044 C 
ATOM     21  C   UNL A   1      31.514  28.846  26.175  1.00  0.00    -0.049 A 
ATOM     22  C   UNL A   1      31.153  29.492  24.987  1.00  0.00     0.009 A 
ATOM     23  C   UNL A   1      31.394  27.454  26.276  1.00  0.00     0.024 A 
ATOM     24  C   UNL A   1      30.743  28.777  23.845  1.00  0.00    -0.024 A 
ATOM     25  C   UNL A   1      31.029  26.738  25.127  1.00  0.00     0.057 A 
ATOM     26  C   UNL A   1      30.348  29.515  22.598  1.00  0.00     0.047 C 
ATOM     27  C   UNL A   1      30.797  27.364  23.901  1.00  0.00     0.087 A 
ATOM     28  S   UNL A   1      30.794  25.038  24.904  1.00  0.00    -0.096 S 
ATOM     29  N   UNL A   1      30.727  26.497  22.819  1.00  0.00    -0.219 NA
ENDBRANCH  17  19
ENDBRANCH  14  17
ENDBRANCH   8  14
ENDBRANCH   4   7
ENDBRANCH   2   3
ENDBRANCH   1   2
BRANCH   1  30
ATOM     30  C   UNL A   1      40.036  22.110  27.229  1.00  0.00     0.023 C 
BRANCH  30  31
ATOM     31  C   UNL A   1      41.506  21.811  27.526  1.00  0.00     0.116 C 
BRANCH  31  32
ATOM     32  N   UNL A   1      42.332  21.824  26.322  1.00  0.00    -0.352 N 
ATOM     33  C   UNL A   1      42.691  22.903  25.538  1.00  0.00     0.251 C 
ATOM     34  H   UNL A   1      42.676  20.950  26.029  1.00  0.00     0.163 HD
ATOM     35  O   UNL A   1      43.074  22.737  24.386  1.00  0.00    -0.269 OA
BRANCH  33  36
ATOM     36  C   UNL A   1      42.608  24.256  26.112  1.00  0.00     0.039 A 
ATOM     37  C   UNL A   1      41.572  25.124  25.754  1.00  0.00     0.014 A 
ATOM     38  C   UNL A   1      43.562  24.634  27.054  1.00  0.00     0.014 A 
ATOM     39  C   UNL A   1      41.448  26.342  26.422  1.00  0.00     0.010 A 
ATOM     40  C   UNL A   1      43.374  25.786  27.787  1.00  0.00     0.010 A 
ATOM     41  C   UNL A   1      42.337  26.661  27.460  1.00  0.00    -0.014 A 
BRANCH  41  42
ATOM     42  C   UNL A   1      42.113  27.854  28.284  1.00  0.00     0.031 A 
ATOM     43  C   UNL A   1      43.139  28.936  28.168  1.00  0.00     0.074 A 
ATOM     44  C   UNL A   1      40.943  28.100  28.914  1.00  0.00     0.049 A 
ATOM     45  N   UNL A   1      43.871  29.455  29.101  1.00  0.00    -0.248 NA
ATOM     46  C   UNL A   1      43.439  29.459  26.822  1.00  0.00     0.031 C 
ATOM     47  C   UNL A   1      39.708  27.307  28.867  1.00  0.00     0.029 A 
ATOM     48  N   UNL A   1      40.562  29.204  29.615  1.00  0.00    -0.354 N 
ATOM     49  C   UNL A   1      44.595  30.486  28.504  1.00  0.00     0.074 A 
ATOM     50  C   UNL A   1      44.392  30.354  27.084  1.00  0.00     0.031 C 
ATOM     51  C   UNL A   1      38.668  28.072  29.263  1.00  0.00     0.029 A 
ATOM     52  C   UNL A   1      39.186  29.329  29.767  1.00  0.00     0.049 A 
ATOM     53  H   UNL A   1      41.203  29.855  29.980  1.00  0.00     0.167 HD
ATOM     54  C   UNL A   1      45.159  31.500  29.222  1.00  0.00     0.031 A 
ATOM     55  C   UNL A   1      38.512  30.408  30.233  1.00  0.00     0.031 A 
ATOM     56  C   UNL A   1      45.195  31.214  30.630  1.00  0.00     0.049 A 
ATOM     57  C   UNL A   1      39.476  31.226  31.002  1.00  0.00     0.074 A 
ATOM     58  C   UNL A   1      45.794  30.253  31.418  1.00  0.00     0.029 A 
ATOM     59  N   UNL A   1      44.223  31.793  31.409  1.00  0.00    -0.354 N 
ATOM     60  N   UNL A   1      40.040  30.827  32.107  1.00  0.00    -0.248 NA
ATOM     61  C   UNL A   1      40.124  32.346  30.340  1.00  0.00     0.031 C 
ATOM     62  C   UNL A   1      44.846  29.981  32.447  1.00  0.00     0.029 A 
ATOM     63  C   UNL A   1      43.751  30.828  32.259  1.00  0.00     0.049 A 
ATOM     64  H   UNL A   1      43.921  32.730  31.365  1.00  0.00     0.167 HD
ATOM     65  C   UNL A   1      41.325  31.345  32.056  1.00  0.00     0.074 A 
ATOM     66  C   UNL A   1      41.277  32.367  31.015  1.00  0.00     0.031 C 
ATOM     67  C   UNL A   1      42.367  30.710  32.670  1.00  0.00     0.031 A 
BRANCH  54  68
ATOM     68  C   UNL A   1      45.357  32.903  28.697  1.00  0.00    -0.014 A 
ATOM     69  C   UNL A   1      46.628  33.508  28.794  1.00  0.00     0.010 A 
ATOM     70  C   UNL A   1      44.275  33.742  28.360  1.00  0.00     0.010 A 
ATOM     71  C   UNL A   1      46.794  34.889  28.616  1.00  0.00     0.020 A 
ATOM     72  C   UNL A   1      44.436  35.112  28.138  1.00  0.00     0.020 A 
ATOM     73  C   UNL A   1      45.691  35.685  28.300  1.00  0.00     0.054 A 
BRANCH  73  74
ATOM     74  S   UNL A   1      45.893  37.480  28.180  1.00  0.00     0.124 S 
ATOM     75  O   UNL A   1      47.285  37.599  27.760  1.00  0.00    -0.237 OA
ATOM     76  O   UNL A   1      44.894  37.837  27.177  1.00  0.00    -0.237 OA
ATOM     77  O   UNL A   1      45.603  37.947  29.534  1.00  0.00    -0.744 OA
ENDBRANCH  73  74
ENDBRANCH  54  68
BRANCH  55  78
ATOM     78  C   UNL A   1      37.186  30.920  29.805  1.00  0.00    -0.014 A 
ATOM     79  C   UNL A   1      36.326  31.534  30.733  1.00  0.00     0.010 A 
ATOM     80  C   UNL A   1      36.893  31.073  28.434  1.00  0.00     0.010 A 
ATOM     81  C   UNL A   1      35.263  32.344  30.304  1.00  0.00     0.020 A 
ATOM     82  C   UNL A   1      35.828  31.871  27.999  1.00  0.00     0.020 A 
ATOM     83  C   UNL A   1      35.039  32.531  28.938  1.00  0.00     0.054 A 
BRANCH  83  84
ATOM     84  S   UNL A   1      33.804  33.750  28.399  1.00  0.00     0.124 S 
ATOM     85  O   UNL A   1      33.275  34.239  29.670  1.00  0.00    -0.237 OA
ATOM     86  O   UNL A   1      34.611  34.701  27.641  1.00  0.00    -0.237 OA
ATOM     87  O   UNL A   1      32.868  32.960  27.600  1.00  0.00    -0.744 OA
ENDBRANCH  83  84
ENDBRANCH  55  78
BRANCH  67  88
ATOM     88  C   UNL A   1      42.057  29.618  33.671  1.00  0.00    -0.014 A 
ATOM     89  C   UNL A   1      41.889  28.263  33.324  1.00  0.00     0.010 A 
ATOM     90  C   UNL A   1      42.093  29.959  35.034  1.00  0.00     0.010 A 
ATOM     91  C   UNL A   1      41.743  27.282  34.317  1.00  0.00     0.020 A 
ATOM     92  C   UNL A   1      41.967  28.985  36.027  1.00  0.00     0.020 A 
ATOM     93  C   UNL A   1      41.786  27.651  35.664  1.00  0.00     0.054 A 
BRANCH  93  94
ATOM     94  S   UNL A   1      41.655  26.370  36.944  1.00  0.00     0.124 S 
ATOM     95  O   UNL A   1      40.458  26.773  37.678  1.00  0.00    -0.237 OA
ATOM     96  O   UNL A   1      41.530  25.142  36.163  1.00  0.00    -0.237 OA
ATOM     97  O   UNL A   1      42.908  26.494  37.690  1.00  0.00    -0.744 OA
ENDBRANCH  93  94
ENDBRANCH  67  88
ENDBRANCH  41  42
ENDBRANCH  33  36
ENDBRANCH  31  32
ENDBRANCH  30  31
ENDBRANCH   1  30
TORSDOF 17
ENDMDL
MODEL 3
REMARK VINA RESULT:     -12.2      2.488      4.936
REMARK SMILES Cc1cc(C)c2nc(NS(=O)(=O)c3cc(C(=O)NCCCCNC(=O)c4ccc(-c5c6nc(c(-c7ccc(S(=O)(=O)[O-])cc7)c7ccc([nH]7)c(-c7ccc(S(=O)(=O)[O-])cc7)c7nc(c(-c8ccc(S(=O)(=O)[O-])cc8)c8ccc5[nH]8)C=C7)C=C6)cc4)ccc3Cl)sc2c1
REMARK SMILES IDX 20 1 19 2 18 3 16 4 17 5 15 7 13 8 14 9 88 10 87 11 89 12
REMARK SMILES IDX 86 13 10 14 11 15 12 16 9 17 8 19 1 20 2 21 3 22 92 23 4 24
REMARK SMILES IDX 91 25 5 26 6 27 90 28 7 29 21 30 22 31 23 32 24 33 25 35
REMARK SMILES IDX 26 36 27 37 85 38 28 39 84 40 29 41 30 42 31 43 78 44 32 45
REMARK SMILES IDX 83 46 77 47 79 48 33 49 82 50 76 51 75 52 34 54 64 55 45 56
REMARK SMILES IDX 63 57 46 58 49 59 62 60 80 61 47 62 48 63 61 65 81 66 50 67
REMARK SMILES IDX 35 68 36 69 44 70 37 71 43 72 38 73 39 74 40 75 41 76 42 77
REMARK SMILES IDX 65 78 66 79 74 80 67 81 73 82 68 83 69 84 70 85 71 86 72 87
REMARK SMILES IDX 51 88 52 89 60 90 53 91 59 92 54 93 55 94 56 95 57 96 58 97
REMARK H PARENT 18 6 9 18 23 34 79 53 49 64
REMARK Flexibility Score: inf
ROOT
ATOM      1  C   UNL A   1      39.683  23.023  27.247  1.00  0.00     0.023 C 
ENDROOT
BRANCH   1   2
ATOM      2  C   UNL A   1      38.756  23.776  26.287  1.00  0.00     0.116 C 
BRANCH   2   3
ATOM      3  N   UNL A   1      38.262  22.883  25.255  1.00  0.00    -0.352 N 
ATOM      4  C   UNL A   1      37.047  22.655  24.664  1.00  0.00     0.251 C 
ATOM      5  O   UNL A   1      36.989  21.689  23.900  1.00  0.00    -0.269 OA
ATOM      6  H   UNL A   1      38.970  22.302  24.893  1.00  0.00     0.163 HD
BRANCH   4   7
ATOM      7  C   UNL A   1      35.827  23.510  24.817  1.00  0.00     0.041 A 
ATOM      8  C   UNL A   1      34.008  24.689  23.655  1.00  0.00     0.107 A 
ATOM      9  C   UNL A   1      35.107  23.807  23.645  1.00  0.00     0.037 A 
ATOM     10  C   UNL A   1      33.718  25.407  24.809  1.00  0.00     0.061 A 
ATOM     11  C   UNL A   1      34.340  25.024  26.000  1.00  0.00     0.023 A 
ATOM     12  Cl  UNL A   1      32.597  26.713  24.879  1.00  0.00    -0.083 Cl
ATOM     13  C   UNL A   1      35.338  24.037  26.010  1.00  0.00     0.015 A 
BRANCH   8  14
ATOM     14  S   UNL A   1      32.923  24.647  22.249  1.00  0.00     0.265 S 
ATOM     15  O   UNL A   1      33.505  25.514  21.239  1.00  0.00    -0.201 OA
ATOM     16  O   UNL A   1      31.593  24.887  22.745  1.00  0.00    -0.201 OA
BRANCH  14  17
ATOM     17  N   UNL A   1      32.909  23.122  21.573  1.00  0.00    -0.255 N 
ATOM     18  H   UNL A   1      33.282  23.015  20.668  1.00  0.00     0.182 HD
BRANCH  17  19
ATOM     19  C   UNL A   1      32.399  21.978  22.213  1.00  0.00     0.197 A 
ATOM     20  C   UNL A   1      33.361  16.344  24.260  1.00  0.00     0.044 C 
ATOM     21  C   UNL A   1      32.947  17.785  24.154  1.00  0.00    -0.049 A 
ATOM     22  C   UNL A   1      33.141  18.643  25.243  1.00  0.00     0.009 A 
ATOM     23  C   UNL A   1      32.436  18.288  22.952  1.00  0.00     0.024 A 
ATOM     24  C   UNL A   1      32.912  20.030  25.148  1.00  0.00    -0.024 A 
ATOM     25  C   UNL A   1      32.250  19.674  22.842  1.00  0.00     0.057 A 
ATOM     26  C   UNL A   1      33.116  20.909  26.347  1.00  0.00     0.047 C 
ATOM     27  C   UNL A   1      32.567  20.553  23.879  1.00  0.00     0.087 A 
ATOM     28  S   UNL A   1      31.646  20.612  21.520  1.00  0.00    -0.096 S 
ATOM     29  N   UNL A   1      32.592  21.890  23.508  1.00  0.00    -0.219 NA
ENDBRANCH  17  19
ENDBRANCH  14  17
ENDBRANCH   8  14
ENDBRANCH   4   7
ENDBRANCH   2   3
ENDBRANCH   1   2
BRANCH   1  30
ATOM     30  C   UNL A   1      40.016  21.591  26.793  1.00  0.00     0.023 C 
BRANCH  30  31
ATOM     31  C   UNL A   1      41.287  21.011  27.416  1.00  0.00     0.116 C 
BRANCH  31  32
ATOM     32  N   UNL A   1      42.373  20.880  26.448  1.00  0.00    -0.352 N 
ATOM     33  C   UNL A   1      43.100  21.879  25.833  1.00  0.00     0.251 C 
ATOM     34  H   UNL A   1      42.617  19.960  26.200  1.00  0.00     0.163 HD
ATOM     35  O   UNL A   1      43.719  21.654  24.799  1.00  0.00    -0.269 OA
BRANCH  33  36
ATOM     36  C   UNL A   1      43.121  23.220  26.442  1.00  0.00     0.039 A 
ATOM     37  C   UNL A   1      42.552  24.314  25.784  1.00  0.00     0.014 A 
ATOM     38  C   UNL A   1      43.683  23.362  27.708  1.00  0.00     0.014 A 
ATOM     39  C   UNL A   1      42.467  25.535  26.452  1.00  0.00     0.010 A 
ATOM     40  C   UNL A   1      43.501  24.536  28.404  1.00  0.00     0.010 A 
ATOM     41  C   UNL A   1      42.920  25.639  27.776  1.00  0.00    -0.014 A 
BRANCH  41  42
ATOM     42  C   UNL A   1      42.678  26.863  28.547  1.00  0.00     0.031 A 
ATOM     43  C   UNL A   1      43.729  27.924  28.444  1.00  0.00     0.074 A 
ATOM     44  C   UNL A   1      41.484  27.152  29.109  1.00  0.00     0.049 A 
ATOM     45  N   UNL A   1      44.424  28.462  29.394  1.00  0.00    -0.248 NA
ATOM     46  C   UNL A   1      44.104  28.393  27.098  1.00  0.00     0.031 C 
ATOM     47  C   UNL A   1      40.238  26.379  29.028  1.00  0.00     0.029 A 
ATOM     48  N   UNL A   1      41.090  28.286  29.752  1.00  0.00    -0.354 N 
ATOM     49  C   UNL A   1      45.196  29.460  28.799  1.00  0.00     0.074 A 
ATOM     50  C   UNL A   1      45.060  29.281  27.375  1.00  0.00     0.031 C 
ATOM     51  C   UNL A   1      39.194  27.175  29.346  1.00  0.00     0.029 A 
ATOM     52  C   UNL A   1      39.710  28.441  29.831  1.00  0.00     0.049 A 
ATOM     53  H   UNL A   1      41.724  28.939  30.126  1.00  0.00     0.167 HD
ATOM     54  C   UNL A   1      45.743  30.489  29.508  1.00  0.00     0.031 A 
ATOM     55  C   UNL A   1      39.035  29.546  30.225  1.00  0.00     0.031 A 
ATOM     56  C   UNL A   1      45.705  30.252  30.925  1.00  0.00     0.049 A 
ATOM     57  C   UNL A   1      39.975  30.375  31.013  1.00  0.00     0.074 A 
ATOM     58  C   UNL A   1      46.246  29.310  31.774  1.00  0.00     0.029 A 
ATOM     59  N   UNL A   1      44.707  30.875  31.634  1.00  0.00    -0.354 N 
ATOM     60  N   UNL A   1      40.477  30.005  32.157  1.00  0.00    -0.248 NA
ATOM     61  C   UNL A   1      40.676  31.459  30.345  1.00  0.00     0.031 C 
ATOM     62  C   UNL A   1      45.244  29.090  32.764  1.00  0.00     0.029 A 
ATOM     63  C   UNL A   1      44.175  29.948  32.492  1.00  0.00     0.049 A 
ATOM     64  H   UNL A   1      44.425  31.814  31.543  1.00  0.00     0.167 HD
ATOM     65  C   UNL A   1      41.773  30.499  32.152  1.00  0.00     0.074 A 
ATOM     66  C   UNL A   1      41.795  31.484  31.075  1.00  0.00     0.031 C 
ATOM     67  C   UNL A   1      42.771  29.869  32.839  1.00  0.00     0.031 A 
BRANCH  54  68
ATOM     68  C   UNL A   1      45.992  31.868  28.945  1.00  0.00    -0.014 A 
ATOM     69  C   UNL A   1      44.908  32.619  28.442  1.00  0.00     0.010 A 
ATOM     70  C   UNL A   1      47.287  32.338  28.646  1.00  0.00     0.010 A 
ATOM     71  C   UNL A   1      45.114  33.750  27.638  1.00  0.00     0.020 A 
ATOM     72  C   UNL A   1      47.504  33.488  27.883  1.00  0.00     0.020 A 
ATOM     73  C   UNL A   1      46.415  34.170  27.354  1.00  0.00     0.054 A 
BRANCH  73  74
ATOM     74  S   UNL A   1      46.674  35.563  26.227  1.00  0.00     0.124 S 
ATOM     75  O   UNL A   1      45.354  36.183  26.205  1.00  0.00    -0.237 OA
ATOM     76  O   UNL A   1      47.720  36.321  26.908  1.00  0.00    -0.237 OA
ATOM     77  O   UNL A   1      47.089  34.922  24.981  1.00  0.00    -0.744 OA
ENDBRANCH  73  74
ENDBRANCH  54  68
BRANCH  55  78
ATOM     78  C   UNL A   1      37.741  30.065  29.715  1.00  0.00    -0.014 A 
ATOM     79  C   UNL A   1      36.751  30.512  30.607  1.00  0.00     0.010 A 
ATOM     80  C   UNL A   1      37.598  30.399  28.352  1.00  0.00     0.010 A 
ATOM     81  C   UNL A   1      35.702  31.335  30.168  1.00  0.00     0.020 A 
ATOM     82  C   UNL A   1      36.550  31.211  27.904  1.00  0.00     0.020 A 
ATOM     83  C   UNL A   1      35.626  31.704  28.823  1.00  0.00     0.054 A 
BRANCH  83  84
ATOM     84  S   UNL A   1      34.398  32.941  28.310  1.00  0.00     0.124 S 
ATOM     85  O   UNL A   1      33.431  32.132  27.572  1.00  0.00    -0.237 OA
ATOM     86  O   UNL A   1      33.934  33.472  29.588  1.00  0.00    -0.237 OA
ATOM     87  O   UNL A   1      35.172  33.877  27.497  1.00  0.00    -0.744 OA
ENDBRANCH  83  84
ENDBRANCH  55  78
BRANCH  67  88
ATOM     88  C   UNL A   1      42.391  28.819  33.859  1.00  0.00    -0.014 A 
ATOM     89  C   UNL A   1      42.451  27.432  33.616  1.00  0.00     0.010 A 
ATOM     90  C   UNL A   1      42.115  29.256  35.167  1.00  0.00     0.010 A 
ATOM     91  C   UNL A   1      42.221  26.512  34.650  1.00  0.00     0.020 A 
ATOM     92  C   UNL A   1      41.903  28.345  36.205  1.00  0.00     0.020 A 
ATOM     93  C   UNL A   1      41.951  26.977  35.941  1.00  0.00     0.054 A 
BRANCH  93  94
ATOM     94  S   UNL A   1      41.711  25.782  37.287  1.00  0.00     0.124 S 
ATOM     95  O   UNL A   1      40.354  26.077  37.738  1.00  0.00    -0.237 OA
ATOM     96  O   UNL A   1      41.885  24.497  36.615  1.00  0.00    -0.237 OA
ATOM     97  O   UNL A   1      42.766  26.118  38.243  1.00  0.00    -0.744 OA
ENDBRANCH  93  94
ENDBRANCH  67  88
ENDBRANCH  41  42
ENDBRANCH  33  36
ENDBRANCH  31  32
ENDBRANCH  30  31
ENDBRANCH   1  30
TORSDOF 17
ENDMDL
