MODEL 1
REMARK VINA RESULT:     -10.5      0.000      0.000
REMARK SMILES Cc1cccn2c(=O)cc(C[N@@H+](C)CC(=O)NCCCCNC(=O)c3ccc(-c4c5nc(c(-c6ccc(S(=O)(=O)[O-])cc6)c6ccc([nH]6)c(-c6ccc(S(=O)(=O)[O-])cc6)c6nc(c(-c7ccc(S(=O)(=O)[O-])cc7)c7ccc4[nH]7)C=C6)C=C5)cc3)nc12
REMARK SMILES IDX 19 1 18 2 17 3 15 4 16 5 14 7 12 8 13 9 11 11 10 12 1 13
REMARK SMILES IDX 2 14 3 15 86 16 4 17 6 18 85 19 5 20 7 21 8 22 9 23 20 24
REMARK SMILES IDX 21 25 22 26 23 27 24 29 25 30 26 31 84 32 27 33 83 34 28 35
REMARK SMILES IDX 29 36 30 37 77 38 31 39 82 40 76 41 78 42 32 43 81 44 75 45
REMARK SMILES IDX 74 46 33 48 63 49 44 50 62 51 45 52 48 53 61 54 79 55 46 56
REMARK SMILES IDX 47 57 60 59 80 60 49 61 34 62 35 63 43 64 36 65 42 66 37 67
REMARK SMILES IDX 38 68 39 69 40 70 41 71 64 72 65 73 73 74 66 75 72 76 67 77
REMARK SMILES IDX 68 78 69 79 70 80 71 81 50 82 51 83 59 84 52 85 58 86 53 87
REMARK SMILES IDX 54 88 55 89 56 90 57 91
REMARK H PARENT 17 6 12 10 22 28 78 47 48 58
REMARK Flexibility Score: inf
ROOT
ATOM      1  C   UNL A   1      34.311  32.271  28.473  1.00  0.00     0.023 C 
ENDROOT
BRANCH   1   2
ATOM      2  C   UNL A   1      34.742  33.662  28.010  1.00  0.00     0.116 C 
BRANCH   2   3
ATOM      3  N   UNL A   1      33.641  34.594  28.095  1.00  0.00    -0.351 N 
ATOM      4  C   UNL A   1      33.282  35.400  29.134  1.00  0.00     0.275 C 
ATOM      5  O   UNL A   1      32.212  36.008  29.044  1.00  0.00    -0.269 OA
ATOM      6  H   UNL A   1      33.074  34.657  27.293  1.00  0.00     0.163 HD
BRANCH   4   7
ATOM      7  C   UNL A   1      34.188  35.555  30.359  1.00  0.00     0.363 C 
BRANCH   7   8
ATOM      8  N   UNL A   1      33.695  34.936  31.596  1.00  0.00    -0.325 N 
ATOM      9  C   UNL A   1      33.874  35.682  32.820  1.00  0.00     0.333 C 
ATOM     10  H   UNL A   1      32.690  35.001  31.434  1.00  0.00     0.348 HD
BRANCH   8  11
ATOM     11  C   UNL A   1      33.950  33.498  31.738  1.00  0.00     0.320 C 
BRANCH  11  12
ATOM     12  C   UNL A   1      35.359  33.207  32.219  1.00  0.00     0.103 A 
ATOM     13  C   UNL A   1      38.234  33.910  29.260  1.00  0.00     0.048 C 
ATOM     14  C   UNL A   1      38.651  33.378  30.595  1.00  0.00    -0.008 A 
ATOM     15  C   UNL A   1      39.922  33.114  30.935  1.00  0.00     0.009 A 
ATOM     16  C   UNL A   1      37.569  33.156  31.613  1.00  0.00     0.143 A 
ATOM     17  C   UNL A   1      40.254  32.639  32.252  1.00  0.00     0.019 A 
ATOM     18  N   UNL A   1      37.958  32.735  32.879  1.00  0.00    -0.268 N 
ATOM     19  N   UNL A   1      36.337  33.365  31.272  1.00  0.00    -0.229 NA
ATOM     20  C   UNL A   1      39.292  32.479  33.168  1.00  0.00     0.096 A 
ATOM     21  C   UNL A   1      37.002  32.547  33.868  1.00  0.00     0.258 A 
ATOM     22  O   UNL A   1      37.234  32.164  35.015  1.00  0.00    -0.269 OA
ATOM     23  C   UNL A   1      35.610  32.822  33.476  1.00  0.00     0.102 A 
ENDBRANCH  11  12
ENDBRANCH   8  11
ENDBRANCH   7   8
ENDBRANCH   4   7
ENDBRANCH   2   3
ENDBRANCH   1   2
BRANCH   1  24
ATOM     24  C   UNL A   1      34.796  31.123  27.594  1.00  0.00     0.023 C 
BRANCH  24  25
ATOM     25  C   UNL A   1      35.780  30.176  28.262  1.00  0.00     0.116 C 
BRANCH  25  26
ATOM     26  N   UNL A   1      35.610  30.111  29.706  1.00  0.00    -0.352 N 
ATOM     27  C   UNL A   1      36.572  29.879  30.664  1.00  0.00     0.251 C 
ATOM     28  H   UNL A   1      34.694  30.248  30.040  1.00  0.00     0.163 HD
ATOM     29  O   UNL A   1      36.272  29.734  31.836  1.00  0.00    -0.269 OA
BRANCH  27  30
ATOM     30  C   UNL A   1      37.976  29.780  30.220  1.00  0.00     0.039 A 
ATOM     31  C   UNL A   1      38.945  29.359  31.131  1.00  0.00     0.014 A 
ATOM     32  C   UNL A   1      38.298  30.016  28.879  1.00  0.00     0.014 A 
ATOM     33  C   UNL A   1      40.241  29.111  30.679  1.00  0.00     0.010 A 
ATOM     34  C   UNL A   1      39.574  29.713  28.422  1.00  0.00     0.010 A 
ATOM     35  C   UNL A   1      40.554  29.260  29.318  1.00  0.00    -0.014 A 
BRANCH  35  36
ATOM     36  C   UNL A   1      41.917  28.985  28.813  1.00  0.00     0.031 A 
ATOM     37  C   UNL A   1      42.252  27.604  28.322  1.00  0.00     0.074 A 
ATOM     38  C   UNL A   1      42.858  29.948  28.845  1.00  0.00     0.049 A 
ATOM     39  N   UNL A   1      43.402  27.132  27.923  1.00  0.00    -0.248 NA
ATOM     40  C   UNL A   1      41.153  26.623  28.297  1.00  0.00     0.031 C 
ATOM     41  C   UNL A   1      42.661  31.316  29.330  1.00  0.00     0.029 A 
ATOM     42  N   UNL A   1      44.177  29.918  28.466  1.00  0.00    -0.354 N 
ATOM     43  C   UNL A   1      43.170  25.798  27.613  1.00  0.00     0.074 A 
ATOM     44  C   UNL A   1      41.781  25.524  27.906  1.00  0.00     0.031 C 
ATOM     45  C   UNL A   1      43.811  31.998  29.203  1.00  0.00     0.029 A 
ATOM     46  C   UNL A   1      44.833  31.112  28.654  1.00  0.00     0.049 A 
ATOM     47  H   UNL A   1      44.613  29.117  28.095  1.00  0.00     0.167 HD
ATOM     48  C   UNL A   1      44.034  24.889  27.107  1.00  0.00     0.031 A 
ATOM     49  C   UNL A   1      46.114  31.452  28.411  1.00  0.00     0.031 A 
ATOM     50  C   UNL A   1      45.403  25.171  26.784  1.00  0.00     0.049 A 
ATOM     51  C   UNL A   1      47.049  30.427  27.830  1.00  0.00     0.074 A 
ATOM     52  C   UNL A   1      46.346  24.322  26.235  1.00  0.00     0.029 A 
ATOM     53  N   UNL A   1      46.018  26.400  26.963  1.00  0.00    -0.354 N 
ATOM     54  N   UNL A   1      46.805  29.174  27.527  1.00  0.00    -0.248 NA
ATOM     55  C   UNL A   1      48.426  30.860  27.551  1.00  0.00     0.031 C 
ATOM     56  C   UNL A   1      47.542  25.034  26.097  1.00  0.00     0.029 A 
ATOM     57  C   UNL A   1      47.330  26.333  26.532  1.00  0.00     0.049 A 
ATOM     58  H   UNL A   1      45.586  27.199  27.339  1.00  0.00     0.167 HD
ATOM     59  C   UNL A   1      47.993  28.675  27.006  1.00  0.00     0.074 A 
ATOM     60  C   UNL A   1      48.953  29.759  27.028  1.00  0.00     0.031 C 
ATOM     61  C   UNL A   1      48.263  27.429  26.552  1.00  0.00     0.031 A 
BRANCH  48  62
ATOM     62  C   UNL A   1      43.512  23.507  26.843  1.00  0.00    -0.014 A 
ATOM     63  C   UNL A   1      43.569  22.961  25.549  1.00  0.00     0.010 A 
ATOM     64  C   UNL A   1      43.032  22.722  27.905  1.00  0.00     0.010 A 
ATOM     65  C   UNL A   1      43.142  21.653  25.319  1.00  0.00     0.020 A 
ATOM     66  C   UNL A   1      42.620  21.406  27.681  1.00  0.00     0.020 A 
ATOM     67  C   UNL A   1      42.677  20.881  26.389  1.00  0.00     0.054 A 
BRANCH  67  68
ATOM     68  S   UNL A   1      42.176  19.170  26.060  1.00  0.00     0.124 S 
ATOM     69  O   UNL A   1      42.953  18.849  24.866  1.00  0.00    -0.237 OA
ATOM     70  O   UNL A   1      42.588  18.481  27.281  1.00  0.00    -0.237 OA
ATOM     71  O   UNL A   1      40.733  19.262  25.853  1.00  0.00    -0.744 OA
ENDBRANCH  67  68
ENDBRANCH  48  62
BRANCH  49  72
ATOM     72  C   UNL A   1      46.581  32.832  28.700  1.00  0.00    -0.014 A 
ATOM     73  C   UNL A   1      46.476  33.835  27.720  1.00  0.00     0.010 A 
ATOM     74  C   UNL A   1      47.112  33.155  29.961  1.00  0.00     0.010 A 
ATOM     75  C   UNL A   1      46.901  35.138  27.995  1.00  0.00     0.020 A 
ATOM     76  C   UNL A   1      47.523  34.462  30.244  1.00  0.00     0.020 A 
ATOM     77  C   UNL A   1      47.417  35.445  29.258  1.00  0.00     0.054 A 
BRANCH  77  78
ATOM     78  S   UNL A   1      47.918  37.155  29.598  1.00  0.00     0.124 S 
ATOM     79  O   UNL A   1      48.333  37.081  30.995  1.00  0.00    -0.237 OA
ATOM     80  O   UNL A   1      48.991  37.360  28.629  1.00  0.00    -0.237 OA
ATOM     81  O   UNL A   1      46.703  37.926  29.346  1.00  0.00    -0.744 OA
ENDBRANCH  77  78
ENDBRANCH  49  72
BRANCH  61  82
ATOM     82  C   UNL A   1      49.638  27.158  26.015  1.00  0.00    -0.014 A 
ATOM     83  C   UNL A   1      50.595  26.494  26.800  1.00  0.00     0.010 A 
ATOM     84  C   UNL A   1      49.931  27.460  24.672  1.00  0.00     0.010 A 
ATOM     85  C   UNL A   1      51.824  26.130  26.247  1.00  0.00     0.020 A 
ATOM     86  C   UNL A   1      51.153  27.084  24.114  1.00  0.00     0.020 A 
ATOM     87  C   UNL A   1      52.092  26.418  24.905  1.00  0.00     0.054 A 
BRANCH  87  88
ATOM     88  S   UNL A   1      53.667  25.862  24.198  1.00  0.00     0.124 S 
ATOM     89  O   UNL A   1      54.600  26.868  24.696  1.00  0.00    -0.237 OA
ATOM     90  O   UNL A   1      53.816  24.528  24.773  1.00  0.00    -0.237 OA
ATOM     91  O   UNL A   1      53.433  25.893  22.756  1.00  0.00    -0.744 OA
ENDBRANCH  87  88
ENDBRANCH  61  82
ENDBRANCH  35  36
ENDBRANCH  27  30
ENDBRANCH  25  26
ENDBRANCH  24  25
ENDBRANCH   1  24
TORSDOF 17
ENDMDL
MODEL 2
REMARK VINA RESULT:     -10.2      3.519      9.302
REMARK SMILES Cc1cccn2c(=O)cc(C[N@@H+](C)CC(=O)NCCCCNC(=O)c3ccc(-c4c5nc(c(-c6ccc(S(=O)(=O)[O-])cc6)c6ccc([nH]6)c(-c6ccc(S(=O)(=O)[O-])cc6)c6nc(c(-c7ccc(S(=O)(=O)[O-])cc7)c7ccc4[nH]7)C=C6)C=C5)cc3)nc12
REMARK SMILES IDX 19 1 18 2 17 3 15 4 16 5 14 7 12 8 13 9 11 11 10 12 1 13
REMARK SMILES IDX 2 14 3 15 86 16 4 17 6 18 85 19 5 20 7 21 8 22 9 23 20 24
REMARK SMILES IDX 21 25 22 26 23 27 24 29 25 30 26 31 84 32 27 33 83 34 28 35
REMARK SMILES IDX 29 36 30 37 77 38 31 39 82 40 76 41 78 42 32 43 81 44 75 45
REMARK SMILES IDX 74 46 33 48 63 49 44 50 62 51 45 52 48 53 61 54 79 55 46 56
REMARK SMILES IDX 47 57 60 59 80 60 49 61 34 62 35 63 43 64 36 65 42 66 37 67
REMARK SMILES IDX 38 68 39 69 40 70 41 71 64 72 65 73 73 74 66 75 72 76 67 77
REMARK SMILES IDX 68 78 69 79 70 80 71 81 50 82 51 83 59 84 52 85 58 86 53 87
REMARK SMILES IDX 54 88 55 89 56 90 57 91
REMARK H PARENT 17 6 12 10 22 28 78 47 48 58
REMARK Flexibility Score: inf
ROOT
ATOM      1  C   UNL A   1      34.327  34.221  30.553  1.00  0.00     0.023 C 
ENDROOT
BRANCH   1   2
ATOM      2  C   UNL A   1      34.553  34.649  32.003  1.00  0.00     0.116 C 
BRANCH   2   3
ATOM      3  N   UNL A   1      35.941  34.977  32.230  1.00  0.00    -0.351 N 
ATOM      4  C   UNL A   1      36.798  34.470  33.161  1.00  0.00     0.275 C 
ATOM      5  O   UNL A   1      37.904  35.007  33.274  1.00  0.00    -0.269 OA
ATOM      6  H   UNL A   1      36.320  35.659  31.630  1.00  0.00     0.163 HD
BRANCH   4   7
ATOM      7  C   UNL A   1      36.404  33.265  34.020  1.00  0.00     0.363 C 
BRANCH   7   8
ATOM      8  N   UNL A   1      37.347  32.140  34.008  1.00  0.00    -0.325 N 
ATOM      9  C   UNL A   1      37.117  31.101  33.031  1.00  0.00     0.333 C 
ATOM     10  H   UNL A   1      38.177  32.613  33.648  1.00  0.00     0.348 HD
BRANCH   8  11
ATOM     11  C   UNL A   1      37.757  31.634  35.323  1.00  0.00     0.320 C 
BRANCH  11  12
ATOM     12  C   UNL A   1      39.185  31.122  35.326  1.00  0.00     0.103 A 
ATOM     13  C   UNL A   1      39.745  27.936  32.670  1.00  0.00     0.048 C 
ATOM     14  C   UNL A   1      40.881  28.406  33.523  1.00  0.00    -0.008 A 
ATOM     15  C   UNL A   1      42.113  27.877  33.490  1.00  0.00     0.009 A 
ATOM     16  C   UNL A   1      40.613  29.559  34.448  1.00  0.00     0.143 A 
ATOM     17  C   UNL A   1      43.169  28.406  34.312  1.00  0.00     0.019 A 
ATOM     18  N   UNL A   1      41.683  30.050  35.185  1.00  0.00    -0.268 N 
ATOM     19  N   UNL A   1      39.412  30.040  34.516  1.00  0.00    -0.229 NA
ATOM     20  C   UNL A   1      42.936  29.457  35.106  1.00  0.00     0.096 A 
ATOM     21  C   UNL A   1      41.499  31.136  36.031  1.00  0.00     0.258 A 
ATOM     22  O   UNL A   1      42.372  31.640  36.738  1.00  0.00    -0.269 OA
ATOM     23  C   UNL A   1      40.137  31.693  36.072  1.00  0.00     0.102 A 
ENDBRANCH  11  12
ENDBRANCH   8  11
ENDBRANCH   7   8
ENDBRANCH   4   7
ENDBRANCH   2   3
ENDBRANCH   1   2
BRANCH   1  24
ATOM     24  C   UNL A   1      35.280  33.141  30.048  1.00  0.00     0.023 C 
BRANCH  24  25
ATOM     25  C   UNL A   1      35.322  32.981  28.536  1.00  0.00     0.116 C 
BRANCH  25  26
ATOM     26  N   UNL A   1      34.336  32.032  28.041  1.00  0.00    -0.352 N 
ATOM     27  C   UNL A   1      34.512  30.696  27.757  1.00  0.00     0.251 C 
ATOM     28  H   UNL A   1      33.431  32.389  27.889  1.00  0.00     0.163 HD
ATOM     29  O   UNL A   1      33.627  30.041  27.236  1.00  0.00    -0.269 OA
BRANCH  27  30
ATOM     30  C   UNL A   1      35.820  30.091  28.077  1.00  0.00     0.039 A 
ATOM     31  C   UNL A   1      36.817  30.084  27.101  1.00  0.00     0.014 A 
ATOM     32  C   UNL A   1      36.071  29.625  29.371  1.00  0.00     0.014 A 
ATOM     33  C   UNL A   1      38.102  29.661  27.445  1.00  0.00     0.010 A 
ATOM     34  C   UNL A   1      37.363  29.258  29.724  1.00  0.00     0.010 A 
ATOM     35  C   UNL A   1      38.387  29.273  28.764  1.00  0.00    -0.014 A 
BRANCH  35  36
ATOM     36  C   UNL A   1      39.746  28.838  29.156  1.00  0.00     0.031 A 
ATOM     37  C   UNL A   1      40.640  29.799  29.887  1.00  0.00     0.074 A 
ATOM     38  C   UNL A   1      40.190  27.614  28.811  1.00  0.00     0.049 A 
ATOM     39  N   UNL A   1      41.888  29.650  30.242  1.00  0.00    -0.248 NA
ATOM     40  C   UNL A   1      40.061  31.104  30.246  1.00  0.00     0.031 C 
ATOM     41  C   UNL A   1      39.425  26.606  28.072  1.00  0.00     0.029 A 
ATOM     42  N   UNL A   1      41.403  27.011  29.033  1.00  0.00    -0.354 N 
ATOM     43  C   UNL A   1      42.247  30.844  30.853  1.00  0.00     0.074 A 
ATOM     44  C   UNL A   1      41.100  31.722  30.787  1.00  0.00     0.031 C 
ATOM     45  C   UNL A   1      40.181  25.506  27.918  1.00  0.00     0.029 A 
ATOM     46  C   UNL A   1      41.489  25.737  28.521  1.00  0.00     0.049 A 
ATOM     47  H   UNL A   1      42.142  27.450  29.513  1.00  0.00     0.167 HD
ATOM     48  C   UNL A   1      43.421  31.171  31.438  1.00  0.00     0.031 A 
ATOM     49  C   UNL A   1      42.509  24.858  28.537  1.00  0.00     0.031 A 
ATOM     50  C   UNL A   1      44.547  30.286  31.533  1.00  0.00     0.049 A 
ATOM     51  C   UNL A   1      43.798  25.239  29.211  1.00  0.00     0.074 A 
ATOM     52  C   UNL A   1      45.769  30.517  32.138  1.00  0.00     0.029 A 
ATOM     53  N   UNL A   1      44.582  28.997  31.028  1.00  0.00    -0.354 N 
ATOM     54  N   UNL A   1      44.112  26.368  29.800  1.00  0.00    -0.248 NA
ATOM     55  C   UNL A   1      44.867  24.229  29.231  1.00  0.00     0.031 C 
ATOM     56  C   UNL A   1      46.553  29.369  31.982  1.00  0.00     0.029 A 
ATOM     57  C   UNL A   1      45.805  28.417  31.309  1.00  0.00     0.049 A 
ATOM     58  H   UNL A   1      43.847  28.559  30.542  1.00  0.00     0.167 HD
ATOM     59  C   UNL A   1      45.407  26.198  30.275  1.00  0.00     0.074 A 
ATOM     60  C   UNL A   1      45.818  24.858  29.912  1.00  0.00     0.031 C 
ATOM     61  C   UNL A   1      46.186  27.077  30.949  1.00  0.00     0.031 A 
BRANCH  48  62
ATOM     62  C   UNL A   1      43.538  32.537  32.048  1.00  0.00    -0.014 A 
ATOM     63  C   UNL A   1      43.218  32.740  33.401  1.00  0.00     0.010 A 
ATOM     64  C   UNL A   1      44.039  33.607  31.286  1.00  0.00     0.010 A 
ATOM     65  C   UNL A   1      43.389  33.997  33.982  1.00  0.00     0.020 A 
ATOM     66  C   UNL A   1      44.227  34.862  31.869  1.00  0.00     0.020 A 
ATOM     67  C   UNL A   1      43.899  35.049  33.213  1.00  0.00     0.054 A 
BRANCH  67  68
ATOM     68  S   UNL A   1      44.151  36.656  34.015  1.00  0.00     0.124 S 
ATOM     69  O   UNL A   1      44.476  36.265  35.384  1.00  0.00    -0.237 OA
ATOM     70  O   UNL A   1      45.255  37.222  33.244  1.00  0.00    -0.237 OA
ATOM     71  O   UNL A   1      42.866  37.332  33.852  1.00  0.00    -0.744 OA
ENDBRANCH  67  68
ENDBRANCH  48  62
BRANCH  49  72
ATOM     72  C   UNL A   1      42.344  23.521  27.910  1.00  0.00    -0.014 A 
ATOM     73  C   UNL A   1      42.887  23.263  26.639  1.00  0.00     0.010 A 
ATOM     74  C   UNL A   1      41.663  22.495  28.588  1.00  0.00     0.010 A 
ATOM     75  C   UNL A   1      42.745  22.002  26.053  1.00  0.00     0.020 A 
ATOM     76  C   UNL A   1      41.534  21.227  28.012  1.00  0.00     0.020 A 
ATOM     77  C   UNL A   1      42.075  20.989  26.747  1.00  0.00     0.054 A 
BRANCH  77  78
ATOM     78  S   UNL A   1      41.946  19.351  25.979  1.00  0.00     0.124 S 
ATOM     79  O   UNL A   1      40.519  19.259  25.687  1.00  0.00    -0.237 OA
ATOM     80  O   UNL A   1      42.823  19.484  24.819  1.00  0.00    -0.237 OA
ATOM     81  O   UNL A   1      42.431  18.445  27.018  1.00  0.00    -0.744 OA
ENDBRANCH  77  78
ENDBRANCH  49  72
BRANCH  61  82
ATOM     82  C   UNL A   1      47.555  26.625  31.369  1.00  0.00    -0.014 A 
ATOM     83  C   UNL A   1      47.788  26.164  32.675  1.00  0.00     0.010 A 
ATOM     84  C   UNL A   1      48.582  26.544  30.411  1.00  0.00     0.010 A 
ATOM     85  C   UNL A   1      49.029  25.623  33.016  1.00  0.00     0.020 A 
ATOM     86  C   UNL A   1      49.819  25.990  30.746  1.00  0.00     0.020 A 
ATOM     87  C   UNL A   1      50.033  25.530  32.047  1.00  0.00     0.054 A 
BRANCH  87  88
ATOM     88  S   UNL A   1      51.606  24.751  32.503  1.00  0.00     0.124 S 
ATOM     89  O   UNL A   1      51.382  23.359  32.125  1.00  0.00    -0.237 OA
ATOM     90  O   UNL A   1      52.567  25.479  31.679  1.00  0.00    -0.237 OA
ATOM     91  O   UNL A   1      51.712  24.996  33.940  1.00  0.00    -0.744 OA
ENDBRANCH  87  88
ENDBRANCH  61  82
ENDBRANCH  35  36
ENDBRANCH  27  30
ENDBRANCH  25  26
ENDBRANCH  24  25
ENDBRANCH   1  24
TORSDOF 17
ENDMDL
MODEL 3
REMARK VINA RESULT:     -10.2      4.372     10.591
REMARK SMILES Cc1cccn2c(=O)cc(C[N@@H+](C)CC(=O)NCCCCNC(=O)c3ccc(-c4c5nc(c(-c6ccc(S(=O)(=O)[O-])cc6)c6ccc([nH]6)c(-c6ccc(S(=O)(=O)[O-])cc6)c6nc(c(-c7ccc(S(=O)(=O)[O-])cc7)c7ccc4[nH]7)C=C6)C=C5)cc3)nc12
REMARK SMILES IDX 19 1 18 2 17 3 15 4 16 5 14 7 12 8 13 9 11 11 10 12 1 13
REMARK SMILES IDX 2 14 3 15 86 16 4 17 6 18 85 19 5 20 7 21 8 22 9 23 20 24
REMARK SMILES IDX 21 25 22 26 23 27 24 29 25 30 26 31 84 32 27 33 83 34 28 35
REMARK SMILES IDX 29 36 30 37 77 38 31 39 82 40 76 41 78 42 32 43 81 44 75 45
REMARK SMILES IDX 74 46 33 48 63 49 44 50 62 51 45 52 48 53 61 54 79 55 46 56
REMARK SMILES IDX 47 57 60 59 80 60 49 61 34 62 35 63 43 64 36 65 42 66 37 67
REMARK SMILES IDX 38 68 39 69 40 70 41 71 64 72 65 73 73 74 66 75 72 76 67 77
REMARK SMILES IDX 68 78 69 79 70 80 71 81 50 82 51 83 59 84 52 85 58 86 53 87
REMARK SMILES IDX 54 88 55 89 56 90 57 91
REMARK H PARENT 17 6 12 10 22 28 78 47 48 58
REMARK Flexibility Score: inf
ROOT
ATOM      1  C   UNL A   1      39.235  22.759  26.250  1.00  0.00     0.023 C 
ENDROOT
BRANCH   1   2
ATOM      2  C   UNL A   1      37.841  23.367  26.091  1.00  0.00     0.116 C 
BRANCH   2   3
ATOM      3  N   UNL A   1      37.509  23.525  24.695  1.00  0.00    -0.351 N 
ATOM      4  C   UNL A   1      36.651  22.790  23.932  1.00  0.00     0.275 C 
ATOM      5  O   UNL A   1      36.634  23.009  22.717  1.00  0.00    -0.269 OA
ATOM      6  H   UNL A   1      37.961  24.266  24.231  1.00  0.00     0.163 HD
BRANCH   4   7
ATOM      7  C   UNL A   1      35.733  21.743  24.567  1.00  0.00     0.363 C 
BRANCH   7   8
ATOM      8  N   UNL A   1      34.407  22.224  24.976  1.00  0.00    -0.325 N 
ATOM      9  C   UNL A   1      34.015  21.982  26.345  1.00  0.00     0.333 C 
ATOM     10  H   UNL A   1      34.576  23.230  24.962  1.00  0.00     0.348 HD
BRANCH   8  11
ATOM     11  C   UNL A   1      33.324  22.020  24.007  1.00  0.00     0.320 C 
BRANCH  11  12
ATOM     12  C   UNL A   1      32.838  23.324  23.402  1.00  0.00     0.103 A 
ATOM     13  C   UNL A   1      30.112  25.313  25.877  1.00  0.00     0.048 C 
ATOM     14  C   UNL A   1      30.458  25.884  24.538  1.00  0.00    -0.008 A 
ATOM     15  C   UNL A   1      29.958  27.033  24.059  1.00  0.00     0.009 A 
ATOM     16  C   UNL A   1      31.450  25.123  23.704  1.00  0.00     0.143 A 
ATOM     17  C   UNL A   1      30.367  27.541  22.777  1.00  0.00     0.019 A 
ATOM     18  N   UNL A   1      31.835  25.687  22.494  1.00  0.00    -0.268 N 
ATOM     19  N   UNL A   1      31.898  23.990  24.146  1.00  0.00    -0.229 NA
ATOM     20  C   UNL A   1      31.279  26.880  22.054  1.00  0.00     0.096 A 
ATOM     21  C   UNL A   1      32.773  25.042  21.700  1.00  0.00     0.258 A 
ATOM     22  O   UNL A   1      33.174  25.444  20.607  1.00  0.00    -0.269 OA
ATOM     23  C   UNL A   1      33.299  23.773  22.230  1.00  0.00     0.102 A 
ENDBRANCH  11  12
ENDBRANCH   8  11
ENDBRANCH   7   8
ENDBRANCH   4   7
ENDBRANCH   2   3
ENDBRANCH   1   2
BRANCH   1  24
ATOM     24  C   UNL A   1      39.305  21.250  26.034  1.00  0.00     0.023 C 
BRANCH  24  25
ATOM     25  C   UNL A   1      40.261  20.515  26.960  1.00  0.00     0.116 C 
BRANCH  25  26
ATOM     26  N   UNL A   1      41.144  19.601  26.251  1.00  0.00    -0.352 N 
ATOM     27  C   UNL A   1      42.392  19.860  25.729  1.00  0.00     0.251 C 
ATOM     28  H   UNL A   1      40.808  18.684  26.128  1.00  0.00     0.163 HD
ATOM     29  O   UNL A   1      42.976  19.031  25.054  1.00  0.00    -0.269 OA
BRANCH  27  30
ATOM     30  C   UNL A   1      42.984  21.187  25.987  1.00  0.00     0.039 A 
ATOM     31  C   UNL A   1      43.001  22.131  24.960  1.00  0.00     0.014 A 
ATOM     32  C   UNL A   1      43.429  21.510  27.273  1.00  0.00     0.014 A 
ATOM     33  C   UNL A   1      43.411  23.434  25.240  1.00  0.00     0.010 A 
ATOM     34  C   UNL A   1      43.782  22.822  27.562  1.00  0.00     0.010 A 
ATOM     35  C   UNL A   1      43.777  23.792  26.548  1.00  0.00    -0.014 A 
BRANCH  35  36
ATOM     36  C   UNL A   1      44.198  25.173  26.873  1.00  0.00     0.031 A 
ATOM     37  C   UNL A   1      45.628  25.574  26.648  1.00  0.00     0.074 A 
ATOM     38  C   UNL A   1      43.320  26.038  27.415  1.00  0.00     0.049 A 
ATOM     39  N   UNL A   1      46.221  26.699  26.945  1.00  0.00    -0.248 NA
ATOM     40  C   UNL A   1      46.511  24.572  26.026  1.00  0.00     0.031 C 
ATOM     41  C   UNL A   1      41.914  25.752  27.711  1.00  0.00     0.029 A 
ATOM     42  N   UNL A   1      43.486  27.338  27.822  1.00  0.00    -0.354 N 
ATOM     43  C   UNL A   1      47.546  26.536  26.561  1.00  0.00     0.074 A 
ATOM     44  C   UNL A   1      47.681  25.193  26.044  1.00  0.00     0.031 C 
ATOM     45  C   UNL A   1      41.343  26.850  28.235  1.00  0.00     0.029 A 
ATOM     46  C   UNL A   1      42.345  27.907  28.338  1.00  0.00     0.049 A 
ATOM     47  H   UNL A   1      44.342  27.820  27.752  1.00  0.00     0.167 HD
ATOM     48  C   UNL A   1      48.554  27.435  26.613  1.00  0.00     0.031 A 
ATOM     49  C   UNL A   1      42.132  29.139  28.837  1.00  0.00     0.031 A 
ATOM     50  C   UNL A   1      48.411  28.780  27.094  1.00  0.00     0.049 A 
ATOM     51  C   UNL A   1      43.266  30.126  28.865  1.00  0.00     0.074 A 
ATOM     52  C   UNL A   1      49.369  29.775  27.153  1.00  0.00     0.029 A 
ATOM     53  N   UNL A   1      47.232  29.322  27.579  1.00  0.00    -0.354 N 
ATOM     54  N   UNL A   1      44.508  29.958  28.479  1.00  0.00    -0.248 NA
ATOM     55  C   UNL A   1      42.971  31.469  29.387  1.00  0.00     0.031 C 
ATOM     56  C   UNL A   1      48.773  30.919  27.693  1.00  0.00     0.029 A 
ATOM     57  C   UNL A   1      47.438  30.641  27.939  1.00  0.00     0.049 A 
ATOM     58  H   UNL A   1      46.378  28.841  27.656  1.00  0.00     0.167 HD
ATOM     59  C   UNL A   1      45.138  31.178  28.696  1.00  0.00     0.074 A 
ATOM     60  C   UNL A   1      44.142  32.078  29.239  1.00  0.00     0.031 C 
ATOM     61  C   UNL A   1      46.427  31.520  28.465  1.00  0.00     0.031 A 
BRANCH  48  62
ATOM     62  C   UNL A   1      49.899  27.002  26.107  1.00  0.00    -0.014 A 
ATOM     63  C   UNL A   1      50.218  27.119  24.744  1.00  0.00     0.010 A 
ATOM     64  C   UNL A   1      50.875  26.543  27.010  1.00  0.00     0.010 A 
ATOM     65  C   UNL A   1      51.491  26.775  24.287  1.00  0.00     0.020 A 
ATOM     66  C   UNL A   1      52.155  26.214  26.558  1.00  0.00     0.020 A 
ATOM     67  C   UNL A   1      52.454  26.331  25.200  1.00  0.00     0.054 A 
BRANCH  67  68
ATOM     68  S   UNL A   1      54.111  25.938  24.577  1.00  0.00     0.124 S 
ATOM     69  O   UNL A   1      54.198  24.502  24.829  1.00  0.00    -0.237 OA
ATOM     70  O   UNL A   1      54.019  26.325  23.171  1.00  0.00    -0.237 OA
ATOM     71  O   UNL A   1      54.995  26.765  25.394  1.00  0.00    -0.744 OA
ENDBRANCH  67  68
ENDBRANCH  48  62
BRANCH  49  72
ATOM     72  C   UNL A   1      40.783  29.515  29.333  1.00  0.00    -0.014 A 
ATOM     73  C   UNL A   1      39.807  29.993  28.440  1.00  0.00     0.010 A 
ATOM     74  C   UNL A   1      40.460  29.375  30.694  1.00  0.00     0.010 A 
ATOM     75  C   UNL A   1      38.533  30.332  28.903  1.00  0.00     0.020 A 
ATOM     76  C   UNL A   1      39.180  29.698  31.157  1.00  0.00     0.020 A 
ATOM     77  C   UNL A   1      38.225  30.177  30.258  1.00  0.00     0.054 A 
BRANCH  77  78
ATOM     78  S   UNL A   1      36.548  30.584  30.819  1.00  0.00     0.124 S 
ATOM     79  O   UNL A   1      36.331  29.599  31.875  1.00  0.00    -0.237 OA
ATOM     80  O   UNL A   1      36.699  31.967  31.263  1.00  0.00    -0.237 OA
ATOM     81  O   UNL A   1      35.732  30.405  29.620  1.00  0.00    -0.744 OA
ENDBRANCH  77  78
ENDBRANCH  49  72
BRANCH  61  82
ATOM     82  C   UNL A   1      46.847  32.929  28.772  1.00  0.00    -0.014 A 
ATOM     83  C   UNL A   1      47.416  33.252  30.015  1.00  0.00     0.010 A 
ATOM     84  C   UNL A   1      46.786  33.906  27.761  1.00  0.00     0.010 A 
ATOM     85  C   UNL A   1      47.924  34.532  30.241  1.00  0.00     0.020 A 
ATOM     86  C   UNL A   1      47.306  35.182  27.980  1.00  0.00     0.020 A 
ATOM     87  C   UNL A   1      47.875  35.486  29.219  1.00  0.00     0.054 A 
BRANCH  87  88
ATOM     88  S   UNL A   1      48.613  37.116  29.521  1.00  0.00     0.124 S 
ATOM     89  O   UNL A   1      49.405  36.877  30.723  1.00  0.00    -0.237 OA
ATOM     90  O   UNL A   1      49.379  37.345  28.299  1.00  0.00    -0.237 OA
ATOM     91  O   UNL A   1      47.458  37.993  29.701  1.00  0.00    -0.744 OA
ENDBRANCH  87  88
ENDBRANCH  61  82
ENDBRANCH  35  36
ENDBRANCH  27  30
ENDBRANCH  25  26
ENDBRANCH  24  25
ENDBRANCH   1  24
TORSDOF 17
ENDMDL
