MODEL 1
REMARK VINA RESULT:     -12.8      0.000      0.000
REMARK SMILES Cn1c(=O)c2c(nc(Nc3cccc(Cl)c3Cl)n2CC(=O)NCCCCNC(=O)c2ccc(-c3c4nc(c(-c5ccc(S(=O)(=O)[O-])cc5)c5ccc([nH]5)c(-c5ccc(S(=O)(=O)[O-])cc5)c5nc(c(-c6ccc(S(=O)(=O)[O-])cc6)c6ccc3[nH]6)C=C5)C=C4)cc2)n(C)c1=O
REMARK SMILES IDX 24 1 23 2 22 3 20 4 21 5 19 7 18 8 1 9 2 10 3 11 92 12 4 13
REMARK SMILES IDX 5 14 90 15 93 16 6 17 91 18 7 19 8 20 9 21 10 23 11 24 16 25
REMARK SMILES IDX 12 26 14 27 17 28 13 29 15 30 25 31 26 32 27 33 28 34 29 36
REMARK SMILES IDX 30 37 31 38 89 39 32 40 88 41 33 42 34 43 35 44 82 45 36 46
REMARK SMILES IDX 87 47 81 48 83 49 37 50 86 51 80 52 79 53 38 55 68 56 49 57
REMARK SMILES IDX 67 58 50 59 53 60 66 61 84 62 51 63 52 64 65 66 85 67 54 68
REMARK SMILES IDX 39 69 40 70 48 71 41 72 47 73 42 74 43 75 44 76 45 77 46 78
REMARK SMILES IDX 69 79 70 80 78 81 71 82 77 83 72 84 73 85 74 86 75 87 76 88
REMARK SMILES IDX 55 89 56 90 64 91 57 92 63 93 58 94 59 95 60 96 61 97 62 98
REMARK H PARENT 22 6 9 22 27 35 83 54 53 65
REMARK Flexibility Score: inf
ROOT
ATOM      1  C   UNL A   1      36.370  20.784  25.032  1.00  0.00     0.023 C 
ENDROOT
BRANCH   1   2
ATOM      2  C   UNL A   1      36.604  22.289  24.891  1.00  0.00     0.116 C 
BRANCH   2   3
ATOM      3  N   UNL A   1      36.002  22.827  23.693  1.00  0.00    -0.355 N 
ATOM      4  C   UNL A   1      34.857  23.558  23.552  1.00  0.00     0.240 C 
ATOM      5  O   UNL A   1      34.577  23.942  22.415  1.00  0.00    -0.273 OA
ATOM      6  H   UNL A   1      36.487  22.639  22.857  1.00  0.00     0.163 HD
BRANCH   4   7
ATOM      7  C   UNL A   1      34.045  23.993  24.759  1.00  0.00     0.226 C 
BRANCH   7   8
ATOM      8  N   UNL A   1      32.731  24.559  24.484  1.00  0.00    -0.295 N 
ATOM      9  C   UNL A   1      33.164  29.445  25.371  1.00  0.00     0.159 C 
ATOM     10  N   UNL A   1      32.485  28.233  24.951  1.00  0.00    -0.261 N 
ATOM     11  C   UNL A   1      33.162  27.019  25.090  1.00  0.00     0.282 A 
ATOM     12  C   UNL A   1      31.167  28.386  24.481  1.00  0.00     0.332 A 
ATOM     13  O   UNL A   1      34.282  26.918  25.593  1.00  0.00    -0.267 OA
ATOM     14  C   UNL A   1      32.421  25.899  24.623  1.00  0.00     0.154 A 
ATOM     15  N   UNL A   1      30.500  27.230  24.084  1.00  0.00    -0.279 N 
ATOM     16  O   UNL A   1      30.630  29.496  24.434  1.00  0.00    -0.247 OA
ATOM     17  C   UNL A   1      31.146  26.020  24.165  1.00  0.00     0.170 A 
ATOM     18  C   UNL A   1      29.140  27.297  23.582  1.00  0.00     0.157 C 
ATOM     19  N   UNL A   1      30.625  24.825  23.805  1.00  0.00    -0.194 NA
ATOM     20  C   UNL A   1      31.564  23.929  24.049  1.00  0.00     0.210 A 
BRANCH  20  21
ATOM     21  N   UNL A   1      31.354  22.629  23.744  1.00  0.00    -0.324 N 
ATOM     22  H   UNL A   1      30.601  22.501  23.122  1.00  0.00     0.170 HD
BRANCH  21  23
ATOM     23  C   UNL A   1      31.967  21.417  24.114  1.00  0.00     0.061 A 
ATOM     24  C   UNL A   1      32.345  21.300  25.469  1.00  0.00     0.028 A 
ATOM     25  C   UNL A   1      32.224  20.333  23.251  1.00  0.00     0.083 A 
ATOM     26  C   UNL A   1      32.869  20.115  25.979  1.00  0.00     0.004 A 
ATOM     27  C   UNL A   1      32.742  19.134  23.773  1.00  0.00     0.061 A 
ATOM     28  Cl  UNL A   1      31.947  20.501  21.544  1.00  0.00    -0.080 Cl
ATOM     29  C   UNL A   1      33.047  19.025  25.134  1.00  0.00     0.022 A 
ATOM     30  Cl  UNL A   1      33.018  17.739  22.789  1.00  0.00    -0.083 Cl
ENDBRANCH  21  23
ENDBRANCH  20  21
ENDBRANCH   7   8
ENDBRANCH   4   7
ENDBRANCH   2   3
ENDBRANCH   1   2
BRANCH   1  31
ATOM     31  C   UNL A   1      37.605  19.906  24.798  1.00  0.00     0.023 C 
BRANCH  31  32
ATOM     32  C   UNL A   1      38.823  20.342  25.592  1.00  0.00     0.116 C 
BRANCH  32  33
ATOM     33  N   UNL A   1      39.796  19.262  25.800  1.00  0.00    -0.352 N 
ATOM     34  C   UNL A   1      41.163  19.392  26.008  1.00  0.00     0.251 C 
ATOM     35  H   UNL A   1      39.441  18.344  25.791  1.00  0.00     0.163 HD
ATOM     36  O   UNL A   1      41.934  18.463  25.814  1.00  0.00    -0.269 OA
BRANCH  34  37
ATOM     37  C   UNL A   1      41.641  20.686  26.516  1.00  0.00     0.039 A 
ATOM     38  C   UNL A   1      42.353  21.613  25.749  1.00  0.00     0.014 A 
ATOM     39  C   UNL A   1      41.252  20.979  27.816  1.00  0.00     0.014 A 
ATOM     40  C   UNL A   1      42.619  22.864  26.309  1.00  0.00     0.010 A 
ATOM     41  C   UNL A   1      41.257  22.272  28.232  1.00  0.00     0.010 A 
ATOM     42  C   UNL A   1      42.062  23.175  27.556  1.00  0.00    -0.014 A 
BRANCH  42  43
ATOM     43  C   UNL A   1      42.267  24.433  28.247  1.00  0.00     0.031 A 
ATOM     44  C   UNL A   1      41.212  25.452  28.048  1.00  0.00     0.074 A 
ATOM     45  C   UNL A   1      43.210  24.539  29.212  1.00  0.00     0.049 A 
ATOM     46  N   UNL A   1      41.326  26.572  27.419  1.00  0.00    -0.248 NA
ATOM     47  C   UNL A   1      39.839  25.152  28.482  1.00  0.00     0.031 C 
ATOM     48  C   UNL A   1      44.124  23.510  29.741  1.00  0.00     0.029 A 
ATOM     49  N   UNL A   1      43.462  25.590  30.026  1.00  0.00    -0.354 N 
ATOM     50  C   UNL A   1      40.100  27.214  27.535  1.00  0.00     0.074 A 
ATOM     51  C   UNL A   1      39.180  26.230  28.048  1.00  0.00     0.031 C 
ATOM     52  C   UNL A   1      44.647  23.924  30.918  1.00  0.00     0.029 A 
ATOM     53  C   UNL A   1      44.256  25.305  31.130  1.00  0.00     0.049 A 
ATOM     54  H   UNL A   1      43.110  26.492  29.848  1.00  0.00     0.167 HD
ATOM     55  C   UNL A   1      39.988  28.565  27.384  1.00  0.00     0.031 A 
ATOM     56  C   UNL A   1      44.561  26.154  32.144  1.00  0.00     0.031 A 
ATOM     57  C   UNL A   1      41.214  29.139  26.884  1.00  0.00     0.049 A 
ATOM     58  C   UNL A   1      44.351  27.526  31.614  1.00  0.00     0.074 A 
ATOM     59  C   UNL A   1      41.926  29.018  25.708  1.00  0.00     0.029 A 
ATOM     60  N   UNL A   1      42.103  29.623  27.818  1.00  0.00    -0.354 N 
ATOM     61  N   UNL A   1      45.066  28.020  30.641  1.00  0.00    -0.248 NA
ATOM     62  C   UNL A   1      43.044  28.140  31.795  1.00  0.00     0.031 C 
ATOM     63  C   UNL A   1      43.294  28.956  26.115  1.00  0.00     0.029 A 
ATOM     64  C   UNL A   1      43.348  29.129  27.500  1.00  0.00     0.049 A 
ATOM     65  H   UNL A   1      41.889  30.215  28.575  1.00  0.00     0.167 HD
ATOM     66  C   UNL A   1      44.156  28.676  29.822  1.00  0.00     0.074 A 
ATOM     67  C   UNL A   1      42.944  28.799  30.634  1.00  0.00     0.031 C 
ATOM     68  C   UNL A   1      44.369  28.798  28.475  1.00  0.00     0.031 A 
BRANCH  55  69
ATOM     69  C   UNL A   1      38.905  29.411  27.995  1.00  0.00    -0.014 A 
ATOM     70  C   UNL A   1      37.633  29.428  27.390  1.00  0.00     0.010 A 
ATOM     71  C   UNL A   1      39.157  30.378  28.990  1.00  0.00     0.010 A 
ATOM     72  C   UNL A   1      36.684  30.405  27.718  1.00  0.00     0.020 A 
ATOM     73  C   UNL A   1      38.203  31.332  29.352  1.00  0.00     0.020 A 
ATOM     74  C   UNL A   1      36.983  31.361  28.688  1.00  0.00     0.054 A 
BRANCH  74  75
ATOM     75  S   UNL A   1      35.798  32.690  29.009  1.00  0.00     0.124 S 
ATOM     76  O   UNL A   1      34.838  32.032  29.890  1.00  0.00    -0.237 OA
ATOM     77  O   UNL A   1      36.638  33.709  29.633  1.00  0.00    -0.237 OA
ATOM     78  O   UNL A   1      35.296  33.032  27.679  1.00  0.00    -0.744 OA
ENDBRANCH  74  75
ENDBRANCH  55  69
BRANCH  56  79
ATOM     79  C   UNL A   1      44.693  25.852  33.591  1.00  0.00    -0.014 A 
ATOM     80  C   UNL A   1      45.769  26.353  34.347  1.00  0.00     0.010 A 
ATOM     81  C   UNL A   1      43.593  25.316  34.294  1.00  0.00     0.010 A 
ATOM     82  C   UNL A   1      45.715  26.383  35.754  1.00  0.00     0.020 A 
ATOM     83  C   UNL A   1      43.533  25.343  35.694  1.00  0.00     0.020 A 
ATOM     84  C   UNL A   1      44.583  25.903  36.417  1.00  0.00     0.054 A 
BRANCH  84  85
ATOM     85  S   UNL A   1      44.436  26.126  38.217  1.00  0.00     0.124 S 
ATOM     86  O   UNL A   1      44.793  24.805  38.726  1.00  0.00    -0.237 OA
ATOM     87  O   UNL A   1      45.403  27.188  38.483  1.00  0.00    -0.237 OA
ATOM     88  O   UNL A   1      43.037  26.505  38.403  1.00  0.00    -0.744 OA
ENDBRANCH  84  85
ENDBRANCH  56  79
BRANCH  68  89
ATOM     89  C   UNL A   1      45.712  28.341  27.931  1.00  0.00    -0.014 A 
ATOM     90  C   UNL A   1      46.805  29.209  27.718  1.00  0.00     0.010 A 
ATOM     91  C   UNL A   1      45.919  26.966  27.738  1.00  0.00     0.010 A 
ATOM     92  C   UNL A   1      48.045  28.724  27.272  1.00  0.00     0.020 A 
ATOM     93  C   UNL A   1      47.156  26.472  27.310  1.00  0.00     0.020 A 
ATOM     94  C   UNL A   1      48.207  27.354  27.059  1.00  0.00     0.054 A 
BRANCH  94  95
ATOM     95  S   UNL A   1      49.803  26.731  26.455  1.00  0.00     0.124 S 
ATOM     96  O   UNL A   1      50.002  27.501  25.231  1.00  0.00    -0.237 OA
ATOM     97  O   UNL A   1      50.713  27.050  27.553  1.00  0.00    -0.237 OA
ATOM     98  O   UNL A   1      49.564  25.301  26.254  1.00  0.00    -0.744 OA
ENDBRANCH  94  95
ENDBRANCH  68  89
ENDBRANCH  42  43
ENDBRANCH  34  37
ENDBRANCH  32  33
ENDBRANCH  31  32
ENDBRANCH   1  31
TORSDOF 17
ENDMDL
MODEL 2
REMARK VINA RESULT:     -12.7      3.167      7.328
REMARK SMILES Cn1c(=O)c2c(nc(Nc3cccc(Cl)c3Cl)n2CC(=O)NCCCCNC(=O)c2ccc(-c3c4nc(c(-c5ccc(S(=O)(=O)[O-])cc5)c5ccc([nH]5)c(-c5ccc(S(=O)(=O)[O-])cc5)c5nc(c(-c6ccc(S(=O)(=O)[O-])cc6)c6ccc3[nH]6)C=C5)C=C4)cc2)n(C)c1=O
REMARK SMILES IDX 24 1 23 2 22 3 20 4 21 5 19 7 18 8 1 9 2 10 3 11 92 12 4 13
REMARK SMILES IDX 5 14 90 15 93 16 6 17 91 18 7 19 8 20 9 21 10 23 11 24 16 25
REMARK SMILES IDX 12 26 14 27 17 28 13 29 15 30 25 31 26 32 27 33 28 34 29 36
REMARK SMILES IDX 30 37 31 38 89 39 32 40 88 41 33 42 34 43 35 44 82 45 36 46
REMARK SMILES IDX 87 47 81 48 83 49 37 50 86 51 80 52 79 53 38 55 68 56 49 57
REMARK SMILES IDX 67 58 50 59 53 60 66 61 84 62 51 63 52 64 65 66 85 67 54 68
REMARK SMILES IDX 39 69 40 70 48 71 41 72 47 73 42 74 43 75 44 76 45 77 46 78
REMARK SMILES IDX 69 79 70 80 78 81 71 82 77 83 72 84 73 85 74 86 75 87 76 88
REMARK SMILES IDX 55 89 56 90 64 91 57 92 63 93 58 94 59 95 60 96 61 97 62 98
REMARK H PARENT 22 6 9 22 27 35 83 54 53 65
REMARK Flexibility Score: inf
ROOT
ATOM      1  C   UNL A   1      35.998  22.896  24.003  1.00  0.00     0.023 C 
ENDROOT
BRANCH   1   2
ATOM      2  C   UNL A   1      34.984  24.034  24.139  1.00  0.00     0.116 C 
BRANCH   2   3
ATOM      3  N   UNL A   1      34.497  24.489  22.858  1.00  0.00    -0.355 N 
ATOM      4  C   UNL A   1      33.655  25.526  22.571  1.00  0.00     0.240 C 
ATOM      5  O   UNL A   1      33.423  25.742  21.380  1.00  0.00    -0.273 OA
ATOM      6  H   UNL A   1      34.816  23.979  22.080  1.00  0.00     0.163 HD
BRANCH   4   7
ATOM      7  C   UNL A   1      33.144  26.453  23.660  1.00  0.00     0.226 C 
BRANCH   7   8
ATOM      8  N   UNL A   1      31.713  26.406  23.929  1.00  0.00    -0.295 N 
ATOM      9  C   UNL A   1      29.799  30.432  21.696  1.00  0.00     0.159 C 
ATOM     10  N   UNL A   1      29.755  29.189  22.444  1.00  0.00    -0.261 N 
ATOM     11  C   UNL A   1      30.967  28.585  22.786  1.00  0.00     0.282 A 
ATOM     12  C   UNL A   1      28.477  28.723  22.807  1.00  0.00     0.332 A 
ATOM     13  O   UNL A   1      32.068  29.074  22.529  1.00  0.00    -0.267 OA
ATOM     14  C   UNL A   1      30.812  27.360  23.491  1.00  0.00     0.154 A 
ATOM     15  N   UNL A   1      28.421  27.537  23.534  1.00  0.00    -0.279 N 
ATOM     16  O   UNL A   1      27.458  29.347  22.499  1.00  0.00    -0.247 OA
ATOM     17  C   UNL A   1      29.589  26.888  23.855  1.00  0.00     0.170 A 
ATOM     18  C   UNL A   1      27.144  26.982  23.945  1.00  0.00     0.157 C 
ATOM     19  N   UNL A   1      29.681  25.729  24.543  1.00  0.00    -0.194 NA
ATOM     20  C   UNL A   1      30.971  25.461  24.638  1.00  0.00     0.210 A 
BRANCH  20  21
ATOM     21  N   UNL A   1      31.384  24.324  25.242  1.00  0.00    -0.324 N 
ATOM     22  H   UNL A   1      31.401  24.399  26.224  1.00  0.00     0.170 HD
BRANCH  21  23
ATOM     23  C   UNL A   1      31.795  23.057  24.785  1.00  0.00     0.061 A 
ATOM     24  C   UNL A   1      31.510  22.761  23.435  1.00  0.00     0.028 A 
ATOM     25  C   UNL A   1      32.458  22.084  25.559  1.00  0.00     0.083 A 
ATOM     26  C   UNL A   1      31.952  21.583  22.839  1.00  0.00     0.004 A 
ATOM     27  C   UNL A   1      32.914  20.901  24.950  1.00  0.00     0.061 A 
ATOM     28  Cl  UNL A   1      32.665  22.330  27.267  1.00  0.00    -0.080 Cl
ATOM     29  C   UNL A   1      32.674  20.663  23.592  1.00  0.00     0.022 A 
ATOM     30  Cl  UNL A   1      33.797  19.694  25.818  1.00  0.00    -0.083 Cl
ENDBRANCH  21  23
ENDBRANCH  20  21
ENDBRANCH   7   8
ENDBRANCH   4   7
ENDBRANCH   2   3
ENDBRANCH   1   2
BRANCH   1  31
ATOM     31  C   UNL A   1      36.699  22.486  25.303  1.00  0.00     0.023 C 
BRANCH  31  32
ATOM     32  C   UNL A   1      38.200  22.714  25.284  1.00  0.00     0.116 C 
BRANCH  32  33
ATOM     33  N   UNL A   1      38.929  21.847  26.218  1.00  0.00    -0.352 N 
ATOM     34  C   UNL A   1      39.959  22.213  27.074  1.00  0.00     0.251 C 
ATOM     35  H   UNL A   1      38.659  20.901  26.239  1.00  0.00     0.163 HD
ATOM     36  O   UNL A   1      40.734  21.388  27.537  1.00  0.00    -0.269 OA
BRANCH  34  37
ATOM     37  C   UNL A   1      40.052  23.635  27.438  1.00  0.00     0.039 A 
ATOM     38  C   UNL A   1      38.983  24.533  27.363  1.00  0.00     0.014 A 
ATOM     39  C   UNL A   1      41.278  24.021  27.963  1.00  0.00     0.014 A 
ATOM     40  C   UNL A   1      39.166  25.817  27.877  1.00  0.00     0.010 A 
ATOM     41  C   UNL A   1      41.349  25.152  28.711  1.00  0.00     0.010 A 
ATOM     42  C   UNL A   1      40.361  26.109  28.549  1.00  0.00    -0.014 A 
BRANCH  42  43
ATOM     43  C   UNL A   1      40.676  27.403  29.121  1.00  0.00     0.031 A 
ATOM     44  C   UNL A   1      41.771  28.148  28.457  1.00  0.00     0.074 A 
ATOM     45  C   UNL A   1      39.837  27.982  30.012  1.00  0.00     0.049 A 
ATOM     46  N   UNL A   1      42.931  28.417  28.949  1.00  0.00    -0.248 NA
ATOM     47  C   UNL A   1      41.619  28.530  27.045  1.00  0.00     0.031 C 
ATOM     48  C   UNL A   1      38.544  27.497  30.527  1.00  0.00     0.029 A 
ATOM     49  N   UNL A   1      39.916  29.218  30.557  1.00  0.00    -0.354 N 
ATOM     50  C   UNL A   1      43.598  29.171  27.990  1.00  0.00     0.074 A 
ATOM     51  C   UNL A   1      42.814  29.066  26.784  1.00  0.00     0.031 C 
ATOM     52  C   UNL A   1      37.872  28.517  31.110  1.00  0.00     0.029 A 
ATOM     53  C   UNL A   1      38.755  29.666  31.176  1.00  0.00     0.049 A 
ATOM     54  H   UNL A   1      40.737  29.760  30.519  1.00  0.00     0.167 HD
ATOM     55  C   UNL A   1      44.641  29.983  28.323  1.00  0.00     0.031 A 
ATOM     56  C   UNL A   1      38.546  30.900  31.699  1.00  0.00     0.031 A 
ATOM     57  C   UNL A   1      45.061  29.764  29.686  1.00  0.00     0.049 A 
ATOM     58  C   UNL A   1      39.892  31.474  31.960  1.00  0.00     0.074 A 
ATOM     59  C   UNL A   1      45.612  28.696  30.366  1.00  0.00     0.029 A 
ATOM     60  N   UNL A   1      44.511  30.583  30.648  1.00  0.00    -0.354 N 
ATOM     61  N   UNL A   1      40.716  30.962  32.831  1.00  0.00    -0.248 NA
ATOM     62  C   UNL A   1      40.513  32.271  30.913  1.00  0.00     0.031 C 
ATOM     63  C   UNL A   1      44.939  28.678  31.624  1.00  0.00     0.029 A 
ATOM     64  C   UNL A   1      44.080  29.779  31.679  1.00  0.00     0.049 A 
ATOM     65  H   UNL A   1      44.440  31.564  30.607  1.00  0.00     0.167 HD
ATOM     66  C   UNL A   1      41.958  30.989  32.211  1.00  0.00     0.074 A 
ATOM     67  C   UNL A   1      41.788  31.895  31.073  1.00  0.00     0.031 C 
ATOM     68  C   UNL A   1      42.920  30.059  32.503  1.00  0.00     0.031 A 
BRANCH  55  69
ATOM     69  C   UNL A   1      45.064  31.200  27.547  1.00  0.00    -0.014 A 
ATOM     70  C   UNL A   1      46.380  31.265  27.049  1.00  0.00     0.010 A 
ATOM     71  C   UNL A   1      44.300  32.385  27.501  1.00  0.00     0.010 A 
ATOM     72  C   UNL A   1      46.926  32.470  26.590  1.00  0.00     0.020 A 
ATOM     73  C   UNL A   1      44.823  33.583  27.008  1.00  0.00     0.020 A 
ATOM     74  C   UNL A   1      46.147  33.626  26.588  1.00  0.00     0.054 A 
BRANCH  74  75
ATOM     75  S   UNL A   1      46.903  35.199  26.111  1.00  0.00     0.124 S 
ATOM     76  O   UNL A   1      47.700  34.812  24.951  1.00  0.00    -0.237 OA
ATOM     77  O   UNL A   1      45.737  36.031  25.831  1.00  0.00    -0.237 OA
ATOM     78  O   UNL A   1      47.668  35.585  27.296  1.00  0.00    -0.744 OA
ENDBRANCH  74  75
ENDBRANCH  55  69
BRANCH  56  79
ATOM     79  C   UNL A   1      37.305  31.715  31.672  1.00  0.00    -0.014 A 
ATOM     80  C   UNL A   1      36.388  31.685  32.739  1.00  0.00     0.010 A 
ATOM     81  C   UNL A   1      37.172  32.752  30.724  1.00  0.00     0.010 A 
ATOM     82  C   UNL A   1      35.421  32.697  32.893  1.00  0.00     0.020 A 
ATOM     83  C   UNL A   1      36.213  33.762  30.871  1.00  0.00     0.020 A 
ATOM     84  C   UNL A   1      35.358  33.745  31.971  1.00  0.00     0.054 A 
BRANCH  84  85
ATOM     85  S   UNL A   1      34.243  35.148  32.284  1.00  0.00     0.124 S 
ATOM     86  O   UNL A   1      35.054  36.010  33.138  1.00  0.00    -0.237 OA
ATOM     87  O   UNL A   1      33.986  35.653  30.937  1.00  0.00    -0.237 OA
ATOM     88  O   UNL A   1      33.091  34.531  32.940  1.00  0.00    -0.744 OA
ENDBRANCH  84  85
ENDBRANCH  56  79
BRANCH  68  89
ATOM     89  C   UNL A   1      42.646  29.098  33.648  1.00  0.00    -0.014 A 
ATOM     90  C   UNL A   1      42.973  29.372  34.994  1.00  0.00     0.010 A 
ATOM     91  C   UNL A   1      41.924  27.926  33.374  1.00  0.00     0.010 A 
ATOM     92  C   UNL A   1      42.641  28.475  36.022  1.00  0.00     0.020 A 
ATOM     93  C   UNL A   1      41.574  27.035  34.395  1.00  0.00     0.020 A 
ATOM     94  C   UNL A   1      41.952  27.303  35.711  1.00  0.00     0.054 A 
BRANCH  94  95
ATOM     95  S   UNL A   1      41.547  26.131  37.038  1.00  0.00     0.124 S 
ATOM     96  O   UNL A   1      41.308  24.891  36.304  1.00  0.00    -0.237 OA
ATOM     97  O   UNL A   1      42.750  26.148  37.866  1.00  0.00    -0.237 OA
ATOM     98  O   UNL A   1      40.362  26.714  37.668  1.00  0.00    -0.744 OA
ENDBRANCH  94  95
ENDBRANCH  68  89
ENDBRANCH  42  43
ENDBRANCH  34  37
ENDBRANCH  32  33
ENDBRANCH  31  32
ENDBRANCH   1  31
TORSDOF 17
ENDMDL
MODEL 3
REMARK VINA RESULT:     -12.4      4.567     10.105
REMARK SMILES Cn1c(=O)c2c(nc(Nc3cccc(Cl)c3Cl)n2CC(=O)NCCCCNC(=O)c2ccc(-c3c4nc(c(-c5ccc(S(=O)(=O)[O-])cc5)c5ccc([nH]5)c(-c5ccc(S(=O)(=O)[O-])cc5)c5nc(c(-c6ccc(S(=O)(=O)[O-])cc6)c6ccc3[nH]6)C=C5)C=C4)cc2)n(C)c1=O
REMARK SMILES IDX 24 1 23 2 22 3 20 4 21 5 19 7 18 8 1 9 2 10 3 11 92 12 4 13
REMARK SMILES IDX 5 14 90 15 93 16 6 17 91 18 7 19 8 20 9 21 10 23 11 24 16 25
REMARK SMILES IDX 12 26 14 27 17 28 13 29 15 30 25 31 26 32 27 33 28 34 29 36
REMARK SMILES IDX 30 37 31 38 89 39 32 40 88 41 33 42 34 43 35 44 82 45 36 46
REMARK SMILES IDX 87 47 81 48 83 49 37 50 86 51 80 52 79 53 38 55 68 56 49 57
REMARK SMILES IDX 67 58 50 59 53 60 66 61 84 62 51 63 52 64 65 66 85 67 54 68
REMARK SMILES IDX 39 69 40 70 48 71 41 72 47 73 42 74 43 75 44 76 45 77 46 78
REMARK SMILES IDX 69 79 70 80 78 81 71 82 77 83 72 84 73 85 74 86 75 87 76 88
REMARK SMILES IDX 55 89 56 90 64 91 57 92 63 93 58 94 59 95 60 96 61 97 62 98
REMARK H PARENT 22 6 9 22 27 35 83 54 53 65
REMARK Flexibility Score: inf
ROOT
ATOM      1  C   UNL A   1      34.228  30.292  27.608  1.00  0.00     0.023 C 
ENDROOT
BRANCH   1   2
ATOM      2  C   UNL A   1      34.454  28.943  26.924  1.00  0.00     0.116 C 
BRANCH   2   3
ATOM      3  N   UNL A   1      34.450  29.051  25.484  1.00  0.00    -0.355 N 
ATOM      4  C   UNL A   1      33.766  28.311  24.562  1.00  0.00     0.240 C 
ATOM      5  O   UNL A   1      33.898  28.633  23.380  1.00  0.00    -0.273 OA
ATOM      6  H   UNL A   1      35.024  29.759  25.113  1.00  0.00     0.163 HD
BRANCH   4   7
ATOM      7  C   UNL A   1      32.781  27.236  24.986  1.00  0.00     0.226 C 
BRANCH   7   8
ATOM      8  N   UNL A   1      32.606  26.121  24.065  1.00  0.00    -0.295 N 
ATOM      9  C   UNL A   1      34.531  22.152  26.387  1.00  0.00     0.159 C 
ATOM     10  N   UNL A   1      33.847  22.854  25.318  1.00  0.00    -0.261 N 
ATOM     11  C   UNL A   1      33.736  24.243  25.409  1.00  0.00     0.282 A 
ATOM     12  C   UNL A   1      33.394  22.066  24.243  1.00  0.00     0.332 A 
ATOM     13  O   UNL A   1      34.228  24.907  26.322  1.00  0.00    -0.267 OA
ATOM     14  C   UNL A   1      33.024  24.828  24.326  1.00  0.00     0.154 A 
ATOM     15  N   UNL A   1      32.744  22.728  23.205  1.00  0.00    -0.279 N 
ATOM     16  O   UNL A   1      33.575  20.845  24.224  1.00  0.00    -0.247 OA
ATOM     17  C   UNL A   1      32.576  24.090  23.276  1.00  0.00     0.170 A 
ATOM     18  C   UNL A   1      32.240  21.991  22.060  1.00  0.00     0.157 C 
ATOM     19  N   UNL A   1      31.958  24.855  22.349  1.00  0.00    -0.194 NA
ATOM     20  C   UNL A   1      32.022  26.096  22.798  1.00  0.00     0.210 A 
BRANCH  20  21
ATOM     21  N   UNL A   1      31.440  27.098  22.102  1.00  0.00    -0.324 N 
ATOM     22  H   UNL A   1      31.842  27.227  21.212  1.00  0.00     0.170 HD
BRANCH  21  23
ATOM     23  C   UNL A   1      30.391  28.000  22.361  1.00  0.00     0.061 A 
ATOM     24  C   UNL A   1      30.591  29.328  21.927  1.00  0.00     0.028 A 
ATOM     25  C   UNL A   1      29.179  27.681  23.007  1.00  0.00     0.083 A 
ATOM     26  C   UNL A   1      29.589  30.289  22.037  1.00  0.00     0.004 A 
ATOM     27  C   UNL A   1      28.165  28.651  23.104  1.00  0.00     0.061 A 
ATOM     28  Cl  UNL A   1      28.965  26.111  23.720  1.00  0.00    -0.080 Cl
ATOM     29  C   UNL A   1      28.367  29.943  22.606  1.00  0.00     0.022 A 
ATOM     30  Cl  UNL A   1      26.627  28.313  23.818  1.00  0.00    -0.083 Cl
ENDBRANCH  21  23
ENDBRANCH  20  21
ENDBRANCH   7   8
ENDBRANCH   4   7
ENDBRANCH   2   3
ENDBRANCH   1   2
BRANCH   1  31
ATOM     31  C   UNL A   1      33.428  31.314  26.791  1.00  0.00     0.023 C 
BRANCH  31  32
ATOM     32  C   UNL A   1      32.269  31.930  27.552  1.00  0.00     0.116 C 
BRANCH  32  33
ATOM     33  N   UNL A   1      32.230  33.396  27.462  1.00  0.00    -0.352 N 
ATOM     34  C   UNL A   1      32.992  34.301  28.188  1.00  0.00     0.251 C 
ATOM     35  H   UNL A   1      31.594  33.778  26.816  1.00  0.00     0.163 HD
ATOM     36  O   UNL A   1      32.654  35.470  28.314  1.00  0.00    -0.269 OA
BRANCH  34  37
ATOM     37  C   UNL A   1      34.252  33.806  28.763  1.00  0.00     0.039 A 
ATOM     38  C   UNL A   1      34.347  33.160  29.999  1.00  0.00     0.014 A 
ATOM     39  C   UNL A   1      35.359  33.940  27.936  1.00  0.00     0.014 A 
ATOM     40  C   UNL A   1      35.577  32.609  30.360  1.00  0.00     0.010 A 
ATOM     41  C   UNL A   1      36.449  33.160  28.160  1.00  0.00     0.010 A 
ATOM     42  C   UNL A   1      36.619  32.620  29.424  1.00  0.00    -0.014 A 
BRANCH  42  43
ATOM     43  C   UNL A   1      37.944  32.087  29.677  1.00  0.00     0.031 A 
ATOM     44  C   UNL A   1      38.156  30.679  29.272  1.00  0.00     0.074 A 
ATOM     45  C   UNL A   1      38.966  32.915  29.998  1.00  0.00     0.049 A 
ATOM     46  N   UNL A   1      38.355  29.672  30.051  1.00  0.00    -0.248 NA
ATOM     47  C   UNL A   1      38.008  30.315  27.854  1.00  0.00     0.031 C 
ATOM     48  C   UNL A   1      38.973  34.384  30.125  1.00  0.00     0.029 A 
ATOM     49  N   UNL A   1      40.274  32.609  30.158  1.00  0.00    -0.354 N 
ATOM     50  C   UNL A   1      38.550  28.570  29.226  1.00  0.00     0.074 A 
ATOM     51  C   UNL A   1      38.161  28.988  27.902  1.00  0.00     0.031 C 
ATOM     52  C   UNL A   1      40.247  34.839  30.109  1.00  0.00     0.029 A 
ATOM     53  C   UNL A   1      41.139  33.696  30.159  1.00  0.00     0.049 A 
ATOM     54  H   UNL A   1      40.590  31.683  30.267  1.00  0.00     0.167 HD
ATOM     55  C   UNL A   1      39.205  27.459  29.668  1.00  0.00     0.031 A 
ATOM     56  C   UNL A   1      42.495  33.646  30.195  1.00  0.00     0.031 A 
ATOM     57  C   UNL A   1      39.431  27.515  31.092  1.00  0.00     0.049 A 
ATOM     58  C   UNL A   1      42.848  32.313  30.750  1.00  0.00     0.074 A 
ATOM     59  C   UNL A   1      38.607  27.528  32.199  1.00  0.00     0.029 A 
ATOM     60  N   UNL A   1      40.640  28.024  31.513  1.00  0.00    -0.354 N 
ATOM     61  N   UNL A   1      42.545  31.958  31.968  1.00  0.00    -0.248 NA
ATOM     62  C   UNL A   1      43.058  31.216  29.819  1.00  0.00     0.031 C 
ATOM     63  C   UNL A   1      39.192  28.490  33.078  1.00  0.00     0.029 A 
ATOM     64  C   UNL A   1      40.380  28.946  32.501  1.00  0.00     0.049 A 
ATOM     65  H   UNL A   1      41.528  27.774  31.171  1.00  0.00     0.167 HD
ATOM     66  C   UNL A   1      42.094  30.649  31.860  1.00  0.00     0.074 A 
ATOM     67  C   UNL A   1      42.525  30.215  30.530  1.00  0.00     0.031 C 
ATOM     68  C   UNL A   1      41.169  30.140  32.732  1.00  0.00     0.031 A 
BRANCH  55  69
ATOM     69  C   UNL A   1      39.937  26.486  28.785  1.00  0.00    -0.014 A 
ATOM     70  C   UNL A   1      39.216  25.427  28.198  1.00  0.00     0.010 A 
ATOM     71  C   UNL A   1      41.344  26.426  28.710  1.00  0.00     0.010 A 
ATOM     72  C   UNL A   1      39.873  24.331  27.623  1.00  0.00     0.020 A 
ATOM     73  C   UNL A   1      42.007  25.356  28.103  1.00  0.00     0.020 A 
ATOM     74  C   UNL A   1      41.266  24.296  27.594  1.00  0.00     0.054 A 
BRANCH  74  75
ATOM     75  S   UNL A   1      42.098  22.819  26.963  1.00  0.00     0.124 S 
ATOM     76  O   UNL A   1      43.136  23.396  26.114  1.00  0.00    -0.237 OA
ATOM     77  O   UNL A   1      42.564  22.179  28.190  1.00  0.00    -0.237 OA
ATOM     78  O   UNL A   1      41.038  22.103  26.256  1.00  0.00    -0.744 OA
ENDBRANCH  74  75
ENDBRANCH  55  69
BRANCH  56  79
ATOM     79  C   UNL A   1      43.469  34.517  29.490  1.00  0.00    -0.014 A 
ATOM     80  C   UNL A   1      43.607  34.475  28.090  1.00  0.00     0.010 A 
ATOM     81  C   UNL A   1      44.052  35.606  30.172  1.00  0.00     0.010 A 
ATOM     82  C   UNL A   1      44.240  35.520  27.391  1.00  0.00     0.020 A 
ATOM     83  C   UNL A   1      44.684  36.649  29.483  1.00  0.00     0.020 A 
ATOM     84  C   UNL A   1      44.751  36.616  28.093  1.00  0.00     0.054 A 
BRANCH  84  85
ATOM     85  S   UNL A   1      45.389  38.051  27.173  1.00  0.00     0.124 S 
ATOM     86  O   UNL A   1      46.258  37.425  26.181  1.00  0.00    -0.237 OA
ATOM     87  O   UNL A   1      44.168  38.658  26.650  1.00  0.00    -0.237 OA
ATOM     88  O   UNL A   1      46.077  38.835  28.196  1.00  0.00    -0.744 OA
ENDBRANCH  84  85
ENDBRANCH  56  79
BRANCH  68  89
ATOM     89  C   UNL A   1      40.777  31.000  33.923  1.00  0.00    -0.014 A 
ATOM     90  C   UNL A   1      39.754  31.971  33.882  1.00  0.00     0.010 A 
ATOM     91  C   UNL A   1      41.383  30.737  35.162  1.00  0.00     0.010 A 
ATOM     92  C   UNL A   1      39.390  32.695  35.029  1.00  0.00     0.020 A 
ATOM     93  C   UNL A   1      41.015  31.441  36.313  1.00  0.00     0.020 A 
ATOM     94  C   UNL A   1      40.035  32.431  36.238  1.00  0.00     0.054 A 
BRANCH  94  95
ATOM     95  S   UNL A   1      39.582  33.387  37.715  1.00  0.00     0.124 S 
ATOM     96  O   UNL A   1      40.300  32.689  38.777  1.00  0.00    -0.237 OA
ATOM     97  O   UNL A   1      40.074  34.726  37.399  1.00  0.00    -0.237 OA
ATOM     98  O   UNL A   1      38.125  33.269  37.772  1.00  0.00    -0.744 OA
ENDBRANCH  94  95
ENDBRANCH  68  89
ENDBRANCH  42  43
ENDBRANCH  34  37
ENDBRANCH  32  33
ENDBRANCH  31  32
ENDBRANCH   1  31
TORSDOF 17
ENDMDL
