MODEL 1
REMARK VINA RESULT:     -12.7      0.000      0.000
REMARK SMILES O=C(NCCCCNC(=O)[C@H]1CC2(CCN(C(=O)C3CC3)CC2)CN1C(=O)CCn1cccn1)c1ccc(-c2c3nc(c(-c4ccc(S(=O)(=O)[O-])cc4)c4ccc([nH]4)c(-c4ccc(S(=O)(=O)[O-])cc4)c4nc(c(-c5ccc(S(=O)(=O)[O-])cc5)c5ccc2[nH]5)C=C4)C=C3)cc1
REMARK SMILES IDX 6 1 5 2 4 3 3 4 1 5 2 6 35 8 36 9 94 10 37 11 93 12 38 13
REMARK SMILES IDX 39 14 40 15 87 16 41 17 92 18 86 19 88 20 42 21 91 22 85 23
REMARK SMILES IDX 84 24 43 26 73 27 54 28 72 29 55 30 58 31 71 32 89 33 56 34
REMARK SMILES IDX 57 35 70 37 90 38 59 39 44 40 45 41 53 42 46 43 52 44 47 45
REMARK SMILES IDX 48 46 49 47 50 48 51 49 74 50 75 51 83 52 76 53 82 54 77 55
REMARK SMILES IDX 78 56 79 57 80 58 81 59 60 60 61 61 69 62 62 63 68 64 63 65
REMARK SMILES IDX 64 66 65 67 66 68 67 69 7 70 8 71 9 72 10 74 11 75 12 76
REMARK SMILES IDX 25 77 13 78 24 79 14 80 23 81 15 82 22 83 16 84 17 85 18 86
REMARK SMILES IDX 26 87 27 88 28 89 29 90 30 91 31 92 34 93 32 94 33 95 19 96
REMARK SMILES IDX 20 97 21 98
REMARK H PARENT 3 7 88 25 58 36 8 73
REMARK Flexibility Score: inf
ROOT
ATOM      1  C   UNL A   1      38.842  21.316  25.747  1.00  0.00     0.023 C 
ENDROOT
BRANCH   1   2
ATOM      2  C   UNL A   1      39.950  22.015  26.541  1.00  0.00     0.023 C 
BRANCH   2   3
ATOM      3  C   UNL A   1      41.313  21.326  26.504  1.00  0.00     0.116 C 
BRANCH   3   4
ATOM      4  N   UNL A   1      42.180  21.738  25.419  1.00  0.00    -0.352 N 
ATOM      5  O   UNL A   1      43.644  22.829  24.169  1.00  0.00    -0.269 OA
ATOM      6  C   UNL A   1      42.936  22.853  25.180  1.00  0.00     0.251 C 
ATOM      7  H   UNL A   1      42.239  21.070  24.697  1.00  0.00     0.163 HD
BRANCH   6   8
ATOM      8  C   UNL A   1      42.899  24.086  26.008  1.00  0.00     0.039 A 
ATOM      9  C   UNL A   1      43.611  24.281  27.193  1.00  0.00     0.014 A 
ATOM     10  C   UNL A   1      42.056  25.114  25.553  1.00  0.00     0.014 A 
ATOM     11  C   UNL A   1      43.384  25.404  27.979  1.00  0.00     0.010 A 
ATOM     12  C   UNL A   1      41.864  26.265  26.309  1.00  0.00     0.010 A 
ATOM     13  C   UNL A   1      42.490  26.382  27.550  1.00  0.00    -0.014 A 
BRANCH  13  14
ATOM     14  C   UNL A   1      42.302  27.557  28.399  1.00  0.00     0.031 A 
ATOM     15  C   UNL A   1      43.382  28.587  28.355  1.00  0.00     0.074 A 
ATOM     16  C   UNL A   1      41.150  27.797  29.054  1.00  0.00     0.049 A 
ATOM     17  N   UNL A   1      44.056  29.105  29.333  1.00  0.00    -0.248 NA
ATOM     18  C   UNL A   1      43.797  29.061  27.025  1.00  0.00     0.031 C 
ATOM     19  C   UNL A   1      39.892  27.053  28.944  1.00  0.00     0.029 A 
ATOM     20  N   UNL A   1      40.820  28.855  29.847  1.00  0.00    -0.354 N 
ATOM     21  C   UNL A   1      44.861  30.092  28.766  1.00  0.00     0.074 A 
ATOM     22  C   UNL A   1      44.745  29.944  27.336  1.00  0.00     0.031 C 
ATOM     23  C   UNL A   1      38.888  27.816  29.426  1.00  0.00     0.029 A 
ATOM     24  C   UNL A   1      39.451  29.032  29.991  1.00  0.00     0.049 A 
ATOM     25  H   UNL A   1      41.488  29.438  30.276  1.00  0.00     0.167 HD
ATOM     26  C   UNL A   1      45.436  31.093  29.488  1.00  0.00     0.031 A 
ATOM     27  C   UNL A   1      38.818  30.141  30.443  1.00  0.00     0.031 A 
ATOM     28  C   UNL A   1      45.465  30.821  30.897  1.00  0.00     0.049 A 
ATOM     29  C   UNL A   1      39.800  30.951  31.200  1.00  0.00     0.074 A 
ATOM     30  C   UNL A   1      46.044  29.856  31.696  1.00  0.00     0.029 A 
ATOM     31  N   UNL A   1      44.545  31.462  31.691  1.00  0.00    -0.354 N 
ATOM     32  N   UNL A   1      40.340  30.573  32.325  1.00  0.00    -0.248 NA
ATOM     33  C   UNL A   1      40.491  32.033  30.516  1.00  0.00     0.031 C 
ATOM     34  C   UNL A   1      45.116  29.652  32.760  1.00  0.00     0.029 A 
ATOM     35  C   UNL A   1      44.044  30.522  32.554  1.00  0.00     0.049 A 
ATOM     36  H   UNL A   1      44.295  32.413  31.648  1.00  0.00     0.167 HD
ATOM     37  C   UNL A   1      41.635  31.069  32.289  1.00  0.00     0.074 A 
ATOM     38  C   UNL A   1      41.629  32.057  31.215  1.00  0.00     0.031 C 
ATOM     39  C   UNL A   1      42.653  30.439  32.948  1.00  0.00     0.031 A 
BRANCH  26  40
ATOM     40  C   UNL A   1      45.667  32.482  28.940  1.00  0.00    -0.014 A 
ATOM     41  C   UNL A   1      46.843  33.179  29.284  1.00  0.00     0.010 A 
ATOM     42  C   UNL A   1      44.634  33.225  28.331  1.00  0.00     0.010 A 
ATOM     43  C   UNL A   1      46.949  34.565  29.086  1.00  0.00     0.020 A 
ATOM     44  C   UNL A   1      44.749  34.596  28.088  1.00  0.00     0.020 A 
ATOM     45  C   UNL A   1      45.890  35.265  28.505  1.00  0.00     0.054 A 
BRANCH  45  46
ATOM     46  S   UNL A   1      45.976  37.070  28.386  1.00  0.00     0.124 S 
ATOM     47  O   UNL A   1      45.020  37.344  27.317  1.00  0.00    -0.237 OA
ATOM     48  O   UNL A   1      45.571  37.492  29.723  1.00  0.00    -0.237 OA
ATOM     49  O   UNL A   1      47.376  37.324  28.056  1.00  0.00    -0.744 OA
ENDBRANCH  45  46
ENDBRANCH  26  40
BRANCH  27  50
ATOM     50  C   UNL A   1      37.525  30.678  29.954  1.00  0.00    -0.014 A 
ATOM     51  C   UNL A   1      36.590  31.248  30.835  1.00  0.00     0.010 A 
ATOM     52  C   UNL A   1      37.317  30.854  28.570  1.00  0.00     0.010 A 
ATOM     53  C   UNL A   1      35.509  32.001  30.346  1.00  0.00     0.020 A 
ATOM     54  C   UNL A   1      36.238  31.592  28.075  1.00  0.00     0.020 A 
ATOM     55  C   UNL A   1      35.349  32.181  28.968  1.00  0.00     0.054 A 
BRANCH  55  56
ATOM     56  S   UNL A   1      34.046  33.284  28.351  1.00  0.00     0.124 S 
ATOM     57  O   UNL A   1      33.511  33.853  29.584  1.00  0.00    -0.237 OA
ATOM     58  O   UNL A   1      34.790  34.209  27.498  1.00  0.00    -0.237 OA
ATOM     59  O   UNL A   1      33.140  32.384  27.639  1.00  0.00    -0.744 OA
ENDBRANCH  55  56
ENDBRANCH  27  50
BRANCH  39  60
ATOM     60  C   UNL A   1      42.300  29.354  33.940  1.00  0.00    -0.014 A 
ATOM     61  C   UNL A   1      42.093  28.012  33.562  1.00  0.00     0.010 A 
ATOM     62  C   UNL A   1      42.340  29.664  35.310  1.00  0.00     0.010 A 
ATOM     63  C   UNL A   1      41.905  27.014  34.526  1.00  0.00     0.020 A 
ATOM     64  C   UNL A   1      42.171  28.669  36.279  1.00  0.00     0.020 A 
ATOM     65  C   UNL A   1      41.947  27.349  35.882  1.00  0.00     0.054 A 
BRANCH  65  66
ATOM     66  S   UNL A   1      41.772  26.037  37.123  1.00  0.00     0.124 S 
ATOM     67  O   UNL A   1      42.818  26.368  38.086  1.00  0.00    -0.237 OA
ATOM     68  O   UNL A   1      40.402  26.219  37.597  1.00  0.00    -0.237 OA
ATOM     69  O   UNL A   1      41.996  24.807  36.364  1.00  0.00    -0.744 OA
ENDBRANCH  65  66
ENDBRANCH  39  60
ENDBRANCH  13  14
ENDBRANCH   6   8
ENDBRANCH   3   4
ENDBRANCH   2   3
ENDBRANCH   1   2
BRANCH   1  70
ATOM     70  C   UNL A   1      37.498  22.042  25.732  1.00  0.00     0.116 C 
BRANCH  70  71
ATOM     71  N   UNL A   1      37.467  23.068  24.709  1.00  0.00    -0.354 N 
ATOM     72  C   UNL A   1      36.353  23.379  23.988  1.00  0.00     0.242 C 
ATOM     73  H   UNL A   1      38.295  23.567  24.526  1.00  0.00     0.163 HD
ATOM     74  O   UNL A   1      36.365  23.133  22.785  1.00  0.00    -0.273 OA
BRANCH  72  75
ATOM     75  C   UNL A   1      35.124  23.930  24.730  1.00  0.00     0.175 C 
ATOM     76  C   UNL A   1      34.351  25.089  24.085  1.00  0.00     0.044 C 
ATOM     77  N   UNL A   1      34.005  23.086  25.197  1.00  0.00    -0.330 N 
ATOM     78  C   UNL A   1      33.114  25.292  25.011  1.00  0.00    -0.006 C 
ATOM     79  C   UNL A   1      33.088  23.998  25.872  1.00  0.00     0.127 C 
ATOM     80  C   UNL A   1      31.799  25.428  24.218  1.00  0.00     0.030 C 
ATOM     81  C   UNL A   1      33.284  26.548  25.885  1.00  0.00     0.030 C 
ATOM     82  C   UNL A   1      31.671  26.750  23.462  1.00  0.00     0.120 C 
ATOM     83  C   UNL A   1      33.173  27.841  25.071  1.00  0.00     0.120 C 
ATOM     84  N   UNL A   1      31.916  27.907  24.321  1.00  0.00    -0.342 N 
ATOM     85  C   UNL A   1      31.216  29.114  24.366  1.00  0.00     0.225 C 
ATOM     86  O   UNL A   1      31.660  30.070  25.018  1.00  0.00    -0.275 OA
BRANCH  77  87
ATOM     87  C   UNL A   1      33.437  21.998  24.541  1.00  0.00     0.225 C 
ATOM     88  O   UNL A   1      32.702  22.149  23.556  1.00  0.00    -0.275 OA
BRANCH  87  89
ATOM     89  C   UNL A   1      33.612  20.593  25.068  1.00  0.00     0.124 C 
BRANCH  89  90
ATOM     90  C   UNL A   1      32.510  19.643  24.625  1.00  0.00     0.154 C 
BRANCH  90  91
ATOM     91  N   UNL A   1      32.847  18.233  24.626  1.00  0.00    -0.272 N 
ATOM     92  C   UNL A   1      33.553  17.570  23.660  1.00  0.00     0.108 A 
ATOM     93  N   UNL A   1      32.336  17.405  25.559  1.00  0.00    -0.182 NA
ATOM     94  C   UNL A   1      33.530  16.241  24.008  1.00  0.00     0.042 A 
ATOM     95  C   UNL A   1      32.750  16.195  25.175  1.00  0.00     0.135 A 
ENDBRANCH  90  91
ENDBRANCH  89  90
ENDBRANCH  87  89
ENDBRANCH  77  87
BRANCH  85  96
ATOM     96  C   UNL A   1      29.896  29.378  23.719  1.00  0.00     0.079 C 
ATOM     97  C   UNL A   1      29.213  30.671  23.389  1.00  0.00     0.014 C 
ATOM     98  C   UNL A   1      29.793  29.828  22.283  1.00  0.00     0.014 C 
ENDBRANCH  85  96
ENDBRANCH  72  75
ENDBRANCH  70  71
ENDBRANCH   1  70
TORSDOF 19
ENDMDL
MODEL 2
REMARK VINA RESULT:     -12.4      2.639      9.700
REMARK SMILES O=C(NCCCCNC(=O)[C@H]1CC2(CCN(C(=O)C3CC3)CC2)CN1C(=O)CCn1cccn1)c1ccc(-c2c3nc(c(-c4ccc(S(=O)(=O)[O-])cc4)c4ccc([nH]4)c(-c4ccc(S(=O)(=O)[O-])cc4)c4nc(c(-c5ccc(S(=O)(=O)[O-])cc5)c5ccc2[nH]5)C=C4)C=C3)cc1
REMARK SMILES IDX 6 1 5 2 4 3 3 4 1 5 2 6 35 8 36 9 94 10 37 11 93 12 38 13
REMARK SMILES IDX 39 14 40 15 87 16 41 17 92 18 86 19 88 20 42 21 91 22 85 23
REMARK SMILES IDX 84 24 43 26 73 27 54 28 72 29 55 30 58 31 71 32 89 33 56 34
REMARK SMILES IDX 57 35 70 37 90 38 59 39 44 40 45 41 53 42 46 43 52 44 47 45
REMARK SMILES IDX 48 46 49 47 50 48 51 49 74 50 75 51 83 52 76 53 82 54 77 55
REMARK SMILES IDX 78 56 79 57 80 58 81 59 60 60 61 61 69 62 62 63 68 64 63 65
REMARK SMILES IDX 64 66 65 67 66 68 67 69 7 70 8 71 9 72 10 74 11 75 12 76
REMARK SMILES IDX 25 77 13 78 24 79 14 80 23 81 15 82 22 83 16 84 17 85 18 86
REMARK SMILES IDX 26 87 27 88 28 89 29 90 30 91 31 92 34 93 32 94 33 95 19 96
REMARK SMILES IDX 20 97 21 98
REMARK H PARENT 3 7 88 25 58 36 8 73
REMARK Flexibility Score: inf
ROOT
ATOM      1  C   UNL A   1      34.323  31.375  27.809  1.00  0.00     0.023 C 
ENDROOT
BRANCH   1   2
ATOM      2  C   UNL A   1      33.354  32.558  27.896  1.00  0.00     0.023 C 
BRANCH   2   3
ATOM      3  C   UNL A   1      33.925  33.822  28.539  1.00  0.00     0.116 C 
BRANCH   3   4
ATOM      4  N   UNL A   1      33.623  33.986  29.946  1.00  0.00    -0.352 N 
ATOM      5  O   UNL A   1      33.777  34.107  32.150  1.00  0.00    -0.269 OA
ATOM      6  C   UNL A   1      34.324  33.761  31.100  1.00  0.00     0.251 C 
ATOM      7  H   UNL A   1      32.716  34.334  30.108  1.00  0.00     0.163 HD
BRANCH   6   8
ATOM      8  C   UNL A   1      35.642  33.077  31.162  1.00  0.00     0.039 A 
ATOM      9  C   UNL A   1      36.881  33.719  31.187  1.00  0.00     0.014 A 
ATOM     10  C   UNL A   1      35.611  31.672  31.172  1.00  0.00     0.014 A 
ATOM     11  C   UNL A   1      38.059  32.989  31.082  1.00  0.00     0.010 A 
ATOM     12  C   UNL A   1      36.788  30.934  31.118  1.00  0.00     0.010 A 
ATOM     13  C   UNL A   1      38.011  31.598  31.019  1.00  0.00    -0.014 A 
BRANCH  13  14
ATOM     14  C   UNL A   1      39.276  30.873  30.931  1.00  0.00     0.031 A 
ATOM     15  C   UNL A   1      40.019  30.679  32.212  1.00  0.00     0.074 A 
ATOM     16  C   UNL A   1      39.679  30.257  29.804  1.00  0.00     0.049 A 
ATOM     17  N   UNL A   1      41.247  30.980  32.496  1.00  0.00    -0.248 NA
ATOM     18  C   UNL A   1      39.263  30.120  33.344  1.00  0.00     0.031 C 
ATOM     19  C   UNL A   1      38.916  30.083  28.564  1.00  0.00     0.029 A 
ATOM     20  N   UNL A   1      40.806  29.523  29.585  1.00  0.00    -0.354 N 
ATOM     21  C   UNL A   1      41.475  30.496  33.784  1.00  0.00     0.074 A 
ATOM     22  C   UNL A   1      40.193  30.080  34.297  1.00  0.00     0.031 C 
ATOM     23  C   UNL A   1      39.480  29.094  27.838  1.00  0.00     0.029 A 
ATOM     24  C   UNL A   1      40.704  28.667  28.497  1.00  0.00     0.049 A 
ATOM     25  H   UNL A   1      41.613  29.592  30.144  1.00  0.00     0.167 HD
ATOM     26  C   UNL A   1      42.720  30.289  34.296  1.00  0.00     0.031 A 
ATOM     27  C   UNL A   1      41.508  27.613  28.214  1.00  0.00     0.031 A 
ATOM     28  C   UNL A   1      43.746  30.969  33.560  1.00  0.00     0.049 A 
ATOM     29  C   UNL A   1      42.775  27.792  28.960  1.00  0.00     0.074 A 
ATOM     30  C   UNL A   1      44.037  32.288  33.274  1.00  0.00     0.029 A 
ATOM     31  N   UNL A   1      44.525  30.223  32.708  1.00  0.00    -0.354 N 
ATOM     32  N   UNL A   1      43.629  28.747  28.720  1.00  0.00    -0.248 NA
ATOM     33  C   UNL A   1      42.929  27.133  30.247  1.00  0.00     0.031 C 
ATOM     34  C   UNL A   1      44.598  32.268  31.963  1.00  0.00     0.029 A 
ATOM     35  C   UNL A   1      44.635  30.937  31.543  1.00  0.00     0.049 A 
ATOM     36  H   UNL A   1      44.925  29.344  32.898  1.00  0.00     0.167 HD
ATOM     37  C   UNL A   1      44.151  29.084  29.961  1.00  0.00     0.074 A 
ATOM     38  C   UNL A   1      43.776  27.980  30.838  1.00  0.00     0.031 C 
ATOM     39  C   UNL A   1      44.600  30.348  30.221  1.00  0.00     0.031 A 
BRANCH  26  40
ATOM     40  C   UNL A   1      43.040  29.183  35.273  1.00  0.00    -0.014 A 
ATOM     41  C   UNL A   1      43.755  29.480  36.452  1.00  0.00     0.010 A 
ATOM     42  C   UNL A   1      42.906  27.821  34.930  1.00  0.00     0.010 A 
ATOM     43  C   UNL A   1      44.360  28.466  37.209  1.00  0.00     0.020 A 
ATOM     44  C   UNL A   1      43.466  26.801  35.703  1.00  0.00     0.020 A 
ATOM     45  C   UNL A   1      44.225  27.133  36.815  1.00  0.00     0.054 A 
BRANCH  45  46
ATOM     46  S   UNL A   1      45.126  25.844  37.713  1.00  0.00     0.124 S 
ATOM     47  O   UNL A   1      44.322  24.661  37.425  1.00  0.00    -0.237 OA
ATOM     48  O   UNL A   1      46.443  25.886  37.082  1.00  0.00    -0.237 OA
ATOM     49  O   UNL A   1      45.092  26.305  39.098  1.00  0.00    -0.744 OA
ENDBRANCH  45  46
ENDBRANCH  26  40
BRANCH  27  50
ATOM     50  C   UNL A   1      41.089  26.321  27.620  1.00  0.00    -0.014 A 
ATOM     51  C   UNL A   1      41.894  25.652  26.683  1.00  0.00     0.010 A 
ATOM     52  C   UNL A   1      39.996  25.617  28.170  1.00  0.00     0.010 A 
ATOM     53  C   UNL A   1      41.637  24.313  26.341  1.00  0.00     0.020 A 
ATOM     54  C   UNL A   1      39.727  24.290  27.826  1.00  0.00     0.020 A 
ATOM     55  C   UNL A   1      40.562  23.636  26.927  1.00  0.00     0.054 A 
BRANCH  55  56
ATOM     56  S   UNL A   1      40.331  21.864  26.603  1.00  0.00     0.124 S 
ATOM     57  O   UNL A   1      38.955  21.814  26.119  1.00  0.00    -0.237 OA
ATOM     58  O   UNL A   1      41.363  21.586  25.607  1.00  0.00    -0.237 OA
ATOM     59  O   UNL A   1      40.553  21.243  27.909  1.00  0.00    -0.744 OA
ENDBRANCH  55  56
ENDBRANCH  27  50
BRANCH  39  60
ATOM     60  C   UNL A   1      44.775  31.299  29.058  1.00  0.00    -0.014 A 
ATOM     61  C   UNL A   1      45.762  31.120  28.069  1.00  0.00     0.010 A 
ATOM     62  C   UNL A   1      43.813  32.306  28.869  1.00  0.00     0.010 A 
ATOM     63  C   UNL A   1      45.802  31.942  26.935  1.00  0.00     0.020 A 
ATOM     64  C   UNL A   1      43.836  33.119  27.731  1.00  0.00     0.020 A 
ATOM     65  C   UNL A   1      44.835  32.938  26.772  1.00  0.00     0.054 A 
BRANCH  65  66
ATOM     66  S   UNL A   1      44.854  33.951  25.267  1.00  0.00     0.124 S 
ATOM     67  O   UNL A   1      43.893  35.004  25.580  1.00  0.00    -0.237 OA
ATOM     68  O   UNL A   1      46.249  34.379  25.181  1.00  0.00    -0.237 OA
ATOM     69  O   UNL A   1      44.437  33.023  24.217  1.00  0.00    -0.744 OA
ENDBRANCH  65  66
ENDBRANCH  39  60
ENDBRANCH  13  14
ENDBRANCH   6   8
ENDBRANCH   3   4
ENDBRANCH   2   3
ENDBRANCH   1   2
BRANCH   1  70
ATOM     70  C   UNL A   1      33.851  30.214  26.936  1.00  0.00     0.116 C 
BRANCH  70  71
ATOM     71  N   UNL A   1      33.467  29.073  27.742  1.00  0.00    -0.354 N 
ATOM     72  C   UNL A   1      32.652  28.076  27.298  1.00  0.00     0.242 C 
ATOM     73  H   UNL A   1      33.815  29.015  28.662  1.00  0.00     0.163 HD
ATOM     74  O   UNL A   1      31.548  27.963  27.824  1.00  0.00    -0.273 OA
BRANCH  72  75
ATOM     75  C   UNL A   1      33.116  27.217  26.110  1.00  0.00     0.175 C 
ATOM     76  C   UNL A   1      33.040  25.690  26.250  1.00  0.00     0.044 C 
ATOM     77  N   UNL A   1      32.613  27.387  24.731  1.00  0.00    -0.330 N 
ATOM     78  C   UNL A   1      33.442  25.152  24.844  1.00  0.00    -0.006 C 
ATOM     79  C   UNL A   1      33.339  26.406  23.931  1.00  0.00     0.127 C 
ATOM     80  C   UNL A   1      32.491  24.049  24.340  1.00  0.00     0.030 C 
ATOM     81  C   UNL A   1      34.873  24.584  24.862  1.00  0.00     0.030 C 
ATOM     82  C   UNL A   1      32.638  22.722  25.084  1.00  0.00     0.120 C 
ATOM     83  C   UNL A   1      34.967  23.269  25.644  1.00  0.00     0.120 C 
ATOM     84  N   UNL A   1      34.026  22.267  25.139  1.00  0.00    -0.342 N 
ATOM     85  C   UNL A   1      34.518  20.974  24.955  1.00  0.00     0.225 C 
ATOM     86  O   UNL A   1      35.703  20.713  25.216  1.00  0.00    -0.275 OA
BRANCH  77  87
ATOM     87  C   UNL A   1      31.310  27.676  24.337  1.00  0.00     0.225 C 
ATOM     88  O   UNL A   1      30.429  26.807  24.331  1.00  0.00    -0.275 OA
BRANCH  87  89
ATOM     89  C   UNL A   1      30.944  29.041  23.803  1.00  0.00     0.124 C 
BRANCH  89  90
ATOM     90  C   UNL A   1      29.471  29.171  23.446  1.00  0.00     0.154 C 
BRANCH  90  91
ATOM     91  N   UNL A   1      29.048  30.467  22.952  1.00  0.00    -0.272 N 
ATOM     92  C   UNL A   1      28.896  30.821  21.640  1.00  0.00     0.108 A 
ATOM     93  N   UNL A   1      28.908  31.511  23.794  1.00  0.00    -0.182 NA
ATOM     94  C   UNL A   1      28.602  32.164  21.633  1.00  0.00     0.042 A 
ATOM     95  C   UNL A   1      28.644  32.540  22.986  1.00  0.00     0.135 A 
ENDBRANCH  90  91
ENDBRANCH  89  90
ENDBRANCH  87  89
ENDBRANCH  77  87
BRANCH  85  96
ATOM     96  C   UNL A   1      33.748  19.819  24.403  1.00  0.00     0.079 C 
ATOM     97  C   UNL A   1      33.986  18.343  24.518  1.00  0.00     0.014 C 
ATOM     98  C   UNL A   1      32.848  18.979  25.274  1.00  0.00     0.014 C 
ENDBRANCH  85  96
ENDBRANCH  72  75
ENDBRANCH  70  71
ENDBRANCH   1  70
TORSDOF 19
ENDMDL
MODEL 3
REMARK VINA RESULT:     -12.3      2.955      9.319
REMARK SMILES O=C(NCCCCNC(=O)[C@H]1CC2(CCN(C(=O)C3CC3)CC2)CN1C(=O)CCn1cccn1)c1ccc(-c2c3nc(c(-c4ccc(S(=O)(=O)[O-])cc4)c4ccc([nH]4)c(-c4ccc(S(=O)(=O)[O-])cc4)c4nc(c(-c5ccc(S(=O)(=O)[O-])cc5)c5ccc2[nH]5)C=C4)C=C3)cc1
REMARK SMILES IDX 6 1 5 2 4 3 3 4 1 5 2 6 35 8 36 9 94 10 37 11 93 12 38 13
REMARK SMILES IDX 39 14 40 15 87 16 41 17 92 18 86 19 88 20 42 21 91 22 85 23
REMARK SMILES IDX 84 24 43 26 73 27 54 28 72 29 55 30 58 31 71 32 89 33 56 34
REMARK SMILES IDX 57 35 70 37 90 38 59 39 44 40 45 41 53 42 46 43 52 44 47 45
REMARK SMILES IDX 48 46 49 47 50 48 51 49 74 50 75 51 83 52 76 53 82 54 77 55
REMARK SMILES IDX 78 56 79 57 80 58 81 59 60 60 61 61 69 62 62 63 68 64 63 65
REMARK SMILES IDX 64 66 65 67 66 68 67 69 7 70 8 71 9 72 10 74 11 75 12 76
REMARK SMILES IDX 25 77 13 78 24 79 14 80 23 81 15 82 22 83 16 84 17 85 18 86
REMARK SMILES IDX 26 87 27 88 28 89 29 90 30 91 31 92 34 93 32 94 33 95 19 96
REMARK SMILES IDX 20 97 21 98
REMARK H PARENT 3 7 88 25 58 36 8 73
REMARK Flexibility Score: inf
ROOT
ATOM      1  C   UNL A   1      33.517  30.837  27.305  1.00  0.00     0.023 C 
ENDROOT
BRANCH   1   2
ATOM      2  C   UNL A   1      32.132  31.493  27.297  1.00  0.00     0.023 C 
BRANCH   2   3
ATOM      3  C   UNL A   1      32.068  32.871  26.637  1.00  0.00     0.116 C 
BRANCH   3   4
ATOM      4  N   UNL A   1      31.984  33.988  27.556  1.00  0.00    -0.352 N 
ATOM      5  O   UNL A   1      32.481  35.609  28.977  1.00  0.00    -0.269 OA
ATOM      6  C   UNL A   1      32.880  34.599  28.391  1.00  0.00     0.251 C 
ATOM      7  H   UNL A   1      31.089  34.396  27.586  1.00  0.00     0.163 HD
BRANCH   6   8
ATOM      8  C   UNL A   1      34.245  34.086  28.679  1.00  0.00     0.039 A 
ATOM      9  C   UNL A   1      35.320  34.120  27.789  1.00  0.00     0.014 A 
ATOM     10  C   UNL A   1      34.436  33.507  29.945  1.00  0.00     0.014 A 
ATOM     11  C   UNL A   1      36.510  33.470  28.092  1.00  0.00     0.010 A 
ATOM     12  C   UNL A   1      35.642  32.900  30.274  1.00  0.00     0.010 A 
ATOM     13  C   UNL A   1      36.661  32.836  29.324  1.00  0.00    -0.014 A 
BRANCH  13  14
ATOM     14  C   UNL A   1      37.938  32.186  29.607  1.00  0.00     0.031 A 
ATOM     15  C   UNL A   1      38.040  30.739  29.249  1.00  0.00     0.074 A 
ATOM     16  C   UNL A   1      39.027  32.874  30.002  1.00  0.00     0.049 A 
ATOM     17  N   UNL A   1      38.392  29.738  29.993  1.00  0.00    -0.248 NA
ATOM     18  C   UNL A   1      37.639  30.359  27.885  1.00  0.00     0.031 C 
ATOM     19  C   UNL A   1      39.176  34.329  30.086  1.00  0.00     0.029 A 
ATOM     20  N   UNL A   1      40.281  32.413  30.267  1.00  0.00    -0.354 N 
ATOM     21  C   UNL A   1      38.424  28.626  29.153  1.00  0.00     0.074 A 
ATOM     22  C   UNL A   1      37.845  29.043  27.900  1.00  0.00     0.031 C 
ATOM     23  C   UNL A   1      40.492  34.632  30.125  1.00  0.00     0.029 A 
ATOM     24  C   UNL A   1      41.257  33.398  30.202  1.00  0.00     0.049 A 
ATOM     25  H   UNL A   1      40.477  31.472  30.484  1.00  0.00     0.167 HD
ATOM     26  C   UNL A   1      39.087  27.476  29.459  1.00  0.00     0.031 A 
ATOM     27  C   UNL A   1      42.595  33.211  30.109  1.00  0.00     0.031 A 
ATOM     28  C   UNL A   1      39.405  27.370  30.854  1.00  0.00     0.049 A 
ATOM     29  C   UNL A   1      42.897  31.834  30.561  1.00  0.00     0.074 A 
ATOM     30  C   UNL A   1      38.675  27.310  32.024  1.00  0.00     0.029 A 
ATOM     31  N   UNL A   1      40.701  27.621  31.236  1.00  0.00    -0.354 N 
ATOM     32  N   UNL A   1      42.736  31.421  31.787  1.00  0.00    -0.248 NA
ATOM     33  C   UNL A   1      43.020  30.780  29.566  1.00  0.00     0.031 C 
ATOM     34  C   UNL A   1      39.467  27.997  32.991  1.00  0.00     0.029 A 
ATOM     35  C   UNL A   1      40.639  28.411  32.354  1.00  0.00     0.049 A 
ATOM     36  H   UNL A   1      41.517  27.296  30.790  1.00  0.00     0.167 HD
ATOM     37  C   UNL A   1      42.330  30.099  31.673  1.00  0.00     0.074 A 
ATOM     38  C   UNL A   1      42.641  29.728  30.296  1.00  0.00     0.031 C 
ATOM     39  C   UNL A   1      41.534  29.518  32.620  1.00  0.00     0.031 A 
BRANCH  26  40
ATOM     40  C   UNL A   1      39.749  26.601  28.422  1.00  0.00    -0.014 A 
ATOM     41  C   UNL A   1      39.348  25.256  28.287  1.00  0.00     0.010 A 
ATOM     42  C   UNL A   1      40.943  26.983  27.774  1.00  0.00     0.010 A 
ATOM     43  C   UNL A   1      40.140  24.328  27.594  1.00  0.00     0.020 A 
ATOM     44  C   UNL A   1      41.715  26.077  27.043  1.00  0.00     0.020 A 
ATOM     45  C   UNL A   1      41.329  24.745  26.993  1.00  0.00     0.054 A 
BRANCH  45  46
ATOM     46  S   UNL A   1      42.416  23.517  26.225  1.00  0.00     0.124 S 
ATOM     47  O   UNL A   1      41.491  22.419  25.965  1.00  0.00    -0.237 OA
ATOM     48  O   UNL A   1      42.907  24.227  25.047  1.00  0.00    -0.237 OA
ATOM     49  O   UNL A   1      43.421  23.260  27.254  1.00  0.00    -0.744 OA
ENDBRANCH  45  46
ENDBRANCH  26  40
BRANCH  27  50
ATOM     50  C   UNL A   1      43.548  34.038  29.330  1.00  0.00    -0.014 A 
ATOM     51  C   UNL A   1      44.905  34.122  29.685  1.00  0.00     0.010 A 
ATOM     52  C   UNL A   1      43.164  34.555  28.074  1.00  0.00     0.010 A 
ATOM     53  C   UNL A   1      45.848  34.666  28.796  1.00  0.00     0.020 A 
ATOM     54  C   UNL A   1      44.094  35.109  27.190  1.00  0.00     0.020 A 
ATOM     55  C   UNL A   1      45.437  35.143  27.547  1.00  0.00     0.054 A 
BRANCH  55  56
ATOM     56  S   UNL A   1      46.679  35.697  26.344  1.00  0.00     0.124 S 
ATOM     57  O   UNL A   1      46.533  34.716  25.273  1.00  0.00    -0.237 OA
ATOM     58  O   UNL A   1      46.232  37.051  26.027  1.00  0.00    -0.237 OA
ATOM     59  O   UNL A   1      47.937  35.622  27.086  1.00  0.00    -0.744 OA
ENDBRANCH  55  56
ENDBRANCH  27  50
BRANCH  39  60
ATOM     60  C   UNL A   1      41.329  30.248  33.928  1.00  0.00    -0.014 A 
ATOM     61  C   UNL A   1      42.272  30.216  34.975  1.00  0.00     0.010 A 
ATOM     62  C   UNL A   1      40.234  31.122  34.041  1.00  0.00     0.010 A 
ATOM     63  C   UNL A   1      42.110  31.016  36.113  1.00  0.00     0.020 A 
ATOM     64  C   UNL A   1      40.075  31.936  35.166  1.00  0.00     0.020 A 
ATOM     65  C   UNL A   1      41.011  31.875  36.201  1.00  0.00     0.054 A 
BRANCH  65  66
ATOM     66  S   UNL A   1      40.848  32.957  37.649  1.00  0.00     0.124 S 
ATOM     67  O   UNL A   1      39.526  32.607  38.160  1.00  0.00    -0.237 OA
ATOM     68  O   UNL A   1      41.974  32.552  38.486  1.00  0.00    -0.237 OA
ATOM     69  O   UNL A   1      40.958  34.304  37.090  1.00  0.00    -0.744 OA
ENDBRANCH  65  66
ENDBRANCH  39  60
ENDBRANCH  13  14
ENDBRANCH   6   8
ENDBRANCH   3   4
ENDBRANCH   2   3
ENDBRANCH   1   2
BRANCH   1  70
ATOM     70  C   UNL A   1      33.601  29.494  26.582  1.00  0.00     0.116 C 
BRANCH  70  71
ATOM     71  N   UNL A   1      33.121  28.414  27.421  1.00  0.00    -0.354 N 
ATOM     72  C   UNL A   1      32.182  27.511  27.024  1.00  0.00     0.242 C 
ATOM     73  H   UNL A   1      33.495  28.329  28.328  1.00  0.00     0.163 HD
ATOM     74  O   UNL A   1      31.094  27.531  27.592  1.00  0.00    -0.273 OA
BRANCH  72  75
ATOM     75  C   UNL A   1      32.501  26.589  25.835  1.00  0.00     0.175 C 
ATOM     76  C   UNL A   1      32.554  25.076  26.088  1.00  0.00     0.044 C 
ATOM     77  N   UNL A   1      31.766  26.623  24.554  1.00  0.00    -0.330 N 
ATOM     78  C   UNL A   1      32.753  24.454  24.674  1.00  0.00    -0.006 C 
ATOM     79  C   UNL A   1      32.414  25.625  23.709  1.00  0.00     0.127 C 
ATOM     80  C   UNL A   1      31.809  23.263  24.414  1.00  0.00     0.030 C 
ATOM     81  C   UNL A   1      34.203  23.970  24.486  1.00  0.00     0.030 C 
ATOM     82  C   UNL A   1      32.168  22.008  25.210  1.00  0.00     0.120 C 
ATOM     83  C   UNL A   1      34.515  22.728  25.327  1.00  0.00     0.120 C 
ATOM     84  N   UNL A   1      33.574  21.638  25.058  1.00  0.00    -0.342 N 
ATOM     85  C   UNL A   1      34.117  20.364  24.880  1.00  0.00     0.225 C 
ATOM     86  O   UNL A   1      35.343  20.191  24.952  1.00  0.00    -0.275 OA
BRANCH  77  87
ATOM     87  C   UNL A   1      30.399  26.807  24.369  1.00  0.00     0.225 C 
ATOM     88  O   UNL A   1      29.566  26.183  25.039  1.00  0.00    -0.275 OA
BRANCH  87  89
ATOM     89  C   UNL A   1      29.877  27.703  23.270  1.00  0.00     0.124 C 
BRANCH  89  90
ATOM     90  C   UNL A   1      30.321  29.150  23.413  1.00  0.00     0.154 C 
BRANCH  90  91
ATOM     91  N   UNL A   1      29.447  30.145  22.824  1.00  0.00    -0.272 N 
ATOM     92  C   UNL A   1      28.755  31.114  23.497  1.00  0.00     0.108 A 
ATOM     93  N   UNL A   1      29.125  30.090  21.515  1.00  0.00    -0.182 NA
ATOM     94  C   UNL A   1      27.968  31.747  22.565  1.00  0.00     0.042 A 
ATOM     95  C   UNL A   1      28.222  31.061  21.366  1.00  0.00     0.135 A 
ENDBRANCH  90  91
ENDBRANCH  89  90
ENDBRANCH  87  89
ENDBRANCH  77  87
BRANCH  85  96
ATOM     96  C   UNL A   1      33.346  19.129  24.546  1.00  0.00     0.079 C 
ATOM     97  C   UNL A   1      33.755  17.686  24.576  1.00  0.00     0.014 C 
ATOM     98  C   UNL A   1      32.807  18.218  25.620  1.00  0.00     0.014 C 
ENDBRANCH  85  96
ENDBRANCH  72  75
ENDBRANCH  70  71
ENDBRANCH   1  70
TORSDOF 19
ENDMDL
