MODEL 1
REMARK VINA RESULT:     -11.2      0.000      0.000
REMARK SMILES C[C@H](C(=O)NCCCCNC(=O)c1ccc(-c2c3nc(c(-c4ccc(S(=O)(=O)[O-])cc4)c4ccc([nH]4)c(-c4ccc(S(=O)(=O)[O-])cc4)c4nc(c(-c5ccc(S(=O)(=O)[O-])cc5)c5ccc2[nH]5)C=C4)C=C3)cc1)c1ccc(C[C@H]2CCC[C@@H]2O)cc1
REMARK SMILES IDX 7 1 6 2 5 3 3 4 4 5 2 7 1 8 73 9 74 10 85 11 75 12 84 13
REMARK SMILES IDX 76 14 77 15 78 16 79 17 82 18 80 19 81 20 83 21 8 23 9 24
REMARK SMILES IDX 10 25 11 26 12 28 13 29 14 30 72 31 15 32 71 33 16 34 17 35
REMARK SMILES IDX 18 36 65 37 19 38 70 39 64 40 66 41 20 42 69 43 63 44 62 45
REMARK SMILES IDX 21 47 51 48 32 49 50 50 33 51 36 52 49 53 67 54 34 55 35 56
REMARK SMILES IDX 48 58 68 59 37 60 22 61 23 62 31 63 24 64 30 65 25 66 26 67
REMARK SMILES IDX 27 68 28 69 29 70 52 71 53 72 61 73 54 74 60 75 55 76 56 77
REMARK SMILES IDX 57 78 58 79 59 80 38 81 39 82 47 83 40 84 46 85 41 86 42 87
REMARK SMILES IDX 43 88 44 89 45 90
REMARK H PARENT 5 6 83 22 10 27 66 46 36 57
REMARK Flexibility Score: inf
ROOT
ATOM      1  C   UNL A   1      33.116  29.223  24.720  1.00  0.00     0.023 C 
ENDROOT
BRANCH   1   2
ATOM      2  C   UNL A   1      33.402  28.970  23.244  1.00  0.00     0.116 C 
BRANCH   2   3
ATOM      3  N   UNL A   1      32.262  29.078  22.355  1.00  0.00    -0.356 N 
ATOM      4  C   UNL A   1      30.977  28.646  22.517  1.00  0.00     0.227 C 
ATOM      5  O   UNL A   1      30.142  29.150  21.753  1.00  0.00    -0.274 OA
ATOM      6  H   UNL A   1      32.442  29.536  21.502  1.00  0.00     0.163 HD
BRANCH   4   7
ATOM      7  C   UNL A   1      30.535  27.494  23.445  1.00  0.00     0.105 C 
ATOM      8  C   UNL A   1      29.010  27.649  23.593  1.00  0.00     0.023 C 
BRANCH   7   9
ATOM      9  C   UNL A   1      31.001  26.083  23.111  1.00  0.00    -0.036 A 
ATOM     10  C   UNL A   1      30.276  24.967  23.556  1.00  0.00     0.005 A 
ATOM     11  C   UNL A   1      32.181  25.844  22.389  1.00  0.00     0.005 A 
ATOM     12  C   UNL A   1      30.854  23.690  23.534  1.00  0.00     0.004 A 
ATOM     13  C   UNL A   1      32.725  24.563  22.312  1.00  0.00     0.004 A 
ATOM     14  C   UNL A   1      32.122  23.496  22.980  1.00  0.00    -0.048 A 
BRANCH  14  15
ATOM     15  C   UNL A   1      32.867  22.194  23.150  1.00  0.00     0.041 C 
BRANCH  15  16
ATOM     16  C   UNL A   1      33.512  21.965  24.537  1.00  0.00     0.022 C 
ATOM     17  C   UNL A   1      34.389  23.097  25.101  1.00  0.00     0.007 C 
ATOM     18  C   UNL A   1      32.537  21.649  25.676  1.00  0.00     0.117 C 
ATOM     19  C   UNL A   1      34.232  23.044  26.624  1.00  0.00     0.003 C 
ATOM     20  C   UNL A   1      33.416  21.795  26.912  1.00  0.00     0.032 C 
BRANCH  18  21
ATOM     21  O   UNL A   1      32.023  20.337  25.555  1.00  0.00    -0.393 OA
ATOM     22  H   UNL A   1      31.744  20.018  26.429  1.00  0.00     0.210 HD
ENDBRANCH  18  21
ENDBRANCH  15  16
ENDBRANCH  14  15
ENDBRANCH   7   9
ENDBRANCH   4   7
ENDBRANCH   2   3
ENDBRANCH   1   2
BRANCH   1  23
ATOM     23  C   UNL A   1      33.607  28.174  25.715  1.00  0.00     0.023 C 
BRANCH  23  24
ATOM     24  C   UNL A   1      33.357  28.450  27.195  1.00  0.00     0.116 C 
BRANCH  24  25
ATOM     25  N   UNL A   1      33.391  29.863  27.541  1.00  0.00    -0.352 N 
ATOM     26  C   UNL A   1      34.382  30.631  28.106  1.00  0.00     0.251 C 
ATOM     27  H   UNL A   1      32.562  30.353  27.337  1.00  0.00     0.163 HD
ATOM     28  O   UNL A   1      34.112  31.791  28.425  1.00  0.00    -0.269 OA
BRANCH  26  29
ATOM     29  C   UNL A   1      35.741  30.087  28.373  1.00  0.00     0.039 A 
ATOM     30  C   UNL A   1      36.682  30.093  27.338  1.00  0.00     0.014 A 
ATOM     31  C   UNL A   1      36.101  29.555  29.614  1.00  0.00     0.014 A 
ATOM     32  C   UNL A   1      37.992  29.658  27.575  1.00  0.00     0.010 A 
ATOM     33  C   UNL A   1      37.431  29.208  29.875  1.00  0.00     0.010 A 
ATOM     34  C   UNL A   1      38.397  29.261  28.862  1.00  0.00    -0.014 A 
BRANCH  34  35
ATOM     35  C   UNL A   1      39.826  28.941  29.147  1.00  0.00     0.031 A 
ATOM     36  C   UNL A   1      40.743  29.954  29.786  1.00  0.00     0.074 A 
ATOM     37  C   UNL A   1      40.315  27.732  28.797  1.00  0.00     0.049 A 
ATOM     38  N   UNL A   1      42.002  29.824  30.127  1.00  0.00    -0.248 NA
ATOM     39  C   UNL A   1      40.187  31.288  30.059  1.00  0.00     0.031 C 
ATOM     40  C   UNL A   1      39.562  26.682  28.106  1.00  0.00     0.029 A 
ATOM     41  N   UNL A   1      41.559  27.177  28.977  1.00  0.00    -0.354 N 
ATOM     42  C   UNL A   1      42.386  31.053  30.654  1.00  0.00     0.074 A 
ATOM     43  C   UNL A   1      41.245  31.935  30.529  1.00  0.00     0.031 C 
ATOM     44  C   UNL A   1      40.343  25.600  27.959  1.00  0.00     0.029 A 
ATOM     45  C   UNL A   1      41.664  25.887  28.509  1.00  0.00     0.049 A 
ATOM     46  H   UNL A   1      42.307  27.657  29.402  1.00  0.00     0.167 HD
ATOM     47  C   UNL A   1      43.564  31.411  31.220  1.00  0.00     0.031 A 
ATOM     48  C   UNL A   1      42.700  25.026  28.519  1.00  0.00     0.031 A 
ATOM     49  C   UNL A   1      44.704  30.538  31.344  1.00  0.00     0.049 A 
ATOM     50  C   UNL A   1      43.997  25.444  29.157  1.00  0.00     0.074 A 
ATOM     51  C   UNL A   1      45.927  30.799  31.938  1.00  0.00     0.029 A 
ATOM     52  N   UNL A   1      44.764  29.237  30.867  1.00  0.00    -0.354 N 
ATOM     53  N   UNL A   1      44.308  26.588  29.718  1.00  0.00    -0.248 NA
ATOM     54  C   UNL A   1      45.075  24.447  29.181  1.00  0.00     0.031 C 
ATOM     55  C   UNL A   1      46.744  29.674  31.776  1.00  0.00     0.029 A 
ATOM     56  C   UNL A   1      46.008  28.690  31.137  1.00  0.00     0.049 A 
ATOM     57  H   UNL A   1      44.029  28.771  30.406  1.00  0.00     0.167 HD
ATOM     58  C   UNL A   1      45.612  26.441  30.177  1.00  0.00     0.074 A 
ATOM     59  C   UNL A   1      46.016  25.086  29.859  1.00  0.00     0.031 C 
ATOM     60  C   UNL A   1      46.407  27.347  30.800  1.00  0.00     0.031 A 
BRANCH  47  61
ATOM     61  C   UNL A   1      43.679  32.812  31.768  1.00  0.00    -0.014 A 
ATOM     62  C   UNL A   1      43.998  33.892  30.923  1.00  0.00     0.010 A 
ATOM     63  C   UNL A   1      43.408  33.066  33.125  1.00  0.00     0.010 A 
ATOM     64  C   UNL A   1      44.078  35.191  31.430  1.00  0.00     0.020 A 
ATOM     65  C   UNL A   1      43.458  34.370  33.630  1.00  0.00     0.020 A 
ATOM     66  C   UNL A   1      43.807  35.423  32.782  1.00  0.00     0.054 A 
BRANCH  66  67
ATOM     67  S   UNL A   1      43.880  37.126  33.400  1.00  0.00     0.124 S 
ATOM     68  O   UNL A   1      42.643  37.220  34.172  1.00  0.00    -0.237 OA
ATOM     69  O   UNL A   1      45.111  37.129  34.186  1.00  0.00    -0.237 OA
ATOM     70  O   UNL A   1      43.918  37.937  32.185  1.00  0.00    -0.744 OA
ENDBRANCH  66  67
ENDBRANCH  47  61
BRANCH  48  71
ATOM     71  C   UNL A   1      42.552  23.672  27.910  1.00  0.00    -0.014 A 
ATOM     72  C   UNL A   1      42.941  23.431  26.581  1.00  0.00     0.010 A 
ATOM     73  C   UNL A   1      42.010  22.615  28.665  1.00  0.00     0.010 A 
ATOM     74  C   UNL A   1      42.766  22.166  26.010  1.00  0.00     0.020 A 
ATOM     75  C   UNL A   1      41.864  21.342  28.108  1.00  0.00     0.020 A 
ATOM     76  C   UNL A   1      42.228  21.129  26.778  1.00  0.00     0.054 A 
BRANCH  76  77
ATOM     77  S   UNL A   1      42.045  19.486  26.030  1.00  0.00     0.124 S 
ATOM     78  O   UNL A   1      42.560  18.615  27.080  1.00  0.00    -0.237 OA
ATOM     79  O   UNL A   1      40.606  19.407  25.789  1.00  0.00    -0.237 OA
ATOM     80  O   UNL A   1      42.865  19.568  24.823  1.00  0.00    -0.744 OA
ENDBRANCH  76  77
ENDBRANCH  48  71
BRANCH  60  81
ATOM     81  C   UNL A   1      47.788  26.889  31.194  1.00  0.00    -0.014 A 
ATOM     82  C   UNL A   1      48.850  26.894  30.272  1.00  0.00     0.010 A 
ATOM     83  C   UNL A   1      48.029  26.453  32.510  1.00  0.00     0.010 A 
ATOM     84  C   UNL A   1      50.110  26.413  30.639  1.00  0.00     0.020 A 
ATOM     85  C   UNL A   1      49.296  26.003  32.892  1.00  0.00     0.020 A 
ATOM     86  C   UNL A   1      50.323  25.963  31.946  1.00  0.00     0.054 A 
BRANCH  86  87
ATOM     87  S   UNL A   1      51.964  25.339  32.399  1.00  0.00     0.124 S 
ATOM     88  O   UNL A   1      52.827  26.049  31.458  1.00  0.00    -0.237 OA
ATOM     89  O   UNL A   1      52.088  25.747  33.796  1.00  0.00    -0.237 OA
ATOM     90  O   UNL A   1      51.860  23.899  32.182  1.00  0.00    -0.744 OA
ENDBRANCH  86  87
ENDBRANCH  60  81
ENDBRANCH  34  35
ENDBRANCH  26  29
ENDBRANCH  24  25
ENDBRANCH  23  24
ENDBRANCH   1  23
TORSDOF 18
ENDMDL
MODEL 2
REMARK VINA RESULT:     -11.1      0.891      8.285
REMARK SMILES C[C@H](C(=O)NCCCCNC(=O)c1ccc(-c2c3nc(c(-c4ccc(S(=O)(=O)[O-])cc4)c4ccc([nH]4)c(-c4ccc(S(=O)(=O)[O-])cc4)c4nc(c(-c5ccc(S(=O)(=O)[O-])cc5)c5ccc2[nH]5)C=C4)C=C3)cc1)c1ccc(C[C@H]2CCC[C@@H]2O)cc1
REMARK SMILES IDX 7 1 6 2 5 3 3 4 4 5 2 7 1 8 73 9 74 10 85 11 75 12 84 13
REMARK SMILES IDX 76 14 77 15 78 16 79 17 82 18 80 19 81 20 83 21 8 23 9 24
REMARK SMILES IDX 10 25 11 26 12 28 13 29 14 30 72 31 15 32 71 33 16 34 17 35
REMARK SMILES IDX 18 36 65 37 19 38 70 39 64 40 66 41 20 42 69 43 63 44 62 45
REMARK SMILES IDX 21 47 51 48 32 49 50 50 33 51 36 52 49 53 67 54 34 55 35 56
REMARK SMILES IDX 48 58 68 59 37 60 22 61 23 62 31 63 24 64 30 65 25 66 26 67
REMARK SMILES IDX 27 68 28 69 29 70 52 71 53 72 61 73 54 74 60 75 55 76 56 77
REMARK SMILES IDX 57 78 58 79 59 80 38 81 39 82 47 83 40 84 46 85 41 86 42 87
REMARK SMILES IDX 43 88 44 89 45 90
REMARK H PARENT 5 6 83 22 10 27 66 46 36 57
REMARK Flexibility Score: inf
ROOT
ATOM      1  C   UNL A   1      32.838  29.250  24.876  1.00  0.00     0.023 C 
ENDROOT
BRANCH   1   2
ATOM      2  C   UNL A   1      33.198  29.122  23.400  1.00  0.00     0.116 C 
BRANCH   2   3
ATOM      3  N   UNL A   1      32.104  29.313  22.468  1.00  0.00    -0.356 N 
ATOM      4  C   UNL A   1      30.812  28.876  22.527  1.00  0.00     0.227 C 
ATOM      5  O   UNL A   1      30.018  29.449  21.768  1.00  0.00    -0.274 OA
ATOM      6  H   UNL A   1      32.329  29.841  21.667  1.00  0.00     0.163 HD
BRANCH   4   7
ATOM      7  C   UNL A   1      30.322  27.652  23.329  1.00  0.00     0.105 C 
ATOM      8  C   UNL A   1      28.784  27.730  23.299  1.00  0.00     0.023 C 
BRANCH   7   9
ATOM      9  C   UNL A   1      30.895  26.285  22.977  1.00  0.00    -0.036 A 
ATOM     10  C   UNL A   1      30.575  25.156  23.746  1.00  0.00     0.005 A 
ATOM     11  C   UNL A   1      31.786  26.108  21.907  1.00  0.00     0.005 A 
ATOM     12  C   UNL A   1      31.331  23.982  23.633  1.00  0.00     0.004 A 
ATOM     13  C   UNL A   1      32.494  24.918  21.755  1.00  0.00     0.004 A 
ATOM     14  C   UNL A   1      32.353  23.886  22.684  1.00  0.00    -0.048 A 
BRANCH  14  15
ATOM     15  C   UNL A   1      33.333  22.738  22.692  1.00  0.00     0.041 C 
BRANCH  15  16
ATOM     16  C   UNL A   1      34.505  22.862  23.693  1.00  0.00     0.022 C 
ATOM     17  C   UNL A   1      34.928  24.283  24.109  1.00  0.00     0.007 C 
ATOM     18  C   UNL A   1      34.321  22.126  25.023  1.00  0.00     0.117 C 
ATOM     19  C   UNL A   1      35.434  24.175  25.551  1.00  0.00     0.003 C 
ATOM     20  C   UNL A   1      35.454  22.689  25.873  1.00  0.00     0.032 C 
BRANCH  18  21
ATOM     21  O   UNL A   1      34.447  20.727  24.851  1.00  0.00    -0.393 OA
ATOM     22  H   UNL A   1      35.302  20.434  25.207  1.00  0.00     0.210 HD
ENDBRANCH  18  21
ENDBRANCH  15  16
ENDBRANCH  14  15
ENDBRANCH   7   9
ENDBRANCH   4   7
ENDBRANCH   2   3
ENDBRANCH   1   2
BRANCH   1  23
ATOM     23  C   UNL A   1      33.136  28.050  25.773  1.00  0.00     0.023 C 
BRANCH  23  24
ATOM     24  C   UNL A   1      33.436  28.338  27.241  1.00  0.00     0.116 C 
BRANCH  24  25
ATOM     25  N   UNL A   1      33.451  29.756  27.569  1.00  0.00    -0.352 N 
ATOM     26  C   UNL A   1      34.440  30.550  28.101  1.00  0.00     0.251 C 
ATOM     27  H   UNL A   1      32.608  30.228  27.377  1.00  0.00     0.163 HD
ATOM     28  O   UNL A   1      34.154  31.709  28.412  1.00  0.00    -0.269 OA
BRANCH  26  29
ATOM     29  C   UNL A   1      35.814  30.036  28.344  1.00  0.00     0.039 A 
ATOM     30  C   UNL A   1      36.734  30.051  27.290  1.00  0.00     0.014 A 
ATOM     31  C   UNL A   1      36.211  29.523  29.582  1.00  0.00     0.014 A 
ATOM     32  C   UNL A   1      38.056  29.643  27.503  1.00  0.00     0.010 A 
ATOM     33  C   UNL A   1      37.552  29.205  29.819  1.00  0.00     0.010 A 
ATOM     34  C   UNL A   1      38.495  29.267  28.785  1.00  0.00    -0.014 A 
BRANCH  34  35
ATOM     35  C   UNL A   1      39.937  28.978  29.042  1.00  0.00     0.031 A 
ATOM     36  C   UNL A   1      40.538  27.634  28.713  1.00  0.00     0.074 A 
ATOM     37  C   UNL A   1      40.710  29.929  29.610  1.00  0.00     0.049 A 
ATOM     38  N   UNL A   1      41.778  27.232  28.848  1.00  0.00    -0.248 NA
ATOM     39  C   UNL A   1      39.631  26.602  28.187  1.00  0.00     0.031 C 
ATOM     40  C   UNL A   1      40.245  31.248  30.048  1.00  0.00     0.029 A 
ATOM     41  N   UNL A   1      42.050  29.937  29.913  1.00  0.00    -0.354 N 
ATOM     42  C   UNL A   1      41.801  25.908  28.422  1.00  0.00     0.074 A 
ATOM     43  C   UNL A   1      40.438  25.555  28.086  1.00  0.00     0.031 C 
ATOM     44  C   UNL A   1      41.286  31.949  30.522  1.00  0.00     0.029 A 
ATOM     45  C   UNL A   1      42.487  31.123  30.460  1.00  0.00     0.049 A 
ATOM     46  H   UNL A   1      42.643  29.167  29.754  1.00  0.00     0.167 HD
ATOM     47  C   UNL A   1      42.857  25.069  28.291  1.00  0.00     0.031 A 
ATOM     48  C   UNL A   1      43.713  31.508  30.865  1.00  0.00     0.031 A 
ATOM     49  C   UNL A   1      44.215  25.416  28.627  1.00  0.00     0.049 A 
ATOM     50  C   UNL A   1      44.871  30.562  30.705  1.00  0.00     0.074 A 
ATOM     51  C   UNL A   1      45.359  24.646  28.491  1.00  0.00     0.029 A 
ATOM     52  N   UNL A   1      44.616  26.629  29.166  1.00  0.00    -0.354 N 
ATOM     53  N   UNL A   1      44.878  29.341  30.227  1.00  0.00    -0.248 NA
ATOM     54  C   UNL A   1      46.191  31.055  31.120  1.00  0.00     0.031 C 
ATOM     55  C   UNL A   1      46.442  25.375  28.994  1.00  0.00     0.029 A 
ATOM     56  C   UNL A   1      45.984  26.622  29.386  1.00  0.00     0.049 A 
ATOM     57  H   UNL A   1      44.015  27.384  29.364  1.00  0.00     0.167 HD
ATOM     58  C   UNL A   1      46.204  28.926  30.268  1.00  0.00     0.074 A 
ATOM     59  C   UNL A   1      46.973  30.040  30.784  1.00  0.00     0.031 C 
ATOM     60  C   UNL A   1      46.738  27.729  29.917  1.00  0.00     0.031 A 
BRANCH  47  61
ATOM     61  C   UNL A   1      42.591  23.690  27.741  1.00  0.00    -0.014 A 
ATOM     62  C   UNL A   1      42.750  23.418  26.370  1.00  0.00     0.010 A 
ATOM     63  C   UNL A   1      42.238  22.639  28.608  1.00  0.00     0.010 A 
ATOM     64  C   UNL A   1      42.526  22.133  25.869  1.00  0.00     0.020 A 
ATOM     65  C   UNL A   1      42.043  21.344  28.115  1.00  0.00     0.020 A 
ATOM     66  C   UNL A   1      42.175  21.103  26.746  1.00  0.00     0.054 A 
BRANCH  66  67
ATOM     67  S   UNL A   1      41.931  19.437  26.071  1.00  0.00     0.124 S 
ATOM     68  O   UNL A   1      42.800  19.457  24.896  1.00  0.00    -0.237 OA
ATOM     69  O   UNL A   1      42.377  18.579  27.165  1.00  0.00    -0.237 OA
ATOM     70  O   UNL A   1      40.499  19.383  25.784  1.00  0.00    -0.744 OA
ENDBRANCH  66  67
ENDBRANCH  47  61
BRANCH  48  71
ATOM     71  C   UNL A   1      43.911  32.863  31.457  1.00  0.00    -0.014 A 
ATOM     72  C   UNL A   1      44.221  33.968  30.644  1.00  0.00     0.010 A 
ATOM     73  C   UNL A   1      43.797  33.049  32.846  1.00  0.00     0.010 A 
ATOM     74  C   UNL A   1      44.439  35.227  31.214  1.00  0.00     0.020 A 
ATOM     75  C   UNL A   1      43.981  34.312  33.415  1.00  0.00     0.020 A 
ATOM     76  C   UNL A   1      44.317  35.391  32.596  1.00  0.00     0.054 A 
BRANCH  76  77
ATOM     77  S   UNL A   1      44.565  37.040  33.310  1.00  0.00     0.124 S 
ATOM     78  O   UNL A   1      43.486  37.113  34.290  1.00  0.00    -0.237 OA
ATOM     79  O   UNL A   1      45.916  36.947  33.860  1.00  0.00    -0.237 OA
ATOM     80  O   UNL A   1      44.431  37.933  32.160  1.00  0.00    -0.744 OA
ENDBRANCH  76  77
ENDBRANCH  48  71
BRANCH  60  81
ATOM     81  C   UNL A   1      48.230  27.575  30.063  1.00  0.00    -0.014 A 
ATOM     82  C   UNL A   1      48.800  27.064  31.243  1.00  0.00     0.010 A 
ATOM     83  C   UNL A   1      49.077  27.943  29.000  1.00  0.00     0.010 A 
ATOM     84  C   UNL A   1      50.188  26.982  31.383  1.00  0.00     0.020 A 
ATOM     85  C   UNL A   1      50.464  27.830  29.122  1.00  0.00     0.020 A 
ATOM     86  C   UNL A   1      51.012  27.373  30.322  1.00  0.00     0.054 A 
BRANCH  86  87
ATOM     87  S   UNL A   1      52.811  27.262  30.527  1.00  0.00     0.124 S 
ATOM     88  O   UNL A   1      53.269  27.196  29.142  1.00  0.00    -0.237 OA
ATOM     89  O   UNL A   1      53.131  28.498  31.237  1.00  0.00    -0.237 OA
ATOM     90  O   UNL A   1      52.996  26.038  31.303  1.00  0.00    -0.744 OA
ENDBRANCH  86  87
ENDBRANCH  60  81
ENDBRANCH  34  35
ENDBRANCH  26  29
ENDBRANCH  24  25
ENDBRANCH  23  24
ENDBRANCH   1  23
TORSDOF 18
ENDMDL
MODEL 3
REMARK VINA RESULT:     -11.0      2.941      9.138
REMARK SMILES C[C@H](C(=O)NCCCCNC(=O)c1ccc(-c2c3nc(c(-c4ccc(S(=O)(=O)[O-])cc4)c4ccc([nH]4)c(-c4ccc(S(=O)(=O)[O-])cc4)c4nc(c(-c5ccc(S(=O)(=O)[O-])cc5)c5ccc2[nH]5)C=C4)C=C3)cc1)c1ccc(C[C@H]2CCC[C@@H]2O)cc1
REMARK SMILES IDX 7 1 6 2 5 3 3 4 4 5 2 7 1 8 73 9 74 10 85 11 75 12 84 13
REMARK SMILES IDX 76 14 77 15 78 16 79 17 82 18 80 19 81 20 83 21 8 23 9 24
REMARK SMILES IDX 10 25 11 26 12 28 13 29 14 30 72 31 15 32 71 33 16 34 17 35
REMARK SMILES IDX 18 36 65 37 19 38 70 39 64 40 66 41 20 42 69 43 63 44 62 45
REMARK SMILES IDX 21 47 51 48 32 49 50 50 33 51 36 52 49 53 67 54 34 55 35 56
REMARK SMILES IDX 48 58 68 59 37 60 22 61 23 62 31 63 24 64 30 65 25 66 26 67
REMARK SMILES IDX 27 68 28 69 29 70 52 71 53 72 61 73 54 74 60 75 55 76 56 77
REMARK SMILES IDX 57 78 58 79 59 80 38 81 39 82 47 83 40 84 46 85 41 86 42 87
REMARK SMILES IDX 43 88 44 89 45 90
REMARK H PARENT 5 6 83 22 10 27 66 46 36 57
REMARK Flexibility Score: inf
ROOT
ATOM      1  C   UNL A   1      34.672  23.945  26.126  1.00  0.00     0.023 C 
ENDROOT
BRANCH   1   2
ATOM      2  C   UNL A   1      33.965  25.076  25.387  1.00  0.00     0.116 C 
BRANCH   2   3
ATOM      3  N   UNL A   1      32.732  25.545  25.988  1.00  0.00    -0.356 N 
ATOM      4  C   UNL A   1      31.468  25.032  25.916  1.00  0.00     0.227 C 
ATOM      5  O   UNL A   1      30.676  25.441  26.778  1.00  0.00    -0.274 OA
ATOM      6  H   UNL A   1      32.820  26.361  26.533  1.00  0.00     0.163 HD
BRANCH   4   7
ATOM      7  C   UNL A   1      30.934  24.135  24.780  1.00  0.00     0.105 C 
ATOM      8  C   UNL A   1      30.803  25.059  23.555  1.00  0.00     0.023 C 
BRANCH   7   9
ATOM      9  C   UNL A   1      31.647  22.817  24.509  1.00  0.00    -0.036 A 
ATOM     10  C   UNL A   1      32.144  22.523  23.230  1.00  0.00     0.005 A 
ATOM     11  C   UNL A   1      31.800  21.839  25.504  1.00  0.00     0.005 A 
ATOM     12  C   UNL A   1      32.506  21.212  22.894  1.00  0.00     0.004 A 
ATOM     13  C   UNL A   1      32.221  20.550  25.182  1.00  0.00     0.004 A 
ATOM     14  C   UNL A   1      32.469  20.198  23.854  1.00  0.00    -0.048 A 
BRANCH  14  15
ATOM     15  C   UNL A   1      32.623  18.744  23.475  1.00  0.00     0.041 C 
BRANCH  15  16
ATOM     16  C   UNL A   1      33.178  17.817  24.580  1.00  0.00     0.022 C 
ATOM     17  C   UNL A   1      32.381  16.537  24.892  1.00  0.00     0.007 C 
ATOM     18  C   UNL A   1      34.611  17.319  24.369  1.00  0.00     0.117 C 
ATOM     19  C   UNL A   1      33.409  15.486  25.323  1.00  0.00     0.003 C 
ATOM     20  C   UNL A   1      34.737  16.219  25.416  1.00  0.00     0.032 C 
BRANCH  18  21
ATOM     21  O   UNL A   1      35.547  18.356  24.589  1.00  0.00    -0.393 OA
ATOM     22  H   UNL A   1      35.304  19.130  24.054  1.00  0.00     0.210 HD
ENDBRANCH  18  21
ENDBRANCH  15  16
ENDBRANCH  14  15
ENDBRANCH   7   9
ENDBRANCH   4   7
ENDBRANCH   2   3
ENDBRANCH   1   2
BRANCH   1  23
ATOM     23  C   UNL A   1      35.613  23.060  25.310  1.00  0.00     0.023 C 
BRANCH  23  24
ATOM     24  C   UNL A   1      37.003  23.615  25.014  1.00  0.00     0.116 C 
BRANCH  24  25
ATOM     25  N   UNL A   1      38.085  22.722  25.399  1.00  0.00    -0.352 N 
ATOM     26  C   UNL A   1      39.230  22.949  26.128  1.00  0.00     0.251 C 
ATOM     27  H   UNL A   1      37.980  21.795  25.084  1.00  0.00     0.163 HD
ATOM     28  O   UNL A   1      40.064  22.044  26.203  1.00  0.00    -0.269 OA
BRANCH  26  29
ATOM     29  C   UNL A   1      39.496  24.257  26.783  1.00  0.00     0.039 A 
ATOM     30  C   UNL A   1      39.018  24.469  28.081  1.00  0.00     0.014 A 
ATOM     31  C   UNL A   1      40.190  25.286  26.140  1.00  0.00     0.014 A 
ATOM     32  C   UNL A   1      39.315  25.660  28.755  1.00  0.00     0.010 A 
ATOM     33  C   UNL A   1      40.564  26.434  26.845  1.00  0.00     0.010 A 
ATOM     34  C   UNL A   1      40.138  26.635  28.165  1.00  0.00    -0.014 A 
BRANCH  34  35
ATOM     35  C   UNL A   1      40.575  27.833  28.939  1.00  0.00     0.031 A 
ATOM     36  C   UNL A   1      41.930  27.888  29.599  1.00  0.00     0.074 A 
ATOM     37  C   UNL A   1      39.729  28.876  29.077  1.00  0.00     0.049 A 
ATOM     38  N   UNL A   1      42.475  28.865  30.283  1.00  0.00    -0.248 NA
ATOM     39  C   UNL A   1      42.776  26.688  29.501  1.00  0.00     0.031 C 
ATOM     40  C   UNL A   1      38.360  28.931  28.554  1.00  0.00     0.029 A 
ATOM     41  N   UNL A   1      39.892  30.094  29.693  1.00  0.00    -0.354 N 
ATOM     42  C   UNL A   1      43.721  28.402  30.690  1.00  0.00     0.074 A 
ATOM     43  C   UNL A   1      43.826  27.032  30.234  1.00  0.00     0.031 C 
ATOM     44  C   UNL A   1      37.827  30.130  28.834  1.00  0.00     0.029 A 
ATOM     45  C   UNL A   1      38.795  30.919  29.588  1.00  0.00     0.049 A 
ATOM     46  H   UNL A   1      40.716  30.352  30.166  1.00  0.00     0.167 HD
ATOM     47  C   UNL A   1      44.703  29.058  31.356  1.00  0.00     0.031 A 
ATOM     48  C   UNL A   1      38.587  32.171  30.042  1.00  0.00     0.031 A 
ATOM     49  C   UNL A   1      44.601  30.420  31.815  1.00  0.00     0.049 A 
ATOM     50  C   UNL A   1      39.693  32.881  30.774  1.00  0.00     0.074 A 
ATOM     51  C   UNL A   1      45.558  31.183  32.463  1.00  0.00     0.029 A 
ATOM     52  N   UNL A   1      43.479  31.223  31.679  1.00  0.00    -0.354 N 
ATOM     53  N   UNL A   1      40.892  32.446  31.079  1.00  0.00    -0.248 NA
ATOM     54  C   UNL A   1      39.424  34.260  31.202  1.00  0.00     0.031 C 
ATOM     55  C   UNL A   1      44.997  32.430  32.763  1.00  0.00     0.029 A 
ATOM     56  C   UNL A   1      43.713  32.466  32.246  1.00  0.00     0.049 A 
ATOM     57  H   UNL A   1      42.639  30.950  31.242  1.00  0.00     0.167 HD
ATOM     58  C   UNL A   1      41.526  33.503  31.721  1.00  0.00     0.074 A 
ATOM     59  C   UNL A   1      40.590  34.609  31.727  1.00  0.00     0.031 C 
ATOM     60  C   UNL A   1      42.768  33.554  32.263  1.00  0.00     0.031 A 
BRANCH  47  61
ATOM     61  C   UNL A   1      45.989  28.314  31.615  1.00  0.00    -0.014 A 
ATOM     62  C   UNL A   1      47.062  28.393  30.707  1.00  0.00     0.010 A 
ATOM     63  C   UNL A   1      46.155  27.579  32.803  1.00  0.00     0.010 A 
ATOM     64  C   UNL A   1      48.261  27.723  30.964  1.00  0.00     0.020 A 
ATOM     65  C   UNL A   1      47.364  26.931  33.078  1.00  0.00     0.020 A 
ATOM     66  C   UNL A   1      48.405  26.997  32.149  1.00  0.00     0.054 A 
BRANCH  66  67
ATOM     67  S   UNL A   1      49.988  26.172  32.471  1.00  0.00     0.124 S 
ATOM     68  O   UNL A   1      49.553  24.870  32.974  1.00  0.00    -0.237 OA
ATOM     69  O   UNL A   1      50.616  26.156  31.153  1.00  0.00    -0.237 OA
ATOM     70  O   UNL A   1      50.636  27.034  33.457  1.00  0.00    -0.744 OA
ENDBRANCH  66  67
ENDBRANCH  47  61
BRANCH  48  71
ATOM     71  C   UNL A   1      37.274  32.840  29.810  1.00  0.00    -0.014 A 
ATOM     72  C   UNL A   1      36.257  32.793  30.781  1.00  0.00     0.010 A 
ATOM     73  C   UNL A   1      37.035  33.525  28.605  1.00  0.00     0.010 A 
ATOM     74  C   UNL A   1      35.018  33.394  30.538  1.00  0.00     0.020 A 
ATOM     75  C   UNL A   1      35.810  34.155  28.373  1.00  0.00     0.020 A 
ATOM     76  C   UNL A   1      34.802  34.072  29.335  1.00  0.00     0.054 A 
BRANCH  76  77
ATOM     77  S   UNL A   1      33.201  34.879  29.057  1.00  0.00     0.124 S 
ATOM     78  O   UNL A   1      32.614  34.038  28.019  1.00  0.00    -0.237 OA
ATOM     79  O   UNL A   1      32.571  34.793  30.373  1.00  0.00    -0.237 OA
ATOM     80  O   UNL A   1      33.568  36.230  28.639  1.00  0.00    -0.744 OA
ENDBRANCH  76  77
ENDBRANCH  48  71
BRANCH  60  81
ATOM     81  C   UNL A   1      43.189  34.858  32.890  1.00  0.00    -0.014 A 
ATOM     82  C   UNL A   1      42.936  35.133  34.246  1.00  0.00     0.010 A 
ATOM     83  C   UNL A   1      43.854  35.824  32.111  1.00  0.00     0.010 A 
ATOM     84  C   UNL A   1      43.282  36.370  34.796  1.00  0.00     0.020 A 
ATOM     85  C   UNL A   1      44.234  37.049  32.666  1.00  0.00     0.020 A 
ATOM     86  C   UNL A   1      43.923  37.324  33.999  1.00  0.00     0.054 A 
BRANCH  86  87
ATOM     87  S   UNL A   1      44.360  38.924  34.733  1.00  0.00     0.124 S 
ATOM     88  O   UNL A   1      44.160  38.667  36.157  1.00  0.00    -0.237 OA
ATOM     89  O   UNL A   1      45.748  39.101  34.315  1.00  0.00    -0.237 OA
ATOM     90  O   UNL A   1      43.409  39.853  34.129  1.00  0.00    -0.744 OA
ENDBRANCH  86  87
ENDBRANCH  60  81
ENDBRANCH  34  35
ENDBRANCH  26  29
ENDBRANCH  24  25
ENDBRANCH  23  24
ENDBRANCH   1  23
TORSDOF 18
ENDMDL
