MODEL 1
REMARK VINA RESULT:      -9.4      0.000      0.000
REMARK SMILES O=C(NCc1ccc(C(=O)NCCCCNC(=O)c2ccc(-c3c4nc(c(-c5ccc(S(=O)(=O)[O-])cc5)c5ccc([nH]5)c(-c5ccc(S(=O)(=O)[O-])cc5)c5nc(c(-c6ccc(S(=O)(=O)[O-])cc6)c6ccc3[nH]6)C=C5)C=C4)cc2)cc1)Nc1ccccc1Br
REMARK SMILES IDX 13 1 12 2 11 3 9 4 10 5 8 7 5 8 6 9 80 10 7 11 79 12 4 13
REMARK SMILES IDX 3 14 1 15 2 16 81 17 82 20 83 21 87 22 84 23 86 24 88 25
REMARK SMILES IDX 85 26 14 27 15 28 16 29 17 30 18 32 19 33 20 34 78 35 21 36
REMARK SMILES IDX 77 37 22 38 23 39 24 40 71 41 25 42 76 43 70 44 72 45 26 46
REMARK SMILES IDX 75 47 69 48 68 49 27 51 57 52 38 53 56 54 39 55 42 56 55 57
REMARK SMILES IDX 73 58 40 59 41 60 54 62 74 63 43 64 28 65 29 66 37 67 30 68
REMARK SMILES IDX 36 69 31 70 32 71 33 72 34 73 35 74 58 75 59 76 67 77 60 78
REMARK SMILES IDX 66 79 61 80 62 81 63 82 64 83 65 84 44 85 45 86 53 87 46 88
REMARK SMILES IDX 52 89 47 90 48 91 49 92 50 93 51 94
REMARK H PARENT 11 6 3 18 81 19 16 31 72 50 42 61
REMARK Flexibility Score: inf
ROOT
ATOM      1  C   UNL A   1      43.847  21.219  25.683  1.00  0.00     0.023 C 
ENDROOT
BRANCH   1   2
ATOM      2  C   UNL A   1      44.302  22.671  25.527  1.00  0.00     0.116 C 
BRANCH   2   3
ATOM      3  N   UNL A   1      45.644  22.853  26.048  1.00  0.00    -0.352 N 
ATOM      4  C   UNL A   1      46.288  23.963  26.533  1.00  0.00     0.251 C 
ATOM      5  O   UNL A   1      47.420  23.823  26.994  1.00  0.00    -0.269 OA
ATOM      6  H   UNL A   1      46.190  22.033  26.056  1.00  0.00     0.163 HD
BRANCH   4   7
ATOM      7  C   UNL A   1      45.666  25.316  26.560  1.00  0.00     0.039 A 
ATOM      8  C   UNL A   1      44.648  27.950  26.651  1.00  0.00    -0.029 A 
ATOM      9  C   UNL A   1      45.871  27.638  27.262  1.00  0.00     0.006 A 
ATOM     10  C   UNL A   1      43.954  26.940  25.979  1.00  0.00     0.006 A 
ATOM     11  C   UNL A   1      46.372  26.334  27.216  1.00  0.00     0.014 A 
ATOM     12  C   UNL A   1      44.470  25.642  25.917  1.00  0.00     0.014 A 
BRANCH   8  13
ATOM     13  C   UNL A   1      44.118  29.357  26.666  1.00  0.00     0.153 C 
BRANCH  13  14
ATOM     14  N   UNL A   1      45.157  30.323  26.381  1.00  0.00    -0.334 N 
ATOM     15  O   UNL A   1      46.213  32.279  26.304  1.00  0.00    -0.248 OA
ATOM     16  C   UNL A   1      45.228  31.650  26.674  1.00  0.00     0.319 C 
ATOM     17  N   UNL A   1      44.197  32.150  27.417  1.00  0.00    -0.307 N 
ATOM     18  H   UNL A   1      45.937  29.963  25.900  1.00  0.00     0.165 HD
ATOM     19  H   UNL A   1      43.604  31.491  27.844  1.00  0.00     0.171 HD
BRANCH  17  20
ATOM     20  C   UNL A   1      43.892  33.511  27.639  1.00  0.00     0.057 A 
ATOM     21  C   UNL A   1      43.711  33.868  28.988  1.00  0.00     0.027 A 
ATOM     22  C   UNL A   1      43.712  34.500  26.656  1.00  0.00     0.041 A 
ATOM     23  C   UNL A   1      43.436  35.186  29.358  1.00  0.00     0.002 A 
ATOM     24  C   UNL A   1      43.449  35.826  27.038  1.00  0.00     0.018 A 
ATOM     25  Br  UNL A   1      43.561  34.148  24.791  1.00  0.00    -0.049 Br
ATOM     26  C   UNL A   1      43.323  36.168  28.383  1.00  0.00     0.001 A 
ENDBRANCH  17  20
ENDBRANCH  13  14
ENDBRANCH   8  13
ENDBRANCH   4   7
ENDBRANCH   2   3
ENDBRANCH   1   2
BRANCH   1  27
ATOM     27  C   UNL A   1      42.391  21.051  26.127  1.00  0.00     0.023 C 
BRANCH  27  28
ATOM     28  C   UNL A   1      41.591  22.346  26.216  1.00  0.00     0.116 C 
BRANCH  28  29
ATOM     29  N   UNL A   1      40.198  22.185  25.840  1.00  0.00    -0.352 N 
ATOM     30  C   UNL A   1      39.141  23.036  26.092  1.00  0.00     0.251 C 
ATOM     31  H   UNL A   1      39.978  21.365  25.344  1.00  0.00     0.163 HD
ATOM     32  O   UNL A   1      38.001  22.706  25.798  1.00  0.00    -0.269 OA
BRANCH  30  33
ATOM     33  C   UNL A   1      39.404  24.326  26.763  1.00  0.00     0.039 A 
ATOM     34  C   UNL A   1      38.977  24.495  28.082  1.00  0.00     0.014 A 
ATOM     35  C   UNL A   1      40.105  25.342  26.108  1.00  0.00     0.014 A 
ATOM     36  C   UNL A   1      39.317  25.660  28.771  1.00  0.00     0.010 A 
ATOM     37  C   UNL A   1      40.494  26.475  26.816  1.00  0.00     0.010 A 
ATOM     38  C   UNL A   1      40.110  26.642  28.154  1.00  0.00    -0.014 A 
BRANCH  38  39
ATOM     39  C   UNL A   1      40.562  27.844  28.897  1.00  0.00     0.031 A 
ATOM     40  C   UNL A   1      41.912  27.858  29.556  1.00  0.00     0.074 A 
ATOM     41  C   UNL A   1      39.725  28.891  29.039  1.00  0.00     0.049 A 
ATOM     42  N   UNL A   1      42.448  28.781  30.313  1.00  0.00    -0.248 NA
ATOM     43  C   UNL A   1      42.759  26.671  29.361  1.00  0.00     0.031 C 
ATOM     44  C   UNL A   1      38.373  28.979  28.481  1.00  0.00     0.029 A 
ATOM     45  N   UNL A   1      39.886  30.079  29.709  1.00  0.00    -0.354 N 
ATOM     46  C   UNL A   1      43.686  28.280  30.698  1.00  0.00     0.074 A 
ATOM     47  C   UNL A   1      43.803  26.956  30.127  1.00  0.00     0.031 C 
ATOM     48  C   UNL A   1      37.837  30.166  28.814  1.00  0.00     0.029 A 
ATOM     49  C   UNL A   1      38.789  30.905  29.638  1.00  0.00     0.049 A 
ATOM     50  H   UNL A   1      40.708  30.316  30.195  1.00  0.00     0.167 HD
ATOM     51  C   UNL A   1      44.646  28.874  31.446  1.00  0.00     0.031 A 
ATOM     52  C   UNL A   1      38.571  32.119  30.180  1.00  0.00     0.031 A 
ATOM     53  C   UNL A   1      44.533  30.197  32.002  1.00  0.00     0.049 A 
ATOM     54  C   UNL A   1      39.652  32.758  31.006  1.00  0.00     0.074 A 
ATOM     55  C   UNL A   1      45.472  30.908  32.728  1.00  0.00     0.029 A 
ATOM     56  N   UNL A   1      43.415  31.008  31.890  1.00  0.00    -0.354 N 
ATOM     57  N   UNL A   1      40.838  32.291  31.312  1.00  0.00    -0.248 NA
ATOM     58  C   UNL A   1      39.366  34.092  31.554  1.00  0.00     0.031 C 
ATOM     59  C   UNL A   1      44.906  32.135  33.089  1.00  0.00     0.029 A 
ATOM     60  C   UNL A   1      43.632  32.206  32.547  1.00  0.00     0.049 A 
ATOM     61  H   UNL A   1      42.587  30.767  31.413  1.00  0.00     0.167 HD
ATOM     62  C   UNL A   1      41.450  33.284  32.067  1.00  0.00     0.074 A 
ATOM     63  C   UNL A   1      40.509  34.381  32.162  1.00  0.00     0.031 C 
ATOM     64  C   UNL A   1      42.684  33.288  32.631  1.00  0.00     0.031 A 
BRANCH  51  65
ATOM     65  C   UNL A   1      45.904  28.091  31.708  1.00  0.00    -0.014 A 
ATOM     66  C   UNL A   1      46.018  27.267  32.842  1.00  0.00     0.010 A 
ATOM     67  C   UNL A   1      46.973  28.156  30.797  1.00  0.00     0.010 A 
ATOM     68  C   UNL A   1      47.197  26.557  33.083  1.00  0.00     0.020 A 
ATOM     69  C   UNL A   1      48.144  27.426  31.021  1.00  0.00     0.020 A 
ATOM     70  C   UNL A   1      48.255  26.646  32.175  1.00  0.00     0.054 A 
BRANCH  70  71
ATOM     71  S   UNL A   1      49.768  25.701  32.504  1.00  0.00     0.124 S 
ATOM     72  O   UNL A   1      50.131  25.241  31.167  1.00  0.00    -0.237 OA
ATOM     73  O   UNL A   1      50.655  26.706  33.085  1.00  0.00    -0.237 OA
ATOM     74  O   UNL A   1      49.330  24.656  33.426  1.00  0.00    -0.744 OA
ENDBRANCH  70  71
ENDBRANCH  51  65
BRANCH  52  75
ATOM     75  C   UNL A   1      37.278  32.815  29.942  1.00  0.00    -0.014 A 
ATOM     76  C   UNL A   1      36.252  32.751  30.901  1.00  0.00     0.010 A 
ATOM     77  C   UNL A   1      37.071  33.556  28.765  1.00  0.00     0.010 A 
ATOM     78  C   UNL A   1      35.035  33.402  30.680  1.00  0.00     0.020 A 
ATOM     79  C   UNL A   1      35.865  34.229  28.551  1.00  0.00     0.020 A 
ATOM     80  C   UNL A   1      34.850  34.137  29.506  1.00  0.00     0.054 A 
BRANCH  80  81
ATOM     81  S   UNL A   1      33.282  35.021  29.263  1.00  0.00     0.124 S 
ATOM     82  O   UNL A   1      32.716  35.005  30.608  1.00  0.00    -0.237 OA
ATOM     83  O   UNL A   1      33.725  36.325  28.776  1.00  0.00    -0.237 OA
ATOM     84  O   UNL A   1      32.580  34.203  28.276  1.00  0.00    -0.744 OA
ENDBRANCH  80  81
ENDBRANCH  52  75
BRANCH  64  85
ATOM     85  C   UNL A   1      43.100  34.525  33.376  1.00  0.00    -0.014 A 
ATOM     86  C   UNL A   1      42.915  34.633  34.766  1.00  0.00     0.010 A 
ATOM     87  C   UNL A   1      43.741  35.569  32.684  1.00  0.00     0.010 A 
ATOM     88  C   UNL A   1      43.345  35.774  35.447  1.00  0.00     0.020 A 
ATOM     89  C   UNL A   1      44.192  36.702  33.365  1.00  0.00     0.020 A 
ATOM     90  C   UNL A   1      43.981  36.802  34.742  1.00  0.00     0.054 A 
BRANCH  90  91
ATOM     91  S   UNL A   1      44.580  38.249  35.657  1.00  0.00     0.124 S 
ATOM     92  O   UNL A   1      43.924  38.082  36.952  1.00  0.00    -0.237 OA
ATOM     93  O   UNL A   1      46.027  38.057  35.654  1.00  0.00    -0.237 OA
ATOM     94  O   UNL A   1      44.107  39.380  34.861  1.00  0.00    -0.744 OA
ENDBRANCH  90  91
ENDBRANCH  64  85
ENDBRANCH  38  39
ENDBRANCH  30  33
ENDBRANCH  28  29
ENDBRANCH  27  28
ENDBRANCH   1  27
TORSDOF 17
ENDMDL
MODEL 2
REMARK VINA RESULT:      -9.4      4.946     11.632
REMARK SMILES O=C(NCc1ccc(C(=O)NCCCCNC(=O)c2ccc(-c3c4nc(c(-c5ccc(S(=O)(=O)[O-])cc5)c5ccc([nH]5)c(-c5ccc(S(=O)(=O)[O-])cc5)c5nc(c(-c6ccc(S(=O)(=O)[O-])cc6)c6ccc3[nH]6)C=C5)C=C4)cc2)cc1)Nc1ccccc1Br
REMARK SMILES IDX 13 1 12 2 11 3 9 4 10 5 8 7 5 8 6 9 80 10 7 11 79 12 4 13
REMARK SMILES IDX 3 14 1 15 2 16 81 17 82 20 83 21 87 22 84 23 86 24 88 25
REMARK SMILES IDX 85 26 14 27 15 28 16 29 17 30 18 32 19 33 20 34 78 35 21 36
REMARK SMILES IDX 77 37 22 38 23 39 24 40 71 41 25 42 76 43 70 44 72 45 26 46
REMARK SMILES IDX 75 47 69 48 68 49 27 51 57 52 38 53 56 54 39 55 42 56 55 57
REMARK SMILES IDX 73 58 40 59 41 60 54 62 74 63 43 64 28 65 29 66 37 67 30 68
REMARK SMILES IDX 36 69 31 70 32 71 33 72 34 73 35 74 58 75 59 76 67 77 60 78
REMARK SMILES IDX 66 79 61 80 62 81 63 82 64 83 65 84 44 85 45 86 53 87 46 88
REMARK SMILES IDX 52 89 47 90 48 91 49 92 50 93 51 94
REMARK H PARENT 11 6 3 18 81 19 16 31 72 50 42 61
REMARK Flexibility Score: inf
ROOT
ATOM      1  C   UNL A   1      32.994  29.196  24.625  1.00  0.00     0.023 C 
ENDROOT
BRANCH   1   2
ATOM      2  C   UNL A   1      33.187  29.099  23.110  1.00  0.00     0.116 C 
BRANCH   2   3
ATOM      3  N   UNL A   1      31.921  29.233  22.416  1.00  0.00    -0.352 N 
ATOM      4  C   UNL A   1      30.819  28.418  22.370  1.00  0.00     0.251 C 
ATOM      5  O   UNL A   1      29.828  28.813  21.756  1.00  0.00    -0.269 OA
ATOM      6  H   UNL A   1      31.836  30.057  21.883  1.00  0.00     0.163 HD
BRANCH   4   7
ATOM      7  C   UNL A   1      30.754  27.098  23.058  1.00  0.00     0.039 A 
ATOM      8  C   UNL A   1      30.771  24.545  24.266  1.00  0.00    -0.029 A 
ATOM      9  C   UNL A   1      31.414  24.755  23.039  1.00  0.00     0.006 A 
ATOM     10  C   UNL A   1      30.141  25.625  24.892  1.00  0.00     0.006 A 
ATOM     11  C   UNL A   1      31.404  26.020  22.443  1.00  0.00     0.014 A 
ATOM     12  C   UNL A   1      30.152  26.892  24.302  1.00  0.00     0.014 A 
BRANCH   8  13
ATOM     13  C   UNL A   1      30.807  23.196  24.932  1.00  0.00     0.153 C 
BRANCH  13  14
ATOM     14  N   UNL A   1      31.650  23.202  26.108  1.00  0.00    -0.334 N 
ATOM     15  O   UNL A   1      33.465  22.939  27.367  1.00  0.00    -0.248 OA
ATOM     16  C   UNL A   1      32.965  22.879  26.249  1.00  0.00     0.319 C 
ATOM     17  N   UNL A   1      33.626  22.567  25.096  1.00  0.00    -0.307 N 
ATOM     18  H   UNL A   1      31.203  23.487  26.937  1.00  0.00     0.165 HD
ATOM     19  H   UNL A   1      33.170  22.790  24.254  1.00  0.00     0.171 HD
BRANCH  17  20
ATOM     20  C   UNL A   1      34.897  21.959  24.984  1.00  0.00     0.057 A 
ATOM     21  C   UNL A   1      35.975  22.852  24.849  1.00  0.00     0.027 A 
ATOM     22  C   UNL A   1      35.164  20.578  24.948  1.00  0.00     0.041 A 
ATOM     23  C   UNL A   1      37.290  22.393  24.760  1.00  0.00     0.002 A 
ATOM     24  C   UNL A   1      36.490  20.125  24.872  1.00  0.00     0.018 A 
ATOM     25  Br  UNL A   1      33.834  19.230  24.757  1.00  0.00    -0.049 Br
ATOM     26  C   UNL A   1      37.549  21.029  24.789  1.00  0.00     0.001 A 
ENDBRANCH  17  20
ENDBRANCH  13  14
ENDBRANCH   8  13
ENDBRANCH   4   7
ENDBRANCH   2   3
ENDBRANCH   1   2
BRANCH   1  27
ATOM     27  C   UNL A   1      33.931  28.307  25.446  1.00  0.00     0.023 C 
BRANCH  27  28
ATOM     28  C   UNL A   1      34.616  29.001  26.618  1.00  0.00     0.116 C 
BRANCH  28  29
ATOM     29  N   UNL A   1      34.106  30.337  26.870  1.00  0.00    -0.352 N 
ATOM     30  C   UNL A   1      34.563  31.270  27.778  1.00  0.00     0.251 C 
ATOM     31  H   UNL A   1      33.334  30.612  26.325  1.00  0.00     0.163 HD
ATOM     32  O   UNL A   1      33.956  32.318  27.943  1.00  0.00    -0.269 OA
BRANCH  30  33
ATOM     33  C   UNL A   1      35.767  30.961  28.577  1.00  0.00     0.039 A 
ATOM     34  C   UNL A   1      35.691  29.953  29.541  1.00  0.00     0.014 A 
ATOM     35  C   UNL A   1      36.970  31.631  28.344  1.00  0.00     0.014 A 
ATOM     36  C   UNL A   1      36.845  29.567  30.225  1.00  0.00     0.010 A 
ATOM     37  C   UNL A   1      38.131  31.204  28.983  1.00  0.00     0.010 A 
ATOM     38  C   UNL A   1      38.080  30.165  29.923  1.00  0.00    -0.014 A 
BRANCH  38  39
ATOM     39  C   UNL A   1      39.335  29.706  30.569  1.00  0.00     0.031 A 
ATOM     40  C   UNL A   1      39.854  30.410  31.791  1.00  0.00     0.074 A 
ATOM     41  C   UNL A   1      40.044  28.707  30.008  1.00  0.00     0.049 A 
ATOM     42  N   UNL A   1      40.968  30.208  32.446  1.00  0.00    -0.248 NA
ATOM     43  C   UNL A   1      39.025  31.498  32.333  1.00  0.00     0.031 C 
ATOM     44  C   UNL A   1      39.666  27.973  28.797  1.00  0.00     0.029 A 
ATOM     45  N   UNL A   1      41.240  28.143  30.378  1.00  0.00    -0.354 N 
ATOM     46  C   UNL A   1      40.983  31.153  33.465  1.00  0.00     0.074 A 
ATOM     47  C   UNL A   1      39.788  31.955  33.316  1.00  0.00     0.031 C 
ATOM     48  C   UNL A   1      40.600  27.043  28.538  1.00  0.00     0.029 A 
ATOM     49  C   UNL A   1      41.659  27.138  29.538  1.00  0.00     0.049 A 
ATOM     50  H   UNL A   1      41.749  28.431  31.170  1.00  0.00     0.167 HD
ATOM     51  C   UNL A   1      41.900  31.328  34.446  1.00  0.00     0.031 A 
ATOM     52  C   UNL A   1      42.774  26.383  29.566  1.00  0.00     0.031 A 
ATOM     53  C   UNL A   1      43.081  30.520  34.601  1.00  0.00     0.049 A 
ATOM     54  C   UNL A   1      43.777  26.595  30.665  1.00  0.00     0.074 A 
ATOM     55  C   UNL A   1      44.043  30.584  35.593  1.00  0.00     0.029 A 
ATOM     56  N   UNL A   1      43.458  29.501  33.741  1.00  0.00    -0.354 N 
ATOM     57  N   UNL A   1      43.745  27.457  31.653  1.00  0.00    -0.248 NA
ATOM     58  C   UNL A   1      44.963  25.727  30.657  1.00  0.00     0.031 C 
ATOM     59  C   UNL A   1      45.023  29.626  35.312  1.00  0.00     0.029 A 
ATOM     60  C   UNL A   1      44.648  28.937  34.169  1.00  0.00     0.049 A 
ATOM     61  H   UNL A   1      42.955  29.219  32.943  1.00  0.00     0.167 HD
ATOM     62  C   UNL A   1      44.893  27.219  32.398  1.00  0.00     0.074 A 
ATOM     63  C   UNL A   1      45.593  26.125  31.755  1.00  0.00     0.031 C 
ATOM     64  C   UNL A   1      45.329  27.848  33.518  1.00  0.00     0.031 A 
BRANCH  51  65
ATOM     65  C   UNL A   1      41.658  32.441  35.430  1.00  0.00    -0.014 A 
ATOM     66  C   UNL A   1      40.962  32.206  36.629  1.00  0.00     0.010 A 
ATOM     67  C   UNL A   1      42.157  33.729  35.168  1.00  0.00     0.010 A 
ATOM     68  C   UNL A   1      40.730  33.250  37.528  1.00  0.00     0.020 A 
ATOM     69  C   UNL A   1      41.950  34.770  36.077  1.00  0.00     0.020 A 
ATOM     70  C   UNL A   1      41.220  34.528  37.243  1.00  0.00     0.054 A 
BRANCH  70  71
ATOM     71  S   UNL A   1      40.918  35.861  38.434  1.00  0.00     0.124 S 
ATOM     72  O   UNL A   1      42.274  36.327  38.713  1.00  0.00    -0.237 OA
ATOM     73  O   UNL A   1      40.081  36.787  37.676  1.00  0.00    -0.237 OA
ATOM     74  O   UNL A   1      40.248  35.189  39.545  1.00  0.00    -0.744 OA
ENDBRANCH  70  71
ENDBRANCH  51  65
BRANCH  52  75
ATOM     75  C   UNL A   1      42.990  25.342  28.525  1.00  0.00    -0.014 A 
ATOM     76  C   UNL A   1      42.404  24.072  28.661  1.00  0.00     0.010 A 
ATOM     77  C   UNL A   1      43.772  25.618  27.390  1.00  0.00     0.010 A 
ATOM     78  C   UNL A   1      42.608  23.091  27.686  1.00  0.00     0.020 A 
ATOM     79  C   UNL A   1      43.959  24.648  26.401  1.00  0.00     0.020 A 
ATOM     80  C   UNL A   1      43.384  23.385  26.562  1.00  0.00     0.054 A 
BRANCH  80  81
ATOM     81  S   UNL A   1      43.592  22.115  25.282  1.00  0.00     0.124 S 
ATOM     82  O   UNL A   1      43.336  22.873  24.061  1.00  0.00    -0.237 OA
ATOM     83  O   UNL A   1      44.972  21.684  25.483  1.00  0.00    -0.237 OA
ATOM     84  O   UNL A   1      42.580  21.118  25.625  1.00  0.00    -0.744 OA
ENDBRANCH  80  81
ENDBRANCH  52  75
BRANCH  64  85
ATOM     85  C   UNL A   1      46.606  27.353  34.137  1.00  0.00    -0.014 A 
ATOM     86  C   UNL A   1      47.851  27.888  33.760  1.00  0.00     0.010 A 
ATOM     87  C   UNL A   1      46.554  26.383  35.153  1.00  0.00     0.010 A 
ATOM     88  C   UNL A   1      49.024  27.444  34.375  1.00  0.00     0.020 A 
ATOM     89  C   UNL A   1      47.722  25.952  35.786  1.00  0.00     0.020 A 
ATOM     90  C   UNL A   1      48.952  26.478  35.385  1.00  0.00     0.054 A 
BRANCH  90  91
ATOM     91  S   UNL A   1      50.482  25.958  36.207  1.00  0.00     0.124 S 
ATOM     92  O   UNL A   1      51.297  27.168  36.127  1.00  0.00    -0.237 OA
ATOM     93  O   UNL A   1      50.023  25.596  37.546  1.00  0.00    -0.237 OA
ATOM     94  O   UNL A   1      50.948  24.838  35.392  1.00  0.00    -0.744 OA
ENDBRANCH  90  91
ENDBRANCH  64  85
ENDBRANCH  38  39
ENDBRANCH  30  33
ENDBRANCH  28  29
ENDBRANCH  27  28
ENDBRANCH   1  27
TORSDOF 17
ENDMDL
MODEL 3
REMARK VINA RESULT:      -9.3      5.396     11.001
REMARK SMILES O=C(NCc1ccc(C(=O)NCCCCNC(=O)c2ccc(-c3c4nc(c(-c5ccc(S(=O)(=O)[O-])cc5)c5ccc([nH]5)c(-c5ccc(S(=O)(=O)[O-])cc5)c5nc(c(-c6ccc(S(=O)(=O)[O-])cc6)c6ccc3[nH]6)C=C5)C=C4)cc2)cc1)Nc1ccccc1Br
REMARK SMILES IDX 13 1 12 2 11 3 9 4 10 5 8 7 5 8 6 9 80 10 7 11 79 12 4 13
REMARK SMILES IDX 3 14 1 15 2 16 81 17 82 20 83 21 87 22 84 23 86 24 88 25
REMARK SMILES IDX 85 26 14 27 15 28 16 29 17 30 18 32 19 33 20 34 78 35 21 36
REMARK SMILES IDX 77 37 22 38 23 39 24 40 71 41 25 42 76 43 70 44 72 45 26 46
REMARK SMILES IDX 75 47 69 48 68 49 27 51 57 52 38 53 56 54 39 55 42 56 55 57
REMARK SMILES IDX 73 58 40 59 41 60 54 62 74 63 43 64 28 65 29 66 37 67 30 68
REMARK SMILES IDX 36 69 31 70 32 71 33 72 34 73 35 74 58 75 59 76 67 77 60 78
REMARK SMILES IDX 66 79 61 80 62 81 63 82 64 83 65 84 44 85 45 86 53 87 46 88
REMARK SMILES IDX 52 89 47 90 48 91 49 92 50 93 51 94
REMARK H PARENT 11 6 3 18 81 19 16 31 72 50 42 61
REMARK Flexibility Score: inf
ROOT
ATOM      1  C   UNL A   1      31.673  30.768  25.966  1.00  0.00     0.023 C 
ENDROOT
BRANCH   1   2
ATOM      2  C   UNL A   1      31.734  29.544  25.050  1.00  0.00     0.116 C 
BRANCH   2   3
ATOM      3  N   UNL A   1      31.012  29.784  23.816  1.00  0.00    -0.352 N 
ATOM      4  C   UNL A   1      30.438  28.921  22.916  1.00  0.00     0.251 C 
ATOM      5  O   UNL A   1      29.805  29.399  21.975  1.00  0.00    -0.269 OA
ATOM      6  H   UNL A   1      30.914  30.735  23.581  1.00  0.00     0.163 HD
BRANCH   4   7
ATOM      7  C   UNL A   1      30.514  27.440  23.049  1.00  0.00     0.039 A 
ATOM      8  C   UNL A   1      30.825  24.638  23.238  1.00  0.00    -0.029 A 
ATOM      9  C   UNL A   1      31.677  25.395  22.422  1.00  0.00     0.006 A 
ATOM     10  C   UNL A   1      29.835  25.297  23.973  1.00  0.00     0.006 A 
ATOM     11  C   UNL A   1      31.521  26.781  22.330  1.00  0.00     0.014 A 
ATOM     12  C   UNL A   1      29.696  26.685  23.893  1.00  0.00     0.014 A 
BRANCH   8  13
ATOM     13  C   UNL A   1      31.008  23.151  23.372  1.00  0.00     0.153 C 
BRANCH  13  14
ATOM     14  N   UNL A   1      31.373  22.776  24.720  1.00  0.00    -0.334 N 
ATOM     15  O   UNL A   1      32.632  22.081  26.417  1.00  0.00    -0.248 OA
ATOM     16  C   UNL A   1      32.570  22.374  25.228  1.00  0.00     0.319 C 
ATOM     17  N   UNL A   1      33.621  22.393  24.357  1.00  0.00    -0.307 N 
ATOM     18  H   UNL A   1      30.639  22.818  25.375  1.00  0.00     0.165 HD
ATOM     19  H   UNL A   1      33.480  22.873  23.510  1.00  0.00     0.171 HD
BRANCH  17  20
ATOM     20  C   UNL A   1      34.888  21.796  24.541  1.00  0.00     0.057 A 
ATOM     21  C   UNL A   1      35.982  22.673  24.418  1.00  0.00     0.027 A 
ATOM     22  C   UNL A   1      35.146  20.435  24.782  1.00  0.00     0.041 A 
ATOM     23  C   UNL A   1      37.292  22.228  24.606  1.00  0.00     0.002 A 
ATOM     24  C   UNL A   1      36.465  19.999  24.984  1.00  0.00     0.018 A 
ATOM     25  Br  UNL A   1      33.848  19.051  24.628  1.00  0.00    -0.049 Br
ATOM     26  C   UNL A   1      37.532  20.893  24.907  1.00  0.00     0.001 A 
ENDBRANCH  17  20
ENDBRANCH  13  14
ENDBRANCH   8  13
ENDBRANCH   4   7
ENDBRANCH   2   3
ENDBRANCH   1   2
BRANCH   1  27
ATOM     27  C   UNL A   1      32.551  30.674  27.217  1.00  0.00     0.023 C 
BRANCH  27  28
ATOM     28  C   UNL A   1      33.607  31.766  27.347  1.00  0.00     0.116 C 
BRANCH  28  29
ATOM     29  N   UNL A   1      33.044  33.079  27.607  1.00  0.00    -0.352 N 
ATOM     30  C   UNL A   1      33.425  33.998  28.562  1.00  0.00     0.251 C 
ATOM     31  H   UNL A   1      32.295  33.347  27.029  1.00  0.00     0.163 HD
ATOM     32  O   UNL A   1      32.780  35.023  28.723  1.00  0.00    -0.269 OA
BRANCH  30  33
ATOM     33  C   UNL A   1      34.594  33.701  29.416  1.00  0.00     0.039 A 
ATOM     34  C   UNL A   1      34.419  32.876  30.529  1.00  0.00     0.014 A 
ATOM     35  C   UNL A   1      35.859  34.199  29.094  1.00  0.00     0.014 A 
ATOM     36  C   UNL A   1      35.530  32.489  31.281  1.00  0.00     0.010 A 
ATOM     37  C   UNL A   1      36.972  33.764  29.808  1.00  0.00     0.010 A 
ATOM     38  C   UNL A   1      36.818  32.901  30.903  1.00  0.00    -0.014 A 
BRANCH  38  39
ATOM     39  C   UNL A   1      38.022  32.427  31.630  1.00  0.00     0.031 A 
ATOM     40  C   UNL A   1      38.865  31.324  31.053  1.00  0.00     0.074 A 
ATOM     41  C   UNL A   1      38.310  32.938  32.843  1.00  0.00     0.049 A 
ATOM     42  N   UNL A   1      39.903  30.723  31.575  1.00  0.00    -0.248 NA
ATOM     43  C   UNL A   1      38.475  30.813  29.729  1.00  0.00     0.031 C 
ATOM     44  C   UNL A   1      37.544  33.983  33.527  1.00  0.00     0.029 A 
ATOM     45  N   UNL A   1      39.321  32.639  33.722  1.00  0.00    -0.354 N 
ATOM     46  C   UNL A   1      40.279  29.753  30.654  1.00  0.00     0.074 A 
ATOM     47  C   UNL A   1      39.334  29.817  29.561  1.00  0.00     0.031 C 
ATOM     48  C   UNL A   1      38.125  34.251  34.709  1.00  0.00     0.029 A 
ATOM     49  C   UNL A   1      39.279  33.374  34.882  1.00  0.00     0.049 A 
ATOM     50  H   UNL A   1      40.011  31.960  33.539  1.00  0.00     0.167 HD
ATOM     51  C   UNL A   1      41.327  28.896  30.705  1.00  0.00     0.031 A 
ATOM     52  C   UNL A   1      40.076  33.343  35.968  1.00  0.00     0.031 A 
ATOM     53  C   UNL A   1      42.274  28.843  31.787  1.00  0.00     0.049 A 
ATOM     54  C   UNL A   1      41.233  32.383  36.002  1.00  0.00     0.074 A 
ATOM     55  C   UNL A   1      43.400  28.048  31.906  1.00  0.00     0.029 A 
ATOM     56  N   UNL A   1      42.208  29.619  32.934  1.00  0.00    -0.354 N 
ATOM     57  N   UNL A   1      41.606  31.513  35.095  1.00  0.00    -0.248 NA
ATOM     58  C   UNL A   1      42.080  32.408  37.202  1.00  0.00     0.031 C 
ATOM     59  C   UNL A   1      43.994  28.315  33.145  1.00  0.00     0.029 A 
ATOM     60  C   UNL A   1      43.263  29.310  33.775  1.00  0.00     0.049 A 
ATOM     61  H   UNL A   1      41.512  30.290  33.123  1.00  0.00     0.167 HD
ATOM     62  C   UNL A   1      42.746  30.903  35.604  1.00  0.00     0.074 A 
ATOM     63  C   UNL A   1      43.008  31.512  36.892  1.00  0.00     0.031 C 
ATOM     64  C   UNL A   1      43.509  29.927  35.053  1.00  0.00     0.031 A 
BRANCH  51  65
ATOM     65  C   UNL A   1      41.500  27.944  29.553  1.00  0.00    -0.014 A 
ATOM     66  C   UNL A   1      42.527  28.131  28.610  1.00  0.00     0.010 A 
ATOM     67  C   UNL A   1      40.646  26.834  29.426  1.00  0.00     0.010 A 
ATOM     68  C   UNL A   1      42.669  27.249  27.536  1.00  0.00     0.020 A 
ATOM     69  C   UNL A   1      40.801  25.935  28.367  1.00  0.00     0.020 A 
ATOM     70  C   UNL A   1      41.801  26.160  27.417  1.00  0.00     0.054 A 
BRANCH  70  71
ATOM     71  S   UNL A   1      42.017  25.023  26.021  1.00  0.00     0.124 S 
ATOM     72  O   UNL A   1      40.805  24.212  26.105  1.00  0.00    -0.237 OA
ATOM     73  O   UNL A   1      42.089  25.928  24.876  1.00  0.00    -0.237 OA
ATOM     74  O   UNL A   1      43.259  24.322  26.334  1.00  0.00    -0.744 OA
ENDBRANCH  70  71
ENDBRANCH  51  65
BRANCH  52  75
ATOM     75  C   UNL A   1      39.814  34.262  37.107  1.00  0.00    -0.014 A 
ATOM     76  C   UNL A   1      40.229  35.604  37.045  1.00  0.00     0.010 A 
ATOM     77  C   UNL A   1      39.138  33.807  38.253  1.00  0.00     0.010 A 
ATOM     78  C   UNL A   1      39.987  36.470  38.115  1.00  0.00     0.020 A 
ATOM     79  C   UNL A   1      38.873  34.676  39.316  1.00  0.00     0.020 A 
ATOM     80  C   UNL A   1      39.311  36.001  39.244  1.00  0.00     0.054 A 
BRANCH  80  81
ATOM     81  S   UNL A   1      38.958  37.156  40.599  1.00  0.00     0.124 S 
ATOM     82  O   UNL A   1      38.241  38.222  39.908  1.00  0.00    -0.237 OA
ATOM     83  O   UNL A   1      38.159  36.342  41.511  1.00  0.00    -0.237 OA
ATOM     84  O   UNL A   1      40.286  37.512  41.096  1.00  0.00    -0.744 OA
ENDBRANCH  80  81
ENDBRANCH  52  75
BRANCH  64  85
ATOM     85  C   UNL A   1      44.717  29.475  35.825  1.00  0.00    -0.014 A 
ATOM     86  C   UNL A   1      44.644  28.396  36.723  1.00  0.00     0.010 A 
ATOM     87  C   UNL A   1      45.957  30.102  35.602  1.00  0.00     0.010 A 
ATOM     88  C   UNL A   1      45.786  27.965  37.401  1.00  0.00     0.020 A 
ATOM     89  C   UNL A   1      47.106  29.659  36.261  1.00  0.00     0.020 A 
ATOM     90  C   UNL A   1      47.011  28.599  37.166  1.00  0.00     0.054 A 
BRANCH  90  91
ATOM     91  S   UNL A   1      48.491  27.986  38.017  1.00  0.00     0.124 S 
ATOM     92  O   UNL A   1      49.157  29.229  38.399  1.00  0.00    -0.237 OA
ATOM     93  O   UNL A   1      47.932  27.207  39.118  1.00  0.00    -0.237 OA
ATOM     94  O   UNL A   1      49.177  27.202  36.993  1.00  0.00    -0.744 OA
ENDBRANCH  90  91
ENDBRANCH  64  85
ENDBRANCH  38  39
ENDBRANCH  30  33
ENDBRANCH  28  29
ENDBRANCH  27  28
ENDBRANCH   1  27
TORSDOF 17
ENDMDL
