MODEL 1
REMARK VINA RESULT:     -11.0      0.000      0.000
REMARK SMILES O=C(NCc1ccsc1)NC[C@H]1CC[C@@H](C(=O)NCCCCNC(=O)c2ccc(-c3c4nc(c(-c5ccc(S(=O)(=O)[O-])cc5)c5ccc([nH]5)c(-c5ccc(S(=O)(=O)[O-])cc5)c5nc(c(-c6ccc(S(=O)(=O)[O-])cc6)c6ccc3[nH]6)C=C5)C=C4)cc2)CC1
REMARK SMILES IDX 20 1 19 2 18 3 16 4 17 5 15 7 12 8 13 9 87 10 14 11 86 12
REMARK SMILES IDX 11 13 10 14 1 15 2 16 3 17 4 20 5 21 6 22 9 23 7 24 8 25
REMARK SMILES IDX 21 26 22 27 23 28 24 29 25 31 26 32 27 33 85 34 28 35 84 36
REMARK SMILES IDX 29 37 30 38 31 39 78 40 32 41 83 42 77 43 79 44 33 45 82 46
REMARK SMILES IDX 76 47 75 48 34 50 64 51 45 52 63 53 46 54 49 55 62 56 80 57
REMARK SMILES IDX 47 58 48 59 61 61 81 62 50 63 35 64 36 65 44 66 37 67 43 68
REMARK SMILES IDX 38 69 39 70 40 71 41 72 42 73 65 74 66 75 74 76 67 77 73 78
REMARK SMILES IDX 68 79 69 80 70 81 71 82 72 83 51 84 52 85 60 86 53 87 59 88
REMARK SMILES IDX 54 89 55 90 56 91 57 92 58 93
REMARK H PARENT 18 6 3 18 10 19 23 30 79 49 49 60
REMARK Flexibility Score: inf
ROOT
ATOM      1  C   UNL A   1      35.446  21.449  25.509  1.00  0.00     0.023 C 
ENDROOT
BRANCH   1   2
ATOM      2  C   UNL A   1      33.995  21.059  25.765  1.00  0.00     0.116 C 
BRANCH   2   3
ATOM      3  N   UNL A   1      33.165  22.157  26.192  1.00  0.00    -0.356 N 
ATOM      4  C   UNL A   1      32.219  22.890  25.555  1.00  0.00     0.223 C 
ATOM      5  O   UNL A   1      31.599  23.695  26.262  1.00  0.00    -0.275 OA
ATOM      6  H   UNL A   1      33.314  22.428  27.127  1.00  0.00     0.163 HD
BRANCH   4   7
ATOM      7  C   UNL A   1      31.867  22.790  24.060  1.00  0.00     0.078 C 
ATOM      8  C   UNL A   1      32.506  24.971  22.067  1.00  0.00     0.008 C 
ATOM      9  C   UNL A   1      33.578  23.972  22.546  1.00  0.00     0.006 C 
ATOM     10  C   UNL A   1      31.209  25.012  22.906  1.00  0.00     0.006 C 
ATOM     11  C   UNL A   1      33.039  22.662  23.096  1.00  0.00     0.014 C 
ATOM     12  C   UNL A   1      30.763  23.706  23.547  1.00  0.00     0.014 C 
BRANCH   8  13
ATOM     13  C   UNL A   1      33.037  26.423  21.929  1.00  0.00     0.121 C 
BRANCH  13  14
ATOM     14  N   UNL A   1      32.456  27.375  22.850  1.00  0.00    -0.338 N 
ATOM     15  O   UNL A   1      34.069  28.967  22.620  1.00  0.00    -0.249 OA
ATOM     16  C   UNL A   1      32.993  28.600  23.080  1.00  0.00     0.315 C 
ATOM     17  N   UNL A   1      32.280  29.443  23.861  1.00  0.00    -0.334 N 
ATOM     18  H   UNL A   1      32.681  30.335  23.963  1.00  0.00     0.165 HD
ATOM     19  H   UNL A   1      31.635  27.125  23.331  1.00  0.00     0.165 HD
BRANCH  17  20
ATOM     20  C   UNL A   1      31.032  29.270  24.574  1.00  0.00     0.154 C 
BRANCH  20  21
ATOM     21  C   UNL A   1      29.932  29.836  23.733  1.00  0.00    -0.018 A 
ATOM     22  C   UNL A   1      29.376  31.152  23.878  1.00  0.00     0.017 A 
ATOM     23  C   UNL A   1      29.303  29.155  22.704  1.00  0.00     0.070 A 
ATOM     24  C   UNL A   1      28.375  31.410  22.966  1.00  0.00     0.065 A 
ATOM     25  S   UNL A   1      28.091  30.081  21.932  1.00  0.00    -0.152 S 
ENDBRANCH  20  21
ENDBRANCH  17  20
ENDBRANCH  13  14
ENDBRANCH   8  13
ENDBRANCH   4   7
ENDBRANCH   2   3
ENDBRANCH   1   2
BRANCH   1  26
ATOM     26  C   UNL A   1      35.781  22.909  25.798  1.00  0.00     0.023 C 
BRANCH  26  27
ATOM     27  C   UNL A   1      37.092  23.423  25.210  1.00  0.00     0.116 C 
BRANCH  27  28
ATOM     28  N   UNL A   1      38.252  22.576  25.453  1.00  0.00    -0.352 N 
ATOM     29  C   UNL A   1      39.387  22.878  26.186  1.00  0.00     0.251 C 
ATOM     30  H   UNL A   1      38.226  21.681  25.045  1.00  0.00     0.163 HD
ATOM     31  O   UNL A   1      40.289  22.073  26.297  1.00  0.00    -0.269 OA
BRANCH  29  32
ATOM     32  C   UNL A   1      39.495  24.227  26.787  1.00  0.00     0.039 A 
ATOM     33  C   UNL A   1      38.988  24.431  28.072  1.00  0.00     0.014 A 
ATOM     34  C   UNL A   1      40.187  25.243  26.126  1.00  0.00     0.014 A 
ATOM     35  C   UNL A   1      39.265  25.628  28.735  1.00  0.00     0.010 A 
ATOM     36  C   UNL A   1      40.528  26.401  26.817  1.00  0.00     0.010 A 
ATOM     37  C   UNL A   1      40.083  26.600  28.134  1.00  0.00    -0.014 A 
BRANCH  37  38
ATOM     38  C   UNL A   1      40.515  27.812  28.876  1.00  0.00     0.031 A 
ATOM     39  C   UNL A   1      41.867  27.854  29.536  1.00  0.00     0.074 A 
ATOM     40  C   UNL A   1      39.661  28.843  29.026  1.00  0.00     0.049 A 
ATOM     41  N   UNL A   1      42.393  28.796  30.276  1.00  0.00    -0.248 NA
ATOM     42  C   UNL A   1      42.724  26.669  29.371  1.00  0.00     0.031 C 
ATOM     43  C   UNL A   1      38.296  28.902  28.492  1.00  0.00     0.029 A 
ATOM     44  N   UNL A   1      39.810  30.042  29.677  1.00  0.00    -0.354 N 
ATOM     45  C   UNL A   1      43.630  28.310  30.682  1.00  0.00     0.074 A 
ATOM     46  C   UNL A   1      43.754  26.971  30.148  1.00  0.00     0.031 C 
ATOM     47  C   UNL A   1      37.749  30.088  28.808  1.00  0.00     0.029 A 
ATOM     48  C   UNL A   1      38.708  30.861  29.592  1.00  0.00     0.049 A 
ATOM     49  H   UNL A   1      40.629  30.293  30.161  1.00  0.00     0.167 HD
ATOM     50  C   UNL A   1      44.588  28.929  31.412  1.00  0.00     0.031 A 
ATOM     51  C   UNL A   1      38.493  32.096  30.083  1.00  0.00     0.031 A 
ATOM     52  C   UNL A   1      44.477  30.269  31.922  1.00  0.00     0.049 A 
ATOM     53  C   UNL A   1      39.586  32.778  30.858  1.00  0.00     0.074 A 
ATOM     54  C   UNL A   1      45.418  31.006  32.619  1.00  0.00     0.029 A 
ATOM     55  N   UNL A   1      43.359  31.077  31.779  1.00  0.00    -0.354 N 
ATOM     56  N   UNL A   1      40.775  32.325  31.177  1.00  0.00    -0.248 NA
ATOM     57  C   UNL A   1      39.313  34.144  31.325  1.00  0.00     0.031 C 
ATOM     58  C   UNL A   1      44.857  32.251  32.927  1.00  0.00     0.029 A 
ATOM     59  C   UNL A   1      43.582  32.302  32.384  1.00  0.00     0.049 A 
ATOM     60  H   UNL A   1      42.530  30.818  31.317  1.00  0.00     0.167 HD
ATOM     61  C   UNL A   1      41.401  33.359  31.863  1.00  0.00     0.074 A 
ATOM     62  C   UNL A   1      40.465  34.465  31.899  1.00  0.00     0.031 C 
ATOM     63  C   UNL A   1      42.639  33.391  32.413  1.00  0.00     0.031 A 
BRANCH  50  64
ATOM     64  C   UNL A   1      45.845  28.152  31.695  1.00  0.00    -0.014 A 
ATOM     65  C   UNL A   1      46.963  28.253  30.845  1.00  0.00     0.010 A 
ATOM     66  C   UNL A   1      45.919  27.320  32.827  1.00  0.00     0.010 A 
ATOM     67  C   UNL A   1      48.111  27.498  31.093  1.00  0.00     0.020 A 
ATOM     68  C   UNL A   1      47.075  26.582  33.093  1.00  0.00     0.020 A 
ATOM     69  C   UNL A   1      48.157  26.660  32.212  1.00  0.00     0.054 A 
BRANCH  69  70
ATOM     70  S   UNL A   1      49.660  25.690  32.513  1.00  0.00     0.124 S 
ATOM     71  O   UNL A   1      49.221  24.779  33.568  1.00  0.00    -0.237 OA
ATOM     72  O   UNL A   1      49.910  25.072  31.215  1.00  0.00    -0.237 OA
ATOM     73  O   UNL A   1      50.640  26.693  32.922  1.00  0.00    -0.744 OA
ENDBRANCH  69  70
ENDBRANCH  50  64
BRANCH  51  74
ATOM     74  C   UNL A   1      37.202  32.786  29.821  1.00  0.00    -0.014 A 
ATOM     75  C   UNL A   1      37.010  33.499  28.625  1.00  0.00     0.010 A 
ATOM     76  C   UNL A   1      36.154  32.725  30.758  1.00  0.00     0.010 A 
ATOM     77  C   UNL A   1      35.801  34.153  28.375  1.00  0.00     0.020 A 
ATOM     78  C   UNL A   1      34.935  33.358  30.501  1.00  0.00     0.020 A 
ATOM     79  C   UNL A   1      34.769  34.078  29.316  1.00  0.00     0.054 A 
BRANCH  79  80
ATOM     80  S   UNL A   1      33.186  34.885  28.948  1.00  0.00     0.124 S 
ATOM     81  O   UNL A   1      33.619  36.163  28.394  1.00  0.00    -0.237 OA
ATOM     82  O   UNL A   1      32.570  33.959  28.001  1.00  0.00    -0.237 OA
ATOM     83  O   UNL A   1      32.531  34.956  30.252  1.00  0.00    -0.744 OA
ENDBRANCH  79  80
ENDBRANCH  51  74
BRANCH  63  84
ATOM     84  C   UNL A   1      43.063  34.672  33.078  1.00  0.00    -0.014 A 
ATOM     85  C   UNL A   1      42.813  34.899  34.442  1.00  0.00     0.010 A 
ATOM     86  C   UNL A   1      43.752  35.645  32.332  1.00  0.00     0.010 A 
ATOM     87  C   UNL A   1      43.214  36.094  35.043  1.00  0.00     0.020 A 
ATOM     88  C   UNL A   1      44.174  36.832  32.934  1.00  0.00     0.020 A 
ATOM     89  C   UNL A   1      43.888  37.056  34.283  1.00  0.00     0.054 A 
BRANCH  89  90
ATOM     90  S   UNL A   1      44.427  38.590  35.089  1.00  0.00     0.124 S 
ATOM     91  O   UNL A   1      44.063  38.344  36.481  1.00  0.00    -0.237 OA
ATOM     92  O   UNL A   1      45.860  38.615  34.808  1.00  0.00    -0.237 OA
ATOM     93  O   UNL A   1      43.649  39.626  34.413  1.00  0.00    -0.744 OA
ENDBRANCH  89  90
ENDBRANCH  63  84
ENDBRANCH  37  38
ENDBRANCH  29  32
ENDBRANCH  27  28
ENDBRANCH  26  27
ENDBRANCH   1  26
TORSDOF 18
ENDMDL
MODEL 2
REMARK VINA RESULT:     -10.9      4.582     10.570
REMARK SMILES O=C(NCc1ccsc1)NC[C@H]1CC[C@@H](C(=O)NCCCCNC(=O)c2ccc(-c3c4nc(c(-c5ccc(S(=O)(=O)[O-])cc5)c5ccc([nH]5)c(-c5ccc(S(=O)(=O)[O-])cc5)c5nc(c(-c6ccc(S(=O)(=O)[O-])cc6)c6ccc3[nH]6)C=C5)C=C4)cc2)CC1
REMARK SMILES IDX 20 1 19 2 18 3 16 4 17 5 15 7 12 8 13 9 87 10 14 11 86 12
REMARK SMILES IDX 11 13 10 14 1 15 2 16 3 17 4 20 5 21 6 22 9 23 7 24 8 25
REMARK SMILES IDX 21 26 22 27 23 28 24 29 25 31 26 32 27 33 85 34 28 35 84 36
REMARK SMILES IDX 29 37 30 38 31 39 78 40 32 41 83 42 77 43 79 44 33 45 82 46
REMARK SMILES IDX 76 47 75 48 34 50 64 51 45 52 63 53 46 54 49 55 62 56 80 57
REMARK SMILES IDX 47 58 48 59 61 61 81 62 50 63 35 64 36 65 44 66 37 67 43 68
REMARK SMILES IDX 38 69 39 70 40 71 41 72 42 73 65 74 66 75 74 76 67 77 73 78
REMARK SMILES IDX 68 79 69 80 70 81 71 82 72 83 51 84 52 85 60 86 53 87 59 88
REMARK SMILES IDX 54 89 55 90 56 91 57 92 58 93
REMARK H PARENT 18 6 3 18 10 19 23 30 79 49 49 60
REMARK Flexibility Score: inf
ROOT
ATOM      1  C   UNL A   1      34.833  30.796  27.687  1.00  0.00     0.023 C 
ENDROOT
BRANCH   1   2
ATOM      2  C   UNL A   1      33.377  30.946  27.262  1.00  0.00     0.116 C 
BRANCH   2   3
ATOM      3  N   UNL A   1      32.524  29.881  27.726  1.00  0.00    -0.356 N 
ATOM      4  C   UNL A   1      32.117  28.720  27.155  1.00  0.00     0.223 C 
ATOM      5  O   UNL A   1      31.472  27.961  27.889  1.00  0.00    -0.275 OA
ATOM      6  H   UNL A   1      32.167  30.024  28.633  1.00  0.00     0.163 HD
BRANCH   4   7
ATOM      7  C   UNL A   1      32.400  28.290  25.705  1.00  0.00     0.078 C 
ATOM      8  C   UNL A   1      31.541  25.618  24.583  1.00  0.00     0.008 C 
ATOM      9  C   UNL A   1      30.552  26.791  24.726  1.00  0.00     0.006 C 
ATOM     10  C   UNL A   1      32.874  25.770  25.349  1.00  0.00     0.006 C 
ATOM     11  C   UNL A   1      31.190  28.169  24.787  1.00  0.00     0.014 C 
ATOM     12  C   UNL A   1      33.423  27.181  25.501  1.00  0.00     0.014 C 
BRANCH   8  13
ATOM     13  C   UNL A   1      30.924  24.244  24.957  1.00  0.00     0.121 C 
BRANCH  13  14
ATOM     14  N   UNL A   1      31.868  23.262  25.444  1.00  0.00    -0.338 N 
ATOM     15  O   UNL A   1      30.911  22.984  27.492  1.00  0.00    -0.249 OA
ATOM     16  C   UNL A   1      31.753  22.668  26.658  1.00  0.00     0.315 C 
ATOM     17  N   UNL A   1      32.626  21.672  26.936  1.00  0.00    -0.334 N 
ATOM     18  H   UNL A   1      32.477  21.237  27.805  1.00  0.00     0.165 HD
ATOM     19  H   UNL A   1      32.629  23.015  24.869  1.00  0.00     0.165 HD
BRANCH  17  20
ATOM     20  C   UNL A   1      33.739  21.132  26.185  1.00  0.00     0.154 C 
BRANCH  20  21
ATOM     21  C   UNL A   1      33.241  19.971  25.383  1.00  0.00    -0.018 A 
ATOM     22  C   UNL A   1      32.858  18.697  25.924  1.00  0.00     0.017 A 
ATOM     23  C   UNL A   1      33.091  19.977  24.006  1.00  0.00     0.070 A 
ATOM     24  C   UNL A   1      32.435  17.813  24.955  1.00  0.00     0.065 A 
ATOM     25  S   UNL A   1      32.494  18.498  23.392  1.00  0.00    -0.152 S 
ENDBRANCH  20  21
ENDBRANCH  17  20
ENDBRANCH  13  14
ENDBRANCH   8  13
ENDBRANCH   4   7
ENDBRANCH   2   3
ENDBRANCH   1   2
BRANCH   1  26
ATOM     26  C   UNL A   1      35.580  32.108  27.902  1.00  0.00     0.023 C 
BRANCH  26  27
ATOM     27  C   UNL A   1      36.096  32.359  29.317  1.00  0.00     0.116 C 
BRANCH  27  28
ATOM     28  N   UNL A   1      35.782  31.316  30.284  1.00  0.00    -0.352 N 
ATOM     29  C   UNL A   1      36.612  30.312  30.749  1.00  0.00     0.251 C 
ATOM     30  H   UNL A   1      34.869  31.327  30.651  1.00  0.00     0.163 HD
ATOM     31  O   UNL A   1      36.212  29.496  31.555  1.00  0.00    -0.269 OA
BRANCH  29  32
ATOM     32  C   UNL A   1      37.985  30.225  30.200  1.00  0.00     0.039 A 
ATOM     33  C   UNL A   1      39.066  30.408  31.065  1.00  0.00     0.014 A 
ATOM     34  C   UNL A   1      38.193  29.860  28.869  1.00  0.00     0.014 A 
ATOM     35  C   UNL A   1      40.357  30.125  30.616  1.00  0.00     0.010 A 
ATOM     36  C   UNL A   1      39.470  29.505  28.448  1.00  0.00     0.010 A 
ATOM     37  C   UNL A   1      40.564  29.619  29.321  1.00  0.00    -0.014 A 
BRANCH  37  38
ATOM     38  C   UNL A   1      41.907  29.169  28.874  1.00  0.00     0.031 A 
ATOM     39  C   UNL A   1      43.047  30.148  28.798  1.00  0.00     0.074 A 
ATOM     40  C   UNL A   1      42.081  27.898  28.458  1.00  0.00     0.049 A 
ATOM     41  N   UNL A   1      44.270  29.956  28.374  1.00  0.00    -0.248 NA
ATOM     42  C   UNL A   1      42.766  31.529  29.220  1.00  0.00     0.031 C 
ATOM     43  C   UNL A   1      41.042  26.866  28.419  1.00  0.00     0.029 A 
ATOM     44  N   UNL A   1      43.198  27.258  27.984  1.00  0.00    -0.354 N 
ATOM     45  C   UNL A   1      44.897  31.193  28.459  1.00  0.00     0.074 A 
ATOM     46  C   UNL A   1      43.905  32.139  28.924  1.00  0.00     0.031 C 
ATOM     47  C   UNL A   1      41.578  25.715  27.980  1.00  0.00     0.029 A 
ATOM     48  C   UNL A   1      42.989  25.933  27.677  1.00  0.00     0.049 A 
ATOM     49  H   UNL A   1      44.068  27.704  27.873  1.00  0.00     0.167 HD
ATOM     50  C   UNL A   1      46.187  31.512  28.196  1.00  0.00     0.031 A 
ATOM     51  C   UNL A   1      43.837  24.997  27.209  1.00  0.00     0.031 A 
ATOM     52  C   UNL A   1      47.180  30.569  27.758  1.00  0.00     0.049 A 
ATOM     53  C   UNL A   1      45.273  25.365  26.962  1.00  0.00     0.074 A 
ATOM     54  C   UNL A   1      48.526  30.783  27.524  1.00  0.00     0.029 A 
ATOM     55  N   UNL A   1      46.934  29.230  27.496  1.00  0.00    -0.354 N 
ATOM     56  N   UNL A   1      45.861  26.528  27.108  1.00  0.00    -0.248 NA
ATOM     57  C   UNL A   1      46.162  24.290  26.500  1.00  0.00     0.031 C 
ATOM     58  C   UNL A   1      49.091  29.578  27.090  1.00  0.00     0.029 A 
ATOM     59  C   UNL A   1      48.103  28.606  27.094  1.00  0.00     0.049 A 
ATOM     60  H   UNL A   1      46.059  28.788  27.582  1.00  0.00     0.167 HD
ATOM     61  C   UNL A   1      47.196  26.320  26.779  1.00  0.00     0.074 A 
ATOM     62  C   UNL A   1      47.330  24.918  26.440  1.00  0.00     0.031 C 
ATOM     63  C   UNL A   1      48.218  27.209  26.759  1.00  0.00     0.031 A 
BRANCH  50  64
ATOM     64  C   UNL A   1      46.590  32.949  28.385  1.00  0.00    -0.014 A 
ATOM     65  C   UNL A   1      47.186  33.381  29.585  1.00  0.00     0.010 A 
ATOM     66  C   UNL A   1      46.385  33.880  27.350  1.00  0.00     0.010 A 
ATOM     67  C   UNL A   1      47.521  34.723  29.767  1.00  0.00     0.020 A 
ATOM     68  C   UNL A   1      46.743  35.220  27.518  1.00  0.00     0.020 A 
ATOM     69  C   UNL A   1      47.289  35.638  28.734  1.00  0.00     0.054 A 
BRANCH  69  70
ATOM     70  S   UNL A   1      47.735  37.377  28.993  1.00  0.00     0.124 S 
ATOM     71  O   UNL A   1      47.814  37.872  27.621  1.00  0.00    -0.237 OA
ATOM     72  O   UNL A   1      46.613  37.883  29.779  1.00  0.00    -0.237 OA
ATOM     73  O   UNL A   1      49.008  37.303  29.705  1.00  0.00    -0.744 OA
ENDBRANCH  69  70
ENDBRANCH  50  64
BRANCH  51  74
ATOM     74  C   UNL A   1      43.359  23.607  26.983  1.00  0.00    -0.014 A 
ATOM     75  C   UNL A   1      43.073  23.159  25.681  1.00  0.00     0.010 A 
ATOM     76  C   UNL A   1      43.198  22.721  28.063  1.00  0.00     0.010 A 
ATOM     77  C   UNL A   1      42.619  21.855  25.463  1.00  0.00     0.020 A 
ATOM     78  C   UNL A   1      42.767  21.409  27.847  1.00  0.00     0.020 A 
ATOM     79  C   UNL A   1      42.469  20.987  26.549  1.00  0.00     0.054 A 
BRANCH  79  80
ATOM     80  S   UNL A   1      41.934  19.281  26.240  1.00  0.00     0.124 S 
ATOM     81  O   UNL A   1      42.297  18.619  27.487  1.00  0.00    -0.237 OA
ATOM     82  O   UNL A   1      40.501  19.436  25.998  1.00  0.00    -0.237 OA
ATOM     83  O   UNL A   1      42.715  18.888  25.069  1.00  0.00    -0.744 OA
ENDBRANCH  79  80
ENDBRANCH  51  74
BRANCH  63  84
ATOM     84  C   UNL A   1      49.577  26.686  26.384  1.00  0.00    -0.014 A 
ATOM     85  C   UNL A   1      50.389  26.032  27.327  1.00  0.00     0.010 A 
ATOM     86  C   UNL A   1      50.031  26.820  25.060  1.00  0.00     0.010 A 
ATOM     87  C   UNL A   1      51.648  25.552  26.961  1.00  0.00     0.020 A 
ATOM     88  C   UNL A   1      51.280  26.322  24.685  1.00  0.00     0.020 A 
ATOM     89  C   UNL A   1      52.089  25.705  25.642  1.00  0.00     0.054 A 
BRANCH  89  90
ATOM     90  S   UNL A   1      53.715  25.049  25.179  1.00  0.00     0.124 S 
ATOM     91  O   UNL A   1      54.535  25.437  26.323  1.00  0.00    -0.237 OA
ATOM     92  O   UNL A   1      53.459  23.617  25.046  1.00  0.00    -0.237 OA
ATOM     93  O   UNL A   1      54.022  25.739  23.928  1.00  0.00    -0.744 OA
ENDBRANCH  89  90
ENDBRANCH  63  84
ENDBRANCH  37  38
ENDBRANCH  29  32
ENDBRANCH  27  28
ENDBRANCH  26  27
ENDBRANCH   1  26
TORSDOF 18
ENDMDL
MODEL 3
REMARK VINA RESULT:     -10.9      3.357      4.518
REMARK SMILES O=C(NCc1ccsc1)NC[C@H]1CC[C@@H](C(=O)NCCCCNC(=O)c2ccc(-c3c4nc(c(-c5ccc(S(=O)(=O)[O-])cc5)c5ccc([nH]5)c(-c5ccc(S(=O)(=O)[O-])cc5)c5nc(c(-c6ccc(S(=O)(=O)[O-])cc6)c6ccc3[nH]6)C=C5)C=C4)cc2)CC1
REMARK SMILES IDX 20 1 19 2 18 3 16 4 17 5 15 7 12 8 13 9 87 10 14 11 86 12
REMARK SMILES IDX 11 13 10 14 1 15 2 16 3 17 4 20 5 21 6 22 9 23 7 24 8 25
REMARK SMILES IDX 21 26 22 27 23 28 24 29 25 31 26 32 27 33 85 34 28 35 84 36
REMARK SMILES IDX 29 37 30 38 31 39 78 40 32 41 83 42 77 43 79 44 33 45 82 46
REMARK SMILES IDX 76 47 75 48 34 50 64 51 45 52 63 53 46 54 49 55 62 56 80 57
REMARK SMILES IDX 47 58 48 59 61 61 81 62 50 63 35 64 36 65 44 66 37 67 43 68
REMARK SMILES IDX 38 69 39 70 40 71 41 72 42 73 65 74 66 75 74 76 67 77 73 78
REMARK SMILES IDX 68 79 69 80 70 81 71 82 72 83 51 84 52 85 60 86 53 87 59 88
REMARK SMILES IDX 54 89 55 90 56 91 57 92 58 93
REMARK H PARENT 18 6 3 18 10 19 23 30 79 49 49 60
REMARK Flexibility Score: inf
ROOT
ATOM      1  C   UNL A   1      40.502  21.803  27.416  1.00  0.00     0.023 C 
ENDROOT
BRANCH   1   2
ATOM      2  C   UNL A   1      39.577  21.856  26.206  1.00  0.00     0.116 C 
BRANCH   2   3
ATOM      3  N   UNL A   1      38.672  22.978  26.215  1.00  0.00    -0.356 N 
ATOM      4  C   UNL A   1      37.467  23.186  25.631  1.00  0.00     0.223 C 
ATOM      5  O   UNL A   1      36.892  24.235  25.949  1.00  0.00    -0.275 OA
ATOM      6  H   UNL A   1      38.991  23.741  26.750  1.00  0.00     0.163 HD
BRANCH   4   7
ATOM      7  C   UNL A   1      36.780  22.235  24.635  1.00  0.00     0.078 C 
ATOM      8  C   UNL A   1      33.804  21.707  24.647  1.00  0.00     0.008 C 
ATOM      9  C   UNL A   1      34.397  22.982  24.016  1.00  0.00     0.006 C 
ATOM     10  C   UNL A   1      34.759  20.905  25.559  1.00  0.00     0.006 C 
ATOM     11  C   UNL A   1      35.858  22.880  23.609  1.00  0.00     0.014 C 
ATOM     12  C   UNL A   1      36.237  20.926  25.194  1.00  0.00     0.014 C 
BRANCH   8  13
ATOM     13  C   UNL A   1      32.490  21.965  25.434  1.00  0.00     0.121 C 
BRANCH  13  14
ATOM     14  N   UNL A   1      32.066  23.347  25.476  1.00  0.00    -0.338 N 
ATOM     15  O   UNL A   1      31.395  23.340  27.652  1.00  0.00    -0.249 OA
ATOM     16  C   UNL A   1      31.601  23.941  26.603  1.00  0.00     0.315 C 
ATOM     17  N   UNL A   1      31.363  25.271  26.540  1.00  0.00    -0.334 N 
ATOM     18  H   UNL A   1      31.074  25.671  27.391  1.00  0.00     0.165 HD
ATOM     19  H   UNL A   1      32.116  23.880  24.650  1.00  0.00     0.165 HD
BRANCH  17  20
ATOM     20  C   UNL A   1      31.459  26.214  25.445  1.00  0.00     0.154 C 
BRANCH  20  21
ATOM     21  C   UNL A   1      32.276  27.381  25.904  1.00  0.00    -0.018 A 
ATOM     22  C   UNL A   1      33.661  27.323  26.276  1.00  0.00     0.017 A 
ATOM     23  C   UNL A   1      31.792  28.672  26.033  1.00  0.00     0.070 A 
ATOM     24  C   UNL A   1      34.161  28.549  26.657  1.00  0.00     0.065 A 
ATOM     25  S   UNL A   1      32.978  29.779  26.572  1.00  0.00    -0.152 S 
ENDBRANCH  20  21
ENDBRANCH  17  20
ENDBRANCH  13  14
ENDBRANCH   8  13
ENDBRANCH   4   7
ENDBRANCH   2   3
ENDBRANCH   1   2
BRANCH   1  26
ATOM     26  C   UNL A   1      41.989  21.730  27.087  1.00  0.00     0.023 C 
BRANCH  26  27
ATOM     27  C   UNL A   1      42.726  23.065  27.018  1.00  0.00     0.116 C 
BRANCH  27  28
ATOM     28  N   UNL A   1      42.366  23.912  25.889  1.00  0.00    -0.352 N 
ATOM     29  C   UNL A   1      42.003  25.247  25.910  1.00  0.00     0.251 C 
ATOM     30  H   UNL A   1      42.384  23.482  25.004  1.00  0.00     0.163 HD
ATOM     31  O   UNL A   1      41.716  25.831  24.884  1.00  0.00    -0.269 OA
BRANCH  29  32
ATOM     32  C   UNL A   1      41.921  25.932  27.221  1.00  0.00     0.039 A 
ATOM     33  C   UNL A   1      42.925  26.838  27.567  1.00  0.00     0.014 A 
ATOM     34  C   UNL A   1      40.806  25.755  28.042  1.00  0.00     0.014 A 
ATOM     35  C   UNL A   1      42.759  27.644  28.695  1.00  0.00     0.010 A 
ATOM     36  C   UNL A   1      40.608  26.613  29.119  1.00  0.00     0.010 A 
ATOM     37  C   UNL A   1      41.574  27.576  29.449  1.00  0.00    -0.014 A 
BRANCH  37  38
ATOM     38  C   UNL A   1      41.311  28.526  30.560  1.00  0.00     0.031 A 
ATOM     39  C   UNL A   1      42.136  28.469  31.816  1.00  0.00     0.074 A 
ATOM     40  C   UNL A   1      40.278  29.387  30.471  1.00  0.00     0.049 A 
ATOM     41  N   UNL A   1      42.016  29.172  32.913  1.00  0.00    -0.248 NA
ATOM     42  C   UNL A   1      43.215  27.468  31.859  1.00  0.00     0.031 C 
ATOM     43  C   UNL A   1      39.359  29.500  29.335  1.00  0.00     0.029 A 
ATOM     44  N   UNL A   1      39.821  30.331  31.357  1.00  0.00    -0.354 N 
ATOM     45  C   UNL A   1      42.986  28.686  33.782  1.00  0.00     0.074 A 
ATOM     46  C   UNL A   1      43.651  27.595  33.104  1.00  0.00     0.031 C 
ATOM     47  C   UNL A   1      38.472  30.479  29.578  1.00  0.00     0.029 A 
ATOM     48  C   UNL A   1      38.738  31.044  30.898  1.00  0.00     0.049 A 
ATOM     49  H   UNL A   1      40.230  30.484  32.239  1.00  0.00     0.167 HD
ATOM     50  C   UNL A   1      43.311  29.122  35.022  1.00  0.00     0.031 A 
ATOM     51  C   UNL A   1      38.039  32.043  31.471  1.00  0.00     0.031 A 
ATOM     52  C   UNL A   1      42.668  30.222  35.687  1.00  0.00     0.049 A 
ATOM     53  C   UNL A   1      38.444  32.535  32.832  1.00  0.00     0.074 A 
ATOM     54  C   UNL A   1      42.967  30.778  36.918  1.00  0.00     0.029 A 
ATOM     55  N   UNL A   1      41.601  30.941  35.171  1.00  0.00    -0.354 N 
ATOM     56  N   UNL A   1      39.406  32.102  33.611  1.00  0.00    -0.248 NA
ATOM     57  C   UNL A   1      37.677  33.660  33.384  1.00  0.00     0.031 C 
ATOM     58  C   UNL A   1      42.059  31.815  37.162  1.00  0.00     0.029 A 
ATOM     59  C   UNL A   1      41.223  31.930  36.063  1.00  0.00     0.049 A 
ATOM     60  H   UNL A   1      41.175  30.773  34.300  1.00  0.00     0.167 HD
ATOM     61  C   UNL A   1      39.375  32.918  34.736  1.00  0.00     0.074 A 
ATOM     62  C   UNL A   1      38.309  33.878  34.529  1.00  0.00     0.031 C 
ATOM     63  C   UNL A   1      40.158  32.876  35.841  1.00  0.00     0.031 A 
BRANCH  50  64
ATOM     64  C   UNL A   1      44.423  28.399  35.733  1.00  0.00    -0.014 A 
ATOM     65  C   UNL A   1      45.763  28.798  35.573  1.00  0.00     0.010 A 
ATOM     66  C   UNL A   1      44.128  27.317  36.582  1.00  0.00     0.010 A 
ATOM     67  C   UNL A   1      46.791  28.098  36.205  1.00  0.00     0.020 A 
ATOM     68  C   UNL A   1      45.153  26.628  37.238  1.00  0.00     0.020 A 
ATOM     69  C   UNL A   1      46.480  27.010  37.028  1.00  0.00     0.054 A 
BRANCH  69  70
ATOM     70  S   UNL A   1      47.834  26.117  37.840  1.00  0.00     0.124 S 
ATOM     71  O   UNL A   1      47.282  25.886  39.173  1.00  0.00    -0.237 OA
ATOM     72  O   UNL A   1      47.980  24.927  37.008  1.00  0.00    -0.237 OA
ATOM     73  O   UNL A   1      48.950  27.056  37.781  1.00  0.00    -0.744 OA
ENDBRANCH  69  70
ENDBRANCH  50  64
BRANCH  51  74
ATOM     74  C   UNL A   1      36.908  32.674  30.738  1.00  0.00    -0.014 A 
ATOM     75  C   UNL A   1      37.116  33.846  29.990  1.00  0.00     0.010 A 
ATOM     76  C   UNL A   1      35.624  32.101  30.774  1.00  0.00     0.010 A 
ATOM     77  C   UNL A   1      36.056  34.445  29.303  1.00  0.00     0.020 A 
ATOM     78  C   UNL A   1      34.567  32.685  30.070  1.00  0.00     0.020 A 
ATOM     79  C   UNL A   1      34.787  33.860  29.347  1.00  0.00     0.054 A 
BRANCH  79  80
ATOM     80  S   UNL A   1      33.438  34.621  28.403  1.00  0.00     0.124 S 
ATOM     81  O   UNL A   1      34.166  35.401  27.408  1.00  0.00    -0.237 OA
ATOM     82  O   UNL A   1      32.712  33.460  27.893  1.00  0.00    -0.237 OA
ATOM     83  O   UNL A   1      32.718  35.401  29.408  1.00  0.00    -0.744 OA
ENDBRANCH  79  80
ENDBRANCH  51  74
BRANCH  63  84
ATOM     84  C   UNL A   1      39.910  33.915  36.899  1.00  0.00    -0.014 A 
ATOM     85  C   UNL A   1      38.963  33.703  37.917  1.00  0.00     0.010 A 
ATOM     86  C   UNL A   1      40.659  35.105  36.893  1.00  0.00     0.010 A 
ATOM     87  C   UNL A   1      38.745  34.680  38.891  1.00  0.00     0.020 A 
ATOM     88  C   UNL A   1      40.460  36.074  37.878  1.00  0.00     0.020 A 
ATOM     89  C   UNL A   1      39.492  35.862  38.863  1.00  0.00     0.054 A 
BRANCH  89  90
ATOM     90  S   UNL A   1      39.216  37.106  40.155  1.00  0.00     0.124 S 
ATOM     91  O   UNL A   1      38.504  36.334  41.170  1.00  0.00    -0.237 OA
ATOM     92  O   UNL A   1      40.574  37.509  40.510  1.00  0.00    -0.237 OA
ATOM     93  O   UNL A   1      38.424  38.132  39.481  1.00  0.00    -0.744 OA
ENDBRANCH  89  90
ENDBRANCH  63  84
ENDBRANCH  37  38
ENDBRANCH  29  32
ENDBRANCH  27  28
ENDBRANCH  26  27
ENDBRANCH   1  26
TORSDOF 18
ENDMDL
