MODEL 1
REMARK VINA RESULT:     -10.2      0.000      0.000
REMARK SMILES O=C(CCC(=O)Nc1ccc(Br)c([N+](=O)[O-])c1)NCCCCNC(=O)c1ccc(-c2c3nc(c(-c4ccc(S(=O)(=O)[O-])cc4)c4ccc([nH]4)c(-c4ccc(S(=O)(=O)[O-])cc4)c4nc(c(-c5ccc(S(=O)(=O)[O-])cc5)c5ccc2[nH]5)C=C4)C=C3)cc1
REMARK SMILES IDX 20 1 19 2 18 3 1 4 2 5 3 7 4 8 5 9 6 10 7 11 8 13 9 14 17 15
REMARK SMILES IDX 10 16 13 17 11 18 12 19 14 20 15 21 16 22 21 23 22 24 23 25
REMARK SMILES IDX 24 26 25 28 26 29 27 30 85 31 28 32 84 33 29 34 30 35 31 36
REMARK SMILES IDX 78 37 32 38 83 39 77 40 79 41 33 42 82 43 76 44 75 45 34 47
REMARK SMILES IDX 64 48 45 49 63 50 46 51 49 52 62 53 80 54 47 55 48 56 61 58
REMARK SMILES IDX 81 59 50 60 35 61 36 62 44 63 37 64 43 65 38 66 39 67 40 68
REMARK SMILES IDX 41 69 42 70 65 71 66 72 74 73 67 74 73 75 68 76 69 77 70 78
REMARK SMILES IDX 71 79 72 80 51 81 52 82 60 83 53 84 59 85 54 86 55 87 56 88
REMARK SMILES IDX 57 89 58 90
REMARK H PARENT 18 6 7 12 23 27 79 46 49 57
REMARK Flexibility Score: inf
ROOT
ATOM      1  C   UNL A   1      36.632  20.756  25.371  1.00  0.00     0.023 C 
ENDROOT
BRANCH   1   2
ATOM      2  C   UNL A   1      36.371  22.255  25.439  1.00  0.00     0.116 C 
BRANCH   2   3
ATOM      3  N   UNL A   1      35.191  22.696  24.716  1.00  0.00    -0.356 N 
ATOM      4  O   UNL A   1      36.279  23.197  22.752  1.00  0.00    -0.275 OA
ATOM      5  C   UNL A   1      35.239  23.034  23.381  1.00  0.00     0.220 C 
ATOM      6  H   UNL A   1      34.332  22.754  25.194  1.00  0.00     0.163 HD
BRANCH   5   7
ATOM      7  C   UNL A   1      33.889  23.080  22.700  1.00  0.00     0.110 C 
BRANCH   7   8
ATOM      8  C   UNL A   1      33.039  24.267  23.149  1.00  0.00     0.110 C 
BRANCH   8   9
ATOM      9  C   UNL A   1      31.672  23.860  23.641  1.00  0.00     0.224 C 
ATOM     10  O   UNL A   1      31.156  22.832  23.187  1.00  0.00    -0.275 OA
ATOM     11  N   UNL A   1      30.928  24.568  24.534  1.00  0.00    -0.326 N 
ATOM     12  H   UNL A   1      30.200  24.030  24.924  1.00  0.00     0.169 HD
BRANCH  11  13
ATOM     13  C   UNL A   1      30.948  25.883  25.034  1.00  0.00     0.048 A 
ATOM     14  C   UNL A   1      31.381  26.268  26.298  1.00  0.00     0.028 A 
ATOM     15  C   UNL A   1      30.635  26.898  24.117  1.00  0.00     0.113 A 
ATOM     16  C   UNL A   1      31.638  27.614  26.598  1.00  0.00     0.025 A 
ATOM     17  C   UNL A   1      30.864  28.258  24.425  1.00  0.00     0.285 A 
ATOM     18  C   UNL A   1      31.415  28.618  25.656  1.00  0.00     0.095 A 
ATOM     19  Br  UNL A   1      32.005  30.355  26.144  1.00  0.00    -0.043 Br
BRANCH  17  20
ATOM     20  N   UNL A   1      30.534  29.241  23.395  1.00  0.00     0.064 N 
ATOM     21  O   UNL A   1      31.407  29.485  22.551  1.00  0.00    -0.258 OA
ATOM     22  O   UNL A   1      29.398  29.729  23.388  1.00  0.00    -0.258 OA
ENDBRANCH  17  20
ENDBRANCH  11  13
ENDBRANCH   8   9
ENDBRANCH   7   8
ENDBRANCH   5   7
ENDBRANCH   2   3
ENDBRANCH   1   2
BRANCH   1  23
ATOM     23  C   UNL A   1      38.038  20.351  24.923  1.00  0.00     0.023 C 
BRANCH  23  24
ATOM     24  C   UNL A   1      39.158  20.641  25.920  1.00  0.00     0.116 C 
BRANCH  24  25
ATOM     25  N   UNL A   1      40.115  19.551  26.033  1.00  0.00    -0.352 N 
ATOM     26  C   UNL A   1      41.483  19.588  26.180  1.00  0.00     0.251 C 
ATOM     27  H   UNL A   1      39.723  18.648  26.001  1.00  0.00     0.163 HD
ATOM     28  O   UNL A   1      42.131  18.547  26.078  1.00  0.00    -0.269 OA
BRANCH  26  29
ATOM     29  C   UNL A   1      42.184  20.870  26.419  1.00  0.00     0.039 A 
ATOM     30  C   UNL A   1      42.543  21.660  25.324  1.00  0.00     0.014 A 
ATOM     31  C   UNL A   1      42.491  21.299  27.712  1.00  0.00     0.014 A 
ATOM     32  C   UNL A   1      43.121  22.918  25.530  1.00  0.00     0.010 A 
ATOM     33  C   UNL A   1      42.990  22.585  27.920  1.00  0.00     0.010 A 
ATOM     34  C   UNL A   1      43.304  23.414  26.832  1.00  0.00    -0.014 A 
BRANCH  34  35
ATOM     35  C   UNL A   1      43.796  24.799  27.072  1.00  0.00     0.031 A 
ATOM     36  C   UNL A   1      45.254  25.134  26.900  1.00  0.00     0.074 A 
ATOM     37  C   UNL A   1      42.941  25.746  27.510  1.00  0.00     0.049 A 
ATOM     38  N   UNL A   1      45.872  26.267  27.123  1.00  0.00    -0.248 NA
ATOM     39  C   UNL A   1      46.138  24.051  26.440  1.00  0.00     0.031 C 
ATOM     40  C   UNL A   1      41.510  25.546  27.759  1.00  0.00     0.029 A 
ATOM     41  N   UNL A   1      43.149  27.065  27.834  1.00  0.00    -0.354 N 
ATOM     42  C   UNL A   1      47.213  26.030  26.843  1.00  0.00     0.074 A 
ATOM     43  C   UNL A   1      47.327  24.632  26.488  1.00  0.00     0.031 C 
ATOM     44  C   UNL A   1      40.968  26.703  28.169  1.00  0.00     0.029 A 
ATOM     45  C   UNL A   1      42.014  27.717  28.260  1.00  0.00     0.049 A 
ATOM     46  H   UNL A   1      44.028  27.502  27.766  1.00  0.00     0.167 HD
ATOM     47  C   UNL A   1      48.253  26.899  26.859  1.00  0.00     0.031 A 
ATOM     48  C   UNL A   1      41.833  28.981  28.688  1.00  0.00     0.031 A 
ATOM     49  C   UNL A   1      48.139  28.291  27.212  1.00  0.00     0.049 A 
ATOM     50  C   UNL A   1      43.007  29.923  28.722  1.00  0.00     0.074 A 
ATOM     51  C   UNL A   1      49.127  29.261  27.212  1.00  0.00     0.029 A 
ATOM     52  N   UNL A   1      46.973  28.911  27.632  1.00  0.00    -0.354 N 
ATOM     53  N   UNL A   1      44.255  29.694  28.390  1.00  0.00    -0.248 NA
ATOM     54  C   UNL A   1      42.745  31.296  29.174  1.00  0.00     0.031 C 
ATOM     55  C   UNL A   1      48.572  30.451  27.691  1.00  0.00     0.029 A 
ATOM     56  C   UNL A   1      47.221  30.242  27.920  1.00  0.00     0.049 A 
ATOM     57  H   UNL A   1      46.096  28.469  27.713  1.00  0.00     0.167 HD
ATOM     58  C   UNL A   1      44.921  30.903  28.567  1.00  0.00     0.074 A 
ATOM     59  C   UNL A   1      43.934  31.862  29.018  1.00  0.00     0.031 C 
ATOM     60  C   UNL A   1      46.231  31.190  28.372  1.00  0.00     0.031 A 
BRANCH  47  61
ATOM     61  C   UNL A   1      49.614  26.365  26.487  1.00  0.00    -0.014 A 
ATOM     62  C   UNL A   1      50.117  26.503  25.179  1.00  0.00     0.010 A 
ATOM     63  C   UNL A   1      50.418  25.752  27.464  1.00  0.00     0.010 A 
ATOM     64  C   UNL A   1      51.376  25.997  24.847  1.00  0.00     0.020 A 
ATOM     65  C   UNL A   1      51.693  25.274  27.144  1.00  0.00     0.020 A 
ATOM     66  C   UNL A   1      52.156  25.384  25.831  1.00  0.00     0.054 A 
BRANCH  66  67
ATOM     67  S   UNL A   1      53.794  24.753  25.374  1.00  0.00     0.124 S 
ATOM     68  O   UNL A   1      54.108  25.560  24.197  1.00  0.00    -0.237 OA
ATOM     69  O   UNL A   1      54.591  25.039  26.563  1.00  0.00    -0.237 OA
ATOM     70  O   UNL A   1      53.559  23.335  25.110  1.00  0.00    -0.744 OA
ENDBRANCH  66  67
ENDBRANCH  47  61
BRANCH  48  71
ATOM     71  C   UNL A   1      40.479  29.434  29.118  1.00  0.00    -0.014 A 
ATOM     72  C   UNL A   1      40.180  29.612  30.480  1.00  0.00     0.010 A 
ATOM     73  C   UNL A   1      39.483  29.699  28.161  1.00  0.00     0.010 A 
ATOM     74  C   UNL A   1      38.907  30.032  30.878  1.00  0.00     0.020 A 
ATOM     75  C   UNL A   1      38.219  30.150  28.551  1.00  0.00     0.020 A 
ATOM     76  C   UNL A   1      37.936  30.302  29.909  1.00  0.00     0.054 A 
BRANCH  76  77
ATOM     77  S   UNL A   1      36.308  30.900  30.446  1.00  0.00     0.124 S 
ATOM     78  O   UNL A   1      35.995  29.987  31.541  1.00  0.00    -0.237 OA
ATOM     79  O   UNL A   1      36.590  32.279  30.831  1.00  0.00    -0.237 OA
ATOM     80  O   UNL A   1      35.478  30.750  29.251  1.00  0.00    -0.744 OA
ENDBRANCH  76  77
ENDBRANCH  48  71
BRANCH  60  81
ATOM     81  C   UNL A   1      46.677  32.611  28.607  1.00  0.00    -0.014 A 
ATOM     82  C   UNL A   1      46.623  33.576  27.586  1.00  0.00     0.010 A 
ATOM     83  C   UNL A   1      47.104  32.998  29.891  1.00  0.00     0.010 A 
ATOM     84  C   UNL A   1      47.019  34.894  27.835  1.00  0.00     0.020 A 
ATOM     85  C   UNL A   1      47.471  34.322  30.153  1.00  0.00     0.020 A 
ATOM     86  C   UNL A   1      47.439  35.258  29.119  1.00  0.00     0.054 A 
BRANCH  86  87
ATOM     87  S   UNL A   1      47.903  36.983  29.427  1.00  0.00     0.124 S 
ATOM     88  O   UNL A   1      49.137  37.109  28.656  1.00  0.00    -0.237 OA
ATOM     89  O   UNL A   1      46.757  37.722  28.903  1.00  0.00    -0.237 OA
ATOM     90  O   UNL A   1      48.067  37.046  30.878  1.00  0.00    -0.744 OA
ENDBRANCH  86  87
ENDBRANCH  60  81
ENDBRANCH  34  35
ENDBRANCH  26  29
ENDBRANCH  24  25
ENDBRANCH  23  24
ENDBRANCH   1  23
TORSDOF 18
ENDMDL
MODEL 2
REMARK VINA RESULT:     -10.2      2.841      8.931
REMARK SMILES O=C(CCC(=O)Nc1ccc(Br)c([N+](=O)[O-])c1)NCCCCNC(=O)c1ccc(-c2c3nc(c(-c4ccc(S(=O)(=O)[O-])cc4)c4ccc([nH]4)c(-c4ccc(S(=O)(=O)[O-])cc4)c4nc(c(-c5ccc(S(=O)(=O)[O-])cc5)c5ccc2[nH]5)C=C4)C=C3)cc1
REMARK SMILES IDX 20 1 19 2 18 3 1 4 2 5 3 7 4 8 5 9 6 10 7 11 8 13 9 14 17 15
REMARK SMILES IDX 10 16 13 17 11 18 12 19 14 20 15 21 16 22 21 23 22 24 23 25
REMARK SMILES IDX 24 26 25 28 26 29 27 30 85 31 28 32 84 33 29 34 30 35 31 36
REMARK SMILES IDX 78 37 32 38 83 39 77 40 79 41 33 42 82 43 76 44 75 45 34 47
REMARK SMILES IDX 64 48 45 49 63 50 46 51 49 52 62 53 80 54 47 55 48 56 61 58
REMARK SMILES IDX 81 59 50 60 35 61 36 62 44 63 37 64 43 65 38 66 39 67 40 68
REMARK SMILES IDX 41 69 42 70 65 71 66 72 74 73 67 74 73 75 68 76 69 77 70 78
REMARK SMILES IDX 71 79 72 80 51 81 52 82 60 83 53 84 59 85 54 86 55 87 56 88
REMARK SMILES IDX 57 89 58 90
REMARK H PARENT 18 6 7 12 23 27 79 46 49 57
REMARK Flexibility Score: inf
ROOT
ATOM      1  C   UNL A   1      33.793  28.929  27.140  1.00  0.00     0.023 C 
ENDROOT
BRANCH   1   2
ATOM      2  C   UNL A   1      32.929  29.750  26.189  1.00  0.00     0.116 C 
BRANCH   2   3
ATOM      3  N   UNL A   1      32.178  28.965  25.227  1.00  0.00    -0.356 N 
ATOM      4  O   UNL A   1      33.591  29.337  23.449  1.00  0.00    -0.275 OA
ATOM      5  C   UNL A   1      32.641  28.742  23.948  1.00  0.00     0.220 C 
ATOM      6  H   UNL A   1      31.312  28.581  25.496  1.00  0.00     0.163 HD
BRANCH   5   7
ATOM      7  C   UNL A   1      31.955  27.603  23.225  1.00  0.00     0.110 C 
BRANCH   7   8
ATOM      8  C   UNL A   1      32.915  26.789  22.359  1.00  0.00     0.110 C 
BRANCH   8   9
ATOM      9  C   UNL A   1      32.224  25.695  21.584  1.00  0.00     0.224 C 
ATOM     10  O   UNL A   1      31.602  25.992  20.557  1.00  0.00    -0.275 OA
ATOM     11  N   UNL A   1      32.195  24.385  21.952  1.00  0.00    -0.326 N 
ATOM     12  H   UNL A   1      31.931  23.794  21.209  1.00  0.00     0.169 HD
BRANCH  11  13
ATOM     13  C   UNL A   1      32.454  23.672  23.137  1.00  0.00     0.048 A 
ATOM     14  C   UNL A   1      33.441  22.709  23.311  1.00  0.00     0.028 A 
ATOM     15  C   UNL A   1      31.736  24.081  24.272  1.00  0.00     0.113 A 
ATOM     16  C   UNL A   1      33.809  22.271  24.591  1.00  0.00     0.025 A 
ATOM     17  C   UNL A   1      32.085  23.619  25.561  1.00  0.00     0.285 A 
ATOM     18  C   UNL A   1      33.160  22.746  25.731  1.00  0.00     0.095 A 
ATOM     19  Br  UNL A   1      33.911  22.216  27.392  1.00  0.00    -0.043 Br
BRANCH  17  20
ATOM     20  N   UNL A   1      31.298  24.124  26.686  1.00  0.00     0.064 N 
ATOM     21  O   UNL A   1      30.660  23.291  27.343  1.00  0.00    -0.258 OA
ATOM     22  O   UNL A   1      31.356  25.330  26.950  1.00  0.00    -0.258 OA
ENDBRANCH  17  20
ENDBRANCH  11  13
ENDBRANCH   8   9
ENDBRANCH   7   8
ENDBRANCH   5   7
ENDBRANCH   2   3
ENDBRANCH   1   2
BRANCH   1  23
ATOM     23  C   UNL A   1      35.295  28.952  26.851  1.00  0.00     0.023 C 
BRANCH  23  24
ATOM     24  C   UNL A   1      36.103  29.984  27.637  1.00  0.00     0.116 C 
BRANCH  24  25
ATOM     25  N   UNL A   1      36.028  29.788  29.077  1.00  0.00    -0.352 N 
ATOM     26  C   UNL A   1      36.957  29.262  29.946  1.00  0.00     0.251 C 
ATOM     27  H   UNL A   1      35.183  30.076  29.493  1.00  0.00     0.163 HD
ATOM     28  O   UNL A   1      36.630  29.018  31.107  1.00  0.00    -0.269 OA
BRANCH  26  29
ATOM     29  C   UNL A   1      38.331  28.952  29.489  1.00  0.00     0.039 A 
ATOM     30  C   UNL A   1      38.725  29.350  28.209  1.00  0.00     0.014 A 
ATOM     31  C   UNL A   1      39.233  28.274  30.312  1.00  0.00     0.014 A 
ATOM     32  C   UNL A   1      40.046  29.152  27.793  1.00  0.00     0.010 A 
ATOM     33  C   UNL A   1      40.569  28.152  29.929  1.00  0.00     0.010 A 
ATOM     34  C   UNL A   1      40.994  28.596  28.669  1.00  0.00    -0.014 A 
BRANCH  34  35
ATOM     35  C   UNL A   1      42.432  28.496  28.292  1.00  0.00     0.031 A 
ATOM     36  C   UNL A   1      43.352  29.677  28.458  1.00  0.00     0.074 A 
ATOM     37  C   UNL A   1      42.899  27.360  27.735  1.00  0.00     0.049 A 
ATOM     38  N   UNL A   1      44.613  29.793  28.129  1.00  0.00    -0.248 NA
ATOM     39  C   UNL A   1      42.774  30.893  29.052  1.00  0.00     0.031 C 
ATOM     40  C   UNL A   1      42.107  26.154  27.478  1.00  0.00     0.029 A 
ATOM     41  N   UNL A   1      44.153  27.033  27.275  1.00  0.00    -0.354 N 
ATOM     42  C   UNL A   1      44.976  31.093  28.462  1.00  0.00     0.074 A 
ATOM     43  C   UNL A   1      43.786  31.744  28.968  1.00  0.00     0.031 C 
ATOM     44  C   UNL A   1      42.897  25.215  26.933  1.00  0.00     0.029 A 
ATOM     45  C   UNL A   1      44.239  25.761  26.756  1.00  0.00     0.049 A 
ATOM     46  H   UNL A   1      44.917  27.651  27.315  1.00  0.00     0.167 HD
ATOM     47  C   UNL A   1      46.190  31.688  28.375  1.00  0.00     0.031 A 
ATOM     48  C   UNL A   1      45.272  25.109  26.190  1.00  0.00     0.031 A 
ATOM     49  C   UNL A   1      47.374  31.040  27.871  1.00  0.00     0.049 A 
ATOM     50  C   UNL A   1      46.607  25.797  26.081  1.00  0.00     0.074 A 
ATOM     51  C   UNL A   1      48.661  31.545  27.788  1.00  0.00     0.029 A 
ATOM     52  N   UNL A   1      47.419  29.752  27.361  1.00  0.00    -0.354 N 
ATOM     53  N   UNL A   1      46.942  27.006  26.463  1.00  0.00    -0.248 NA
ATOM     54  C   UNL A   1      47.704  25.029  25.478  1.00  0.00     0.031 C 
ATOM     55  C   UNL A   1      49.469  30.585  27.172  1.00  0.00     0.029 A 
ATOM     56  C   UNL A   1      48.703  29.454  26.936  1.00  0.00     0.049 A 
ATOM     57  H   UNL A   1      46.650  29.138  27.309  1.00  0.00     0.167 HD
ATOM     58  C   UNL A   1      48.297  27.132  26.171  1.00  0.00     0.074 A 
ATOM     59  C   UNL A   1      48.720  25.871  25.597  1.00  0.00     0.031 C 
ATOM     60  C   UNL A   1      49.115  28.196  26.363  1.00  0.00     0.031 A 
BRANCH  47  61
ATOM     61  C   UNL A   1      46.300  33.121  28.833  1.00  0.00    -0.014 A 
ATOM     62  C   UNL A   1      46.067  34.188  27.945  1.00  0.00     0.010 A 
ATOM     63  C   UNL A   1      46.601  33.407  30.177  1.00  0.00     0.010 A 
ATOM     64  C   UNL A   1      46.179  35.511  28.380  1.00  0.00     0.020 A 
ATOM     65  C   UNL A   1      46.682  34.729  30.625  1.00  0.00     0.020 A 
ATOM     66  C   UNL A   1      46.488  35.773  29.718  1.00  0.00     0.054 A 
BRANCH  66  67
ATOM     67  S   UNL A   1      46.610  37.501  30.258  1.00  0.00     0.124 S 
ATOM     68  O   UNL A   1      46.913  37.350  31.680  1.00  0.00    -0.237 OA
ATOM     69  O   UNL A   1      47.700  38.017  29.435  1.00  0.00    -0.237 OA
ATOM     70  O   UNL A   1      45.291  38.052  29.959  1.00  0.00    -0.744 OA
ENDBRANCH  66  67
ENDBRANCH  47  61
BRANCH  48  71
ATOM     71  C   UNL A   1      45.087  23.719  25.684  1.00  0.00    -0.014 A 
ATOM     72  C   UNL A   1      44.674  23.485  24.361  1.00  0.00     0.010 A 
ATOM     73  C   UNL A   1      45.334  22.619  26.526  1.00  0.00     0.010 A 
ATOM     74  C   UNL A   1      44.497  22.179  23.893  1.00  0.00     0.020 A 
ATOM     75  C   UNL A   1      45.190  21.311  26.053  1.00  0.00     0.020 A 
ATOM     76  C   UNL A   1      44.760  21.100  24.742  1.00  0.00     0.054 A 
BRANCH  76  77
ATOM     77  S   UNL A   1      44.577  19.414  24.096  1.00  0.00     0.124 S 
ATOM     78  O   UNL A   1      45.786  18.765  24.593  1.00  0.00    -0.237 OA
ATOM     79  O   UNL A   1      43.325  18.977  24.708  1.00  0.00    -0.237 OA
ATOM     80  O   UNL A   1      44.521  19.607  22.648  1.00  0.00    -0.744 OA
ENDBRANCH  76  77
ENDBRANCH  48  71
BRANCH  60  81
ATOM     81  C   UNL A   1      50.566  28.038  25.986  1.00  0.00    -0.014 A 
ATOM     82  C   UNL A   1      51.520  27.585  26.913  1.00  0.00     0.010 A 
ATOM     83  C   UNL A   1      50.968  28.296  24.662  1.00  0.00     0.010 A 
ATOM     84  C   UNL A   1      52.856  27.423  26.532  1.00  0.00     0.020 A 
ATOM     85  C   UNL A   1      52.296  28.106  24.268  1.00  0.00     0.020 A 
ATOM     86  C   UNL A   1      53.234  27.684  25.211  1.00  0.00     0.054 A 
BRANCH  86  87
ATOM     87  S   UNL A   1      54.964  27.423  24.732  1.00  0.00     0.124 S 
ATOM     88  O   UNL A   1      55.563  26.973  25.985  1.00  0.00    -0.237 OA
ATOM     89  O   UNL A   1      54.857  26.409  23.686  1.00  0.00    -0.237 OA
ATOM     90  O   UNL A   1      55.400  28.740  24.272  1.00  0.00    -0.744 OA
ENDBRANCH  86  87
ENDBRANCH  60  81
ENDBRANCH  34  35
ENDBRANCH  26  29
ENDBRANCH  24  25
ENDBRANCH  23  24
ENDBRANCH   1  23
TORSDOF 18
ENDMDL
MODEL 3
REMARK VINA RESULT:     -10.1      6.036     10.823
REMARK SMILES O=C(CCC(=O)Nc1ccc(Br)c([N+](=O)[O-])c1)NCCCCNC(=O)c1ccc(-c2c3nc(c(-c4ccc(S(=O)(=O)[O-])cc4)c4ccc([nH]4)c(-c4ccc(S(=O)(=O)[O-])cc4)c4nc(c(-c5ccc(S(=O)(=O)[O-])cc5)c5ccc2[nH]5)C=C4)C=C3)cc1
REMARK SMILES IDX 20 1 19 2 18 3 1 4 2 5 3 7 4 8 5 9 6 10 7 11 8 13 9 14 17 15
REMARK SMILES IDX 10 16 13 17 11 18 12 19 14 20 15 21 16 22 21 23 22 24 23 25
REMARK SMILES IDX 24 26 25 28 26 29 27 30 85 31 28 32 84 33 29 34 30 35 31 36
REMARK SMILES IDX 78 37 32 38 83 39 77 40 79 41 33 42 82 43 76 44 75 45 34 47
REMARK SMILES IDX 64 48 45 49 63 50 46 51 49 52 62 53 80 54 47 55 48 56 61 58
REMARK SMILES IDX 81 59 50 60 35 61 36 62 44 63 37 64 43 65 38 66 39 67 40 68
REMARK SMILES IDX 41 69 42 70 65 71 66 72 74 73 67 74 73 75 68 76 69 77 70 78
REMARK SMILES IDX 71 79 72 80 51 81 52 82 60 83 53 84 59 85 54 86 55 87 56 88
REMARK SMILES IDX 57 89 58 90
REMARK H PARENT 18 6 7 12 23 27 79 46 49 57
REMARK Flexibility Score: inf
ROOT
ATOM      1  C   UNL A   1      41.394  21.739  26.154  1.00  0.00     0.023 C 
ENDROOT
BRANCH   1   2
ATOM      2  C   UNL A   1      39.922  21.675  26.541  1.00  0.00     0.116 C 
BRANCH   2   3
ATOM      3  N   UNL A   1      39.049  22.505  25.731  1.00  0.00    -0.356 N 
ATOM      4  O   UNL A   1      37.648  20.807  25.060  1.00  0.00    -0.275 OA
ATOM      5  C   UNL A   1      37.911  22.003  25.137  1.00  0.00     0.220 C 
ATOM      6  H   UNL A   1      39.277  23.454  25.601  1.00  0.00     0.163 HD
BRANCH   5   7
ATOM      7  C   UNL A   1      36.928  23.058  24.679  1.00  0.00     0.110 C 
BRANCH   7   8
ATOM      8  C   UNL A   1      36.348  23.869  25.838  1.00  0.00     0.110 C 
BRANCH   8   9
ATOM      9  C   UNL A   1      34.977  23.399  26.256  1.00  0.00     0.224 C 
ATOM     10  O   UNL A   1      34.852  22.261  26.723  1.00  0.00    -0.275 OA
ATOM     11  N   UNL A   1      33.834  24.127  26.122  1.00  0.00    -0.326 N 
ATOM     12  H   UNL A   1      33.100  23.774  26.675  1.00  0.00     0.169 HD
BRANCH  11  13
ATOM     13  C   UNL A   1      33.452  25.263  25.384  1.00  0.00     0.048 A 
ATOM     14  C   UNL A   1      33.004  25.268  24.069  1.00  0.00     0.028 A 
ATOM     15  C   UNL A   1      33.389  26.470  26.097  1.00  0.00     0.113 A 
ATOM     16  C   UNL A   1      32.375  26.395  23.521  1.00  0.00     0.025 A 
ATOM     17  C   UNL A   1      32.783  27.618  25.538  1.00  0.00     0.285 A 
ATOM     18  C   UNL A   1      32.228  27.569  24.259  1.00  0.00     0.095 A 
ATOM     19  Br  UNL A   1      31.176  28.928  23.451  1.00  0.00    -0.043 Br
BRANCH  17  20
ATOM     20  N   UNL A   1      32.739  28.821  26.369  1.00  0.00     0.064 N 
ATOM     21  O   UNL A   1      33.698  29.600  26.279  1.00  0.00    -0.258 OA
ATOM     22  O   UNL A   1      31.737  29.020  27.064  1.00  0.00    -0.258 OA
ENDBRANCH  17  20
ENDBRANCH  11  13
ENDBRANCH   8   9
ENDBRANCH   7   8
ENDBRANCH   5   7
ENDBRANCH   2   3
ENDBRANCH   1   2
BRANCH   1  23
ATOM     23  C   UNL A   1      42.339  22.257  27.241  1.00  0.00     0.023 C 
BRANCH  23  24
ATOM     24  C   UNL A   1      43.182  23.472  26.859  1.00  0.00     0.116 C 
BRANCH  24  25
ATOM     25  N   UNL A   1      42.558  24.298  25.836  1.00  0.00    -0.352 N 
ATOM     26  C   UNL A   1      41.843  25.468  25.962  1.00  0.00     0.251 C 
ATOM     27  H   UNL A   1      42.664  23.970  24.914  1.00  0.00     0.163 HD
ATOM     28  O   UNL A   1      41.244  25.918  24.985  1.00  0.00    -0.269 OA
BRANCH  26  29
ATOM     29  C   UNL A   1      41.754  26.166  27.264  1.00  0.00     0.039 A 
ATOM     30  C   UNL A   1      42.659  27.193  27.545  1.00  0.00     0.014 A 
ATOM     31  C   UNL A   1      40.787  25.818  28.210  1.00  0.00     0.014 A 
ATOM     32  C   UNL A   1      42.535  27.929  28.728  1.00  0.00     0.010 A 
ATOM     33  C   UNL A   1      40.612  26.604  29.349  1.00  0.00     0.010 A 
ATOM     34  C   UNL A   1      41.478  27.674  29.618  1.00  0.00    -0.014 A 
BRANCH  34  35
ATOM     35  C   UNL A   1      41.251  28.529  30.817  1.00  0.00     0.031 A 
ATOM     36  C   UNL A   1      40.160  29.567  30.823  1.00  0.00     0.074 A 
ATOM     37  C   UNL A   1      42.073  28.419  31.881  1.00  0.00     0.049 A 
ATOM     38  N   UNL A   1      39.857  30.440  31.749  1.00  0.00    -0.248 NA
ATOM     39  C   UNL A   1      39.313  29.651  29.622  1.00  0.00     0.031 C 
ATOM     40  C   UNL A   1      43.196  27.484  31.992  1.00  0.00     0.029 A 
ATOM     41  N   UNL A   1      42.098  29.104  33.073  1.00  0.00    -0.354 N 
ATOM     42  C   UNL A   1      38.797  31.182  31.241  1.00  0.00     0.074 A 
ATOM     43  C   UNL A   1      38.546  30.693  29.903  1.00  0.00     0.031 C 
ATOM     44  C   UNL A   1      43.780  27.636  33.191  1.00  0.00     0.029 A 
ATOM     45  C   UNL A   1      43.109  28.709  33.918  1.00  0.00     0.049 A 
ATOM     46  H   UNL A   1      41.451  29.810  33.299  1.00  0.00     0.167 HD
ATOM     47  C   UNL A   1      38.082  32.166  31.839  1.00  0.00     0.031 A 
ATOM     48  C   UNL A   1      43.468  29.163  35.135  1.00  0.00     0.031 A 
ATOM     49  C   UNL A   1      38.332  32.653  33.171  1.00  0.00     0.049 A 
ATOM     50  C   UNL A   1      42.676  30.274  35.769  1.00  0.00     0.074 A 
ATOM     51  C   UNL A   1      37.631  33.615  33.880  1.00  0.00     0.029 A 
ATOM     52  N   UNL A   1      39.361  32.223  33.994  1.00  0.00    -0.354 N 
ATOM     53  N   UNL A   1      41.635  30.918  35.296  1.00  0.00    -0.248 NA
ATOM     54  C   UNL A   1      43.098  30.711  37.107  1.00  0.00     0.031 C 
ATOM     55  C   UNL A   1      38.274  33.809  35.106  1.00  0.00     0.029 A 
ATOM     56  C   UNL A   1      39.333  32.918  35.192  1.00  0.00     0.049 A 
ATOM     57  H   UNL A   1      40.017  31.526  33.761  1.00  0.00     0.167 HD
ATOM     58  C   UNL A   1      41.261  31.816  36.291  1.00  0.00     0.074 A 
ATOM     59  C   UNL A   1      42.177  31.620  37.396  1.00  0.00     0.031 C 
ATOM     60  C   UNL A   1      40.250  32.718  36.287  1.00  0.00     0.031 A 
BRANCH  47  61
ATOM     61  C   UNL A   1      36.958  32.790  31.049  1.00  0.00    -0.014 A 
ATOM     62  C   UNL A   1      37.218  33.703  30.010  1.00  0.00     0.010 A 
ATOM     63  C   UNL A   1      35.626  32.431  31.321  1.00  0.00     0.010 A 
ATOM     64  C   UNL A   1      36.168  34.279  29.292  1.00  0.00     0.020 A 
ATOM     65  C   UNL A   1      34.573  32.980  30.583  1.00  0.00     0.020 A 
ATOM     66  C   UNL A   1      34.850  33.915  29.585  1.00  0.00     0.054 A 
BRANCH  66  67
ATOM     67  S   UNL A   1      33.508  34.666  28.623  1.00  0.00     0.124 S 
ATOM     68  O   UNL A   1      32.510  34.932  29.658  1.00  0.00    -0.237 OA
ATOM     69  O   UNL A   1      34.147  35.848  28.050  1.00  0.00    -0.237 OA
ATOM     70  O   UNL A   1      33.145  33.628  27.662  1.00  0.00    -0.744 OA
ENDBRANCH  66  67
ENDBRANCH  47  61
BRANCH  48  71
ATOM     71  C   UNL A   1      44.637  28.560  35.837  1.00  0.00    -0.014 A 
ATOM     72  C   UNL A   1      44.470  27.455  36.691  1.00  0.00     0.010 A 
ATOM     73  C   UNL A   1      45.928  29.085  35.646  1.00  0.00     0.010 A 
ATOM     74  C   UNL A   1      45.569  26.897  37.351  1.00  0.00     0.020 A 
ATOM     75  C   UNL A   1      47.034  28.510  36.278  1.00  0.00     0.020 A 
ATOM     76  C   UNL A   1      46.845  27.426  37.136  1.00  0.00     0.054 A 
BRANCH  76  77
ATOM     77  S   UNL A   1      48.263  26.650  37.961  1.00  0.00     0.124 S 
ATOM     78  O   UNL A   1      48.489  25.471  37.131  1.00  0.00    -0.237 OA
ATOM     79  O   UNL A   1      49.285  27.690  37.876  1.00  0.00    -0.237 OA
ATOM     80  O   UNL A   1      47.769  26.380  39.310  1.00  0.00    -0.744 OA
ENDBRANCH  76  77
ENDBRANCH  48  71
BRANCH  60  81
ATOM     81  C   UNL A   1      40.049  33.545  37.531  1.00  0.00    -0.014 A 
ATOM     82  C   UNL A   1      40.745  34.749  37.734  1.00  0.00     0.010 A 
ATOM     83  C   UNL A   1      39.102  33.134  38.489  1.00  0.00     0.010 A 
ATOM     84  C   UNL A   1      40.523  35.510  38.885  1.00  0.00     0.020 A 
ATOM     85  C   UNL A   1      38.854  33.908  39.626  1.00  0.00     0.020 A 
ATOM     86  C   UNL A   1      39.577  35.085  39.823  1.00  0.00     0.054 A 
BRANCH  86  87
ATOM     87  S   UNL A   1      39.276  36.114  41.286  1.00  0.00     0.124 S 
ATOM     88  O   UNL A   1      40.335  35.676  42.190  1.00  0.00    -0.237 OA
ATOM     89  O   UNL A   1      39.419  37.469  40.758  1.00  0.00    -0.237 OA
ATOM     90  O   UNL A   1      37.920  35.750  41.693  1.00  0.00    -0.744 OA
ENDBRANCH  86  87
ENDBRANCH  60  81
ENDBRANCH  34  35
ENDBRANCH  26  29
ENDBRANCH  24  25
ENDBRANCH  23  24
ENDBRANCH   1  23
TORSDOF 18
ENDMDL
