MODEL 1
REMARK VINA RESULT:     -12.7      0.000      0.000
REMARK SMILES NS(=O)(=O)c1ccc(-n2nc(C(=O)NCCCCNC(=O)c3ccc(-c4c5nc(c(-c6ccc(S(=O)(=O)[O-])cc6)c6ccc([nH]6)c(-c6ccc(S(=O)(=O)[O-])cc6)c6nc(c(-c7ccc(S(=O)(=O)[O-])cc7)c7ccc4[nH]7)C=C6)C=C5)cc3)cc2-c2cc3ccccc3s2)cc1
REMARK SMILES IDX 16 1 15 2 14 3 12 4 13 5 11 7 9 8 10 9 83 10 82 11 8 12 5 13
REMARK SMILES IDX 6 14 94 15 7 16 93 17 2 18 3 19 4 20 1 21 84 24 85 25 92 26
REMARK SMILES IDX 86 27 91 28 87 29 90 30 88 31 89 32 17 33 18 34 19 35 20 36
REMARK SMILES IDX 21 38 22 39 23 40 81 41 24 42 80 43 25 44 26 45 27 46 74 47
REMARK SMILES IDX 28 48 79 49 73 50 75 51 29 52 78 53 72 54 71 55 30 57 60 58
REMARK SMILES IDX 41 59 59 60 42 61 45 62 58 63 76 64 43 65 44 66 57 68 77 69
REMARK SMILES IDX 46 70 31 71 32 72 40 73 33 74 39 75 34 76 35 77 36 78 37 79
REMARK SMILES IDX 38 80 61 81 62 82 70 83 63 84 69 85 64 86 65 87 66 88 67 89
REMARK SMILES IDX 68 90 47 91 48 92 56 93 49 94 55 95 50 96 51 97 52 98 53 99
REMARK SMILES IDX 54 100
REMARK H PARENT 14 6 1 22 1 23 19 37 75 56 45 67
REMARK Flexibility Score: inf
ROOT
ATOM      1  C   UNL A   1      39.623  19.759  25.726  1.00  0.00     0.023 C 
ENDROOT
BRANCH   1   2
ATOM      2  C   UNL A   1      38.415  20.642  25.379  1.00  0.00     0.116 C 
BRANCH   2   3
ATOM      3  N   UNL A   1      38.632  22.038  25.736  1.00  0.00    -0.351 N 
ATOM      4  C   UNL A   1      37.813  23.156  25.707  1.00  0.00     0.271 C 
ATOM      5  O   UNL A   1      38.289  24.193  26.171  1.00  0.00    -0.267 OA
ATOM      6  H   UNL A   1      39.542  22.224  26.061  1.00  0.00     0.163 HD
BRANCH   4   7
ATOM      7  C   UNL A   1      36.428  23.081  25.196  1.00  0.00     0.151 A 
ATOM      8  N   UNL A   1      34.421  23.773  24.811  1.00  0.00    -0.231 N 
ATOM      9  N   UNL A   1      35.724  24.176  24.846  1.00  0.00    -0.162 NA
ATOM     10  C   UNL A   1      34.325  22.421  25.063  1.00  0.00     0.085 A 
ATOM     11  C   UNL A   1      35.625  21.950  24.987  1.00  0.00     0.066 A 
BRANCH   8  12
ATOM     12  C   UNL A   1      33.412  24.683  24.405  1.00  0.00     0.065 A 
ATOM     13  C   UNL A   1      31.465  26.570  23.744  1.00  0.00     0.082 A 
ATOM     14  C   UNL A   1      32.287  26.040  22.744  1.00  0.00     0.024 A 
ATOM     15  C   UNL A   1      31.597  26.150  25.069  1.00  0.00     0.024 A 
ATOM     16  C   UNL A   1      33.282  25.112  23.079  1.00  0.00     0.030 A 
ATOM     17  C   UNL A   1      32.549  25.184  25.393  1.00  0.00     0.030 A 
BRANCH  13  18
ATOM     18  S   UNL A   1      30.261  27.816  23.396  1.00  0.00     0.238 S 
ATOM     19  O   UNL A   1      30.611  29.006  24.128  1.00  0.00    -0.207 OA
ATOM     20  O   UNL A   1      28.943  27.219  23.459  1.00  0.00    -0.207 OA
BRANCH  18  21
ATOM     21  N   UNL A   1      30.497  28.211  21.780  1.00  0.00    -0.225 NA
ATOM     22  H   UNL A   1      31.349  27.764  21.441  1.00  0.00     0.137 HD
ATOM     23  H   UNL A   1      30.585  29.223  21.686  1.00  0.00     0.137 HD
ENDBRANCH  18  21
ENDBRANCH  13  18
ENDBRANCH   8  12
BRANCH  10  24
ATOM     24  C   UNL A   1      33.221  21.603  25.487  1.00  0.00     0.054 A 
ATOM     25  C   UNL A   1      32.154  21.235  24.673  1.00  0.00     0.031 A 
ATOM     26  S   UNL A   1      33.607  20.185  26.418  1.00  0.00    -0.134 S 
ATOM     27  C   UNL A   1      32.483  19.921  24.135  1.00  0.00    -0.007 A 
ATOM     28  C   UNL A   1      33.397  19.259  24.966  1.00  0.00     0.035 A 
ATOM     29  C   UNL A   1      32.152  19.322  22.899  1.00  0.00     0.009 A 
ATOM     30  C   UNL A   1      34.026  18.062  24.592  1.00  0.00     0.019 A 
ATOM     31  C   UNL A   1      32.820  18.161  22.492  1.00  0.00     0.001 A 
ATOM     32  C   UNL A   1      33.758  17.552  23.320  1.00  0.00     0.001 A 
ENDBRANCH  10  24
ENDBRANCH   4   7
ENDBRANCH   2   3
ENDBRANCH   1   2
BRANCH   1  33
ATOM     33  C   UNL A   1      40.883  20.510  26.188  1.00  0.00     0.023 C 
BRANCH  33  34
ATOM     34  C   UNL A   1      41.953  19.647  26.855  1.00  0.00     0.116 C 
BRANCH  34  35
ATOM     35  N   UNL A   1      43.085  19.340  25.982  1.00  0.00    -0.352 N 
ATOM     36  C   UNL A   1      43.830  20.220  25.215  1.00  0.00     0.251 C 
ATOM     37  H   UNL A   1      43.350  18.394  25.933  1.00  0.00     0.163 HD
ATOM     38  O   UNL A   1      44.446  19.813  24.236  1.00  0.00    -0.269 OA
BRANCH  36  39
ATOM     39  C   UNL A   1      43.879  21.649  25.590  1.00  0.00     0.039 A 
ATOM     40  C   UNL A   1      43.122  22.604  24.905  1.00  0.00     0.014 A 
ATOM     41  C   UNL A   1      44.688  22.029  26.660  1.00  0.00     0.014 A 
ATOM     42  C   UNL A   1      43.109  23.918  25.374  1.00  0.00     0.010 A 
ATOM     43  C   UNL A   1      44.576  23.291  27.198  1.00  0.00     0.010 A 
ATOM     44  C   UNL A   1      43.810  24.252  26.547  1.00  0.00    -0.014 A 
BRANCH  44  45
ATOM     45  C   UNL A   1      43.588  25.545  27.200  1.00  0.00     0.031 A 
ATOM     46  C   UNL A   1      44.614  26.565  26.855  1.00  0.00     0.074 A 
ATOM     47  C   UNL A   1      42.472  25.892  27.882  1.00  0.00     0.049 A 
ATOM     48  N   UNL A   1      45.586  26.969  27.603  1.00  0.00    -0.248 NA
ATOM     49  C   UNL A   1      44.688  27.054  25.468  1.00  0.00     0.031 C 
ATOM     50  C   UNL A   1      41.251  25.103  28.070  1.00  0.00     0.029 A 
ATOM     51  N   UNL A   1      42.149  27.080  28.470  1.00  0.00    -0.354 N 
ATOM     52  C   UNL A   1      46.215  27.976  26.882  1.00  0.00     0.074 A 
ATOM     53  C   UNL A   1      45.787  27.811  25.516  1.00  0.00     0.031 C 
ATOM     54  C   UNL A   1      40.252  25.906  28.506  1.00  0.00     0.029 A 
ATOM     55  C   UNL A   1      40.797  27.222  28.787  1.00  0.00     0.049 A 
ATOM     56  H   UNL A   1      42.815  27.782  28.655  1.00  0.00     0.167 HD
ATOM     57  C   UNL A   1      46.769  29.048  27.518  1.00  0.00     0.031 A 
ATOM     58  C   UNL A   1      40.164  28.338  29.236  1.00  0.00     0.031 A 
ATOM     59  C   UNL A   1      46.894  28.814  28.938  1.00  0.00     0.049 A 
ATOM     60  C   UNL A   1      41.199  29.216  29.829  1.00  0.00     0.074 A 
ATOM     61  C   UNL A   1      47.472  27.833  29.722  1.00  0.00     0.029 A 
ATOM     62  N   UNL A   1      45.999  29.468  29.753  1.00  0.00    -0.354 N 
ATOM     63  N   UNL A   1      41.843  28.915  30.919  1.00  0.00    -0.248 NA
ATOM     64  C   UNL A   1      41.838  30.205  28.979  1.00  0.00     0.031 C 
ATOM     65  C   UNL A   1      46.559  27.639  30.801  1.00  0.00     0.029 A 
ATOM     66  C   UNL A   1      45.528  28.571  30.672  1.00  0.00     0.049 A 
ATOM     67  H   UNL A   1      45.743  30.417  29.686  1.00  0.00     0.167 HD
ATOM     68  C   UNL A   1      43.151  29.296  30.666  1.00  0.00     0.074 A 
ATOM     69  C   UNL A   1      43.064  30.187  29.508  1.00  0.00     0.031 C 
ATOM     70  C   UNL A   1      44.197  28.627  31.236  1.00  0.00     0.031 A 
BRANCH  57  71
ATOM     71  C   UNL A   1      46.735  30.454  26.953  1.00  0.00    -0.014 A 
ATOM     72  C   UNL A   1      47.903  31.241  27.042  1.00  0.00     0.010 A 
ATOM     73  C   UNL A   1      45.539  31.125  26.624  1.00  0.00     0.010 A 
ATOM     74  C   UNL A   1      47.853  32.634  26.908  1.00  0.00     0.020 A 
ATOM     75  C   UNL A   1      45.488  32.507  26.439  1.00  0.00     0.020 A 
ATOM     76  C   UNL A   1      46.639  33.258  26.621  1.00  0.00     0.054 A 
BRANCH  76  77
ATOM     77  S   UNL A   1      46.566  35.062  26.539  1.00  0.00     0.124 S 
ATOM     78  O   UNL A   1      47.093  35.440  27.846  1.00  0.00    -0.237 OA
ATOM     79  O   UNL A   1      47.428  35.351  25.396  1.00  0.00    -0.237 OA
ATOM     80  O   UNL A   1      45.147  35.335  26.328  1.00  0.00    -0.744 OA
ENDBRANCH  76  77
ENDBRANCH  57  71
BRANCH  58  81
ATOM     81  C   UNL A   1      38.774  28.809  28.998  1.00  0.00    -0.014 A 
ATOM     82  C   UNL A   1      37.897  29.055  30.076  1.00  0.00     0.010 A 
ATOM     83  C   UNL A   1      38.407  29.313  27.734  1.00  0.00     0.010 A 
ATOM     84  C   UNL A   1      36.746  29.846  29.912  1.00  0.00     0.020 A 
ATOM     85  C   UNL A   1      37.257  30.095  27.562  1.00  0.00     0.020 A 
ATOM     86  C   UNL A   1      36.448  30.385  28.658  1.00  0.00     0.054 A 
BRANCH  86  87
ATOM     87  S   UNL A   1      35.082  31.577  28.496  1.00  0.00     0.124 S 
ATOM     88  O   UNL A   1      35.650  32.584  27.605  1.00  0.00    -0.237 OA
ATOM     89  O   UNL A   1      34.011  30.762  27.928  1.00  0.00    -0.237 OA
ATOM     90  O   UNL A   1      34.852  32.023  29.870  1.00  0.00    -0.744 OA
ENDBRANCH  86  87
ENDBRANCH  58  81
BRANCH  70  91
ATOM     91  C   UNL A   1      43.919  27.724  32.417  1.00  0.00    -0.014 A 
ATOM     92  C   UNL A   1      43.980  26.316  32.382  1.00  0.00     0.010 A 
ATOM     93  C   UNL A   1      43.672  28.350  33.651  1.00  0.00     0.010 A 
ATOM     94  C   UNL A   1      43.743  25.561  33.542  1.00  0.00     0.020 A 
ATOM     95  C   UNL A   1      43.458  27.606  34.811  1.00  0.00     0.020 A 
ATOM     96  C   UNL A   1      43.473  26.213  34.748  1.00  0.00     0.054 A 
BRANCH  96  97
ATOM     97  S   UNL A   1      43.152  25.238  36.243  1.00  0.00     0.124 S 
ATOM     98  O   UNL A   1      42.702  26.251  37.193  1.00  0.00    -0.237 OA
ATOM     99  O   UNL A   1      42.130  24.292  35.800  1.00  0.00    -0.237 OA
ATOM    100  O   UNL A   1      44.449  24.635  36.552  1.00  0.00    -0.744 OA
ENDBRANCH  96  97
ENDBRANCH  70  91
ENDBRANCH  44  45
ENDBRANCH  36  39
ENDBRANCH  34  35
ENDBRANCH  33  34
ENDBRANCH   1  33
TORSDOF 18
ENDMDL
MODEL 2
REMARK VINA RESULT:     -12.5      2.695      9.326
REMARK SMILES NS(=O)(=O)c1ccc(-n2nc(C(=O)NCCCCNC(=O)c3ccc(-c4c5nc(c(-c6ccc(S(=O)(=O)[O-])cc6)c6ccc([nH]6)c(-c6ccc(S(=O)(=O)[O-])cc6)c6nc(c(-c7ccc(S(=O)(=O)[O-])cc7)c7ccc4[nH]7)C=C6)C=C5)cc3)cc2-c2cc3ccccc3s2)cc1
REMARK SMILES IDX 16 1 15 2 14 3 12 4 13 5 11 7 9 8 10 9 83 10 82 11 8 12 5 13
REMARK SMILES IDX 6 14 94 15 7 16 93 17 2 18 3 19 4 20 1 21 84 24 85 25 92 26
REMARK SMILES IDX 86 27 91 28 87 29 90 30 88 31 89 32 17 33 18 34 19 35 20 36
REMARK SMILES IDX 21 38 22 39 23 40 81 41 24 42 80 43 25 44 26 45 27 46 74 47
REMARK SMILES IDX 28 48 79 49 73 50 75 51 29 52 78 53 72 54 71 55 30 57 60 58
REMARK SMILES IDX 41 59 59 60 42 61 45 62 58 63 76 64 43 65 44 66 57 68 77 69
REMARK SMILES IDX 46 70 31 71 32 72 40 73 33 74 39 75 34 76 35 77 36 78 37 79
REMARK SMILES IDX 38 80 61 81 62 82 70 83 63 84 69 85 64 86 65 87 66 88 67 89
REMARK SMILES IDX 68 90 47 91 48 92 56 93 49 94 55 95 50 96 51 97 52 98 53 99
REMARK SMILES IDX 54 100
REMARK H PARENT 14 6 1 22 1 23 19 37 75 56 45 67
REMARK Flexibility Score: inf
ROOT
ATOM      1  C   UNL A   1      35.400  30.790  28.318  1.00  0.00     0.023 C 
ENDROOT
BRANCH   1   2
ATOM      2  C   UNL A   1      34.935  29.801  27.239  1.00  0.00     0.116 C 
BRANCH   2   3
ATOM      3  N   UNL A   1      33.737  30.261  26.548  1.00  0.00    -0.351 N 
ATOM      4  C   UNL A   1      32.620  29.603  26.059  1.00  0.00     0.271 C 
ATOM      5  O   UNL A   1      31.726  30.314  25.596  1.00  0.00    -0.267 OA
ATOM      6  H   UNL A   1      33.720  31.234  26.398  1.00  0.00     0.163 HD
BRANCH   4   7
ATOM      7  C   UNL A   1      32.495  28.133  26.144  1.00  0.00     0.151 A 
ATOM      8  N   UNL A   1      33.001  26.077  25.726  1.00  0.00    -0.231 N 
ATOM      9  N   UNL A   1      33.545  27.305  25.965  1.00  0.00    -0.162 NA
ATOM     10  C   UNL A   1      31.627  26.128  25.830  1.00  0.00     0.085 A 
ATOM     11  C   UNL A   1      31.356  27.357  26.405  1.00  0.00     0.066 A 
BRANCH   8  12
ATOM     12  C   UNL A   1      33.847  24.951  25.561  1.00  0.00     0.065 A 
ATOM     13  C   UNL A   1      35.626  22.839  25.156  1.00  0.00     0.082 A 
ATOM     14  C   UNL A   1      34.971  22.971  26.384  1.00  0.00     0.024 A 
ATOM     15  C   UNL A   1      35.384  23.746  24.121  1.00  0.00     0.024 A 
ATOM     16  C   UNL A   1      34.097  24.045  26.597  1.00  0.00     0.030 A 
ATOM     17  C   UNL A   1      34.471  24.782  24.314  1.00  0.00     0.030 A 
BRANCH  13  18
ATOM     18  S   UNL A   1      36.812  21.562  24.864  1.00  0.00     0.238 S 
ATOM     19  O   UNL A   1      37.411  21.782  23.573  1.00  0.00    -0.207 OA
ATOM     20  O   UNL A   1      36.233  20.293  25.251  1.00  0.00    -0.207 OA
BRANCH  18  21
ATOM     21  N   UNL A   1      38.042  21.850  25.972  1.00  0.00    -0.225 NA
ATOM     22  H   UNL A   1      38.396  20.961  26.326  1.00  0.00     0.137 HD
ATOM     23  H   UNL A   1      37.678  22.403  26.748  1.00  0.00     0.137 HD
ENDBRANCH  18  21
ENDBRANCH  13  18
ENDBRANCH   8  12
BRANCH  10  24
ATOM     24  C   UNL A   1      30.598  25.251  25.338  1.00  0.00     0.054 A 
ATOM     25  C   UNL A   1      30.536  24.757  24.039  1.00  0.00     0.031 A 
ATOM     26  S   UNL A   1      30.147  23.920  26.364  1.00  0.00    -0.134 S 
ATOM     27  C   UNL A   1      31.171  23.445  24.068  1.00  0.00    -0.007 A 
ATOM     28  C   UNL A   1      31.131  22.902  25.360  1.00  0.00     0.035 A 
ATOM     29  C   UNL A   1      31.909  22.755  23.079  1.00  0.00     0.009 A 
ATOM     30  C   UNL A   1      31.832  21.739  25.712  1.00  0.00     0.019 A 
ATOM     31  C   UNL A   1      32.661  21.630  23.437  1.00  0.00     0.001 A 
ATOM     32  C   UNL A   1      32.637  21.142  24.740  1.00  0.00     0.001 A 
ENDBRANCH  10  24
ENDBRANCH   4   7
ENDBRANCH   2   3
ENDBRANCH   1   2
BRANCH   1  33
ATOM     33  C   UNL A   1      34.429  31.942  28.625  1.00  0.00     0.023 C 
BRANCH  33  34
ATOM     34  C   UNL A   1      35.064  33.190  29.237  1.00  0.00     0.116 C 
BRANCH  34  35
ATOM     35  N   UNL A   1      34.572  33.497  30.579  1.00  0.00    -0.352 N 
ATOM     36  C   UNL A   1      34.881  32.854  31.765  1.00  0.00     0.251 C 
ATOM     37  H   UNL A   1      33.947  34.254  30.649  1.00  0.00     0.163 HD
ATOM     38  O   UNL A   1      34.112  32.918  32.719  1.00  0.00    -0.269 OA
BRANCH  36  39
ATOM     39  C   UNL A   1      36.144  32.094  31.872  1.00  0.00     0.039 A 
ATOM     40  C   UNL A   1      36.148  30.696  31.904  1.00  0.00     0.014 A 
ATOM     41  C   UNL A   1      37.344  32.801  31.925  1.00  0.00     0.014 A 
ATOM     42  C   UNL A   1      37.371  30.025  31.883  1.00  0.00     0.010 A 
ATOM     43  C   UNL A   1      38.544  32.142  31.775  1.00  0.00     0.010 A 
ATOM     44  C   UNL A   1      38.571  30.752  31.780  1.00  0.00    -0.014 A 
BRANCH  44  45
ATOM     45  C   UNL A   1      39.830  30.065  31.482  1.00  0.00     0.031 A 
ATOM     46  C   UNL A   1      40.700  29.882  32.675  1.00  0.00     0.074 A 
ATOM     47  C   UNL A   1      40.127  29.455  30.312  1.00  0.00     0.049 A 
ATOM     48  N   UNL A   1      41.764  30.551  32.967  1.00  0.00    -0.248 NA
ATOM     49  C   UNL A   1      40.240  28.994  33.757  1.00  0.00     0.031 C 
ATOM     50  C   UNL A   1      39.267  29.298  29.135  1.00  0.00     0.029 A 
ATOM     51  N   UNL A   1      41.239  28.745  29.961  1.00  0.00    -0.354 N 
ATOM     52  C   UNL A   1      42.267  29.965  34.123  1.00  0.00     0.074 A 
ATOM     53  C   UNL A   1      41.181  29.200  34.682  1.00  0.00     0.031 C 
ATOM     54  C   UNL A   1      39.785  28.354  28.315  1.00  0.00     0.029 A 
ATOM     55  C   UNL A   1      41.089  27.960  28.817  1.00  0.00     0.049 A 
ATOM     56  H   UNL A   1      42.079  28.782  30.474  1.00  0.00     0.167 HD
ATOM     57  C   UNL A   1      43.611  29.892  34.341  1.00  0.00     0.031 A 
ATOM     58  C   UNL A   1      41.962  27.045  28.320  1.00  0.00     0.031 A 
ATOM     59  C   UNL A   1      44.341  30.753  33.438  1.00  0.00     0.049 A 
ATOM     60  C   UNL A   1      43.298  27.376  28.867  1.00  0.00     0.074 A 
ATOM     61  C   UNL A   1      44.292  32.095  33.111  1.00  0.00     0.029 A 
ATOM     62  N   UNL A   1      45.014  30.139  32.408  1.00  0.00    -0.354 N 
ATOM     63  N   UNL A   1      43.950  28.453  28.539  1.00  0.00    -0.248 NA
ATOM     64  C   UNL A   1      43.712  26.749  30.110  1.00  0.00     0.031 C 
ATOM     65  C   UNL A   1      44.503  32.139  31.701  1.00  0.00     0.029 A 
ATOM     66  C   UNL A   1      44.762  30.839  31.260  1.00  0.00     0.049 A 
ATOM     67  H   UNL A   1      45.577  29.335  32.483  1.00  0.00     0.167 HD
ATOM     68  C   UNL A   1      44.503  28.900  29.728  1.00  0.00     0.074 A 
ATOM     69  C   UNL A   1      44.422  27.753  30.633  1.00  0.00     0.031 C 
ATOM     70  C   UNL A   1      44.706  30.233  29.948  1.00  0.00     0.031 A 
BRANCH  57  71
ATOM     71  C   UNL A   1      44.279  28.708  35.009  1.00  0.00    -0.014 A 
ATOM     72  C   UNL A   1      44.460  27.527  34.257  1.00  0.00     0.010 A 
ATOM     73  C   UNL A   1      44.451  28.605  36.405  1.00  0.00     0.010 A 
ATOM     74  C   UNL A   1      44.701  26.297  34.882  1.00  0.00     0.020 A 
ATOM     75  C   UNL A   1      44.740  27.393  37.033  1.00  0.00     0.020 A 
ATOM     76  C   UNL A   1      44.825  26.239  36.269  1.00  0.00     0.054 A 
BRANCH  76  77
ATOM     77  S   UNL A   1      45.046  24.635  37.074  1.00  0.00     0.124 S 
ATOM     78  O   UNL A   1      44.186  23.777  36.265  1.00  0.00    -0.237 OA
ATOM     79  O   UNL A   1      46.482  24.416  36.929  1.00  0.00    -0.237 OA
ATOM     80  O   UNL A   1      44.591  24.876  38.441  1.00  0.00    -0.744 OA
ENDBRANCH  76  77
ENDBRANCH  57  71
BRANCH  58  81
ATOM     81  C   UNL A   1      41.703  25.775  27.591  1.00  0.00    -0.014 A 
ATOM     82  C   UNL A   1      42.446  25.436  26.440  1.00  0.00     0.010 A 
ATOM     83  C   UNL A   1      40.943  24.755  28.197  1.00  0.00     0.010 A 
ATOM     84  C   UNL A   1      42.495  24.111  25.969  1.00  0.00     0.020 A 
ATOM     85  C   UNL A   1      40.980  23.435  27.728  1.00  0.00     0.020 A 
ATOM     86  C   UNL A   1      41.782  23.112  26.635  1.00  0.00     0.054 A 
BRANCH  86  87
ATOM     87  S   UNL A   1      42.014  21.373  26.155  1.00  0.00     0.124 S 
ATOM     88  O   UNL A   1      40.731  21.041  25.544  1.00  0.00    -0.237 OA
ATOM     89  O   UNL A   1      43.152  21.442  25.241  1.00  0.00    -0.237 OA
ATOM     90  O   UNL A   1      42.287  20.701  27.425  1.00  0.00    -0.744 OA
ENDBRANCH  86  87
ENDBRANCH  58  81
BRANCH  70  91
ATOM     91  C   UNL A   1      44.673  31.173  28.763  1.00  0.00    -0.014 A 
ATOM     92  C   UNL A   1      43.587  32.008  28.432  1.00  0.00     0.010 A 
ATOM     93  C   UNL A   1      45.850  31.277  28.002  1.00  0.00     0.010 A 
ATOM     94  C   UNL A   1      43.663  32.878  27.333  1.00  0.00     0.020 A 
ATOM     95  C   UNL A   1      45.940  32.156  26.922  1.00  0.00     0.020 A 
ATOM     96  C   UNL A   1      44.838  32.938  26.579  1.00  0.00     0.054 A 
BRANCH  96  97
ATOM     97  S   UNL A   1      44.931  34.051  25.150  1.00  0.00     0.124 S 
ATOM     98  O   UNL A   1      46.345  34.414  25.121  1.00  0.00    -0.237 OA
ATOM     99  O   UNL A   1      44.475  33.205  24.048  1.00  0.00    -0.237 OA
ATOM    100  O   UNL A   1      44.021  35.142  25.498  1.00  0.00    -0.744 OA
ENDBRANCH  96  97
ENDBRANCH  70  91
ENDBRANCH  44  45
ENDBRANCH  36  39
ENDBRANCH  34  35
ENDBRANCH  33  34
ENDBRANCH   1  33
TORSDOF 18
ENDMDL
MODEL 3
REMARK VINA RESULT:     -12.4      4.651     10.651
REMARK SMILES NS(=O)(=O)c1ccc(-n2nc(C(=O)NCCCCNC(=O)c3ccc(-c4c5nc(c(-c6ccc(S(=O)(=O)[O-])cc6)c6ccc([nH]6)c(-c6ccc(S(=O)(=O)[O-])cc6)c6nc(c(-c7ccc(S(=O)(=O)[O-])cc7)c7ccc4[nH]7)C=C6)C=C5)cc3)cc2-c2cc3ccccc3s2)cc1
REMARK SMILES IDX 16 1 15 2 14 3 12 4 13 5 11 7 9 8 10 9 83 10 82 11 8 12 5 13
REMARK SMILES IDX 6 14 94 15 7 16 93 17 2 18 3 19 4 20 1 21 84 24 85 25 92 26
REMARK SMILES IDX 86 27 91 28 87 29 90 30 88 31 89 32 17 33 18 34 19 35 20 36
REMARK SMILES IDX 21 38 22 39 23 40 81 41 24 42 80 43 25 44 26 45 27 46 74 47
REMARK SMILES IDX 28 48 79 49 73 50 75 51 29 52 78 53 72 54 71 55 30 57 60 58
REMARK SMILES IDX 41 59 59 60 42 61 45 62 58 63 76 64 43 65 44 66 57 68 77 69
REMARK SMILES IDX 46 70 31 71 32 72 40 73 33 74 39 75 34 76 35 77 36 78 37 79
REMARK SMILES IDX 38 80 61 81 62 82 70 83 63 84 69 85 64 86 65 87 66 88 67 89
REMARK SMILES IDX 68 90 47 91 48 92 56 93 49 94 55 95 50 96 51 97 52 98 53 99
REMARK SMILES IDX 54 100
REMARK H PARENT 14 6 1 22 1 23 19 37 75 56 45 67
REMARK Flexibility Score: inf
ROOT
ATOM      1  C   UNL A   1      32.960  34.247  27.918  1.00  0.00     0.023 C 
ENDROOT
BRANCH   1   2
ATOM      2  C   UNL A   1      32.939  32.777  27.475  1.00  0.00     0.116 C 
BRANCH   2   3
ATOM      3  N   UNL A   1      34.196  32.096  27.760  1.00  0.00    -0.351 N 
ATOM      4  C   UNL A   1      34.655  30.815  27.498  1.00  0.00     0.271 C 
ATOM      5  O   UNL A   1      35.826  30.582  27.799  1.00  0.00    -0.267 OA
ATOM      6  H   UNL A   1      34.849  32.660  28.234  1.00  0.00     0.163 HD
BRANCH   4   7
ATOM      7  C   UNL A   1      33.792  29.809  26.842  1.00  0.00     0.151 A 
ATOM      8  N   UNL A   1      33.264  27.878  26.038  1.00  0.00    -0.231 N 
ATOM      9  N   UNL A   1      33.920  28.486  27.068  1.00  0.00    -0.162 NA
ATOM     10  C   UNL A   1      32.671  28.817  25.220  1.00  0.00     0.085 A 
ATOM     11  C   UNL A   1      32.750  30.005  25.924  1.00  0.00     0.066 A 
BRANCH   8  12
ATOM     12  C   UNL A   1      33.151  26.465  26.011  1.00  0.00     0.065 A 
ATOM     13  C   UNL A   1      33.090  23.675  26.015  1.00  0.00     0.082 A 
ATOM     14  C   UNL A   1      31.991  24.395  26.494  1.00  0.00     0.024 A 
ATOM     15  C   UNL A   1      34.212  24.339  25.517  1.00  0.00     0.024 A 
ATOM     16  C   UNL A   1      32.031  25.795  26.516  1.00  0.00     0.030 A 
ATOM     17  C   UNL A   1      34.229  25.734  25.486  1.00  0.00     0.030 A 
BRANCH  13  18
ATOM     18  S   UNL A   1      33.136  21.909  26.055  1.00  0.00     0.238 S 
ATOM     19  O   UNL A   1      33.512  21.491  27.380  1.00  0.00    -0.207 OA
ATOM     20  O   UNL A   1      33.811  21.435  24.865  1.00  0.00    -0.207 OA
BRANCH  18  21
ATOM     21  N   UNL A   1      31.535  21.428  25.883  1.00  0.00    -0.225 NA
ATOM     22  H   UNL A   1      31.270  20.835  26.670  1.00  0.00     0.137 HD
ATOM     23  H   UNL A   1      31.429  20.903  25.014  1.00  0.00     0.137 HD
ENDBRANCH  18  21
ENDBRANCH  13  18
ENDBRANCH   8  12
BRANCH  10  24
ATOM     24  C   UNL A   1      32.197  28.740  23.864  1.00  0.00     0.054 A 
ATOM     25  C   UNL A   1      32.768  27.950  22.871  1.00  0.00     0.031 A 
ATOM     26  S   UNL A   1      30.477  28.595  23.643  1.00  0.00    -0.134 S 
ATOM     27  C   UNL A   1      32.009  26.706  22.851  1.00  0.00    -0.007 A 
ATOM     28  C   UNL A   1      30.724  26.898  23.376  1.00  0.00     0.035 A 
ATOM     29  C   UNL A   1      32.410  25.386  22.540  1.00  0.00     0.009 A 
ATOM     30  C   UNL A   1      29.853  25.833  23.648  1.00  0.00     0.019 A 
ATOM     31  C   UNL A   1      31.571  24.314  22.866  1.00  0.00     0.001 A 
ATOM     32  C   UNL A   1      30.319  24.535  23.430  1.00  0.00     0.001 A 
ENDBRANCH  10  24
ENDBRANCH   4   7
ENDBRANCH   2   3
ENDBRANCH   1   2
BRANCH   1  33
ATOM     33  C   UNL A   1      33.499  34.506  29.334  1.00  0.00     0.023 C 
BRANCH  33  34
ATOM     34  C   UNL A   1      33.347  35.940  29.843  1.00  0.00     0.116 C 
BRANCH  34  35
ATOM     35  N   UNL A   1      32.489  36.054  31.021  1.00  0.00    -0.352 N 
ATOM     36  C   UNL A   1      32.557  35.325  32.196  1.00  0.00     0.251 C 
ATOM     37  H   UNL A   1      31.777  36.732  30.974  1.00  0.00     0.163 HD
ATOM     38  O   UNL A   1      31.565  35.211  32.908  1.00  0.00    -0.269 OA
BRANCH  36  39
ATOM     39  C   UNL A   1      33.835  34.690  32.584  1.00  0.00     0.039 A 
ATOM     40  C   UNL A   1      33.960  33.300  32.654  1.00  0.00     0.014 A 
ATOM     41  C   UNL A   1      34.926  35.510  32.866  1.00  0.00     0.014 A 
ATOM     42  C   UNL A   1      35.217  32.748  32.906  1.00  0.00     0.010 A 
ATOM     43  C   UNL A   1      36.186  34.968  32.988  1.00  0.00     0.010 A 
ATOM     44  C   UNL A   1      36.340  33.586  33.036  1.00  0.00    -0.014 A 
BRANCH  44  45
ATOM     45  C   UNL A   1      37.691  33.021  33.025  1.00  0.00     0.031 A 
ATOM     46  C   UNL A   1      38.394  33.144  34.331  1.00  0.00     0.074 A 
ATOM     47  C   UNL A   1      38.214  32.269  32.030  1.00  0.00     0.049 A 
ATOM     48  N   UNL A   1      39.332  33.979  34.630  1.00  0.00    -0.248 NA
ATOM     49  C   UNL A   1      37.874  32.395  35.488  1.00  0.00     0.031 C 
ATOM     50  C   UNL A   1      37.553  31.816  30.802  1.00  0.00     0.029 A 
ATOM     51  N   UNL A   1      39.430  31.654  31.953  1.00  0.00    -0.354 N 
ATOM     52  C   UNL A   1      39.718  33.656  35.925  1.00  0.00     0.074 A 
ATOM     53  C   UNL A   1      38.645  32.865  36.472  1.00  0.00     0.031 C 
ATOM     54  C   UNL A   1      38.276  30.822  30.235  1.00  0.00     0.029 A 
ATOM     55  C   UNL A   1      39.526  30.680  30.959  1.00  0.00     0.049 A 
ATOM     56  H   UNL A   1      40.179  31.878  32.552  1.00  0.00     0.167 HD
ATOM     57  C   UNL A   1      41.017  33.787  36.319  1.00  0.00     0.031 A 
ATOM     58  C   UNL A   1      40.549  29.811  30.746  1.00  0.00     0.031 A 
ATOM     59  C   UNL A   1      41.780  34.572  35.375  1.00  0.00     0.049 A 
ATOM     60  C   UNL A   1      41.752  30.390  31.388  1.00  0.00     0.074 A 
ATOM     61  C   UNL A   1      41.645  35.826  34.810  1.00  0.00     0.029 A 
ATOM     62  N   UNL A   1      42.653  33.885  34.563  1.00  0.00    -0.354 N 
ATOM     63  N   UNL A   1      42.334  31.471  30.957  1.00  0.00    -0.248 NA
ATOM     64  C   UNL A   1      42.043  30.031  32.765  1.00  0.00     0.031 C 
ATOM     65  C   UNL A   1      42.052  35.664  33.452  1.00  0.00     0.029 A 
ATOM     66  C   UNL A   1      42.501  34.352  33.287  1.00  0.00     0.049 A 
ATOM     67  H   UNL A   1      43.277  33.181  34.852  1.00  0.00     0.167 HD
ATOM     68  C   UNL A   1      42.662  32.171  32.106  1.00  0.00     0.074 A 
ATOM     69  C   UNL A   1      42.566  31.187  33.184  1.00  0.00     0.031 C 
ATOM     70  C   UNL A   1      42.696  33.537  32.107  1.00  0.00     0.031 A 
BRANCH  57  71
ATOM     71  C   UNL A   1      41.697  32.819  37.266  1.00  0.00    -0.014 A 
ATOM     72  C   UNL A   1      41.630  33.078  38.652  1.00  0.00     0.010 A 
ATOM     73  C   UNL A   1      42.639  31.858  36.844  1.00  0.00     0.010 A 
ATOM     74  C   UNL A   1      42.525  32.479  39.547  1.00  0.00     0.020 A 
ATOM     75  C   UNL A   1      43.502  31.219  37.734  1.00  0.00     0.020 A 
ATOM     76  C   UNL A   1      43.465  31.564  39.076  1.00  0.00     0.054 A 
BRANCH  76  77
ATOM     77  S   UNL A   1      44.675  30.865  40.224  1.00  0.00     0.124 S 
ATOM     78  O   UNL A   1      45.012  29.606  39.568  1.00  0.00    -0.237 OA
ATOM     79  O   UNL A   1      45.721  31.884  40.223  1.00  0.00    -0.237 OA
ATOM     80  O   UNL A   1      43.928  30.746  41.473  1.00  0.00    -0.744 OA
ENDBRANCH  76  77
ENDBRANCH  57  71
BRANCH  58  81
ATOM     81  C   UNL A   1      40.527  28.417  30.229  1.00  0.00    -0.014 A 
ATOM     82  C   UNL A   1      39.306  27.744  30.013  1.00  0.00     0.010 A 
ATOM     83  C   UNL A   1      41.687  27.857  29.659  1.00  0.00     0.010 A 
ATOM     84  C   UNL A   1      39.237  26.607  29.186  1.00  0.00     0.020 A 
ATOM     85  C   UNL A   1      41.628  26.721  28.841  1.00  0.00     0.020 A 
ATOM     86  C   UNL A   1      40.398  26.119  28.583  1.00  0.00     0.054 A 
BRANCH  86  87
ATOM     87  S   UNL A   1      40.275  24.785  27.351  1.00  0.00     0.124 S 
ATOM     88  O   UNL A   1      38.892  24.902  26.899  1.00  0.00    -0.237 OA
ATOM     89  O   UNL A   1      41.294  25.158  26.372  1.00  0.00    -0.237 OA
ATOM     90  O   UNL A   1      40.575  23.579  28.121  1.00  0.00    -0.744 OA
ENDBRANCH  86  87
ENDBRANCH  58  81
BRANCH  70  91
ATOM     91  C   UNL A   1      42.740  34.260  30.779  1.00  0.00    -0.014 A 
ATOM     92  C   UNL A   1      41.613  34.548  29.985  1.00  0.00     0.010 A 
ATOM     93  C   UNL A   1      43.991  34.751  30.365  1.00  0.00     0.010 A 
ATOM     94  C   UNL A   1      41.748  35.259  28.782  1.00  0.00     0.020 A 
ATOM     95  C   UNL A   1      44.129  35.478  29.183  1.00  0.00     0.020 A 
ATOM     96  C   UNL A   1      43.009  35.711  28.385  1.00  0.00     0.054 A 
BRANCH  96  97
ATOM     97  S   UNL A   1      43.187  36.617  26.824  1.00  0.00     0.124 S 
ATOM     98  O   UNL A   1      44.569  37.084  26.882  1.00  0.00    -0.237 OA
ATOM     99  O   UNL A   1      42.911  35.591  25.819  1.00  0.00    -0.237 OA
ATOM    100  O   UNL A   1      42.175  37.670  26.914  1.00  0.00    -0.744 OA
ENDBRANCH  96  97
ENDBRANCH  70  91
ENDBRANCH  44  45
ENDBRANCH  36  39
ENDBRANCH  34  35
ENDBRANCH  33  34
ENDBRANCH   1  33
TORSDOF 18
ENDMDL
