MODEL 1
REMARK VINA RESULT:     -10.0      0.000      0.000
REMARK SMILES COc1cccc([C@H]2CC(c3ccc(S(C)(=O)=O)cc3)=NN2c2ccc(C(=O)NCCCCNC(=O)c3ccc(-c4c5nc(c(-c6ccc(S(=O)(=O)[O-])cc6)c6ccc([nH]6)c(-c6ccc(S(=O)(=O)[O-])cc6)c6nc(c(-c7ccc(S(=O)(=O)[O-])cc7)c7ccc4[nH]7)C=C6)C=C5)cc3)cc2)c1
REMARK SMILES IDX 31 1 30 2 29 3 27 4 28 5 26 7 23 8 24 9 98 10 25 11 97 12
REMARK SMILES IDX 22 13 8 14 9 15 10 16 21 17 7 18 3 19 4 20 99 21 5 22 6 23
REMARK SMILES IDX 2 24 1 25 11 26 12 27 20 28 13 29 19 30 14 31 15 32 16 33
REMARK SMILES IDX 17 34 18 35 32 36 33 37 34 38 35 39 36 41 37 42 38 43 96 44
REMARK SMILES IDX 39 45 95 46 40 47 41 48 42 49 89 50 43 51 94 52 88 53 90 54
REMARK SMILES IDX 44 55 93 56 87 57 86 58 45 60 75 61 56 62 74 63 57 64 60 65
REMARK SMILES IDX 73 66 91 67 58 68 59 69 72 71 92 72 61 73 46 74 47 75 55 76
REMARK SMILES IDX 48 77 54 78 49 79 50 80 51 81 52 82 53 83 76 84 77 85 85 86
REMARK SMILES IDX 78 87 84 88 79 89 80 90 81 91 82 92 83 93 62 94 63 95 71 96
REMARK SMILES IDX 64 97 70 98 65 99 66 100 67 101 68 102 69 103
REMARK H PARENT 29 6 34 40 90 59 60 70
REMARK Flexibility Score: inf
ROOT
ATOM      1  C   UNL A   1      34.879  34.693  29.208  1.00  0.00     0.023 C 
ENDROOT
BRANCH   1   2
ATOM      2  C   UNL A   1      35.401  34.538  30.639  1.00  0.00     0.116 C 
BRANCH   2   3
ATOM      3  N   UNL A   1      34.345  34.060  31.507  1.00  0.00    -0.352 N 
ATOM      4  C   UNL A   1      34.362  33.219  32.590  1.00  0.00     0.251 C 
ATOM      5  O   UNL A   1      33.289  32.983  33.145  1.00  0.00    -0.269 OA
ATOM      6  H   UNL A   1      33.452  34.402  31.277  1.00  0.00     0.163 HD
BRANCH   4   7
ATOM      7  C   UNL A   1      35.615  32.641  33.155  1.00  0.00     0.039 A 
ATOM      8  C   UNL A   1      38.068  31.790  34.268  1.00  0.00     0.060 A 
ATOM      9  C   UNL A   1      37.327  32.810  34.871  1.00  0.00     0.029 A 
ATOM     10  C   UNL A   1      37.532  31.151  33.151  1.00  0.00     0.029 A 
ATOM     11  C   UNL A   1      36.124  33.247  34.310  1.00  0.00     0.016 A 
ATOM     12  C   UNL A   1      36.298  31.544  32.628  1.00  0.00     0.016 A 
BRANCH   8  13
ATOM     13  N   UNL A   1      39.303  31.435  34.772  1.00  0.00    -0.257 N 
ATOM     14  C   UNL A   1      40.327  32.394  35.181  1.00  0.00     0.144 C 
ATOM     15  C   UNL A   1      41.529  31.487  35.474  1.00  0.00     0.091 C 
ATOM     16  C   UNL A   1      40.942  30.149  35.114  1.00  0.00     0.071 C 
ATOM     17  N   UNL A   1      39.711  30.149  34.717  1.00  0.00    -0.176 NA
BRANCH  14  18
ATOM     18  C   UNL A   1      39.864  33.201  36.383  1.00  0.00    -0.019 A 
ATOM     19  C   UNL A   1      39.630  35.338  37.538  1.00  0.00     0.119 A 
ATOM     20  C   UNL A   1      39.165  34.670  38.670  1.00  0.00     0.046 A 
ATOM     21  C   UNL A   1      39.994  34.604  36.408  1.00  0.00     0.052 A 
ATOM     22  C   UNL A   1      39.028  33.283  38.663  1.00  0.00     0.004 A 
ATOM     23  C   UNL A   1      39.370  32.550  37.524  1.00  0.00     0.006 A 
BRANCH  19  24
ATOM     24  O   UNL A   1      39.751  36.695  37.660  1.00  0.00    -0.497 OA
ATOM     25  C   UNL A   1      40.141  37.156  38.948  1.00  0.00     0.278 C 
ENDBRANCH  19  24
ENDBRANCH  14  18
BRANCH  16  26
ATOM     26  C   UNL A   1      41.733  28.921  35.183  1.00  0.00    -0.002 A 
ATOM     27  C   UNL A   1      42.636  28.646  34.150  1.00  0.00     0.011 A 
ATOM     28  C   UNL A   1      41.525  28.013  36.222  1.00  0.00     0.011 A 
ATOM     29  C   UNL A   1      43.354  27.452  34.164  1.00  0.00     0.021 A 
ATOM     30  C   UNL A   1      42.223  26.805  36.223  1.00  0.00     0.021 A 
ATOM     31  C   UNL A   1      43.130  26.531  35.193  1.00  0.00     0.067 A 
BRANCH  31  32
ATOM     32  S   UNL A   1      44.024  24.995  35.186  1.00  0.00     0.175 S 
ATOM     33  C   UNL A   1      42.767  23.757  35.002  1.00  0.00     0.163 C 
ATOM     34  O   UNL A   1      44.848  24.997  33.995  1.00  0.00    -0.224 OA
ATOM     35  O   UNL A   1      44.614  24.826  36.502  1.00  0.00    -0.224 OA
ENDBRANCH  31  32
ENDBRANCH  16  26
ENDBRANCH   8  13
ENDBRANCH   4   7
ENDBRANCH   2   3
ENDBRANCH   1   2
BRANCH   1  36
ATOM     36  C   UNL A   1      34.044  33.507  28.727  1.00  0.00     0.023 C 
BRANCH  36  37
ATOM     37  C   UNL A   1      34.804  32.519  27.856  1.00  0.00     0.116 C 
BRANCH  37  38
ATOM     38  N   UNL A   1      34.086  31.268  27.646  1.00  0.00    -0.352 N 
ATOM     39  C   UNL A   1      34.587  29.992  27.751  1.00  0.00     0.251 C 
ATOM     40  H   UNL A   1      33.136  31.346  27.402  1.00  0.00     0.163 HD
ATOM     41  O   UNL A   1      33.910  29.020  27.435  1.00  0.00    -0.269 OA
BRANCH  39  42
ATOM     42  C   UNL A   1      35.978  29.831  28.215  1.00  0.00     0.039 A 
ATOM     43  C   UNL A   1      36.216  29.447  29.535  1.00  0.00     0.014 A 
ATOM     44  C   UNL A   1      37.028  29.958  27.303  1.00  0.00     0.014 A 
ATOM     45  C   UNL A   1      37.516  29.121  29.927  1.00  0.00     0.010 A 
ATOM     46  C   UNL A   1      38.303  29.554  27.674  1.00  0.00     0.010 A 
ATOM     47  C   UNL A   1      38.561  29.135  28.989  1.00  0.00    -0.014 A 
BRANCH  47  48
ATOM     48  C   UNL A   1      39.946  28.741  29.349  1.00  0.00     0.031 A 
ATOM     49  C   UNL A   1      40.839  29.740  30.034  1.00  0.00     0.074 A 
ATOM     50  C   UNL A   1      40.427  27.537  28.982  1.00  0.00     0.049 A 
ATOM     51  N   UNL A   1      42.116  29.658  30.304  1.00  0.00    -0.248 NA
ATOM     52  C   UNL A   1      40.219  31.014  30.438  1.00  0.00     0.031 C 
ATOM     53  C   UNL A   1      39.668  26.490  28.294  1.00  0.00     0.029 A 
ATOM     54  N   UNL A   1      41.681  26.996  29.124  1.00  0.00    -0.354 N 
ATOM     55  C   UNL A   1      42.455  30.875  30.883  1.00  0.00     0.074 A 
ATOM     56  C   UNL A   1      41.266  31.696  30.877  1.00  0.00     0.031 C 
ATOM     57  C   UNL A   1      40.467  25.428  28.091  1.00  0.00     0.029 A 
ATOM     58  C   UNL A   1      41.805  25.736  28.586  1.00  0.00     0.049 A 
ATOM     59  H   UNL A   1      42.423  27.466  29.570  1.00  0.00     0.167 HD
ATOM     60  C   UNL A   1      43.646  31.266  31.393  1.00  0.00     0.031 A 
ATOM     61  C   UNL A   1      42.879  24.928  28.486  1.00  0.00     0.031 A 
ATOM     62  C   UNL A   1      44.823  30.438  31.408  1.00  0.00     0.049 A 
ATOM     63  C   UNL A   1      44.201  25.396  29.035  1.00  0.00     0.074 A 
ATOM     64  C   UNL A   1      46.066  30.725  31.941  1.00  0.00     0.029 A 
ATOM     65  N   UNL A   1      44.900  29.163  30.868  1.00  0.00    -0.354 N 
ATOM     66  N   UNL A   1      44.494  26.532  29.622  1.00  0.00    -0.248 NA
ATOM     67  C   UNL A   1      45.335  24.468  28.921  1.00  0.00     0.031 C 
ATOM     68  C   UNL A   1      46.912  29.644  31.674  1.00  0.00     0.029 A 
ATOM     69  C   UNL A   1      46.175  28.656  31.039  1.00  0.00     0.049 A 
ATOM     70  H   UNL A   1      44.157  28.690  30.428  1.00  0.00     0.167 HD
ATOM     71  C   UNL A   1      45.833  26.438  29.984  1.00  0.00     0.074 A 
ATOM     72  C   UNL A   1      46.292  25.133  29.553  1.00  0.00     0.031 C 
ATOM     73  C   UNL A   1      46.611  27.346  30.623  1.00  0.00     0.031 A 
BRANCH  60  74
ATOM     74  C   UNL A   1      43.735  32.654  31.969  1.00  0.00    -0.014 A 
ATOM     75  C   UNL A   1      43.563  32.884  33.347  1.00  0.00     0.010 A 
ATOM     76  C   UNL A   1      44.031  33.742  31.127  1.00  0.00     0.010 A 
ATOM     77  C   UNL A   1      43.639  34.180  33.864  1.00  0.00     0.020 A 
ATOM     78  C   UNL A   1      44.142  35.035  31.646  1.00  0.00     0.020 A 
ATOM     79  C   UNL A   1      43.928  35.248  33.009  1.00  0.00     0.054 A 
BRANCH  79  80
ATOM     80  S   UNL A   1      44.046  36.914  33.714  1.00  0.00     0.124 S 
ATOM     81  O   UNL A   1      43.226  37.691  32.787  1.00  0.00    -0.237 OA
ATOM     82  O   UNL A   1      43.483  36.736  35.050  1.00  0.00    -0.237 OA
ATOM     83  O   UNL A   1      45.476  37.208  33.676  1.00  0.00    -0.744 OA
ENDBRANCH  79  80
ENDBRANCH  60  74
BRANCH  61  84
ATOM     84  C   UNL A   1      42.751  23.587  27.848  1.00  0.00    -0.014 A 
ATOM     85  C   UNL A   1      42.951  23.433  26.465  1.00  0.00     0.010 A 
ATOM     86  C   UNL A   1      42.429  22.454  28.620  1.00  0.00     0.010 A 
ATOM     87  C   UNL A   1      42.808  22.180  25.861  1.00  0.00     0.020 A 
ATOM     88  C   UNL A   1      42.317  21.194  28.025  1.00  0.00     0.020 A 
ATOM     89  C   UNL A   1      42.494  21.067  26.646  1.00  0.00     0.054 A 
BRANCH  89  90
ATOM     90  S   UNL A   1      42.355  19.445  25.845  1.00  0.00     0.124 S 
ATOM     91  O   UNL A   1      43.404  19.515  24.834  1.00  0.00    -0.237 OA
ATOM     92  O   UNL A   1      42.603  18.526  26.953  1.00  0.00    -0.237 OA
ATOM     93  O   UNL A   1      40.987  19.434  25.331  1.00  0.00    -0.744 OA
ENDBRANCH  89  90
ENDBRANCH  61  84
BRANCH  73  94
ATOM     94  C   UNL A   1      48.022  26.948  30.965  1.00  0.00    -0.014 A 
ATOM     95  C   UNL A   1      49.101  27.248  30.116  1.00  0.00     0.010 A 
ATOM     96  C   UNL A   1      48.277  26.338  32.208  1.00  0.00     0.010 A 
ATOM     97  C   UNL A   1      50.408  26.927  30.496  1.00  0.00     0.020 A 
ATOM     98  C   UNL A   1      49.583  26.044  32.604  1.00  0.00     0.020 A 
ATOM     99  C   UNL A   1      50.640  26.333  31.741  1.00  0.00     0.054 A 
BRANCH  99 100
ATOM    100  S   UNL A   1      52.350  25.991  32.239  1.00  0.00     0.124 S 
ATOM    101  O   UNL A   1      52.426  26.646  33.542  1.00  0.00    -0.237 OA
ATOM    102  O   UNL A   1      52.387  24.530  32.268  1.00  0.00    -0.237 OA
ATOM    103  O   UNL A   1      53.150  26.608  31.184  1.00  0.00    -0.744 OA
ENDBRANCH  99 100
ENDBRANCH  73  94
ENDBRANCH  47  48
ENDBRANCH  39  42
ENDBRANCH  37  38
ENDBRANCH  36  37
ENDBRANCH   1  36
TORSDOF 19
ENDMDL
MODEL 2
REMARK VINA RESULT:      -9.8      2.842      3.724
REMARK SMILES COc1cccc([C@H]2CC(c3ccc(S(C)(=O)=O)cc3)=NN2c2ccc(C(=O)NCCCCNC(=O)c3ccc(-c4c5nc(c(-c6ccc(S(=O)(=O)[O-])cc6)c6ccc([nH]6)c(-c6ccc(S(=O)(=O)[O-])cc6)c6nc(c(-c7ccc(S(=O)(=O)[O-])cc7)c7ccc4[nH]7)C=C6)C=C5)cc3)cc2)c1
REMARK SMILES IDX 31 1 30 2 29 3 27 4 28 5 26 7 23 8 24 9 98 10 25 11 97 12
REMARK SMILES IDX 22 13 8 14 9 15 10 16 21 17 7 18 3 19 4 20 99 21 5 22 6 23
REMARK SMILES IDX 2 24 1 25 11 26 12 27 20 28 13 29 19 30 14 31 15 32 16 33
REMARK SMILES IDX 17 34 18 35 32 36 33 37 34 38 35 39 36 41 37 42 38 43 96 44
REMARK SMILES IDX 39 45 95 46 40 47 41 48 42 49 89 50 43 51 94 52 88 53 90 54
REMARK SMILES IDX 44 55 93 56 87 57 86 58 45 60 75 61 56 62 74 63 57 64 60 65
REMARK SMILES IDX 73 66 91 67 58 68 59 69 72 71 92 72 61 73 46 74 47 75 55 76
REMARK SMILES IDX 48 77 54 78 49 79 50 80 51 81 52 82 53 83 76 84 77 85 85 86
REMARK SMILES IDX 78 87 84 88 79 89 80 90 81 91 82 92 83 93 62 94 63 95 71 96
REMARK SMILES IDX 64 97 70 98 65 99 66 100 67 101 68 102 69 103
REMARK H PARENT 29 6 34 40 90 59 60 70
REMARK Flexibility Score: inf
ROOT
ATOM      1  C   UNL A   1      34.406  33.266  28.834  1.00  0.00     0.023 C 
ENDROOT
BRANCH   1   2
ATOM      2  C   UNL A   1      34.404  34.593  29.597  1.00  0.00     0.116 C 
BRANCH   2   3
ATOM      3  N   UNL A   1      33.704  34.445  30.856  1.00  0.00    -0.352 N 
ATOM      4  C   UNL A   1      34.137  34.087  32.106  1.00  0.00     0.251 C 
ATOM      5  O   UNL A   1      33.300  34.040  33.008  1.00  0.00    -0.269 OA
ATOM      6  H   UNL A   1      32.740  34.637  30.803  1.00  0.00     0.163 HD
BRANCH   4   7
ATOM      7  C   UNL A   1      35.568  33.820  32.429  1.00  0.00     0.039 A 
ATOM      8  C   UNL A   1      38.196  33.129  33.202  1.00  0.00     0.060 A 
ATOM      9  C   UNL A   1      37.256  32.138  32.904  1.00  0.00     0.029 A 
ATOM     10  C   UNL A   1      37.830  34.463  33.034  1.00  0.00     0.029 A 
ATOM     11  C   UNL A   1      35.950  32.477  32.543  1.00  0.00     0.016 A 
ATOM     12  C   UNL A   1      36.544  34.802  32.610  1.00  0.00     0.016 A 
BRANCH   8  13
ATOM     13  N   UNL A   1      39.453  32.783  33.657  1.00  0.00    -0.257 N 
ATOM     14  C   UNL A   1      40.182  33.519  34.687  1.00  0.00     0.144 C 
ATOM     15  C   UNL A   1      41.556  32.834  34.670  1.00  0.00     0.091 C 
ATOM     16  C   UNL A   1      41.340  31.841  33.560  1.00  0.00     0.071 C 
ATOM     17  N   UNL A   1      40.170  31.840  33.008  1.00  0.00    -0.176 NA
BRANCH  14  18
ATOM     18  C   UNL A   1      39.470  33.425  36.026  1.00  0.00    -0.019 A 
ATOM     19  C   UNL A   1      38.087  32.184  37.608  1.00  0.00     0.119 A 
ATOM     20  C   UNL A   1      38.015  33.313  38.423  1.00  0.00     0.046 A 
ATOM     21  C   UNL A   1      38.797  32.248  36.408  1.00  0.00     0.052 A 
ATOM     22  C   UNL A   1      38.677  34.486  38.063  1.00  0.00     0.004 A 
ATOM     23  C   UNL A   1      39.405  34.542  36.873  1.00  0.00     0.006 A 
BRANCH  19  24
ATOM     24  O   UNL A   1      37.382  31.095  38.042  1.00  0.00    -0.497 OA
ATOM     25  C   UNL A   1      37.025  31.113  39.419  1.00  0.00     0.278 C 
ENDBRANCH  19  24
ENDBRANCH  14  18
BRANCH  16  26
ATOM     26  C   UNL A   1      42.406  30.946  33.113  1.00  0.00    -0.002 A 
ATOM     27  C   UNL A   1      42.124  29.584  32.972  1.00  0.00     0.011 A 
ATOM     28  C   UNL A   1      43.695  31.443  32.909  1.00  0.00     0.011 A 
ATOM     29  C   UNL A   1      43.141  28.705  32.606  1.00  0.00     0.021 A 
ATOM     30  C   UNL A   1      44.720  30.559  32.569  1.00  0.00     0.021 A 
ATOM     31  C   UNL A   1      44.438  29.196  32.423  1.00  0.00     0.067 A 
BRANCH  31  32
ATOM     32  S   UNL A   1      45.737  28.063  31.991  1.00  0.00     0.175 S 
ATOM     33  C   UNL A   1      47.099  29.109  31.545  1.00  0.00     0.163 C 
ATOM     34  O   UNL A   1      46.083  27.344  33.199  1.00  0.00    -0.224 OA
ATOM     35  O   UNL A   1      45.320  27.356  30.793  1.00  0.00    -0.224 OA
ENDBRANCH  31  32
ENDBRANCH  16  26
ENDBRANCH   8  13
ENDBRANCH   4   7
ENDBRANCH   2   3
ENDBRANCH   1   2
BRANCH   1  36
ATOM     36  C   UNL A   1      35.667  33.039  28.001  1.00  0.00     0.023 C 
BRANCH  36  37
ATOM     37  C   UNL A   1      36.224  31.626  28.081  1.00  0.00     0.116 C 
BRANCH  37  38
ATOM     38  N   UNL A   1      35.684  30.857  29.195  1.00  0.00    -0.352 N 
ATOM     39  C   UNL A   1      36.349  29.947  29.982  1.00  0.00     0.251 C 
ATOM     40  H   UNL A   1      34.734  31.006  29.407  1.00  0.00     0.163 HD
ATOM     41  O   UNL A   1      35.752  29.277  30.815  1.00  0.00    -0.269 OA
BRANCH  39  42
ATOM     42  C   UNL A   1      37.798  29.773  29.762  1.00  0.00     0.039 A 
ATOM     43  C   UNL A   1      38.607  29.380  30.828  1.00  0.00     0.014 A 
ATOM     44  C   UNL A   1      38.319  29.897  28.472  1.00  0.00     0.014 A 
ATOM     45  C   UNL A   1      39.940  29.042  30.584  1.00  0.00     0.010 A 
ATOM     46  C   UNL A   1      39.618  29.481  28.220  1.00  0.00     0.010 A 
ATOM     47  C   UNL A   1      40.443  29.053  29.273  1.00  0.00    -0.014 A 
BRANCH  47  48
ATOM     48  C   UNL A   1      41.837  28.646  28.962  1.00  0.00     0.031 A 
ATOM     49  C   UNL A   1      42.927  29.683  28.984  1.00  0.00     0.074 A 
ATOM     50  C   UNL A   1      42.106  27.384  28.573  1.00  0.00     0.049 A 
ATOM     51  N   UNL A   1      44.174  29.579  28.607  1.00  0.00    -0.248 NA
ATOM     52  C   UNL A   1      42.553  31.025  29.464  1.00  0.00     0.031 C 
ATOM     53  C   UNL A   1      41.132  26.293  28.489  1.00  0.00     0.029 A 
ATOM     54  N   UNL A   1      43.282  26.810  28.158  1.00  0.00    -0.354 N 
ATOM     55  C   UNL A   1      44.724  30.844  28.778  1.00  0.00     0.074 A 
ATOM     56  C   UNL A   1      43.665  31.710  29.241  1.00  0.00     0.031 C 
ATOM     57  C   UNL A   1      41.754  25.179  28.068  1.00  0.00     0.029 A 
ATOM     58  C   UNL A   1      43.156  25.487  27.802  1.00  0.00     0.049 A 
ATOM     59  H   UNL A   1      44.135  27.299  28.118  1.00  0.00     0.167 HD
ATOM     60  C   UNL A   1      46.003  31.243  28.586  1.00  0.00     0.031 A 
ATOM     61  C   UNL A   1      44.063  24.625  27.301  1.00  0.00     0.031 A 
ATOM     62  C   UNL A   1      47.056  30.372  28.137  1.00  0.00     0.049 A 
ATOM     63  C   UNL A   1      45.474  25.099  27.069  1.00  0.00     0.074 A 
ATOM     64  C   UNL A   1      48.395  30.668  27.953  1.00  0.00     0.029 A 
ATOM     65  N   UNL A   1      46.890  29.036  27.805  1.00  0.00    -0.354 N 
ATOM     66  N   UNL A   1      45.989  26.287  27.280  1.00  0.00    -0.248 NA
ATOM     67  C   UNL A   1      46.429  24.114  26.543  1.00  0.00     0.031 C 
ATOM     68  C   UNL A   1      49.027  29.524  27.456  1.00  0.00     0.029 A 
ATOM     69  C   UNL A   1      48.098  28.498  27.400  1.00  0.00     0.049 A 
ATOM     70  H   UNL A   1      46.038  28.544  27.850  1.00  0.00     0.167 HD
ATOM     71  C   UNL A   1      47.336  26.180  26.953  1.00  0.00     0.074 A 
ATOM     72  C   UNL A   1      47.557  24.811  26.533  1.00  0.00     0.031 C 
ATOM     73  C   UNL A   1      48.305  27.127  27.004  1.00  0.00     0.031 A 
BRANCH  60  74
ATOM     74  C   UNL A   1      46.330  32.689  28.853  1.00  0.00    -0.014 A 
ATOM     75  C   UNL A   1      46.262  33.653  27.831  1.00  0.00     0.010 A 
ATOM     76  C   UNL A   1      46.675  33.097  30.155  1.00  0.00     0.010 A 
ATOM     77  C   UNL A   1      46.577  34.988  28.093  1.00  0.00     0.020 A 
ATOM     78  C   UNL A   1      46.958  34.438  30.429  1.00  0.00     0.020 A 
ATOM     79  C   UNL A   1      46.923  35.372  29.392  1.00  0.00     0.054 A 
BRANCH  79  80
ATOM     80  S   UNL A   1      47.302  37.117  29.708  1.00  0.00     0.124 S 
ATOM     81  O   UNL A   1      47.384  37.656  28.352  1.00  0.00    -0.237 OA
ATOM     82  O   UNL A   1      46.150  37.558  30.490  1.00  0.00    -0.237 OA
ATOM     83  O   UNL A   1      48.567  37.072  30.437  1.00  0.00    -0.744 OA
ENDBRANCH  79  80
ENDBRANCH  60  74
BRANCH  61  84
ATOM     84  C   UNL A   1      43.671  23.220  26.993  1.00  0.00    -0.014 A 
ATOM     85  C   UNL A   1      42.988  22.445  27.947  1.00  0.00     0.010 A 
ATOM     86  C   UNL A   1      43.977  22.649  25.743  1.00  0.00     0.010 A 
ATOM     87  C   UNL A   1      42.640  21.120  27.668  1.00  0.00     0.020 A 
ATOM     88  C   UNL A   1      43.603  21.335  25.449  1.00  0.00     0.020 A 
ATOM     89  C   UNL A   1      42.948  20.573  26.419  1.00  0.00     0.054 A 
BRANCH  89  90
ATOM     90  S   UNL A   1      42.450  18.865  26.067  1.00  0.00     0.124 S 
ATOM     91  O   UNL A   1      41.043  19.025  25.715  1.00  0.00    -0.237 OA
ATOM     92  O   UNL A   1      43.339  18.498  24.968  1.00  0.00    -0.237 OA
ATOM     93  O   UNL A   1      42.706  18.167  27.325  1.00  0.00    -0.744 OA
ENDBRANCH  89  90
ENDBRANCH  61  84
BRANCH  73  94
ATOM     94  C   UNL A   1      49.713  26.712  26.666  1.00  0.00    -0.014 A 
ATOM     95  C   UNL A   1      50.601  26.244  27.648  1.00  0.00     0.010 A 
ATOM     96  C   UNL A   1      50.119  26.712  25.317  1.00  0.00     0.010 A 
ATOM     97  C   UNL A   1      51.878  25.800  27.290  1.00  0.00     0.020 A 
ATOM     98  C   UNL A   1      51.382  26.241  24.953  1.00  0.00     0.020 A 
ATOM     99  C   UNL A   1      52.257  25.796  25.944  1.00  0.00     0.054 A 
BRANCH  99 100
ATOM    100  S   UNL A   1      53.893  25.151  25.500  1.00  0.00     0.124 S 
ATOM    101  O   UNL A   1      54.443  24.788  26.802  1.00  0.00    -0.237 OA
ATOM    102  O   UNL A   1      53.565  24.029  24.622  1.00  0.00    -0.237 OA
ATOM    103  O   UNL A   1      54.545  26.280  24.841  1.00  0.00    -0.744 OA
ENDBRANCH  99 100
ENDBRANCH  73  94
ENDBRANCH  47  48
ENDBRANCH  39  42
ENDBRANCH  37  38
ENDBRANCH  36  37
ENDBRANCH   1  36
TORSDOF 19
ENDMDL
MODEL 3
REMARK VINA RESULT:      -9.7      3.750      9.100
REMARK SMILES COc1cccc([C@H]2CC(c3ccc(S(C)(=O)=O)cc3)=NN2c2ccc(C(=O)NCCCCNC(=O)c3ccc(-c4c5nc(c(-c6ccc(S(=O)(=O)[O-])cc6)c6ccc([nH]6)c(-c6ccc(S(=O)(=O)[O-])cc6)c6nc(c(-c7ccc(S(=O)(=O)[O-])cc7)c7ccc4[nH]7)C=C6)C=C5)cc3)cc2)c1
REMARK SMILES IDX 31 1 30 2 29 3 27 4 28 5 26 7 23 8 24 9 98 10 25 11 97 12
REMARK SMILES IDX 22 13 8 14 9 15 10 16 21 17 7 18 3 19 4 20 99 21 5 22 6 23
REMARK SMILES IDX 2 24 1 25 11 26 12 27 20 28 13 29 19 30 14 31 15 32 16 33
REMARK SMILES IDX 17 34 18 35 32 36 33 37 34 38 35 39 36 41 37 42 38 43 96 44
REMARK SMILES IDX 39 45 95 46 40 47 41 48 42 49 89 50 43 51 94 52 88 53 90 54
REMARK SMILES IDX 44 55 93 56 87 57 86 58 45 60 75 61 56 62 74 63 57 64 60 65
REMARK SMILES IDX 73 66 91 67 58 68 59 69 72 71 92 72 61 73 46 74 47 75 55 76
REMARK SMILES IDX 48 77 54 78 49 79 50 80 51 81 52 82 53 83 76 84 77 85 85 86
REMARK SMILES IDX 78 87 84 88 79 89 80 90 81 91 82 92 83 93 62 94 63 95 71 96
REMARK SMILES IDX 64 97 70 98 65 99 66 100 67 101 68 102 69 103
REMARK H PARENT 29 6 34 40 90 59 60 70
REMARK Flexibility Score: inf
ROOT
ATOM      1  C   UNL A   1      34.582  32.803  28.533  1.00  0.00     0.023 C 
ENDROOT
BRANCH   1   2
ATOM      2  C   UNL A   1      34.931  34.281  28.721  1.00  0.00     0.116 C 
BRANCH   2   3
ATOM      3  N   UNL A   1      33.858  34.965  29.413  1.00  0.00    -0.352 N 
ATOM      4  C   UNL A   1      33.533  35.047  30.742  1.00  0.00     0.251 C 
ATOM      5  O   UNL A   1      32.542  35.711  31.047  1.00  0.00    -0.269 OA
ATOM      6  H   UNL A   1      33.250  35.461  28.819  1.00  0.00     0.163 HD
BRANCH   4   7
ATOM      7  C   UNL A   1      34.355  34.431  31.823  1.00  0.00     0.039 A 
ATOM      8  C   UNL A   1      36.094  33.442  33.818  1.00  0.00     0.060 A 
ATOM      9  C   UNL A   1      35.887  34.817  33.669  1.00  0.00     0.029 A 
ATOM     10  C   UNL A   1      35.365  32.570  33.012  1.00  0.00     0.029 A 
ATOM     11  C   UNL A   1      35.045  35.309  32.670  1.00  0.00     0.016 A 
ATOM     12  C   UNL A   1      34.473  33.060  32.055  1.00  0.00     0.016 A 
BRANCH   8  13
ATOM     13  N   UNL A   1      37.006  32.971  34.741  1.00  0.00    -0.257 N 
ATOM     14  C   UNL A   1      38.006  31.945  34.453  1.00  0.00     0.144 C 
ATOM     15  C   UNL A   1      38.609  31.676  35.838  1.00  0.00     0.091 C 
ATOM     16  C   UNL A   1      37.767  32.601  36.674  1.00  0.00     0.071 C 
ATOM     17  N   UNL A   1      36.879  33.299  36.045  1.00  0.00    -0.176 NA
BRANCH  14  18
ATOM     18  C   UNL A   1      39.018  32.446  33.435  1.00  0.00    -0.019 A 
ATOM     19  C   UNL A   1      40.823  33.965  32.812  1.00  0.00     0.119 A 
ATOM     20  C   UNL A   1      40.769  33.486  31.504  1.00  0.00     0.046 A 
ATOM     21  C   UNL A   1      39.939  33.459  33.766  1.00  0.00     0.052 A 
ATOM     22  C   UNL A   1      39.866  32.482  31.158  1.00  0.00     0.004 A 
ATOM     23  C   UNL A   1      38.997  31.960  32.119  1.00  0.00     0.006 A 
BRANCH  19  24
ATOM     24  O   UNL A   1      41.727  34.967  33.039  1.00  0.00    -0.497 OA
ATOM     25  C   UNL A   1      42.674  35.176  31.998  1.00  0.00     0.278 C 
ENDBRANCH  19  24
ENDBRANCH  14  18
BRANCH  16  26
ATOM     26  C   UNL A   1      37.927  32.683  38.126  1.00  0.00    -0.002 A 
ATOM     27  C   UNL A   1      37.031  31.983  38.940  1.00  0.00     0.011 A 
ATOM     28  C   UNL A   1      38.911  33.507  38.675  1.00  0.00     0.011 A 
ATOM     29  C   UNL A   1      37.127  32.096  40.325  1.00  0.00     0.021 A 
ATOM     30  C   UNL A   1      38.992  33.642  40.061  1.00  0.00     0.021 A 
ATOM     31  C   UNL A   1      38.097  32.939  40.877  1.00  0.00     0.067 A 
BRANCH  31  32
ATOM     32  S   UNL A   1      38.193  33.106  42.644  1.00  0.00     0.175 S 
ATOM     33  C   UNL A   1      37.780  34.805  42.947  1.00  0.00     0.163 C 
ATOM     34  O   UNL A   1      37.148  32.271  43.199  1.00  0.00    -0.224 OA
ATOM     35  O   UNL A   1      39.581  32.919  43.027  1.00  0.00    -0.224 OA
ENDBRANCH  31  32
ENDBRANCH  16  26
ENDBRANCH   8  13
ENDBRANCH   4   7
ENDBRANCH   2   3
ENDBRANCH   1   2
BRANCH   1  36
ATOM     36  C   UNL A   1      35.666  32.003  27.813  1.00  0.00     0.023 C 
BRANCH  36  37
ATOM     37  C   UNL A   1      35.737  30.539  28.217  1.00  0.00     0.116 C 
BRANCH  37  38
ATOM     38  N   UNL A   1      35.643  30.335  29.657  1.00  0.00    -0.352 N 
ATOM     39  C   UNL A   1      36.561  29.719  30.474  1.00  0.00     0.251 C 
ATOM     40  H   UNL A   1      34.829  30.676  30.094  1.00  0.00     0.163 HD
ATOM     41  O   UNL A   1      36.313  29.505  31.655  1.00  0.00    -0.269 OA
BRANCH  39  42
ATOM     42  C   UNL A   1      37.838  29.286  29.875  1.00  0.00     0.039 A 
ATOM     43  C   UNL A   1      38.058  29.496  28.513  1.00  0.00     0.014 A 
ATOM     44  C   UNL A   1      38.847  28.776  30.695  1.00  0.00     0.014 A 
ATOM     45  C   UNL A   1      39.326  29.254  27.981  1.00  0.00     0.010 A 
ATOM     46  C   UNL A   1      40.126  28.616  30.181  1.00  0.00     0.010 A 
ATOM     47  C   UNL A   1      40.379  28.850  28.820  1.00  0.00    -0.014 A 
BRANCH  47  48
ATOM     48  C   UNL A   1      41.755  28.637  28.307  1.00  0.00     0.031 A 
ATOM     49  C   UNL A   1      42.176  27.254  27.886  1.00  0.00     0.074 A 
ATOM     50  C   UNL A   1      42.645  29.648  28.308  1.00  0.00     0.049 A 
ATOM     51  N   UNL A   1      43.362  26.818  27.551  1.00  0.00    -0.248 NA
ATOM     52  C   UNL A   1      41.129  26.218  27.875  1.00  0.00     0.031 C 
ATOM     53  C   UNL A   1      42.365  31.028  28.713  1.00  0.00     0.029 A 
ATOM     54  N   UNL A   1      43.976  29.667  27.969  1.00  0.00    -0.354 N 
ATOM     55  C   UNL A   1      43.208  25.457  27.315  1.00  0.00     0.074 A 
ATOM     56  C   UNL A   1      41.830  25.130  27.597  1.00  0.00     0.031 C 
ATOM     57  C   UNL A   1      43.484  31.761  28.581  1.00  0.00     0.029 A 
ATOM     58  C   UNL A   1      44.572  30.896  28.134  1.00  0.00     0.049 A 
ATOM     59  H   UNL A   1      44.458  28.875  27.639  1.00  0.00     0.167 HD
ATOM     60  C   UNL A   1      44.129  24.564  26.883  1.00  0.00     0.031 A 
ATOM     61  C   UNL A   1      45.853  31.278  27.963  1.00  0.00     0.031 A 
ATOM     62  C   UNL A   1      45.496  24.900  26.590  1.00  0.00     0.049 A 
ATOM     63  C   UNL A   1      46.866  30.260  27.508  1.00  0.00     0.074 A 
ATOM     64  C   UNL A   1      46.497  24.078  26.105  1.00  0.00     0.029 A 
ATOM     65  N   UNL A   1      46.054  26.160  26.755  1.00  0.00    -0.354 N 
ATOM     66  N   UNL A   1      46.693  28.987  27.245  1.00  0.00    -0.248 NA
ATOM     67  C   UNL A   1      48.244  30.733  27.314  1.00  0.00     0.031 C 
ATOM     68  C   UNL A   1      47.675  24.828  26.028  1.00  0.00     0.029 A 
ATOM     69  C   UNL A   1      47.390  26.133  26.397  1.00  0.00     0.049 A 
ATOM     70  H   UNL A   1      45.571  26.954  27.079  1.00  0.00     0.167 HD
ATOM     71  C   UNL A   1      47.930  28.517  26.814  1.00  0.00     0.074 A 
ATOM     72  C   UNL A   1      48.840  29.644  26.850  1.00  0.00     0.031 C 
ATOM     73  C   UNL A   1      48.278  27.268  26.418  1.00  0.00     0.031 A 
BRANCH  60  74
ATOM     74  C   UNL A   1      43.685  23.136  26.708  1.00  0.00    -0.014 A 
ATOM     75  C   UNL A   1      43.046  22.438  27.749  1.00  0.00     0.010 A 
ATOM     76  C   UNL A   1      43.878  22.492  25.472  1.00  0.00     0.010 A 
ATOM     77  C   UNL A   1      42.649  21.110  27.574  1.00  0.00     0.020 A 
ATOM     78  C   UNL A   1      43.451  21.174  25.281  1.00  0.00     0.020 A 
ATOM     79  C   UNL A   1      42.855  20.487  26.339  1.00  0.00     0.054 A 
BRANCH  79  80
ATOM     80  S   UNL A   1      42.306  18.771  26.134  1.00  0.00     0.124 S 
ATOM     81  O   UNL A   1      43.185  18.300  25.065  1.00  0.00    -0.237 OA
ATOM     82  O   UNL A   1      42.558  18.195  27.452  1.00  0.00    -0.237 OA
ATOM     83  O   UNL A   1      40.898  18.897  25.770  1.00  0.00    -0.744 OA
ENDBRANCH  79  80
ENDBRANCH  60  74
BRANCH  61  84
ATOM     84  C   UNL A   1      46.252  32.692  28.212  1.00  0.00    -0.014 A 
ATOM     85  C   UNL A   1      46.699  33.094  29.483  1.00  0.00     0.010 A 
ATOM     86  C   UNL A   1      46.191  33.646  27.178  1.00  0.00     0.010 A 
ATOM     87  C   UNL A   1      47.053  34.425  29.724  1.00  0.00     0.020 A 
ATOM     88  C   UNL A   1      46.574  34.971  27.407  1.00  0.00     0.020 A 
ATOM     89  C   UNL A   1      46.990  35.355  28.683  1.00  0.00     0.054 A 
BRANCH  89  90
ATOM     90  S   UNL A   1      47.493  37.067  29.011  1.00  0.00     0.124 S 
ATOM     91  O   UNL A   1      47.454  37.656  27.677  1.00  0.00    -0.237 OA
ATOM     92  O   UNL A   1      46.460  37.526  29.937  1.00  0.00    -0.237 OA
ATOM     93  O   UNL A   1      48.824  36.927  29.597  1.00  0.00    -0.744 OA
ENDBRANCH  89  90
ENDBRANCH  61  84
BRANCH  73  94
ATOM     94  C   UNL A   1      49.683  27.054  25.920  1.00  0.00    -0.014 A 
ATOM     95  C   UNL A   1      50.691  26.541  26.753  1.00  0.00     0.010 A 
ATOM     96  C   UNL A   1      49.970  27.292  24.562  1.00  0.00     0.010 A 
ATOM     97  C   UNL A   1      51.968  26.287  26.240  1.00  0.00     0.020 A 
ATOM     98  C   UNL A   1      51.234  27.012  24.040  1.00  0.00     0.020 A 
ATOM     99  C   UNL A   1      52.228  26.519  24.886  1.00  0.00     0.054 A 
BRANCH  99 100
ATOM    100  S   UNL A   1      53.871  26.116  24.231  1.00  0.00     0.124 S 
ATOM    101  O   UNL A   1      54.681  27.219  24.739  1.00  0.00    -0.237 OA
ATOM    102  O   UNL A   1      54.141  24.811  24.830  1.00  0.00    -0.237 OA
ATOM    103  O   UNL A   1      53.675  26.102  22.784  1.00  0.00    -0.744 OA
ENDBRANCH  99 100
ENDBRANCH  73  94
ENDBRANCH  47  48
ENDBRANCH  39  42
ENDBRANCH  37  38
ENDBRANCH  36  37
ENDBRANCH   1  36
TORSDOF 19
ENDMDL
