MODEL 1
REMARK VINA RESULT:     -12.9      0.000      0.000
REMARK SMILES O=C(NCCCCNC(=O)c1ccc(-c2c3nc(c(-c4ccc(S(=O)(=O)[O-])cc4)c4ccc([nH]4)c(-c4ccc(S(=O)(=O)[O-])cc4)c4nc(c(-c5ccc(S(=O)(=O)[O-])cc5)c5ccc2[nH]5)C=C4)C=C3)cc1)C1=Cc2cc(S(F)(F)(F)(F)F)ccc2O[C@@H]1C(F)(F)F
REMARK SMILES IDX 6 1 5 2 4 3 3 4 1 5 2 6 71 8 72 9 86 10 73 11 85 12 74 13
REMARK SMILES IDX 84 14 75 15 83 16 82 17 87 18 88 19 89 20 90 21 76 22 77 23
REMARK SMILES IDX 78 24 79 25 80 26 81 27 7 28 8 29 9 30 10 32 11 33 12 34
REMARK SMILES IDX 70 35 13 36 69 37 14 38 15 39 16 40 63 41 17 42 68 43 62 44
REMARK SMILES IDX 64 45 18 46 67 47 61 48 60 49 19 51 49 52 30 53 48 54 31 55
REMARK SMILES IDX 34 56 47 57 65 58 32 59 33 60 46 62 66 63 35 64 20 65 21 66
REMARK SMILES IDX 29 67 22 68 28 69 23 70 24 71 25 72 26 73 27 74 50 75 51 76
REMARK SMILES IDX 59 77 52 78 58 79 53 80 54 81 55 82 56 83 57 84 36 85 37 86
REMARK SMILES IDX 45 87 38 88 44 89 39 90 40 91 41 92 42 93 43 94
REMARK H PARENT 3 7 8 31 64 50 34 61
REMARK Flexibility Score: inf
ROOT
ATOM      1  C   UNL A   1      32.981  27.437  26.359  1.00  0.00     0.023 C 
ENDROOT
BRANCH   1   2
ATOM      2  C   UNL A   1      33.502  26.733  25.117  1.00  0.00     0.023 C 
BRANCH   2   3
ATOM      3  C   UNL A   1      33.863  25.298  25.460  1.00  0.00     0.116 C 
BRANCH   3   4
ATOM      4  N   UNL A   1      34.318  24.604  24.247  1.00  0.00    -0.352 N 
ATOM      5  O   UNL A   1      33.938  22.872  22.666  1.00  0.00    -0.270 OA
ATOM      6  C   UNL A   1      33.545  23.472  23.715  1.00  0.00     0.251 C 
ATOM      7  H   UNL A   1      35.139  24.896  23.790  1.00  0.00     0.163 HD
BRANCH   6   8
ATOM      8  C   UNL A   1      32.276  23.019  24.420  1.00  0.00     0.067 C 
ATOM      9  C   UNL A   1      32.161  21.735  24.853  1.00  0.00     0.025 C 
ATOM     10  C   UNL A   1      31.137  24.001  24.641  1.00  0.00     0.314 C 
ATOM     11  C   UNL A   1      33.301  20.753  24.633  1.00  0.00     0.019 A 
ATOM     12  O   UNL A   1      34.868  22.479  25.094  1.00  0.00    -0.475 OA
ATOM     13  C   UNL A   1      32.981  19.456  24.269  1.00  0.00     0.036 A 
ATOM     14  C   UNL A   1      34.554  21.110  24.881  1.00  0.00     0.128 A 
ATOM     15  C   UNL A   1      34.029  18.528  24.476  1.00  0.00     0.107 A 
ATOM     16  C   UNL A   1      35.553  20.167  24.935  1.00  0.00     0.048 A 
ATOM     17  C   UNL A   1      35.297  18.856  24.645  1.00  0.00     0.028 A 
BRANCH  10  18
ATOM     18  C   UNL A   1      30.869  24.139  26.131  1.00  0.00     0.429 C 
ATOM     19  F   UNL A   1      30.394  25.356  26.386  1.00  0.00    -0.167 F 
ATOM     20  F   UNL A   1      29.977  23.227  26.507  1.00  0.00    -0.167 F 
ATOM     21  F   UNL A   1      32.001  23.955  26.803  1.00  0.00    -0.167 F 
ENDBRANCH  10  18
BRANCH  15  22
ATOM     22  S   UNL A   1      33.602  16.770  24.512  1.00  0.00     0.310 S 
ATOM     23  F   UNL A   1      35.076  16.357  24.928  1.00  0.00    -0.094 F 
ATOM     24  F   UNL A   1      34.068  16.658  23.011  1.00  0.00    -0.094 F 
ATOM     25  F   UNL A   1      33.238  15.258  24.541  1.00  0.00    -0.094 F 
ATOM     26  F   UNL A   1      33.272  16.870  26.054  1.00  0.00    -0.094 F 
ATOM     27  F   UNL A   1      34.074  18.278  24.529  1.00  0.00    -0.094 F 
ENDBRANCH  15  22
ENDBRANCH   6   8
ENDBRANCH   3   4
ENDBRANCH   2   3
ENDBRANCH   1   2
BRANCH   1  28
ATOM     28  C   UNL A   1      34.074  28.321  26.937  1.00  0.00     0.116 C 
BRANCH  28  29
ATOM     29  N   UNL A   1      33.490  29.596  27.377  1.00  0.00    -0.352 N 
ATOM     30  C   UNL A   1      34.324  30.585  28.074  1.00  0.00     0.251 C 
ATOM     31  H   UNL A   1      32.539  29.788  27.205  1.00  0.00     0.163 HD
ATOM     32  O   UNL A   1      33.820  31.688  28.454  1.00  0.00    -0.269 OA
BRANCH  30  33
ATOM     33  C   UNL A   1      35.792  30.290  28.339  1.00  0.00     0.039 A 
ATOM     34  C   UNL A   1      36.733  30.422  27.332  1.00  0.00     0.014 A 
ATOM     35  C   UNL A   1      36.122  29.810  29.532  1.00  0.00     0.014 A 
ATOM     36  C   UNL A   1      37.948  29.746  27.591  1.00  0.00     0.010 A 
ATOM     37  C   UNL A   1      37.374  29.287  29.753  1.00  0.00     0.010 A 
ATOM     38  C   UNL A   1      38.336  29.331  28.783  1.00  0.00    -0.014 A 
BRANCH  38  39
ATOM     39  C   UNL A   1      39.773  28.922  29.061  1.00  0.00     0.031 A 
ATOM     40  C   UNL A   1      40.541  29.850  29.766  1.00  0.00     0.074 A 
ATOM     41  C   UNL A   1      40.209  27.652  28.726  1.00  0.00     0.049 A 
ATOM     42  N   UNL A   1      41.770  29.683  30.258  1.00  0.00    -0.248 NA
ATOM     43  C   UNL A   1      40.093  31.211  30.094  1.00  0.00     0.031 C 
ATOM     44  C   UNL A   1      39.438  26.706  28.022  1.00  0.00     0.029 A 
ATOM     45  N   UNL A   1      41.431  27.078  28.998  1.00  0.00    -0.354 N 
ATOM     46  C   UNL A   1      42.168  30.790  30.888  1.00  0.00     0.074 A 
ATOM     47  C   UNL A   1      41.097  31.791  30.786  1.00  0.00     0.031 C 
ATOM     48  C   UNL A   1      40.187  25.584  27.862  1.00  0.00     0.029 A 
ATOM     49  C   UNL A   1      41.440  25.808  28.465  1.00  0.00     0.049 A 
ATOM     50  H   UNL A   1      42.171  27.502  29.490  1.00  0.00     0.167 HD
ATOM     51  C   UNL A   1      43.381  31.002  31.545  1.00  0.00     0.031 A 
ATOM     52  C   UNL A   1      42.472  24.884  28.488  1.00  0.00     0.031 A 
ATOM     53  C   UNL A   1      44.398  30.062  31.607  1.00  0.00     0.049 A 
ATOM     54  C   UNL A   1      43.708  25.118  29.095  1.00  0.00     0.074 A 
ATOM     55  C   UNL A   1      45.623  30.258  32.272  1.00  0.00     0.029 A 
ATOM     56  N   UNL A   1      44.415  28.802  31.051  1.00  0.00    -0.354 N 
ATOM     57  N   UNL A   1      44.091  26.210  29.760  1.00  0.00    -0.248 NA
ATOM     58  C   UNL A   1      44.821  24.160  29.100  1.00  0.00     0.031 C 
ATOM     59  C   UNL A   1      46.373  29.135  32.112  1.00  0.00     0.029 A 
ATOM     60  C   UNL A   1      45.628  28.220  31.344  1.00  0.00     0.049 A 
ATOM     61  H   UNL A   1      43.686  28.388  30.535  1.00  0.00     0.167 HD
ATOM     62  C   UNL A   1      45.337  26.058  30.215  1.00  0.00     0.074 A 
ATOM     63  C   UNL A   1      45.826  24.739  29.790  1.00  0.00     0.031 C 
ATOM     64  C   UNL A   1      46.082  26.965  30.970  1.00  0.00     0.031 A 
BRANCH  51  65
ATOM     65  C   UNL A   1      43.599  32.341  32.231  1.00  0.00    -0.014 A 
ATOM     66  C   UNL A   1      44.159  33.327  31.435  1.00  0.00     0.010 A 
ATOM     67  C   UNL A   1      43.217  32.597  33.476  1.00  0.00     0.010 A 
ATOM     68  C   UNL A   1      44.543  34.489  32.145  1.00  0.00     0.020 A 
ATOM     69  C   UNL A   1      43.507  33.806  34.063  1.00  0.00     0.020 A 
ATOM     70  C   UNL A   1      44.112  34.805  33.352  1.00  0.00     0.054 A 
BRANCH  70  71
ATOM     71  S   UNL A   1      44.313  36.471  34.031  1.00  0.00     0.124 S 
ATOM     72  O   UNL A   1      43.060  37.299  33.730  1.00  0.00    -0.237 OA
ATOM     73  O   UNL A   1      44.514  36.384  35.545  1.00  0.00    -0.237 OA
ATOM     74  O   UNL A   1      45.675  37.217  33.317  1.00  0.00    -0.744 OA
ENDBRANCH  70  71
ENDBRANCH  51  65
BRANCH  52  75
ATOM     75  C   UNL A   1      42.247  23.540  27.816  1.00  0.00    -0.014 A 
ATOM     76  C   UNL A   1      41.518  22.549  28.451  1.00  0.00     0.010 A 
ATOM     77  C   UNL A   1      42.864  23.310  26.663  1.00  0.00     0.010 A 
ATOM     78  C   UNL A   1      41.738  21.251  27.930  1.00  0.00     0.020 A 
ATOM     79  C   UNL A   1      42.925  22.038  26.143  1.00  0.00     0.020 A 
ATOM     80  C   UNL A   1      42.276  20.999  26.751  1.00  0.00     0.054 A 
BRANCH  80  81
ATOM     81  S   UNL A   1      42.160  19.366  25.979  1.00  0.00     0.124 S 
ATOM     82  O   UNL A   1      42.632  18.300  26.970  1.00  0.00    -0.237 OA
ATOM     83  O   UNL A   1      40.707  19.089  25.586  1.00  0.00    -0.237 OA
ATOM     84  O   UNL A   1      43.148  19.324  24.583  1.00  0.00    -0.744 OA
ENDBRANCH  80  81
ENDBRANCH  52  75
BRANCH  64  85
ATOM     85  C   UNL A   1      47.477  26.549  31.411  1.00  0.00    -0.014 A 
ATOM     86  C   UNL A   1      48.566  26.717  30.572  1.00  0.00     0.010 A 
ATOM     87  C   UNL A   1      47.585  25.888  32.557  1.00  0.00     0.010 A 
ATOM     88  C   UNL A   1      49.671  25.894  30.896  1.00  0.00     0.020 A 
ATOM     89  C   UNL A   1      48.743  25.219  32.872  1.00  0.00     0.020 A 
ATOM     90  C   UNL A   1      49.840  25.291  32.060  1.00  0.00     0.054 A 
BRANCH  90  91
ATOM     91  S   UNL A   1      51.439  24.600  32.552  1.00  0.00     0.124 S 
ATOM     92  O   UNL A   1      52.546  25.212  31.690  1.00  0.00    -0.237 OA
ATOM     93  O   UNL A   1      51.703  24.921  34.025  1.00  0.00    -0.237 OA
ATOM     94  O   UNL A   1      51.418  22.904  32.332  1.00  0.00    -0.744 OA
ENDBRANCH  90  91
ENDBRANCH  64  85
ENDBRANCH  38  39
ENDBRANCH  30  33
ENDBRANCH  28  29
ENDBRANCH   1  28
TORSDOF 16
ENDMDL
MODEL 2
REMARK VINA RESULT:     -12.8      2.229      2.896
REMARK SMILES O=C(NCCCCNC(=O)c1ccc(-c2c3nc(c(-c4ccc(S(=O)(=O)[O-])cc4)c4ccc([nH]4)c(-c4ccc(S(=O)(=O)[O-])cc4)c4nc(c(-c5ccc(S(=O)(=O)[O-])cc5)c5ccc2[nH]5)C=C4)C=C3)cc1)C1=Cc2cc(S(F)(F)(F)(F)F)ccc2O[C@@H]1C(F)(F)F
REMARK SMILES IDX 6 1 5 2 4 3 3 4 1 5 2 6 71 8 72 9 86 10 73 11 85 12 74 13
REMARK SMILES IDX 84 14 75 15 83 16 82 17 87 18 88 19 89 20 90 21 76 22 77 23
REMARK SMILES IDX 78 24 79 25 80 26 81 27 7 28 8 29 9 30 10 32 11 33 12 34
REMARK SMILES IDX 70 35 13 36 69 37 14 38 15 39 16 40 63 41 17 42 68 43 62 44
REMARK SMILES IDX 64 45 18 46 67 47 61 48 60 49 19 51 49 52 30 53 48 54 31 55
REMARK SMILES IDX 34 56 47 57 65 58 32 59 33 60 46 62 66 63 35 64 20 65 21 66
REMARK SMILES IDX 29 67 22 68 28 69 23 70 24 71 25 72 26 73 27 74 50 75 51 76
REMARK SMILES IDX 59 77 52 78 58 79 53 80 54 81 55 82 56 83 57 84 36 85 37 86
REMARK SMILES IDX 45 87 38 88 44 89 39 90 40 91 41 92 42 93 43 94
REMARK H PARENT 3 7 8 31 64 50 34 61
REMARK Flexibility Score: inf
ROOT
ATOM      1  C   UNL A   1      32.736  27.733  26.016  1.00  0.00     0.023 C 
ENDROOT
BRANCH   1   2
ATOM      2  C   UNL A   1      31.778  26.674  26.538  1.00  0.00     0.023 C 
BRANCH   2   3
ATOM      3  C   UNL A   1      32.450  25.313  26.486  1.00  0.00     0.116 C 
BRANCH   3   4
ATOM      4  N   UNL A   1      31.545  24.344  25.851  1.00  0.00    -0.352 N 
ATOM      5  O   UNL A   1      30.787  23.323  23.845  1.00  0.00    -0.270 OA
ATOM      6  C   UNL A   1      31.570  24.161  24.393  1.00  0.00     0.251 C 
ATOM      7  H   UNL A   1      30.923  23.816  26.402  1.00  0.00     0.163 HD
BRANCH   6   8
ATOM      8  C   UNL A   1      32.530  24.975  23.540  1.00  0.00     0.067 C 
ATOM      9  C   UNL A   1      33.863  24.704  23.571  1.00  0.00     0.025 C 
ATOM     10  C   UNL A   1      32.001  26.090  22.653  1.00  0.00     0.314 C 
ATOM     11  C   UNL A   1      34.391  23.588  24.458  1.00  0.00     0.019 A 
ATOM     12  O   UNL A   1      32.488  22.270  23.923  1.00  0.00    -0.475 OA
ATOM     13  C   UNL A   1      35.579  23.803  25.137  1.00  0.00     0.036 A 
ATOM     14  C   UNL A   1      33.780  22.411  24.495  1.00  0.00     0.128 A 
ATOM     15  C   UNL A   1      36.198  22.618  25.598  1.00  0.00     0.107 A 
ATOM     16  C   UNL A   1      34.386  21.326  25.082  1.00  0.00     0.048 A 
ATOM     17  C   UNL A   1      35.589  21.453  25.720  1.00  0.00     0.028 A 
BRANCH  10  18
ATOM     18  C   UNL A   1      32.348  25.793  21.204  1.00  0.00     0.429 C 
ATOM     19  F   UNL A   1      32.626  24.499  21.071  1.00  0.00    -0.167 F 
ATOM     20  F   UNL A   1      31.315  26.107  20.427  1.00  0.00    -0.167 F 
ATOM     21  F   UNL A   1      33.407  26.513  20.845  1.00  0.00    -0.167 F 
ENDBRANCH  10  18
BRANCH  15  22
ATOM     22  S   UNL A   1      37.949  22.703  26.051  1.00  0.00     0.310 S 
ATOM     23  F   UNL A   1      38.197  23.950  25.103  1.00  0.00    -0.094 F 
ATOM     24  F   UNL A   1      38.280  21.785  24.815  1.00  0.00    -0.094 F 
ATOM     25  F   UNL A   1      39.453  22.776  26.437  1.00  0.00    -0.094 F 
ATOM     26  F   UNL A   1      37.613  23.734  27.199  1.00  0.00    -0.094 F 
ATOM     27  F   UNL A   1      36.433  22.729  25.603  1.00  0.00    -0.094 F 
ENDBRANCH  15  22
ENDBRANCH   6   8
ENDBRANCH   3   4
ENDBRANCH   2   3
ENDBRANCH   1   2
BRANCH   1  28
ATOM     28  C   UNL A   1      33.604  28.238  27.157  1.00  0.00     0.116 C 
BRANCH  28  29
ATOM     29  N   UNL A   1      33.281  29.646  27.431  1.00  0.00    -0.352 N 
ATOM     30  C   UNL A   1      34.309  30.542  27.980  1.00  0.00     0.251 C 
ATOM     31  H   UNL A   1      32.377  29.989  27.246  1.00  0.00     0.163 HD
ATOM     32  O   UNL A   1      34.030  31.759  28.216  1.00  0.00    -0.269 OA
BRANCH  30  33
ATOM     33  C   UNL A   1      35.706  30.013  28.264  1.00  0.00     0.039 A 
ATOM     34  C   UNL A   1      36.050  29.571  29.530  1.00  0.00     0.014 A 
ATOM     35  C   UNL A   1      36.605  30.081  27.289  1.00  0.00     0.014 A 
ATOM     36  C   UNL A   1      37.445  29.495  29.751  1.00  0.00     0.010 A 
ATOM     37  C   UNL A   1      37.936  29.861  27.550  1.00  0.00     0.010 A 
ATOM     38  C   UNL A   1      38.355  29.479  28.794  1.00  0.00    -0.014 A 
BRANCH  38  39
ATOM     39  C   UNL A   1      39.792  29.060  29.061  1.00  0.00     0.031 A 
ATOM     40  C   UNL A   1      40.579  29.992  29.739  1.00  0.00     0.074 A 
ATOM     41  C   UNL A   1      40.210  27.779  28.742  1.00  0.00     0.049 A 
ATOM     42  N   UNL A   1      41.813  29.820  30.217  1.00  0.00    -0.248 NA
ATOM     43  C   UNL A   1      40.150  31.363  30.048  1.00  0.00     0.031 C 
ATOM     44  C   UNL A   1      39.419  26.830  28.065  1.00  0.00     0.029 A 
ATOM     45  N   UNL A   1      41.430  27.197  29.008  1.00  0.00    -0.354 N 
ATOM     46  C   UNL A   1      42.231  30.934  30.822  1.00  0.00     0.074 A 
ATOM     47  C   UNL A   1      41.169  31.944  30.717  1.00  0.00     0.031 C 
ATOM     48  C   UNL A   1      40.154  25.697  27.915  1.00  0.00     0.029 A 
ATOM     49  C   UNL A   1      41.417  25.918  28.497  1.00  0.00     0.049 A 
ATOM     50  H   UNL A   1      42.181  27.622  29.483  1.00  0.00     0.167 HD
ATOM     51  C   UNL A   1      43.455  31.144  31.459  1.00  0.00     0.031 A 
ATOM     52  C   UNL A   1      42.440  24.984  28.523  1.00  0.00     0.031 A 
ATOM     53  C   UNL A   1      44.462  30.194  31.524  1.00  0.00     0.049 A 
ATOM     54  C   UNL A   1      43.687  25.215  29.110  1.00  0.00     0.074 A 
ATOM     55  C   UNL A   1      45.698  30.389  32.169  1.00  0.00     0.029 A 
ATOM     56  N   UNL A   1      44.459  28.924  30.991  1.00  0.00    -0.354 N 
ATOM     57  N   UNL A   1      44.090  26.314  29.750  1.00  0.00    -0.248 NA
ATOM     58  C   UNL A   1      44.789  24.244  29.116  1.00  0.00     0.031 C 
ATOM     59  C   UNL A   1      46.434  29.255  32.019  1.00  0.00     0.029 A 
ATOM     60  C   UNL A   1      45.670  28.335  31.277  1.00  0.00     0.049 A 
ATOM     61  H   UNL A   1      43.719  28.509  30.491  1.00  0.00     0.167 HD
ATOM     62  C   UNL A   1      45.340  26.156  30.191  1.00  0.00     0.074 A 
ATOM     63  C   UNL A   1      45.810  24.825  29.783  1.00  0.00     0.031 C 
ATOM     64  C   UNL A   1      46.105  27.068  30.920  1.00  0.00     0.031 A 
BRANCH  51  65
ATOM     65  C   UNL A   1      43.697  32.492  32.119  1.00  0.00    -0.014 A 
ATOM     66  C   UNL A   1      43.369  32.558  33.463  1.00  0.00     0.010 A 
ATOM     67  C   UNL A   1      44.254  33.523  31.495  1.00  0.00     0.010 A 
ATOM     68  C   UNL A   1      43.404  33.867  33.998  1.00  0.00     0.020 A 
ATOM     69  C   UNL A   1      44.381  34.737  32.125  1.00  0.00     0.020 A 
ATOM     70  C   UNL A   1      44.022  34.890  33.436  1.00  0.00     0.054 A 
BRANCH  70  71
ATOM     71  S   UNL A   1      44.374  36.412  34.350  1.00  0.00     0.124 S 
ATOM     72  O   UNL A   1      43.464  36.491  35.579  1.00  0.00    -0.237 OA
ATOM     73  O   UNL A   1      45.837  36.412  34.798  1.00  0.00    -0.237 OA
ATOM     74  O   UNL A   1      44.087  37.762  33.341  1.00  0.00    -0.744 OA
ENDBRANCH  70  71
ENDBRANCH  51  65
BRANCH  52  75
ATOM     75  C   UNL A   1      42.192  23.630  27.878  1.00  0.00    -0.014 A 
ATOM     76  C   UNL A   1      41.661  22.585  28.616  1.00  0.00     0.010 A 
ATOM     77  C   UNL A   1      42.604  23.451  26.628  1.00  0.00     0.010 A 
ATOM     78  C   UNL A   1      41.874  21.310  28.040  1.00  0.00     0.020 A 
ATOM     79  C   UNL A   1      42.659  22.191  26.083  1.00  0.00     0.020 A 
ATOM     80  C   UNL A   1      42.205  21.104  26.778  1.00  0.00     0.054 A 
BRANCH  80  81
ATOM     81  S   UNL A   1      42.067  19.471  26.010  1.00  0.00     0.124 S 
ATOM     82  O   UNL A   1      42.901  19.438  24.728  1.00  0.00    -0.237 OA
ATOM     83  O   UNL A   1      42.581  18.406  26.981  1.00  0.00    -0.237 OA
ATOM     84  O   UNL A   1      40.429  19.156  25.632  1.00  0.00    -0.744 OA
ENDBRANCH  80  81
ENDBRANCH  52  75
BRANCH  64  85
ATOM     85  C   UNL A   1      47.501  26.645  31.349  1.00  0.00    -0.014 A 
ATOM     86  C   UNL A   1      48.578  26.776  30.489  1.00  0.00     0.010 A 
ATOM     87  C   UNL A   1      47.619  26.013  32.511  1.00  0.00     0.010 A 
ATOM     88  C   UNL A   1      49.678  25.946  30.818  1.00  0.00     0.020 A 
ATOM     89  C   UNL A   1      48.773  25.336  32.825  1.00  0.00     0.020 A 
ATOM     90  C   UNL A   1      49.858  25.373  31.994  1.00  0.00     0.054 A 
BRANCH  90  91
ATOM     91  S   UNL A   1      51.455  24.673  32.479  1.00  0.00     0.124 S 
ATOM     92  O   UNL A   1      51.704  24.950  33.963  1.00  0.00    -0.237 OA
ATOM     93  O   UNL A   1      51.445  23.162  32.235  1.00  0.00    -0.237 OA
ATOM     94  O   UNL A   1      52.697  25.392  31.549  1.00  0.00    -0.744 OA
ENDBRANCH  90  91
ENDBRANCH  64  85
ENDBRANCH  38  39
ENDBRANCH  30  33
ENDBRANCH  28  29
ENDBRANCH   1  28
TORSDOF 16
ENDMDL
MODEL 3
REMARK VINA RESULT:     -12.6      3.793      9.616
REMARK SMILES O=C(NCCCCNC(=O)c1ccc(-c2c3nc(c(-c4ccc(S(=O)(=O)[O-])cc4)c4ccc([nH]4)c(-c4ccc(S(=O)(=O)[O-])cc4)c4nc(c(-c5ccc(S(=O)(=O)[O-])cc5)c5ccc2[nH]5)C=C4)C=C3)cc1)C1=Cc2cc(S(F)(F)(F)(F)F)ccc2O[C@@H]1C(F)(F)F
REMARK SMILES IDX 6 1 5 2 4 3 3 4 1 5 2 6 71 8 72 9 86 10 73 11 85 12 74 13
REMARK SMILES IDX 84 14 75 15 83 16 82 17 87 18 88 19 89 20 90 21 76 22 77 23
REMARK SMILES IDX 78 24 79 25 80 26 81 27 7 28 8 29 9 30 10 32 11 33 12 34
REMARK SMILES IDX 70 35 13 36 69 37 14 38 15 39 16 40 63 41 17 42 68 43 62 44
REMARK SMILES IDX 64 45 18 46 67 47 61 48 60 49 19 51 49 52 30 53 48 54 31 55
REMARK SMILES IDX 34 56 47 57 65 58 32 59 33 60 46 62 66 63 35 64 20 65 21 66
REMARK SMILES IDX 29 67 22 68 28 69 23 70 24 71 25 72 26 73 27 74 50 75 51 76
REMARK SMILES IDX 59 77 52 78 58 79 53 80 54 81 55 82 56 83 57 84 36 85 37 86
REMARK SMILES IDX 45 87 38 88 44 89 39 90 40 91 41 92 42 93 43 94
REMARK H PARENT 3 7 8 31 64 50 34 61
REMARK Flexibility Score: inf
ROOT
ATOM      1  C   UNL A   1      38.879  21.532  25.700  1.00  0.00     0.023 C 
ENDROOT
BRANCH   1   2
ATOM      2  C   UNL A   1      38.869  22.985  26.146  1.00  0.00     0.023 C 
BRANCH   2   3
ATOM      3  C   UNL A   1      37.517  23.603  25.834  1.00  0.00     0.116 C 
BRANCH   3   4
ATOM      4  N   UNL A   1      37.285  23.566  24.383  1.00  0.00    -0.352 N 
ATOM      5  O   UNL A   1      35.905  22.844  22.589  1.00  0.00    -0.270 OA
ATOM      6  C   UNL A   1      36.105  22.876  23.844  1.00  0.00     0.251 C 
ATOM      7  H   UNL A   1      37.920  24.004  23.771  1.00  0.00     0.163 HD
BRANCH   6   8
ATOM      8  C   UNL A   1      35.123  22.199  24.787  1.00  0.00     0.067 C 
ATOM      9  C   UNL A   1      34.121  22.920  25.358  1.00  0.00     0.025 C 
ATOM     10  C   UNL A   1      35.261  20.716  25.092  1.00  0.00     0.314 C 
ATOM     11  C   UNL A   1      33.983  24.403  25.052  1.00  0.00     0.019 A 
ATOM     12  O   UNL A   1      34.588  23.986  22.792  1.00  0.00    -0.475 OA
ATOM     13  C   UNL A   1      33.645  25.253  26.091  1.00  0.00     0.036 A 
ATOM     14  C   UNL A   1      34.086  24.846  23.805  1.00  0.00     0.128 A 
ATOM     15  C   UNL A   1      33.148  26.508  25.667  1.00  0.00     0.107 A 
ATOM     16  C   UNL A   1      33.709  26.128  23.485  1.00  0.00     0.048 A 
ATOM     17  C   UNL A   1      33.308  27.005  24.454  1.00  0.00     0.028 A 
BRANCH  10  18
ATOM     18  C   UNL A   1      33.997  19.990  24.663  1.00  0.00     0.429 C 
ATOM     19  F   UNL A   1      33.202  19.823  25.716  1.00  0.00    -0.167 F 
ATOM     20  F   UNL A   1      33.365  20.710  23.740  1.00  0.00    -0.167 F 
ATOM     21  F   UNL A   1      34.317  18.804  24.156  1.00  0.00    -0.167 F 
ENDBRANCH  10  18
BRANCH  15  22
ATOM     22  S   UNL A   1      32.229  27.501  26.869  1.00  0.00     0.310 S 
ATOM     23  F   UNL A   1      31.928  28.632  25.797  1.00  0.00    -0.094 F 
ATOM     24  F   UNL A   1      33.562  28.271  27.204  1.00  0.00    -0.094 F 
ATOM     25  F   UNL A   1      31.442  28.357  27.901  1.00  0.00    -0.094 F 
ATOM     26  F   UNL A   1      30.878  26.816  26.419  1.00  0.00    -0.094 F 
ATOM     27  F   UNL A   1      32.993  26.704  25.738  1.00  0.00    -0.094 F 
ENDBRANCH  15  22
ENDBRANCH   6   8
ENDBRANCH   3   4
ENDBRANCH   2   3
ENDBRANCH   1   2
BRANCH   1  28
ATOM     28  C   UNL A   1      39.550  20.680  26.764  1.00  0.00     0.116 C 
BRANCH  28  29
ATOM     29  N   UNL A   1      40.361  19.639  26.117  1.00  0.00    -0.352 N 
ATOM     30  C   UNL A   1      41.793  19.867  25.876  1.00  0.00     0.251 C 
ATOM     31  H   UNL A   1      39.945  18.789  25.845  1.00  0.00     0.163 HD
ATOM     32  O   UNL A   1      42.495  18.967  25.316  1.00  0.00    -0.269 OA
BRANCH  30  33
ATOM     33  C   UNL A   1      42.435  21.179  26.297  1.00  0.00     0.039 A 
ATOM     34  C   UNL A   1      42.761  21.414  27.622  1.00  0.00     0.014 A 
ATOM     35  C   UNL A   1      42.581  22.122  25.374  1.00  0.00     0.014 A 
ATOM     36  C   UNL A   1      42.964  22.779  27.929  1.00  0.00     0.010 A 
ATOM     37  C   UNL A   1      42.914  23.406  25.733  1.00  0.00     0.010 A 
ATOM     38  C   UNL A   1      43.192  23.723  27.034  1.00  0.00    -0.014 A 
BRANCH  38  39
ATOM     39  C   UNL A   1      43.732  25.088  27.427  1.00  0.00     0.031 A 
ATOM     40  C   UNL A   1      45.085  25.303  27.161  1.00  0.00     0.074 A 
ATOM     41  C   UNL A   1      42.871  26.063  27.901  1.00  0.00     0.049 A 
ATOM     42  N   UNL A   1      45.764  26.446  27.275  1.00  0.00    -0.248 NA
ATOM     43  C   UNL A   1      46.009  24.261  26.690  1.00  0.00     0.031 C 
ATOM     44  C   UNL A   1      41.503  25.856  28.165  1.00  0.00     0.029 A 
ATOM     45  N   UNL A   1      43.163  27.375  28.201  1.00  0.00    -0.354 N 
ATOM     46  C   UNL A   1      47.036  26.264  26.912  1.00  0.00     0.074 A 
ATOM     47  C   UNL A   1      47.212  24.855  26.536  1.00  0.00     0.031 C 
ATOM     48  C   UNL A   1      40.980  27.022  28.626  1.00  0.00     0.029 A 
ATOM     49  C   UNL A   1      42.013  27.979  28.659  1.00  0.00     0.049 A 
ATOM     50  H   UNL A   1      44.042  27.808  28.103  1.00  0.00     0.167 HD
ATOM     51  C   UNL A   1      48.053  27.219  26.877  1.00  0.00     0.031 A 
ATOM     52  C   UNL A   1      41.853  29.287  29.088  1.00  0.00     0.031 A 
ATOM     53  C   UNL A   1      47.883  28.539  27.265  1.00  0.00     0.049 A 
ATOM     54  C   UNL A   1      42.886  30.227  29.109  1.00  0.00     0.074 A 
ATOM     55  C   UNL A   1      48.897  29.515  27.229  1.00  0.00     0.029 A 
ATOM     56  N   UNL A   1      46.739  29.136  27.747  1.00  0.00    -0.354 N 
ATOM     57  N   UNL A   1      44.146  30.055  28.707  1.00  0.00    -0.248 NA
ATOM     58  C   UNL A   1      42.737  31.607  29.591  1.00  0.00     0.031 C 
ATOM     59  C   UNL A   1      48.374  30.682  27.691  1.00  0.00     0.029 A 
ATOM     60  C   UNL A   1      47.026  30.453  28.024  1.00  0.00     0.049 A 
ATOM     61  H   UNL A   1      45.867  28.696  27.871  1.00  0.00     0.167 HD
ATOM     62  C   UNL A   1      44.836  31.188  28.861  1.00  0.00     0.074 A 
ATOM     63  C   UNL A   1      43.941  32.200  29.439  1.00  0.00     0.031 C 
ATOM     64  C   UNL A   1      46.175  31.418  28.540  1.00  0.00     0.031 A 
BRANCH  51  65
ATOM     65  C   UNL A   1      49.425  26.786  26.387  1.00  0.00    -0.014 A 
ATOM     66  C   UNL A   1      49.663  26.996  25.039  1.00  0.00     0.010 A 
ATOM     67  C   UNL A   1      50.374  26.314  27.187  1.00  0.00     0.010 A 
ATOM     68  C   UNL A   1      50.855  26.399  24.566  1.00  0.00     0.020 A 
ATOM     69  C   UNL A   1      51.569  25.873  26.672  1.00  0.00     0.020 A 
ATOM     70  C   UNL A   1      51.847  25.995  25.339  1.00  0.00     0.054 A 
BRANCH  70  71
ATOM     71  S   UNL A   1      53.487  25.622  24.669  1.00  0.00     0.124 S 
ATOM     72  O   UNL A   1      53.531  26.001  23.186  1.00  0.00    -0.237 OA
ATOM     73  O   UNL A   1      54.544  26.424  25.431  1.00  0.00    -0.237 OA
ATOM     74  O   UNL A   1      53.806  23.951  24.840  1.00  0.00    -0.744 OA
ENDBRANCH  70  71
ENDBRANCH  51  65
BRANCH  52  75
ATOM     75  C   UNL A   1      40.477  29.723  29.563  1.00  0.00    -0.014 A 
ATOM     76  C   UNL A   1      39.492  30.062  28.650  1.00  0.00     0.010 A 
ATOM     77  C   UNL A   1      40.289  29.878  30.868  1.00  0.00     0.010 A 
ATOM     78  C   UNL A   1      38.440  30.832  29.200  1.00  0.00     0.020 A 
ATOM     79  C   UNL A   1      39.172  30.523  31.343  1.00  0.00     0.020 A 
ATOM     80  C   UNL A   1      38.185  30.937  30.491  1.00  0.00     0.054 A 
BRANCH  80  81
ATOM     81  S   UNL A   1      36.613  31.593  31.102  1.00  0.00     0.124 S 
ATOM     82  O   UNL A   1      36.177  30.805  32.339  1.00  0.00    -0.237 OA
ATOM     83  O   UNL A   1      36.785  33.068  31.473  1.00  0.00    -0.237 OA
ATOM     84  O   UNL A   1      35.421  31.446  29.884  1.00  0.00    -0.744 OA
ENDBRANCH  80  81
ENDBRANCH  52  75
BRANCH  64  85
ATOM     85  C   UNL A   1      46.733  32.814  28.770  1.00  0.00    -0.014 A 
ATOM     86  C   UNL A   1      47.231  33.184  30.008  1.00  0.00     0.010 A 
ATOM     87  C   UNL A   1      46.588  33.700  27.792  1.00  0.00     0.010 A 
ATOM     88  C   UNL A   1      47.278  34.584  30.211  1.00  0.00     0.020 A 
ATOM     89  C   UNL A   1      46.782  35.040  28.027  1.00  0.00     0.020 A 
ATOM     90  C   UNL A   1      47.217  35.484  29.245  1.00  0.00     0.054 A 
BRANCH  90  91
ATOM     91  S   UNL A   1      47.684  37.210  29.520  1.00  0.00     0.124 S 
ATOM     92  O   UNL A   1      46.747  38.124  28.727  1.00  0.00    -0.237 OA
ATOM     93  O   UNL A   1      47.576  37.538  31.011  1.00  0.00    -0.237 OA
ATOM     94  O   UNL A   1      49.294  37.455  28.998  1.00  0.00    -0.744 OA
ENDBRANCH  90  91
ENDBRANCH  64  85
ENDBRANCH  38  39
ENDBRANCH  30  33
ENDBRANCH  28  29
ENDBRANCH   1  28
TORSDOF 16
ENDMDL
