MODEL 1
REMARK VINA RESULT:     -11.2      0.000      0.000
REMARK SMILES Cc1ccc(Cl)cc1NC(=O)N[C@@](C)(C(=O)NCCCCNC(=O)c1ccc(-c2c3nc(c(-c4ccc(S(=O)(=O)[O-])cc4)c4ccc([nH]4)c(-c4ccc(S(=O)(=O)[O-])cc4)c4nc(c(-c5ccc(S(=O)(=O)[O-])cc5)c5ccc2[nH]5)C=C4)C=C3)cc1)C(F)(F)F
REMARK SMILES IDX 20 1 19 2 18 3 17 4 15 5 16 6 13 8 14 9 12 10 9 11 10 12
REMARK SMILES IDX 11 14 8 16 1 17 2 18 3 19 4 20 7 21 5 22 6 23 85 24 86 25
REMARK SMILES IDX 87 26 88 27 21 28 22 29 23 30 24 32 25 33 26 34 84 35 27 36
REMARK SMILES IDX 83 37 28 38 29 39 30 40 77 41 31 42 82 43 76 44 78 45 32 46
REMARK SMILES IDX 81 47 75 48 74 49 33 51 63 52 44 53 62 54 45 55 48 56 61 57
REMARK SMILES IDX 79 58 46 59 47 60 60 62 80 63 49 64 34 65 35 66 43 67 36 68
REMARK SMILES IDX 42 69 37 70 38 71 39 72 40 73 41 74 64 75 65 76 73 77 66 78
REMARK SMILES IDX 72 79 67 80 68 81 69 82 70 83 71 84 50 85 51 86 59 87 52 88
REMARK SMILES IDX 58 89 53 90 54 91 55 92 56 93 57 94
REMARK H PARENT 17 7 9 13 12 15 22 31 78 50 48 61
REMARK Flexibility Score: inf
ROOT
ATOM      1  C   UNL A   1      32.393  27.619  26.865  1.00  0.00     0.023 C 
ENDROOT
BRANCH   1   2
ATOM      2  C   UNL A   1      31.422  27.847  25.697  1.00  0.00     0.023 C 
BRANCH   2   3
ATOM      3  C   UNL A   1      32.022  27.647  24.302  1.00  0.00     0.116 C 
BRANCH   3   4
ATOM      4  N   UNL A   1      31.185  26.771  23.510  1.00  0.00    -0.354 N 
ATOM      5  C   UNL A   1      31.620  25.600  22.955  1.00  0.00     0.255 C 
ATOM      6  O   UNL A   1      31.770  25.622  21.735  1.00  0.00    -0.272 OA
ATOM      7  H   UNL A   1      30.248  27.035  23.362  1.00  0.00     0.163 HD
BRANCH   5   8
ATOM      8  C   UNL A   1      31.914  24.362  23.862  1.00  0.00     0.213 C 
ATOM      9  C   UNL A   1      31.503  23.104  23.073  1.00  0.00     0.056 C 
BRANCH   8  10
ATOM     10  N   UNL A   1      31.122  24.415  25.137  1.00  0.00    -0.316 N 
ATOM     11  N   UNL A   1      31.728  22.675  26.704  1.00  0.00    -0.308 N 
ATOM     12  C   UNL A   1      31.002  23.726  26.280  1.00  0.00     0.320 C 
ATOM     13  H   UNL A   1      31.610  22.523  27.670  1.00  0.00     0.171 HD
ATOM     14  O   UNL A   1      30.194  24.193  27.093  1.00  0.00    -0.248 OA
ATOM     15  H   UNL A   1      30.510  25.186  25.132  1.00  0.00     0.166 HD
BRANCH  11  16
ATOM     16  C   UNL A   1      32.604  21.735  26.142  1.00  0.00     0.047 A 
ATOM     17  C   UNL A   1      34.562  22.622  27.560  1.00  0.00     0.046 C 
ATOM     18  C   UNL A   1      33.979  21.780  26.457  1.00  0.00    -0.027 A 
ATOM     19  C   UNL A   1      34.880  21.008  25.694  1.00  0.00     0.007 A 
ATOM     20  C   UNL A   1      34.424  20.166  24.683  1.00  0.00     0.021 A 
ATOM     21  C   UNL A   1      32.154  20.741  25.277  1.00  0.00     0.047 A 
ATOM     22  C   UNL A   1      33.058  19.997  24.515  1.00  0.00     0.043 A 
ATOM     23  Cl  UNL A   1      32.474  18.905  23.318  1.00  0.00    -0.084 Cl
ENDBRANCH  11  16
ENDBRANCH   8  10
BRANCH   8  24
ATOM     24  C   UNL A   1      33.450  24.551  24.020  1.00  0.00     0.420 C 
ATOM     25  F   UNL A   1      34.147  23.427  23.725  1.00  0.00    -0.168 F 
ATOM     26  F   UNL A   1      33.965  25.505  23.232  1.00  0.00    -0.168 F 
ATOM     27  F   UNL A   1      33.773  24.932  25.282  1.00  0.00    -0.168 F 
ENDBRANCH   8  24
ENDBRANCH   5   8
ENDBRANCH   3   4
ENDBRANCH   2   3
ENDBRANCH   1   2
BRANCH   1  28
ATOM     28  C   UNL A   1      33.689  28.421  26.819  1.00  0.00     0.116 C 
BRANCH  28  29
ATOM     29  N   UNL A   1      33.529  29.776  27.315  1.00  0.00    -0.352 N 
ATOM     30  C   UNL A   1      34.417  30.539  28.035  1.00  0.00     0.251 C 
ATOM     31  H   UNL A   1      32.667  30.205  27.107  1.00  0.00     0.163 HD
ATOM     32  O   UNL A   1      34.075  31.618  28.489  1.00  0.00    -0.269 OA
BRANCH  30  33
ATOM     33  C   UNL A   1      35.777  30.012  28.278  1.00  0.00     0.039 A 
ATOM     34  C   UNL A   1      36.718  30.091  27.251  1.00  0.00     0.014 A 
ATOM     35  C   UNL A   1      36.125  29.488  29.526  1.00  0.00     0.014 A 
ATOM     36  C   UNL A   1      38.033  29.695  27.496  1.00  0.00     0.010 A 
ATOM     37  C   UNL A   1      37.453  29.166  29.789  1.00  0.00     0.010 A 
ATOM     38  C   UNL A   1      38.419  29.262  28.775  1.00  0.00    -0.014 A 
BRANCH  38  39
ATOM     39  C   UNL A   1      39.830  28.904  29.068  1.00  0.00     0.031 A 
ATOM     40  C   UNL A   1      40.754  29.920  29.684  1.00  0.00     0.074 A 
ATOM     41  C   UNL A   1      40.294  27.685  28.728  1.00  0.00     0.049 A 
ATOM     42  N   UNL A   1      42.023  29.807  29.981  1.00  0.00    -0.248 NA
ATOM     43  C   UNL A   1      40.184  31.244  29.981  1.00  0.00     0.031 C 
ATOM     44  C   UNL A   1      39.508  26.630  28.082  1.00  0.00     0.029 A 
ATOM     45  N   UNL A   1      41.538  27.127  28.875  1.00  0.00    -0.354 N 
ATOM     46  C   UNL A   1      42.406  31.047  30.480  1.00  0.00     0.074 A 
ATOM     47  C   UNL A   1      41.250  31.911  30.395  1.00  0.00     0.031 C 
ATOM     48  C   UNL A   1      40.281  25.545  27.915  1.00  0.00     0.029 A 
ATOM     49  C   UNL A   1      41.625  25.838  28.401  1.00  0.00     0.049 A 
ATOM     50  H   UNL A   1      42.299  27.603  29.280  1.00  0.00     0.167 HD
ATOM     51  C   UNL A   1      43.606  31.425  30.981  1.00  0.00     0.031 A 
ATOM     52  C   UNL A   1      42.670  24.989  28.357  1.00  0.00     0.031 A 
ATOM     53  C   UNL A   1      44.749  30.555  31.069  1.00  0.00     0.049 A 
ATOM     54  C   UNL A   1      43.995  25.432  28.915  1.00  0.00     0.074 A 
ATOM     55  C   UNL A   1      45.990  30.821  31.617  1.00  0.00     0.029 A 
ATOM     56  N   UNL A   1      44.793  29.254  30.589  1.00  0.00    -0.354 N 
ATOM     57  N   UNL A   1      44.317  26.583  29.456  1.00  0.00    -0.248 NA
ATOM     58  C   UNL A   1      45.093  24.457  28.872  1.00  0.00     0.031 C 
ATOM     59  C   UNL A   1      46.806  29.703  31.414  1.00  0.00     0.029 A 
ATOM     60  C   UNL A   1      46.051  28.715  30.800  1.00  0.00     0.049 A 
ATOM     61  H   UNL A   1      44.042  28.784  30.160  1.00  0.00     0.167 HD
ATOM     62  C   UNL A   1      45.648  26.462  29.840  1.00  0.00     0.074 A 
ATOM     63  C   UNL A   1      46.064  25.120  29.484  1.00  0.00     0.031 C 
ATOM     64  C   UNL A   1      46.451  27.378  30.436  1.00  0.00     0.031 A 
BRANCH  51  65
ATOM     65  C   UNL A   1      43.743  32.847  31.461  1.00  0.00    -0.014 A 
ATOM     66  C   UNL A   1      43.467  33.198  32.795  1.00  0.00     0.010 A 
ATOM     67  C   UNL A   1      44.179  33.844  30.570  1.00  0.00     0.010 A 
ATOM     68  C   UNL A   1      43.577  34.527  33.215  1.00  0.00     0.020 A 
ATOM     69  C   UNL A   1      44.323  35.168  30.994  1.00  0.00     0.020 A 
ATOM     70  C   UNL A   1      44.001  35.504  32.310  1.00  0.00     0.054 A 
BRANCH  70  71
ATOM     71  S   UNL A   1      44.147  37.218  32.888  1.00  0.00     0.124 S 
ATOM     72  O   UNL A   1      43.009  37.325  33.798  1.00  0.00    -0.237 OA
ATOM     73  O   UNL A   1      45.462  37.230  33.523  1.00  0.00    -0.237 OA
ATOM     74  O   UNL A   1      44.041  38.007  31.663  1.00  0.00    -0.744 OA
ENDBRANCH  70  71
ENDBRANCH  51  65
BRANCH  52  75
ATOM     75  C   UNL A   1      42.495  23.630  27.773  1.00  0.00    -0.014 A 
ATOM     76  C   UNL A   1      42.851  23.373  26.437  1.00  0.00     0.010 A 
ATOM     77  C   UNL A   1      41.999  22.576  28.561  1.00  0.00     0.010 A 
ATOM     78  C   UNL A   1      42.702  22.092  25.896  1.00  0.00     0.020 A 
ATOM     79  C   UNL A   1      41.876  21.287  28.034  1.00  0.00     0.020 A 
ATOM     80  C   UNL A   1      42.220  21.056  26.701  1.00  0.00     0.054 A 
BRANCH  80  81
ATOM     81  S   UNL A   1      42.096  19.387  25.996  1.00  0.00     0.124 S 
ATOM     82  O   UNL A   1      42.620  18.560  27.079  1.00  0.00    -0.237 OA
ATOM     83  O   UNL A   1      40.663  19.261  25.739  1.00  0.00    -0.237 OA
ATOM     84  O   UNL A   1      42.931  19.458  24.800  1.00  0.00    -0.744 OA
ENDBRANCH  80  81
ENDBRANCH  52  75
BRANCH  64  85
ATOM     85  C   UNL A   1      47.857  26.956  30.771  1.00  0.00    -0.014 A 
ATOM     86  C   UNL A   1      48.938  27.271  29.929  1.00  0.00     0.010 A 
ATOM     87  C   UNL A   1      48.106  26.282  31.982  1.00  0.00     0.010 A 
ATOM     88  C   UNL A   1      50.238  26.893  30.277  1.00  0.00     0.020 A 
ATOM     89  C   UNL A   1      49.407  25.931  32.348  1.00  0.00     0.020 A 
ATOM     90  C   UNL A   1      50.464  26.226  31.485  1.00  0.00     0.054 A 
BRANCH  90  91
ATOM     91  S   UNL A   1      52.166  25.789  31.935  1.00  0.00     0.124 S 
ATOM     92  O   UNL A   1      52.870  25.969  30.669  1.00  0.00    -0.237 OA
ATOM     93  O   UNL A   1      52.482  26.764  32.977  1.00  0.00    -0.237 OA
ATOM     94  O   UNL A   1      52.058  24.406  32.397  1.00  0.00    -0.744 OA
ENDBRANCH  90  91
ENDBRANCH  64  85
ENDBRANCH  38  39
ENDBRANCH  30  33
ENDBRANCH  28  29
ENDBRANCH   1  28
TORSDOF 17
ENDMDL
MODEL 2
REMARK VINA RESULT:     -11.0      2.846      9.231
REMARK SMILES Cc1ccc(Cl)cc1NC(=O)N[C@@](C)(C(=O)NCCCCNC(=O)c1ccc(-c2c3nc(c(-c4ccc(S(=O)(=O)[O-])cc4)c4ccc([nH]4)c(-c4ccc(S(=O)(=O)[O-])cc4)c4nc(c(-c5ccc(S(=O)(=O)[O-])cc5)c5ccc2[nH]5)C=C4)C=C3)cc1)C(F)(F)F
REMARK SMILES IDX 20 1 19 2 18 3 17 4 15 5 16 6 13 8 14 9 12 10 9 11 10 12
REMARK SMILES IDX 11 14 8 16 1 17 2 18 3 19 4 20 7 21 5 22 6 23 85 24 86 25
REMARK SMILES IDX 87 26 88 27 21 28 22 29 23 30 24 32 25 33 26 34 84 35 27 36
REMARK SMILES IDX 83 37 28 38 29 39 30 40 77 41 31 42 82 43 76 44 78 45 32 46
REMARK SMILES IDX 81 47 75 48 74 49 33 51 63 52 44 53 62 54 45 55 48 56 61 57
REMARK SMILES IDX 79 58 46 59 47 60 60 62 80 63 49 64 34 65 35 66 43 67 36 68
REMARK SMILES IDX 42 69 37 70 38 71 39 72 40 73 41 74 64 75 65 76 73 77 66 78
REMARK SMILES IDX 72 79 67 80 68 81 69 82 70 83 71 84 50 85 51 86 59 87 52 88
REMARK SMILES IDX 58 89 53 90 54 91 55 92 56 93 57 94
REMARK H PARENT 17 7 9 13 12 15 22 31 78 50 48 61
REMARK Flexibility Score: inf
ROOT
ATOM      1  C   UNL A   1      36.596  23.181  23.492  1.00  0.00     0.023 C 
ENDROOT
BRANCH   1   2
ATOM      2  C   UNL A   1      35.080  23.345  23.303  1.00  0.00     0.023 C 
BRANCH   2   3
ATOM      3  C   UNL A   1      34.212  22.577  24.304  1.00  0.00     0.116 C 
BRANCH   3   4
ATOM      4  N   UNL A   1      32.807  22.804  24.038  1.00  0.00    -0.354 N 
ATOM      5  C   UNL A   1      32.021  23.647  24.771  1.00  0.00     0.255 C 
ATOM      6  O   UNL A   1      31.206  23.096  25.509  1.00  0.00    -0.272 OA
ATOM      7  H   UNL A   1      32.395  22.321  23.285  1.00  0.00     0.163 HD
BRANCH   5   8
ATOM      8  C   UNL A   1      32.207  25.195  24.655  1.00  0.00     0.213 C 
ATOM      9  C   UNL A   1      30.813  25.838  24.781  1.00  0.00     0.056 C 
BRANCH   8  10
ATOM     10  N   UNL A   1      32.800  25.579  23.330  1.00  0.00    -0.316 N 
ATOM     11  N   UNL A   1      33.407  27.917  23.204  1.00  0.00    -0.308 N 
ATOM     12  C   UNL A   1      33.257  26.674  22.709  1.00  0.00     0.320 C 
ATOM     13  H   UNL A   1      33.992  28.464  22.631  1.00  0.00     0.171 HD
ATOM     14  O   UNL A   1      33.701  26.486  21.568  1.00  0.00    -0.248 OA
ATOM     15  H   UNL A   1      32.878  24.791  22.745  1.00  0.00     0.166 HD
BRANCH  11  16
ATOM     16  C   UNL A   1      32.955  28.644  24.314  1.00  0.00     0.047 A 
ATOM     17  C   UNL A   1      30.593  28.835  23.307  1.00  0.00     0.046 C 
ATOM     18  C   UNL A   1      31.651  29.185  24.318  1.00  0.00    -0.027 A 
ATOM     19  C   UNL A   1      31.303  30.124  25.311  1.00  0.00     0.007 A 
ATOM     20  C   UNL A   1      32.206  30.474  26.313  1.00  0.00     0.021 A 
ATOM     21  C   UNL A   1      33.760  28.847  25.432  1.00  0.00     0.047 A 
ATOM     22  C   UNL A   1      33.411  29.793  26.399  1.00  0.00     0.043 A 
ATOM     23  Cl  UNL A   1      34.509  30.160  27.674  1.00  0.00    -0.084 Cl
ENDBRANCH  11  16
ENDBRANCH   8  10
BRANCH   8  24
ATOM     24  C   UNL A   1      33.129  25.409  25.889  1.00  0.00     0.420 C 
ATOM     25  F   UNL A   1      33.219  24.307  26.672  1.00  0.00    -0.168 F 
ATOM     26  F   UNL A   1      34.393  25.726  25.576  1.00  0.00    -0.168 F 
ATOM     27  F   UNL A   1      32.694  26.441  26.657  1.00  0.00    -0.168 F 
ENDBRANCH   8  24
ENDBRANCH   5   8
ENDBRANCH   3   4
ENDBRANCH   2   3
ENDBRANCH   1   2
BRANCH   1  28
ATOM     28  C   UNL A   1      37.124  23.454  24.896  1.00  0.00     0.116 C 
BRANCH  28  29
ATOM     29  N   UNL A   1      38.041  22.429  25.360  1.00  0.00    -0.352 N 
ATOM     30  C   UNL A   1      39.148  22.566  26.165  1.00  0.00     0.251 C 
ATOM     31  H   UNL A   1      37.844  21.514  25.056  1.00  0.00     0.163 HD
ATOM     32  O   UNL A   1      39.891  21.618  26.355  1.00  0.00    -0.269 OA
BRANCH  30  33
ATOM     33  C   UNL A   1      39.437  23.886  26.762  1.00  0.00     0.039 A 
ATOM     34  C   UNL A   1      38.928  24.173  28.030  1.00  0.00     0.014 A 
ATOM     35  C   UNL A   1      40.242  24.810  26.091  1.00  0.00     0.014 A 
ATOM     36  C   UNL A   1      39.277  25.371  28.652  1.00  0.00     0.010 A 
ATOM     37  C   UNL A   1      40.649  25.969  26.746  1.00  0.00     0.010 A 
ATOM     38  C   UNL A   1      40.167  26.263  28.031  1.00  0.00    -0.014 A 
BRANCH  38  39
ATOM     39  C   UNL A   1      40.601  27.509  28.712  1.00  0.00     0.031 A 
ATOM     40  C   UNL A   1      41.965  27.588  29.343  1.00  0.00     0.074 A 
ATOM     41  C   UNL A   1      39.748  28.548  28.811  1.00  0.00     0.049 A 
ATOM     42  N   UNL A   1      42.509  28.573  30.009  1.00  0.00    -0.248 NA
ATOM     43  C   UNL A   1      42.819  26.394  29.233  1.00  0.00     0.031 C 
ATOM     44  C   UNL A   1      38.382  28.575  28.282  1.00  0.00     0.029 A 
ATOM     45  N   UNL A   1      39.901  29.780  29.394  1.00  0.00    -0.354 N 
ATOM     46  C   UNL A   1      43.757  28.112  30.413  1.00  0.00     0.074 A 
ATOM     47  C   UNL A   1      43.867  26.742  29.964  1.00  0.00     0.031 C 
ATOM     48  C   UNL A   1      37.834  29.773  28.539  1.00  0.00     0.029 A 
ATOM     49  C   UNL A   1      38.789  30.584  29.286  1.00  0.00     0.049 A 
ATOM     50  H   UNL A   1      40.728  30.064  29.848  1.00  0.00     0.167 HD
ATOM     51  C   UNL A   1      44.731  28.776  31.081  1.00  0.00     0.031 A 
ATOM     52  C   UNL A   1      38.561  31.831  29.743  1.00  0.00     0.031 A 
ATOM     53  C   UNL A   1      44.616  30.142  31.518  1.00  0.00     0.049 A 
ATOM     54  C   UNL A   1      39.655  32.548  30.486  1.00  0.00     0.074 A 
ATOM     55  C   UNL A   1      45.567  30.927  32.145  1.00  0.00     0.029 A 
ATOM     56  N   UNL A   1      43.479  30.925  31.380  1.00  0.00    -0.354 N 
ATOM     57  N   UNL A   1      40.859  32.123  30.790  1.00  0.00    -0.248 NA
ATOM     58  C   UNL A   1      39.367  33.916  30.935  1.00  0.00     0.031 C 
ATOM     59  C   UNL A   1      44.985  32.163  32.443  1.00  0.00     0.029 A 
ATOM     60  C   UNL A   1      43.694  32.174  31.938  1.00  0.00     0.049 A 
ATOM     61  H   UNL A   1      42.642  30.635  30.949  1.00  0.00     0.167 HD
ATOM     62  C   UNL A   1      41.480  33.182  31.443  1.00  0.00     0.074 A 
ATOM     63  C   UNL A   1      40.525  34.270  31.475  1.00  0.00     0.031 C 
ATOM     64  C   UNL A   1      42.730  33.246  31.967  1.00  0.00     0.031 A 
BRANCH  51  65
ATOM     65  C   UNL A   1      46.000  28.025  31.389  1.00  0.00    -0.014 A 
ATOM     66  C   UNL A   1      47.080  28.012  30.488  1.00  0.00     0.010 A 
ATOM     67  C   UNL A   1      46.126  27.341  32.612  1.00  0.00     0.010 A 
ATOM     68  C   UNL A   1      48.240  27.289  30.780  1.00  0.00     0.020 A 
ATOM     69  C   UNL A   1      47.297  26.644  32.924  1.00  0.00     0.020 A 
ATOM     70  C   UNL A   1      48.339  26.607  31.996  1.00  0.00     0.054 A 
BRANCH  70  71
ATOM     71  S   UNL A   1      49.862  25.688  32.355  1.00  0.00     0.124 S 
ATOM     72  O   UNL A   1      50.037  24.909  31.131  1.00  0.00    -0.237 OA
ATOM     73  O   UNL A   1      50.836  26.756  32.565  1.00  0.00    -0.237 OA
ATOM     74  O   UNL A   1      49.526  24.910  33.545  1.00  0.00    -0.744 OA
ENDBRANCH  70  71
ENDBRANCH  51  65
BRANCH  52  75
ATOM     75  C   UNL A   1      37.244  32.481  29.495  1.00  0.00    -0.014 A 
ATOM     76  C   UNL A   1      36.208  32.384  30.441  1.00  0.00     0.010 A 
ATOM     77  C   UNL A   1      37.028  33.226  28.322  1.00  0.00     0.010 A 
ATOM     78  C   UNL A   1      34.979  33.010  30.214  1.00  0.00     0.020 A 
ATOM     79  C   UNL A   1      35.811  33.878  28.103  1.00  0.00     0.020 A 
ATOM     80  C   UNL A   1      34.790  33.757  29.047  1.00  0.00     0.054 A 
BRANCH  80  81
ATOM     81  S   UNL A   1      33.208  34.614  28.804  1.00  0.00     0.124 S 
ATOM     82  O   UNL A   1      32.666  34.641  30.159  1.00  0.00    -0.237 OA
ATOM     83  O   UNL A   1      33.630  35.904  28.264  1.00  0.00    -0.237 OA
ATOM     84  O   UNL A   1      32.496  33.755  27.861  1.00  0.00    -0.744 OA
ENDBRANCH  80  81
ENDBRANCH  52  75
BRANCH  64  85
ATOM     85  C   UNL A   1      43.153  34.548  32.595  1.00  0.00    -0.014 A 
ATOM     86  C   UNL A   1      42.987  34.786  33.970  1.00  0.00     0.010 A 
ATOM     87  C   UNL A   1      43.783  35.526  31.801  1.00  0.00     0.010 A 
ATOM     88  C   UNL A   1      43.415  35.991  34.535  1.00  0.00     0.020 A 
ATOM     89  C   UNL A   1      44.240  36.717  32.368  1.00  0.00     0.020 A 
ATOM     90  C   UNL A   1      44.040  36.948  33.730  1.00  0.00     0.054 A 
BRANCH  90  91
ATOM     91  S   UNL A   1      44.628  38.483  34.496  1.00  0.00     0.124 S 
ATOM     92  O   UNL A   1      43.953  38.454  35.791  1.00  0.00    -0.237 OA
ATOM     93  O   UNL A   1      46.076  38.287  34.536  1.00  0.00    -0.237 OA
ATOM     94  O   UNL A   1      44.172  39.526  33.579  1.00  0.00    -0.744 OA
ENDBRANCH  90  91
ENDBRANCH  64  85
ENDBRANCH  38  39
ENDBRANCH  30  33
ENDBRANCH  28  29
ENDBRANCH   1  28
TORSDOF 17
ENDMDL
MODEL 3
REMARK VINA RESULT:     -10.7      3.437      9.084
REMARK SMILES Cc1ccc(Cl)cc1NC(=O)N[C@@](C)(C(=O)NCCCCNC(=O)c1ccc(-c2c3nc(c(-c4ccc(S(=O)(=O)[O-])cc4)c4ccc([nH]4)c(-c4ccc(S(=O)(=O)[O-])cc4)c4nc(c(-c5ccc(S(=O)(=O)[O-])cc5)c5ccc2[nH]5)C=C4)C=C3)cc1)C(F)(F)F
REMARK SMILES IDX 20 1 19 2 18 3 17 4 15 5 16 6 13 8 14 9 12 10 9 11 10 12
REMARK SMILES IDX 11 14 8 16 1 17 2 18 3 19 4 20 7 21 5 22 6 23 85 24 86 25
REMARK SMILES IDX 87 26 88 27 21 28 22 29 23 30 24 32 25 33 26 34 84 35 27 36
REMARK SMILES IDX 83 37 28 38 29 39 30 40 77 41 31 42 82 43 76 44 78 45 32 46
REMARK SMILES IDX 81 47 75 48 74 49 33 51 63 52 44 53 62 54 45 55 48 56 61 57
REMARK SMILES IDX 79 58 46 59 47 60 60 62 80 63 49 64 34 65 35 66 43 67 36 68
REMARK SMILES IDX 42 69 37 70 38 71 39 72 40 73 41 74 64 75 65 76 73 77 66 78
REMARK SMILES IDX 72 79 67 80 68 81 69 82 70 83 71 84 50 85 51 86 59 87 52 88
REMARK SMILES IDX 58 89 53 90 54 91 55 92 56 93 57 94
REMARK H PARENT 17 7 9 13 12 15 22 31 78 50 48 61
REMARK Flexibility Score: inf
ROOT
ATOM      1  C   UNL A   1      37.759  20.879  25.221  1.00  0.00     0.023 C 
ENDROOT
BRANCH   1   2
ATOM      2  C   UNL A   1      36.678  21.970  25.281  1.00  0.00     0.023 C 
BRANCH   2   3
ATOM      3  C   UNL A   1      35.324  21.516  25.834  1.00  0.00     0.116 C 
BRANCH   3   4
ATOM      4  N   UNL A   1      34.347  21.422  24.771  1.00  0.00    -0.354 N 
ATOM      5  C   UNL A   1      33.000  21.554  24.962  1.00  0.00     0.255 C 
ATOM      6  O   UNL A   1      32.354  20.511  24.876  1.00  0.00    -0.272 OA
ATOM      7  H   UNL A   1      34.671  21.253  23.857  1.00  0.00     0.163 HD
BRANCH   5   8
ATOM      8  C   UNL A   1      32.386  22.953  25.291  1.00  0.00     0.213 C 
ATOM      9  C   UNL A   1      33.483  23.789  25.976  1.00  0.00     0.056 C 
BRANCH   8  10
ATOM     10  N   UNL A   1      31.215  22.832  26.223  1.00  0.00    -0.316 N 
ATOM     11  N   UNL A   1      29.992  24.903  26.483  1.00  0.00    -0.308 N 
ATOM     12  C   UNL A   1      30.258  23.611  26.747  1.00  0.00     0.320 C 
ATOM     13  H   UNL A   1      29.095  25.158  26.802  1.00  0.00     0.171 HD
ATOM     14  O   UNL A   1      29.451  23.028  27.485  1.00  0.00    -0.248 OA
ATOM     15  H   UNL A   1      31.121  21.906  26.543  1.00  0.00     0.166 HD
BRANCH  11  16
ATOM     16  C   UNL A   1      30.645  25.986  25.878  1.00  0.00     0.047 A 
ATOM     17  C   UNL A   1      28.785  26.201  24.110  1.00  0.00     0.046 C 
ATOM     18  C   UNL A   1      30.138  26.534  24.680  1.00  0.00    -0.027 A 
ATOM     19  C   UNL A   1      30.937  27.437  23.949  1.00  0.00     0.007 A 
ATOM     20  C   UNL A   1      32.185  27.835  24.424  1.00  0.00     0.021 A 
ATOM     21  C   UNL A   1      31.791  26.551  26.432  1.00  0.00     0.047 A 
ATOM     22  C   UNL A   1      32.582  27.431  25.690  1.00  0.00     0.043 A 
ATOM     23  Cl  UNL A   1      34.089  27.971  26.324  1.00  0.00    -0.084 Cl
ENDBRANCH  11  16
ENDBRANCH   8  10
BRANCH   8  24
ATOM     24  C   UNL A   1      32.044  23.401  23.841  1.00  0.00     0.420 C 
ATOM     25  F   UNL A   1      30.711  23.466  23.615  1.00  0.00    -0.168 F 
ATOM     26  F   UNL A   1      32.519  24.613  23.520  1.00  0.00    -0.168 F 
ATOM     27  F   UNL A   1      32.590  22.562  22.924  1.00  0.00    -0.168 F 
ENDBRANCH   8  24
ENDBRANCH   5   8
ENDBRANCH   3   4
ENDBRANCH   2   3
ENDBRANCH   1   2
BRANCH   1  28
ATOM     28  C   UNL A   1      39.084  21.218  25.895  1.00  0.00     0.116 C 
BRANCH  28  29
ATOM     29  N   UNL A   1      39.990  20.085  25.952  1.00  0.00    -0.352 N 
ATOM     30  C   UNL A   1      41.354  20.083  26.130  1.00  0.00     0.251 C 
ATOM     31  H   UNL A   1      39.571  19.201  25.849  1.00  0.00     0.163 HD
ATOM     32  O   UNL A   1      41.987  19.046  26.022  1.00  0.00    -0.269 OA
BRANCH  30  33
ATOM     33  C   UNL A   1      42.038  21.362  26.416  1.00  0.00     0.039 A 
ATOM     34  C   UNL A   1      42.315  22.224  25.354  1.00  0.00     0.014 A 
ATOM     35  C   UNL A   1      42.360  21.719  27.728  1.00  0.00     0.014 A 
ATOM     36  C   UNL A   1      42.867  23.478  25.618  1.00  0.00     0.010 A 
ATOM     37  C   UNL A   1      42.838  22.998  27.993  1.00  0.00     0.010 A 
ATOM     38  C   UNL A   1      43.100  23.889  26.940  1.00  0.00    -0.014 A 
BRANCH  38  39
ATOM     39  C   UNL A   1      43.620  25.247  27.238  1.00  0.00     0.031 A 
ATOM     40  C   UNL A   1      45.068  25.574  26.987  1.00  0.00     0.074 A 
ATOM     41  C   UNL A   1      42.803  26.170  27.786  1.00  0.00     0.049 A 
ATOM     42  N   UNL A   1      45.713  26.688  27.215  1.00  0.00    -0.248 NA
ATOM     43  C   UNL A   1      45.906  24.497  26.433  1.00  0.00     0.031 C 
ATOM     44  C   UNL A   1      41.392  25.959  28.120  1.00  0.00     0.029 A 
ATOM     45  N   UNL A   1      43.042  27.467  28.162  1.00  0.00    -0.354 N 
ATOM     46  C   UNL A   1      47.032  26.442  26.851  1.00  0.00     0.074 A 
ATOM     47  C   UNL A   1      47.106  25.058  26.439  1.00  0.00     0.031 C 
ATOM     48  C   UNL A   1      40.885  27.095  28.623  1.00  0.00     0.029 A 
ATOM     49  C   UNL A   1      41.939  28.101  28.688  1.00  0.00     0.049 A 
ATOM     50  H   UNL A   1      43.919  27.905  28.065  1.00  0.00     0.167 HD
ATOM     51  C   UNL A   1      48.083  27.297  26.842  1.00  0.00     0.031 A 
ATOM     52  C   UNL A   1      41.795  29.349  29.175  1.00  0.00     0.031 A 
ATOM     53  C   UNL A   1      47.999  28.675  27.247  1.00  0.00     0.049 A 
ATOM     54  C   UNL A   1      42.977  30.280  29.159  1.00  0.00     0.074 A 
ATOM     55  C   UNL A   1      48.988  29.641  27.215  1.00  0.00     0.029 A 
ATOM     56  N   UNL A   1      46.863  29.282  27.763  1.00  0.00    -0.354 N 
ATOM     57  N   UNL A   1      44.198  30.053  28.737  1.00  0.00    -0.248 NA
ATOM     58  C   UNL A   1      42.758  31.639  29.672  1.00  0.00     0.031 C 
ATOM     59  C   UNL A   1      48.469  30.816  27.771  1.00  0.00     0.029 A 
ATOM     60  C   UNL A   1      47.136  30.601  28.084  1.00  0.00     0.049 A 
ATOM     61  H   UNL A   1      45.992  28.839  27.884  1.00  0.00     0.167 HD
ATOM     62  C   UNL A   1      44.887  31.249  28.909  1.00  0.00     0.074 A 
ATOM     63  C   UNL A   1      43.940  32.199  29.458  1.00  0.00     0.031 C 
ATOM     64  C   UNL A   1      46.184  31.534  28.635  1.00  0.00     0.031 A 
BRANCH  51  65
ATOM     65  C   UNL A   1      49.416  26.757  26.392  1.00  0.00    -0.014 A 
ATOM     66  C   UNL A   1      49.894  26.985  25.089  1.00  0.00     0.010 A 
ATOM     67  C   UNL A   1      50.215  26.031  27.294  1.00  0.00     0.010 A 
ATOM     68  C   UNL A   1      51.122  26.456  24.681  1.00  0.00     0.020 A 
ATOM     69  C   UNL A   1      51.458  25.528  26.901  1.00  0.00     0.020 A 
ATOM     70  C   UNL A   1      51.895  25.728  25.590  1.00  0.00     0.054 A 
BRANCH  70  71
ATOM     71  S   UNL A   1      53.490  25.064  25.038  1.00  0.00     0.124 S 
ATOM     72  O   UNL A   1      53.306  23.629  25.246  1.00  0.00    -0.237 OA
ATOM     73  O   UNL A   1      53.550  25.494  23.643  1.00  0.00    -0.237 OA
ATOM     74  O   UNL A   1      54.459  25.703  25.926  1.00  0.00    -0.744 OA
ENDBRANCH  70  71
ENDBRANCH  51  65
BRANCH  52  75
ATOM     75  C   UNL A   1      40.474  29.789  29.704  1.00  0.00    -0.014 A 
ATOM     76  C   UNL A   1      40.205  29.747  31.083  1.00  0.00     0.010 A 
ATOM     77  C   UNL A   1      39.487  30.280  28.832  1.00  0.00     0.010 A 
ATOM     78  C   UNL A   1      38.970  30.178  31.579  1.00  0.00     0.020 A 
ATOM     79  C   UNL A   1      38.261  30.739  29.324  1.00  0.00     0.020 A 
ATOM     80  C   UNL A   1      38.008  30.675  30.695  1.00  0.00     0.054 A 
BRANCH  80  81
ATOM     81  S   UNL A   1      36.437  31.288  31.369  1.00  0.00     0.124 S 
ATOM     82  O   UNL A   1      36.030  30.188  32.238  1.00  0.00    -0.237 OA
ATOM     83  O   UNL A   1      36.844  32.516  32.048  1.00  0.00    -0.237 OA
ATOM     84  O   UNL A   1      35.610  31.487  30.181  1.00  0.00    -0.744 OA
ENDBRANCH  80  81
ENDBRANCH  52  75
BRANCH  64  85
ATOM     85  C   UNL A   1      46.656  32.940  28.894  1.00  0.00    -0.014 A 
ATOM     86  C   UNL A   1      47.241  33.303  30.120  1.00  0.00     0.010 A 
ATOM     87  C   UNL A   1      46.565  33.900  27.868  1.00  0.00     0.010 A 
ATOM     88  C   UNL A   1      47.697  34.607  30.327  1.00  0.00     0.020 A 
ATOM     89  C   UNL A   1      47.049  35.195  28.060  1.00  0.00     0.020 A 
ATOM     90  C   UNL A   1      47.600  35.545  29.294  1.00  0.00     0.054 A 
BRANCH  90  91
ATOM     91  S   UNL A   1      48.243  37.218  29.571  1.00  0.00     0.124 S 
ATOM     92  O   UNL A   1      47.963  37.867  28.294  1.00  0.00    -0.237 OA
ATOM     93  O   UNL A   1      47.444  37.685  30.703  1.00  0.00    -0.237 OA
ATOM     94  O   UNL A   1      49.659  37.002  29.864  1.00  0.00    -0.744 OA
ENDBRANCH  90  91
ENDBRANCH  64  85
ENDBRANCH  38  39
ENDBRANCH  30  33
ENDBRANCH  28  29
ENDBRANCH   1  28
TORSDOF 17
ENDMDL
