MODEL 1
REMARK VINA RESULT:     -10.7      0.000      0.000
REMARK SMILES CN(CC(=O)NCCCCNC(=O)c1ccc(-c2c3nc(c(-c4ccc(S(=O)(=O)[O-])cc4)c4ccc([nH]4)c(-c4ccc(S(=O)(=O)[O-])cc4)c4nc(c(-c5ccc(S(=O)(=O)[O-])cc5)c5ccc2[nH]5)C=C4)C=C3)cc1)C(=O)N[C@@H]1C[C@H]1c1ccccc1
REMARK SMILES IDX 8 1 7 2 6 3 4 4 5 5 3 7 2 8 1 9 74 10 75 11 76 12 77 14
REMARK SMILES IDX 78 15 79 16 80 17 81 18 85 19 82 20 84 21 83 22 9 23 10 24
REMARK SMILES IDX 11 25 12 26 13 28 14 29 15 30 73 31 16 32 72 33 17 34 18 35
REMARK SMILES IDX 19 36 66 37 20 38 71 39 65 40 67 41 21 42 70 43 64 44 63 45
REMARK SMILES IDX 22 47 52 48 33 49 51 50 34 51 37 52 50 53 68 54 35 55 36 56
REMARK SMILES IDX 49 58 69 59 38 60 23 61 24 62 32 63 25 64 31 65 26 66 27 67
REMARK SMILES IDX 28 68 29 69 30 70 53 71 54 72 62 73 55 74 61 75 56 76 57 77
REMARK SMILES IDX 58 78 59 79 60 80 39 81 40 82 48 83 41 84 47 85 42 86 43 87
REMARK SMILES IDX 44 88 45 89 46 90
REMARK H PARENT 6 6 76 13 11 27 67 46 37 57
REMARK Flexibility Score: inf
ROOT
ATOM      1  C   UNL A   1      34.760  23.867  23.925  1.00  0.00     0.023 C 
ENDROOT
BRANCH   1   2
ATOM      2  C   UNL A   1      34.571  25.063  24.847  1.00  0.00     0.116 C 
BRANCH   2   3
ATOM      3  N   UNL A   1      33.604  26.016  24.362  1.00  0.00    -0.355 N 
ATOM      4  C   UNL A   1      32.452  26.404  24.980  1.00  0.00     0.239 C 
ATOM      5  O   UNL A   1      32.053  27.550  24.747  1.00  0.00    -0.273 OA
ATOM      6  H   UNL A   1      33.797  26.431  23.491  1.00  0.00     0.163 HD
BRANCH   4   7
ATOM      7  C   UNL A   1      31.808  25.542  26.076  1.00  0.00     0.220 C 
BRANCH   7   8
ATOM      8  N   UNL A   1      31.268  24.215  25.742  1.00  0.00    -0.319 N 
ATOM      9  C   UNL A   1      30.344  23.680  26.742  1.00  0.00     0.149 C 
BRANCH   8  10
ATOM     10  C   UNL A   1      31.319  23.464  24.602  1.00  0.00     0.317 C 
ATOM     11  O   UNL A   1      31.042  24.001  23.515  1.00  0.00    -0.249 OA
ATOM     12  N   UNL A   1      31.637  22.169  24.446  1.00  0.00    -0.335 N 
ATOM     13  H   UNL A   1      31.535  21.949  23.492  1.00  0.00     0.165 HD
BRANCH  12  14
ATOM     14  C   UNL A   1      32.067  20.982  25.119  1.00  0.00     0.092 C 
ATOM     15  C   UNL A   1      33.331  20.997  25.914  1.00  0.00     0.036 C 
ATOM     16  C   UNL A   1      33.169  20.074  24.723  1.00  0.00     0.044 C 
BRANCH  16  17
ATOM     17  C   UNL A   1      33.377  18.608  24.943  1.00  0.00    -0.043 A 
ATOM     18  C   UNL A   1      34.410  17.996  24.204  1.00  0.00     0.004 A 
ATOM     19  C   UNL A   1      32.537  17.779  25.693  1.00  0.00     0.004 A 
ATOM     20  C   UNL A   1      34.579  16.617  24.171  1.00  0.00     0.000 A 
ATOM     21  C   UNL A   1      32.711  16.389  25.674  1.00  0.00     0.000 A 
ATOM     22  C   UNL A   1      33.721  15.810  24.904  1.00  0.00     0.000 A 
ENDBRANCH  16  17
ENDBRANCH  12  14
ENDBRANCH   8  10
ENDBRANCH   7   8
ENDBRANCH   4   7
ENDBRANCH   2   3
ENDBRANCH   1   2
BRANCH   1  23
ATOM     23  C   UNL A   1      35.923  22.939  24.283  1.00  0.00     0.023 C 
BRANCH  23  24
ATOM     24  C   UNL A   1      37.063  23.573  25.072  1.00  0.00     0.116 C 
BRANCH  24  25
ATOM     25  N   UNL A   1      38.099  22.629  25.460  1.00  0.00    -0.352 N 
ATOM     26  C   UNL A   1      39.220  22.835  26.232  1.00  0.00     0.251 C 
ATOM     27  H   UNL A   1      37.981  21.712  25.123  1.00  0.00     0.163 HD
ATOM     28  O   UNL A   1      40.017  21.926  26.407  1.00  0.00    -0.269 OA
BRANCH  26  29
ATOM     29  C   UNL A   1      39.472  24.176  26.802  1.00  0.00     0.039 A 
ATOM     30  C   UNL A   1      39.018  24.443  28.096  1.00  0.00     0.014 A 
ATOM     31  C   UNL A   1      40.177  25.146  26.087  1.00  0.00     0.014 A 
ATOM     32  C   UNL A   1      39.335  25.661  28.700  1.00  0.00     0.010 A 
ATOM     33  C   UNL A   1      40.555  26.328  26.716  1.00  0.00     0.010 A 
ATOM     34  C   UNL A   1      40.141  26.597  28.030  1.00  0.00    -0.014 A 
BRANCH  34  35
ATOM     35  C   UNL A   1      40.556  27.862  28.689  1.00  0.00     0.031 A 
ATOM     36  C   UNL A   1      41.943  27.992  29.259  1.00  0.00     0.074 A 
ATOM     37  C   UNL A   1      39.674  28.874  28.812  1.00  0.00     0.049 A 
ATOM     38  N   UNL A   1      42.470  28.989  29.923  1.00  0.00    -0.248 NA
ATOM     39  C   UNL A   1      42.850  26.846  29.077  1.00  0.00     0.031 C 
ATOM     40  C   UNL A   1      38.291  28.861  28.325  1.00  0.00     0.029 A 
ATOM     41  N   UNL A   1      39.807  30.114  29.387  1.00  0.00    -0.354 N 
ATOM     42  C   UNL A   1      43.764  28.592  30.237  1.00  0.00     0.074 A 
ATOM     43  C   UNL A   1      43.924  27.240  29.747  1.00  0.00     0.031 C 
ATOM     44  C   UNL A   1      37.717  30.045  28.595  1.00  0.00     0.029 A 
ATOM     45  C   UNL A   1      38.670  30.885  29.311  1.00  0.00     0.049 A 
ATOM     46  H   UNL A   1      40.639  30.421  29.814  1.00  0.00     0.167 HD
ATOM     47  C   UNL A   1      44.742  29.297  30.854  1.00  0.00     0.031 A 
ATOM     48  C   UNL A   1      38.423  32.127  29.773  1.00  0.00     0.031 A 
ATOM     49  C   UNL A   1      44.585  30.643  31.335  1.00  0.00     0.049 A 
ATOM     50  C   UNL A   1      39.516  32.871  30.493  1.00  0.00     0.074 A 
ATOM     51  C   UNL A   1      45.523  31.449  31.956  1.00  0.00     0.029 A 
ATOM     52  N   UNL A   1      43.418  31.386  31.242  1.00  0.00    -0.354 N 
ATOM     53  N   UNL A   1      40.746  32.490  30.745  1.00  0.00    -0.248 NA
ATOM     54  C   UNL A   1      39.191  34.218  30.983  1.00  0.00     0.031 C 
ATOM     55  C   UNL A   1      44.911  32.665  32.276  1.00  0.00     0.029 A 
ATOM     56  C   UNL A   1      43.610  32.637  31.802  1.00  0.00     0.049 A 
ATOM     57  H   UNL A   1      42.578  31.071  30.837  1.00  0.00     0.167 HD
ATOM     58  C   UNL A   1      41.351  33.566  31.385  1.00  0.00     0.074 A 
ATOM     59  C   UNL A   1      40.357  34.615  31.470  1.00  0.00     0.031 C 
ATOM     60  C   UNL A   1      42.616  33.677  31.862  1.00  0.00     0.031 A 
BRANCH  47  61
ATOM     61  C   UNL A   1      46.081  28.629  31.026  1.00  0.00    -0.014 A 
ATOM     62  C   UNL A   1      47.123  28.866  30.112  1.00  0.00     0.010 A 
ATOM     63  C   UNL A   1      46.323  27.809  32.143  1.00  0.00     0.010 A 
ATOM     64  C   UNL A   1      48.375  28.275  30.295  1.00  0.00     0.020 A 
ATOM     65  C   UNL A   1      47.583  27.238  32.346  1.00  0.00     0.020 A 
ATOM     66  C   UNL A   1      48.598  27.466  31.414  1.00  0.00     0.054 A 
BRANCH  66  67
ATOM     67  S   UNL A   1      50.247  26.752  31.649  1.00  0.00     0.124 S 
ATOM     68  O   UNL A   1      50.184  26.299  33.037  1.00  0.00    -0.237 OA
ATOM     69  O   UNL A   1      50.283  25.692  30.645  1.00  0.00    -0.237 OA
ATOM     70  O   UNL A   1      51.151  27.872  31.402  1.00  0.00    -0.744 OA
ENDBRANCH  66  67
ENDBRANCH  47  61
BRANCH  48  71
ATOM     71  C   UNL A   1      37.089  32.758  29.571  1.00  0.00    -0.014 A 
ATOM     72  C   UNL A   1      36.801  33.454  28.382  1.00  0.00     0.010 A 
ATOM     73  C   UNL A   1      36.114  32.708  30.583  1.00  0.00     0.010 A 
ATOM     74  C   UNL A   1      35.584  34.126  28.230  1.00  0.00     0.020 A 
ATOM     75  C   UNL A   1      34.884  33.351  30.422  1.00  0.00     0.020 A 
ATOM     76  C   UNL A   1      34.635  34.076  29.256  1.00  0.00     0.054 A 
BRANCH  76  77
ATOM     77  S   UNL A   1      33.065  34.958  29.040  1.00  0.00     0.124 S 
ATOM     78  O   UNL A   1      32.387  34.132  28.048  1.00  0.00    -0.237 OA
ATOM     79  O   UNL A   1      32.498  34.929  30.386  1.00  0.00    -0.237 OA
ATOM     80  O   UNL A   1      33.480  36.281  28.577  1.00  0.00    -0.744 OA
ENDBRANCH  76  77
ENDBRANCH  48  71
BRANCH  60  81
ATOM     81  C   UNL A   1      43.016  34.996  32.466  1.00  0.00    -0.014 A 
ATOM     82  C   UNL A   1      43.535  36.037  31.676  1.00  0.00     0.010 A 
ATOM     83  C   UNL A   1      42.821  35.213  33.843  1.00  0.00     0.010 A 
ATOM     84  C   UNL A   1      43.882  37.259  32.257  1.00  0.00     0.020 A 
ATOM     85  C   UNL A   1      43.139  36.443  34.423  1.00  0.00     0.020 A 
ATOM     86  C   UNL A   1      43.683  37.454  33.628  1.00  0.00     0.054 A 
BRANCH  86  87
ATOM     87  S   UNL A   1      44.102  39.063  34.350  1.00  0.00     0.124 S 
ATOM     88  O   UNL A   1      43.010  39.906  33.867  1.00  0.00    -0.237 OA
ATOM     89  O   UNL A   1      44.094  38.784  35.783  1.00  0.00    -0.237 OA
ATOM     90  O   UNL A   1      45.417  39.365  33.787  1.00  0.00    -0.744 OA
ENDBRANCH  86  87
ENDBRANCH  60  81
ENDBRANCH  34  35
ENDBRANCH  26  29
ENDBRANCH  24  25
ENDBRANCH  23  24
ENDBRANCH   1  23
TORSDOF 18
ENDMDL
MODEL 2
REMARK VINA RESULT:     -10.6      2.695      8.947
REMARK SMILES CN(CC(=O)NCCCCNC(=O)c1ccc(-c2c3nc(c(-c4ccc(S(=O)(=O)[O-])cc4)c4ccc([nH]4)c(-c4ccc(S(=O)(=O)[O-])cc4)c4nc(c(-c5ccc(S(=O)(=O)[O-])cc5)c5ccc2[nH]5)C=C4)C=C3)cc1)C(=O)N[C@@H]1C[C@H]1c1ccccc1
REMARK SMILES IDX 8 1 7 2 6 3 4 4 5 5 3 7 2 8 1 9 74 10 75 11 76 12 77 14
REMARK SMILES IDX 78 15 79 16 80 17 81 18 85 19 82 20 84 21 83 22 9 23 10 24
REMARK SMILES IDX 11 25 12 26 13 28 14 29 15 30 73 31 16 32 72 33 17 34 18 35
REMARK SMILES IDX 19 36 66 37 20 38 71 39 65 40 67 41 21 42 70 43 64 44 63 45
REMARK SMILES IDX 22 47 52 48 33 49 51 50 34 51 37 52 50 53 68 54 35 55 36 56
REMARK SMILES IDX 49 58 69 59 38 60 23 61 24 62 32 63 25 64 31 65 26 66 27 67
REMARK SMILES IDX 28 68 29 69 30 70 53 71 54 72 62 73 55 74 61 75 56 76 57 77
REMARK SMILES IDX 58 78 59 79 60 80 39 81 40 82 48 83 41 84 47 85 42 86 43 87
REMARK SMILES IDX 44 88 45 89 46 90
REMARK H PARENT 6 6 76 13 11 27 67 46 37 57
REMARK Flexibility Score: inf
ROOT
ATOM      1  C   UNL A   1      32.896  25.741  25.982  1.00  0.00     0.023 C 
ENDROOT
BRANCH   1   2
ATOM      2  C   UNL A   1      31.419  25.451  26.206  1.00  0.00     0.116 C 
BRANCH   2   3
ATOM      3  N   UNL A   1      30.545  26.257  25.391  1.00  0.00    -0.355 N 
ATOM      4  C   UNL A   1      29.972  25.907  24.205  1.00  0.00     0.239 C 
ATOM      5  O   UNL A   1      28.886  26.427  23.934  1.00  0.00    -0.273 OA
ATOM      6  H   UNL A   1      30.338  27.159  25.729  1.00  0.00     0.163 HD
BRANCH   4   7
ATOM      7  C   UNL A   1      30.542  24.760  23.355  1.00  0.00     0.220 C 
BRANCH   7   8
ATOM      8  N   UNL A   1      31.779  24.963  22.586  1.00  0.00    -0.319 N 
ATOM      9  C   UNL A   1      31.696  26.044  21.602  1.00  0.00     0.149 C 
BRANCH   8  10
ATOM     10  C   UNL A   1      33.043  24.465  22.729  1.00  0.00     0.317 C 
ATOM     11  O   UNL A   1      34.010  25.176  22.402  1.00  0.00    -0.249 OA
ATOM     12  N   UNL A   1      33.443  23.271  23.194  1.00  0.00    -0.335 N 
ATOM     13  H   UNL A   1      34.424  23.236  23.124  1.00  0.00     0.165 HD
BRANCH  12  14
ATOM     14  C   UNL A   1      33.005  22.027  23.751  1.00  0.00     0.092 C 
ATOM     15  C   UNL A   1      33.027  21.829  25.230  1.00  0.00     0.036 C 
ATOM     16  C   UNL A   1      33.851  20.948  24.312  1.00  0.00     0.044 C 
BRANCH  16  17
ATOM     17  C   UNL A   1      33.646  19.467  24.397  1.00  0.00    -0.043 A 
ATOM     18  C   UNL A   1      34.797  18.679  24.596  1.00  0.00     0.004 A 
ATOM     19  C   UNL A   1      32.442  18.805  24.140  1.00  0.00     0.004 A 
ATOM     20  C   UNL A   1      34.770  17.292  24.500  1.00  0.00     0.000 A 
ATOM     21  C   UNL A   1      32.406  17.407  24.055  1.00  0.00     0.000 A 
ATOM     22  C   UNL A   1      33.570  16.655  24.222  1.00  0.00     0.000 A 
ENDBRANCH  16  17
ENDBRANCH  12  14
ENDBRANCH   8  10
ENDBRANCH   7   8
ENDBRANCH   4   7
ENDBRANCH   2   3
ENDBRANCH   1   2
BRANCH   1  23
ATOM     23  C   UNL A   1      33.232  27.186  25.610  1.00  0.00     0.023 C 
BRANCH  23  24
ATOM     24  C   UNL A   1      34.188  27.913  26.550  1.00  0.00     0.116 C 
BRANCH  24  25
ATOM     25  N   UNL A   1      33.727  29.235  26.943  1.00  0.00    -0.352 N 
ATOM     26  C   UNL A   1      34.396  30.222  27.630  1.00  0.00     0.251 C 
ATOM     27  H   UNL A   1      32.805  29.455  26.678  1.00  0.00     0.163 HD
ATOM     28  O   UNL A   1      33.822  31.259  27.923  1.00  0.00    -0.269 OA
BRANCH  26  29
ATOM     29  C   UNL A   1      35.795  29.991  28.052  1.00  0.00     0.039 A 
ATOM     30  C   UNL A   1      36.025  29.474  29.329  1.00  0.00     0.014 A 
ATOM     31  C   UNL A   1      36.863  30.247  27.190  1.00  0.00     0.014 A 
ATOM     32  C   UNL A   1      37.326  29.144  29.714  1.00  0.00     0.010 A 
ATOM     33  C   UNL A   1      38.148  29.850  27.547  1.00  0.00     0.010 A 
ATOM     34  C   UNL A   1      38.393  29.292  28.812  1.00  0.00    -0.014 A 
BRANCH  34  35
ATOM     35  C   UNL A   1      39.769  28.870  29.176  1.00  0.00     0.031 A 
ATOM     36  C   UNL A   1      40.679  29.819  29.906  1.00  0.00     0.074 A 
ATOM     37  C   UNL A   1      40.214  27.650  28.810  1.00  0.00     0.049 A 
ATOM     38  N   UNL A   1      41.930  29.657  30.256  1.00  0.00    -0.248 NA
ATOM     39  C   UNL A   1      40.117  31.129  30.278  1.00  0.00     0.031 C 
ATOM     40  C   UNL A   1      39.438  26.647  28.073  1.00  0.00     0.029 A 
ATOM     41  N   UNL A   1      41.430  27.044  29.006  1.00  0.00    -0.354 N 
ATOM     42  C   UNL A   1      42.303  30.840  30.884  1.00  0.00     0.074 A 
ATOM     43  C   UNL A   1      41.168  31.734  30.814  1.00  0.00     0.031 C 
ATOM     44  C   UNL A   1      40.186  25.544  27.909  1.00  0.00     0.029 A 
ATOM     45  C   UNL A   1      41.506  25.773  28.486  1.00  0.00     0.049 A 
ATOM     46  H   UNL A   1      42.178  27.480  29.476  1.00  0.00     0.167 HD
ATOM     47  C   UNL A   1      43.476  31.146  31.489  1.00  0.00     0.031 A 
ATOM     48  C   UNL A   1      42.528  24.893  28.469  1.00  0.00     0.031 A 
ATOM     49  C   UNL A   1      44.601  30.254  31.564  1.00  0.00     0.049 A 
ATOM     50  C   UNL A   1      43.834  25.278  29.113  1.00  0.00     0.074 A 
ATOM     51  C   UNL A   1      45.826  30.465  32.174  1.00  0.00     0.029 A 
ATOM     52  N   UNL A   1      44.639  28.979  31.022  1.00  0.00    -0.354 N 
ATOM     53  N   UNL A   1      44.152  26.388  29.736  1.00  0.00    -0.248 NA
ATOM     54  C   UNL A   1      44.917  24.285  29.060  1.00  0.00     0.031 C 
ATOM     55  C   UNL A   1      46.619  29.333  31.963  1.00  0.00     0.029 A 
ATOM     56  C   UNL A   1      45.868  28.395  31.274  1.00  0.00     0.049 A 
ATOM     57  H   UNL A   1      43.900  28.551  30.531  1.00  0.00     0.167 HD
ATOM     58  C   UNL A   1      45.457  26.209  30.183  1.00  0.00     0.074 A 
ATOM     59  C   UNL A   1      45.863  24.881  29.771  1.00  0.00     0.031 C 
ATOM     60  C   UNL A   1      46.250  27.066  30.873  1.00  0.00     0.031 A 
BRANCH  47  61
ATOM     61  C   UNL A   1      43.593  32.499  32.138  1.00  0.00    -0.014 A 
ATOM     62  C   UNL A   1      43.271  32.674  33.497  1.00  0.00     0.010 A 
ATOM     63  C   UNL A   1      44.089  33.593  31.407  1.00  0.00     0.010 A 
ATOM     64  C   UNL A   1      43.416  33.923  34.105  1.00  0.00     0.020 A 
ATOM     65  C   UNL A   1      44.263  34.839  32.019  1.00  0.00     0.020 A 
ATOM     66  C   UNL A   1      43.915  34.997  33.362  1.00  0.00     0.054 A 
BRANCH  66  67
ATOM     67  S   UNL A   1      44.138  36.593  34.193  1.00  0.00     0.124 S 
ATOM     68  O   UNL A   1      45.402  37.055  33.624  1.00  0.00    -0.237 OA
ATOM     69  O   UNL A   1      42.953  37.339  33.776  1.00  0.00    -0.237 OA
ATOM     70  O   UNL A   1      44.185  36.244  35.610  1.00  0.00    -0.744 OA
ENDBRANCH  66  67
ENDBRANCH  47  61
BRANCH  48  71
ATOM     71  C   UNL A   1      42.368  23.558  27.829  1.00  0.00    -0.014 A 
ATOM     72  C   UNL A   1      41.912  22.457  28.576  1.00  0.00     0.010 A 
ATOM     73  C   UNL A   1      42.714  23.368  26.479  1.00  0.00     0.010 A 
ATOM     74  C   UNL A   1      41.850  21.184  28.001  1.00  0.00     0.020 A 
ATOM     75  C   UNL A   1      42.623  22.103  25.890  1.00  0.00     0.020 A 
ATOM     76  C   UNL A   1      42.214  21.015  26.662  1.00  0.00     0.054 A 
BRANCH  76  77
ATOM     77  S   UNL A   1      42.132  19.355  25.935  1.00  0.00     0.124 S 
ATOM     78  O   UNL A   1      42.637  18.523  27.022  1.00  0.00    -0.237 OA
ATOM     79  O   UNL A   1      40.710  19.210  25.635  1.00  0.00    -0.237 OA
ATOM     80  O   UNL A   1      43.001  19.453  24.764  1.00  0.00    -0.744 OA
ENDBRANCH  76  77
ENDBRANCH  48  71
BRANCH  60  81
ATOM     81  C   UNL A   1      47.614  26.576  31.277  1.00  0.00    -0.014 A 
ATOM     82  C   UNL A   1      47.829  25.937  32.510  1.00  0.00     0.010 A 
ATOM     83  C   UNL A   1      48.690  26.714  30.380  1.00  0.00     0.010 A 
ATOM     84  C   UNL A   1      49.101  25.475  32.854  1.00  0.00     0.020 A 
ATOM     85  C   UNL A   1      49.958  26.227  30.708  1.00  0.00     0.020 A 
ATOM     86  C   UNL A   1      50.159  25.624  31.951  1.00  0.00     0.054 A 
BRANCH  86  87
ATOM     87  S   UNL A   1      51.791  24.977  32.404  1.00  0.00     0.124 S 
ATOM     88  O   UNL A   1      52.652  25.596  31.398  1.00  0.00    -0.237 OA
ATOM     89  O   UNL A   1      51.964  25.469  33.768  1.00  0.00    -0.237 OA
ATOM     90  O   UNL A   1      51.636  23.529  32.285  1.00  0.00    -0.744 OA
ENDBRANCH  86  87
ENDBRANCH  60  81
ENDBRANCH  34  35
ENDBRANCH  26  29
ENDBRANCH  24  25
ENDBRANCH  23  24
ENDBRANCH   1  23
TORSDOF 18
ENDMDL
MODEL 3
REMARK VINA RESULT:     -10.6      1.989      4.134
REMARK SMILES CN(CC(=O)NCCCCNC(=O)c1ccc(-c2c3nc(c(-c4ccc(S(=O)(=O)[O-])cc4)c4ccc([nH]4)c(-c4ccc(S(=O)(=O)[O-])cc4)c4nc(c(-c5ccc(S(=O)(=O)[O-])cc5)c5ccc2[nH]5)C=C4)C=C3)cc1)C(=O)N[C@@H]1C[C@H]1c1ccccc1
REMARK SMILES IDX 8 1 7 2 6 3 4 4 5 5 3 7 2 8 1 9 74 10 75 11 76 12 77 14
REMARK SMILES IDX 78 15 79 16 80 17 81 18 85 19 82 20 84 21 83 22 9 23 10 24
REMARK SMILES IDX 11 25 12 26 13 28 14 29 15 30 73 31 16 32 72 33 17 34 18 35
REMARK SMILES IDX 19 36 66 37 20 38 71 39 65 40 67 41 21 42 70 43 64 44 63 45
REMARK SMILES IDX 22 47 52 48 33 49 51 50 34 51 37 52 50 53 68 54 35 55 36 56
REMARK SMILES IDX 49 58 69 59 38 60 23 61 24 62 32 63 25 64 31 65 26 66 27 67
REMARK SMILES IDX 28 68 29 69 30 70 53 71 54 72 62 73 55 74 61 75 56 76 57 77
REMARK SMILES IDX 58 78 59 79 60 80 39 81 40 82 48 83 41 84 47 85 42 86 43 87
REMARK SMILES IDX 44 88 45 89 46 90
REMARK H PARENT 6 6 76 13 11 27 67 46 37 57
REMARK Flexibility Score: inf
ROOT
ATOM      1  C   UNL A   1      35.274  23.353  23.508  1.00  0.00     0.023 C 
ENDROOT
BRANCH   1   2
ATOM      2  C   UNL A   1      33.921  24.050  23.524  1.00  0.00     0.116 C 
BRANCH   2   3
ATOM      3  N   UNL A   1      32.807  23.144  23.394  1.00  0.00    -0.355 N 
ATOM      4  C   UNL A   1      31.481  23.461  23.436  1.00  0.00     0.239 C 
ATOM      5  O   UNL A   1      30.715  22.741  22.789  1.00  0.00    -0.273 OA
ATOM      6  H   UNL A   1      33.027  22.194  23.261  1.00  0.00     0.163 HD
BRANCH   4   7
ATOM      7  C   UNL A   1      30.997  24.773  24.074  1.00  0.00     0.220 C 
BRANCH   7   8
ATOM      8  N   UNL A   1      30.622  25.909  23.217  1.00  0.00    -0.319 N 
ATOM      9  C   UNL A   1      29.384  26.576  23.624  1.00  0.00     0.149 C 
BRANCH   8  10
ATOM     10  C   UNL A   1      31.289  26.573  22.228  1.00  0.00     0.317 C 
ATOM     11  O   UNL A   1      31.118  26.221  21.047  1.00  0.00    -0.249 OA
ATOM     12  N   UNL A   1      32.145  27.604  22.318  1.00  0.00    -0.335 N 
ATOM     13  H   UNL A   1      32.463  27.807  21.409  1.00  0.00     0.165 HD
BRANCH  12  14
ATOM     14  C   UNL A   1      32.777  28.523  23.214  1.00  0.00     0.092 C 
ATOM     15  C   UNL A   1      34.257  28.474  23.403  1.00  0.00     0.036 C 
ATOM     16  C   UNL A   1      33.313  28.235  24.565  1.00  0.00     0.044 C 
BRANCH  16  17
ATOM     17  C   UNL A   1      33.467  29.098  25.778  1.00  0.00    -0.043 A 
ATOM     18  C   UNL A   1      32.475  30.077  25.989  1.00  0.00     0.004 A 
ATOM     19  C   UNL A   1      34.585  29.115  26.617  1.00  0.00     0.004 A 
ATOM     20  C   UNL A   1      32.603  31.062  26.962  1.00  0.00     0.000 A 
ATOM     21  C   UNL A   1      34.714  30.097  27.608  1.00  0.00     0.000 A 
ATOM     22  C   UNL A   1      33.731  31.075  27.770  1.00  0.00     0.000 A 
ENDBRANCH  16  17
ENDBRANCH  12  14
ENDBRANCH   8  10
ENDBRANCH   7   8
ENDBRANCH   4   7
ENDBRANCH   2   3
ENDBRANCH   1   2
BRANCH   1  23
ATOM     23  C   UNL A   1      35.786  22.882  24.870  1.00  0.00     0.023 C 
BRANCH  23  24
ATOM     24  C   UNL A   1      37.028  23.592  25.399  1.00  0.00     0.116 C 
BRANCH  24  25
ATOM     25  N   UNL A   1      38.152  22.701  25.641  1.00  0.00    -0.352 N 
ATOM     26  C   UNL A   1      39.340  22.954  26.287  1.00  0.00     0.251 C 
ATOM     27  H   UNL A   1      38.046  21.786  25.294  1.00  0.00     0.163 HD
ATOM     28  O   UNL A   1      40.200  22.089  26.345  1.00  0.00    -0.269 OA
BRANCH  26  29
ATOM     29  C   UNL A   1      39.582  24.295  26.862  1.00  0.00     0.039 A 
ATOM     30  C   UNL A   1      39.155  24.543  28.168  1.00  0.00     0.014 A 
ATOM     31  C   UNL A   1      40.252  25.283  26.138  1.00  0.00     0.014 A 
ATOM     32  C   UNL A   1      39.465  25.762  28.775  1.00  0.00     0.010 A 
ATOM     33  C   UNL A   1      40.623  26.467  26.768  1.00  0.00     0.010 A 
ATOM     34  C   UNL A   1      40.237  26.718  28.094  1.00  0.00    -0.014 A 
BRANCH  34  35
ATOM     35  C   UNL A   1      40.646  27.984  28.752  1.00  0.00     0.031 A 
ATOM     36  C   UNL A   1      42.033  28.123  29.319  1.00  0.00     0.074 A 
ATOM     37  C   UNL A   1      39.757  28.990  28.879  1.00  0.00     0.049 A 
ATOM     38  N   UNL A   1      42.555  29.123  29.982  1.00  0.00    -0.248 NA
ATOM     39  C   UNL A   1      42.947  26.984  29.134  1.00  0.00     0.031 C 
ATOM     40  C   UNL A   1      38.373  28.968  28.396  1.00  0.00     0.029 A 
ATOM     41  N   UNL A   1      39.884  30.231  29.455  1.00  0.00    -0.354 N 
ATOM     42  C   UNL A   1      43.853  28.734  30.293  1.00  0.00     0.074 A 
ATOM     43  C   UNL A   1      44.020  27.384  29.801  1.00  0.00     0.031 C 
ATOM     44  C   UNL A   1      37.792  30.148  28.669  1.00  0.00     0.029 A 
ATOM     45  C   UNL A   1      38.742  30.994  29.383  1.00  0.00     0.049 A 
ATOM     46  H   UNL A   1      40.715  30.543  29.881  1.00  0.00     0.167 HD
ATOM     47  C   UNL A   1      44.828  29.445  30.908  1.00  0.00     0.031 A 
ATOM     48  C   UNL A   1      38.487  32.234  29.847  1.00  0.00     0.031 A 
ATOM     49  C   UNL A   1      44.663  30.790  31.391  1.00  0.00     0.049 A 
ATOM     50  C   UNL A   1      39.578  32.984  30.565  1.00  0.00     0.074 A 
ATOM     51  C   UNL A   1      45.598  31.601  32.010  1.00  0.00     0.029 A 
ATOM     52  N   UNL A   1      43.491  31.525  31.302  1.00  0.00    -0.354 N 
ATOM     53  N   UNL A   1      40.811  32.611  30.813  1.00  0.00    -0.248 NA
ATOM     54  C   UNL A   1      39.244  34.328  31.058  1.00  0.00     0.031 C 
ATOM     55  C   UNL A   1      44.978  32.813  32.333  1.00  0.00     0.029 A 
ATOM     56  C   UNL A   1      43.676  32.777  31.863  1.00  0.00     0.049 A 
ATOM     57  H   UNL A   1      42.652  31.204  30.898  1.00  0.00     0.167 HD
ATOM     58  C   UNL A   1      41.410  33.691  31.453  1.00  0.00     0.074 A 
ATOM     59  C   UNL A   1      40.409  34.733  31.542  1.00  0.00     0.031 C 
ATOM     60  C   UNL A   1      42.675  33.810  31.927  1.00  0.00     0.031 A 
BRANCH  47  61
ATOM     61  C   UNL A   1      46.171  28.787  31.076  1.00  0.00    -0.014 A 
ATOM     62  C   UNL A   1      46.459  28.025  32.223  1.00  0.00     0.010 A 
ATOM     63  C   UNL A   1      47.133  28.874  30.054  1.00  0.00     0.010 A 
ATOM     64  C   UNL A   1      47.693  27.384  32.358  1.00  0.00     0.020 A 
ATOM     65  C   UNL A   1      48.359  28.211  30.172  1.00  0.00     0.020 A 
ATOM     66  C   UNL A   1      48.635  27.479  31.329  1.00  0.00     0.054 A 
BRANCH  66  67
ATOM     67  S   UNL A   1      50.208  26.597  31.513  1.00  0.00     0.124 S 
ATOM     68  O   UNL A   1      49.921  25.328  30.849  1.00  0.00    -0.237 OA
ATOM     69  O   UNL A   1      51.148  27.472  30.816  1.00  0.00    -0.237 OA
ATOM     70  O   UNL A   1      50.393  26.513  32.960  1.00  0.00    -0.744 OA
ENDBRANCH  66  67
ENDBRANCH  47  61
BRANCH  48  71
ATOM     71  C   UNL A   1      37.148  32.857  29.649  1.00  0.00    -0.014 A 
ATOM     72  C   UNL A   1      36.865  33.586  28.480  1.00  0.00     0.010 A 
ATOM     73  C   UNL A   1      36.163  32.764  30.649  1.00  0.00     0.010 A 
ATOM     74  C   UNL A   1      35.643  34.249  28.334  1.00  0.00     0.020 A 
ATOM     75  C   UNL A   1      34.927  33.398  30.494  1.00  0.00     0.020 A 
ATOM     76  C   UNL A   1      34.684  34.156  29.347  1.00  0.00     0.054 A 
BRANCH  76  77
ATOM     77  S   UNL A   1      33.106  35.028  29.141  1.00  0.00     0.124 S 
ATOM     78  O   UNL A   1      32.437  34.210  28.136  1.00  0.00    -0.237 OA
ATOM     79  O   UNL A   1      32.536  34.973  30.485  1.00  0.00    -0.237 OA
ATOM     80  O   UNL A   1      33.510  36.361  28.699  1.00  0.00    -0.744 OA
ENDBRANCH  76  77
ENDBRANCH  48  71
BRANCH  60  81
ATOM     81  C   UNL A   1      43.069  35.131  32.530  1.00  0.00    -0.014 A 
ATOM     82  C   UNL A   1      43.686  36.134  31.763  1.00  0.00     0.010 A 
ATOM     83  C   UNL A   1      42.767  35.390  33.881  1.00  0.00     0.010 A 
ATOM     84  C   UNL A   1      44.025  37.359  32.342  1.00  0.00     0.020 A 
ATOM     85  C   UNL A   1      43.077  36.624  34.456  1.00  0.00     0.020 A 
ATOM     86  C   UNL A   1      43.719  37.596  33.686  1.00  0.00     0.054 A 
BRANCH  86  87
ATOM     87  S   UNL A   1      44.131  39.210  34.403  1.00  0.00     0.124 S 
ATOM     88  O   UNL A   1      45.440  39.479  33.813  1.00  0.00    -0.237 OA
ATOM     89  O   UNL A   1      43.042  40.059  33.928  1.00  0.00    -0.237 OA
ATOM     90  O   UNL A   1      44.136  38.960  35.843  1.00  0.00    -0.744 OA
ENDBRANCH  86  87
ENDBRANCH  60  81
ENDBRANCH  34  35
ENDBRANCH  26  29
ENDBRANCH  24  25
ENDBRANCH  23  24
ENDBRANCH   1  23
TORSDOF 18
ENDMDL
