MODEL 1
REMARK VINA RESULT:     -10.3      0.000      0.000
REMARK SMILES C[C@H](O)C[C@@]1(C(=O)NCCCCNC(=O)c2ccc(-c3c4nc(c(-c5ccc(S(=O)(=O)[O-])cc5)c5ccc([nH]5)c(-c5ccc(S(=O)(=O)[O-])cc5)c5nc(c(-c6ccc(S(=O)(=O)[O-])cc6)c6ccc3[nH]6)C=C5)C=C4)cc2)CCN(C(=O)OC(C)(C)C)C1
REMARK SMILES IDX 10 1 9 2 8 3 6 4 7 5 5 7 76 8 86 9 77 10 78 11 4 12 2 13
REMARK SMILES IDX 1 14 3 15 79 17 80 18 81 19 82 20 83 21 84 22 85 23 11 24
REMARK SMILES IDX 12 25 13 26 14 27 15 29 16 30 17 31 75 32 18 33 74 34 19 35
REMARK SMILES IDX 20 36 21 37 68 38 22 39 73 40 67 41 69 42 23 43 72 44 66 45
REMARK SMILES IDX 65 46 24 48 54 49 35 50 53 51 36 52 39 53 52 54 70 55 37 56
REMARK SMILES IDX 38 57 51 59 71 60 40 61 25 62 26 63 34 64 27 65 33 66 28 67
REMARK SMILES IDX 29 68 30 69 31 70 32 71 55 72 56 73 64 74 57 75 63 76 58 77
REMARK SMILES IDX 59 78 60 79 61 80 62 81 41 82 42 83 50 84 43 85 49 86 44 87
REMARK SMILES IDX 45 88 46 89 47 90 48 91
REMARK H PARENT 8 6 3 16 13 28 69 47 39 58
REMARK Flexibility Score: inf
ROOT
ATOM      1  C   UNL A   1      37.613  20.897  24.788  1.00  0.00     0.023 C 
ENDROOT
BRANCH   1   2
ATOM      2  C   UNL A   1      36.123  20.699  25.023  1.00  0.00     0.116 C 
BRANCH   2   3
ATOM      3  N   UNL A   1      35.632  21.241  26.281  1.00  0.00    -0.356 N 
ATOM      4  C   UNL A   1      34.568  22.062  26.539  1.00  0.00     0.228 C 
ATOM      5  O   UNL A   1      34.273  22.224  27.726  1.00  0.00    -0.274 OA
ATOM      6  H   UNL A   1      36.149  20.974  27.076  1.00  0.00     0.163 HD
BRANCH   4   7
ATOM      7  C   UNL A   1      33.857  22.856  25.418  1.00  0.00     0.071 C 
ATOM      8  C   UNL A   1      34.880  23.778  24.683  1.00  0.00     0.040 C 
ATOM      9  C   UNL A   1      32.860  23.857  26.010  1.00  0.00     0.140 C 
ATOM     10  C   UNL A   1      34.737  25.146  25.343  1.00  0.00     0.124 C 
ATOM     11  N   UNL A   1      33.350  25.177  25.732  1.00  0.00    -0.307 N 
BRANCH   7  12
ATOM     12  C   UNL A   1      33.235  21.784  24.469  1.00  0.00     0.050 C 
BRANCH  12  13
ATOM     13  C   UNL A   1      32.638  20.507  25.088  1.00  0.00     0.112 C 
ATOM     14  C   UNL A   1      32.426  19.413  24.041  1.00  0.00     0.038 C 
BRANCH  13  15
ATOM     15  O   UNL A   1      31.392  20.766  25.718  1.00  0.00    -0.393 OA
ATOM     16  H   UNL A   1      30.717  20.169  25.359  1.00  0.00     0.210 HD
ENDBRANCH  13  15
ENDBRANCH  12  13
ENDBRANCH   7  12
BRANCH  11  17
ATOM     17  C   UNL A   1      32.557  26.252  26.035  1.00  0.00     0.410 C 
ATOM     18  O   UNL A   1      31.536  26.134  26.699  1.00  0.00    -0.224 OA
BRANCH  17  19
ATOM     19  O   UNL A   1      33.030  27.422  25.541  1.00  0.00    -0.444 OA
BRANCH  19  20
ATOM     20  C   UNL A   1      32.308  28.050  24.449  1.00  0.00     0.106 C 
ATOM     21  C   UNL A   1      31.779  26.998  23.462  1.00  0.00     0.056 C 
ATOM     22  C   UNL A   1      31.190  28.972  24.958  1.00  0.00     0.056 C 
ATOM     23  C   UNL A   1      33.350  28.913  23.724  1.00  0.00     0.056 C 
ENDBRANCH  19  20
ENDBRANCH  17  19
ENDBRANCH  11  17
ENDBRANCH   4   7
ENDBRANCH   2   3
ENDBRANCH   1   2
BRANCH   1  24
ATOM     24  C   UNL A   1      38.503  19.707  25.138  1.00  0.00     0.023 C 
BRANCH  24  25
ATOM     25  C   UNL A   1      39.656  19.997  26.093  1.00  0.00     0.116 C 
BRANCH  25  26
ATOM     26  N   UNL A   1      40.712  18.999  26.040  1.00  0.00    -0.352 N 
ATOM     27  C   UNL A   1      42.078  19.153  26.083  1.00  0.00     0.251 C 
ATOM     28  H   UNL A   1      40.401  18.068  25.960  1.00  0.00     0.163 HD
ATOM     29  O   UNL A   1      42.806  18.187  25.872  1.00  0.00    -0.269 OA
BRANCH  27  30
ATOM     30  C   UNL A   1      42.674  20.482  26.350  1.00  0.00     0.039 A 
ATOM     31  C   UNL A   1      43.241  21.194  25.289  1.00  0.00     0.014 A 
ATOM     32  C   UNL A   1      42.671  21.031  27.634  1.00  0.00     0.014 A 
ATOM     33  C   UNL A   1      43.729  22.485  25.504  1.00  0.00     0.010 A 
ATOM     34  C   UNL A   1      43.071  22.352  27.826  1.00  0.00     0.010 A 
ATOM     35  C   UNL A   1      43.608  23.095  26.764  1.00  0.00    -0.014 A 
BRANCH  35  36
ATOM     36  C   UNL A   1      44.026  24.505  26.980  1.00  0.00     0.031 A 
ATOM     37  C   UNL A   1      45.471  24.905  26.828  1.00  0.00     0.074 A 
ATOM     38  C   UNL A   1      43.113  25.421  27.364  1.00  0.00     0.049 A 
ATOM     39  N   UNL A   1      46.024  26.079  26.999  1.00  0.00    -0.248 NA
ATOM     40  C   UNL A   1      46.423  23.844  26.460  1.00  0.00     0.031 C 
ATOM     41  C   UNL A   1      41.691  25.154  27.592  1.00  0.00     0.029 A 
ATOM     42  N   UNL A   1      43.243  26.761  27.630  1.00  0.00    -0.354 N 
ATOM     43  C   UNL A   1      47.383  25.897  26.771  1.00  0.00     0.074 A 
ATOM     44  C   UNL A   1      47.580  24.488  26.509  1.00  0.00     0.031 C 
ATOM     45  C   UNL A   1      41.075  26.300  27.924  1.00  0.00     0.029 A 
ATOM     46  C   UNL A   1      42.061  27.374  27.980  1.00  0.00     0.049 A 
ATOM     47  H   UNL A   1      44.101  27.241  27.575  1.00  0.00     0.167 HD
ATOM     48  C   UNL A   1      48.376  26.819  26.757  1.00  0.00     0.031 A 
ATOM     49  C   UNL A   1      41.799  28.653  28.314  1.00  0.00     0.031 A 
ATOM     50  C   UNL A   1      48.176  28.221  27.016  1.00  0.00     0.049 A 
ATOM     51  C   UNL A   1      42.920  29.655  28.310  1.00  0.00     0.074 A 
ATOM     52  C   UNL A   1      49.107  29.243  26.975  1.00  0.00     0.029 A 
ATOM     53  N   UNL A   1      46.966  28.798  27.369  1.00  0.00    -0.354 N 
ATOM     54  N   UNL A   1      44.187  29.474  28.021  1.00  0.00    -0.248 NA
ATOM     55  C   UNL A   1      42.574  31.037  28.665  1.00  0.00     0.031 C 
ATOM     56  C   UNL A   1      48.474  30.427  27.366  1.00  0.00     0.029 A 
ATOM     57  C   UNL A   1      47.132  30.157  27.578  1.00  0.00     0.049 A 
ATOM     58  H   UNL A   1      46.113  28.313  27.459  1.00  0.00     0.167 HD
ATOM     59  C   UNL A   1      44.783  30.726  28.131  1.00  0.00     0.074 A 
ATOM     60  C   UNL A   1      43.734  31.657  28.492  1.00  0.00     0.031 C 
ATOM     61  C   UNL A   1      46.081  31.074  27.945  1.00  0.00     0.031 A 
BRANCH  48  62
ATOM     62  C   UNL A   1      49.773  26.336  26.459  1.00  0.00    -0.014 A 
ATOM     63  C   UNL A   1      50.577  25.766  27.463  1.00  0.00     0.010 A 
ATOM     64  C   UNL A   1      50.274  26.412  25.146  1.00  0.00     0.010 A 
ATOM     65  C   UNL A   1      51.870  25.322  27.171  1.00  0.00     0.020 A 
ATOM     66  C   UNL A   1      51.554  25.938  24.842  1.00  0.00     0.020 A 
ATOM     67  C   UNL A   1      52.350  25.412  25.861  1.00  0.00     0.054 A 
BRANCH  67  68
ATOM     68  S   UNL A   1      54.022  24.803  25.507  1.00  0.00     0.124 S 
ATOM     69  O   UNL A   1      53.766  23.412  25.145  1.00  0.00    -0.237 OA
ATOM     70  O   UNL A   1      54.452  25.669  24.413  1.00  0.00    -0.237 OA
ATOM     71  O   UNL A   1      54.735  24.995  26.768  1.00  0.00    -0.744 OA
ENDBRANCH  67  68
ENDBRANCH  48  62
BRANCH  49  72
ATOM     72  C   UNL A   1      40.409  29.061  28.664  1.00  0.00    -0.014 A 
ATOM     73  C   UNL A   1      39.456  29.304  27.658  1.00  0.00     0.010 A 
ATOM     74  C   UNL A   1      40.028  29.204  30.011  1.00  0.00     0.010 A 
ATOM     75  C   UNL A   1      38.158  29.702  27.990  1.00  0.00     0.020 A 
ATOM     76  C   UNL A   1      38.721  29.569  30.348  1.00  0.00     0.020 A 
ATOM     77  C   UNL A   1      37.797  29.828  29.334  1.00  0.00     0.054 A 
BRANCH  77  78
ATOM     78  S   UNL A   1      36.093  30.297  29.743  1.00  0.00     0.124 S 
ATOM     79  O   UNL A   1      35.877  29.591  31.002  1.00  0.00    -0.237 OA
ATOM     80  O   UNL A   1      36.182  31.752  29.839  1.00  0.00    -0.237 OA
ATOM     81  O   UNL A   1      35.320  29.802  28.607  1.00  0.00    -0.744 OA
ENDBRANCH  77  78
ENDBRANCH  49  72
BRANCH  61  82
ATOM     82  C   UNL A   1      46.437  32.531  28.095  1.00  0.00    -0.014 A 
ATOM     83  C   UNL A   1      46.371  33.418  27.006  1.00  0.00     0.010 A 
ATOM     84  C   UNL A   1      46.806  33.026  29.360  1.00  0.00     0.010 A 
ATOM     85  C   UNL A   1      46.709  34.765  27.171  1.00  0.00     0.020 A 
ATOM     86  C   UNL A   1      47.110  34.378  29.536  1.00  0.00     0.020 A 
ATOM     87  C   UNL A   1      47.077  35.236  28.435  1.00  0.00     0.054 A 
BRANCH  87  88
ATOM     88  S   UNL A   1      47.482  36.993  28.628  1.00  0.00     0.124 S 
ATOM     89  O   UNL A   1      48.493  37.187  27.591  1.00  0.00    -0.237 OA
ATOM     90  O   UNL A   1      46.197  37.645  28.384  1.00  0.00    -0.237 OA
ATOM     91  O   UNL A   1      47.972  37.089  30.001  1.00  0.00    -0.744 OA
ENDBRANCH  87  88
ENDBRANCH  61  82
ENDBRANCH  35  36
ENDBRANCH  27  30
ENDBRANCH  25  26
ENDBRANCH  24  25
ENDBRANCH   1  24
TORSDOF 20
ENDMDL
MODEL 2
REMARK VINA RESULT:     -10.1      6.378      8.424
REMARK SMILES C[C@H](O)C[C@@]1(C(=O)NCCCCNC(=O)c2ccc(-c3c4nc(c(-c5ccc(S(=O)(=O)[O-])cc5)c5ccc([nH]5)c(-c5ccc(S(=O)(=O)[O-])cc5)c5nc(c(-c6ccc(S(=O)(=O)[O-])cc6)c6ccc3[nH]6)C=C5)C=C4)cc2)CCN(C(=O)OC(C)(C)C)C1
REMARK SMILES IDX 10 1 9 2 8 3 6 4 7 5 5 7 76 8 86 9 77 10 78 11 4 12 2 13
REMARK SMILES IDX 1 14 3 15 79 17 80 18 81 19 82 20 83 21 84 22 85 23 11 24
REMARK SMILES IDX 12 25 13 26 14 27 15 29 16 30 17 31 75 32 18 33 74 34 19 35
REMARK SMILES IDX 20 36 21 37 68 38 22 39 73 40 67 41 69 42 23 43 72 44 66 45
REMARK SMILES IDX 65 46 24 48 54 49 35 50 53 51 36 52 39 53 52 54 70 55 37 56
REMARK SMILES IDX 38 57 51 59 71 60 40 61 25 62 26 63 34 64 27 65 33 66 28 67
REMARK SMILES IDX 29 68 30 69 31 70 32 71 55 72 56 73 64 74 57 75 63 76 58 77
REMARK SMILES IDX 59 78 60 79 61 80 62 81 41 82 42 83 50 84 43 85 49 86 44 87
REMARK SMILES IDX 45 88 46 89 47 90 48 91
REMARK H PARENT 8 6 3 16 13 28 69 47 39 58
REMARK Flexibility Score: inf
ROOT
ATOM      1  C   UNL A   1      38.528  23.078  25.566  1.00  0.00     0.023 C 
ENDROOT
BRANCH   1   2
ATOM      2  C   UNL A   1      37.022  22.870  25.491  1.00  0.00     0.116 C 
BRANCH   2   3
ATOM      3  N   UNL A   1      36.466  22.955  24.149  1.00  0.00    -0.356 N 
ATOM      4  C   UNL A   1      35.171  22.868  23.718  1.00  0.00     0.228 C 
ATOM      5  O   UNL A   1      34.964  23.154  22.535  1.00  0.00    -0.274 OA
ATOM      6  H   UNL A   1      37.130  23.097  23.435  1.00  0.00     0.163 HD
BRANCH   4   7
ATOM      7  C   UNL A   1      34.044  22.312  24.619  1.00  0.00     0.071 C 
ATOM      8  C   UNL A   1      32.749  22.082  23.775  1.00  0.00     0.040 C 
ATOM      9  C   UNL A   1      33.600  23.359  25.645  1.00  0.00     0.140 C 
ATOM     10  C   UNL A   1      31.903  23.334  23.987  1.00  0.00     0.124 C 
ATOM     11  N   UNL A   1      32.256  23.744  25.322  1.00  0.00    -0.307 N 
BRANCH   7  12
ATOM     12  C   UNL A   1      34.601  20.985  25.224  1.00  0.00     0.050 C 
BRANCH  12  13
ATOM     13  C   UNL A   1      34.064  19.646  24.685  1.00  0.00     0.112 C 
ATOM     14  C   UNL A   1      32.897  19.123  25.522  1.00  0.00     0.038 C 
BRANCH  13  15
ATOM     15  O   UNL A   1      35.077  18.650  24.663  1.00  0.00    -0.393 OA
ATOM     16  H   UNL A   1      34.969  18.097  23.873  1.00  0.00     0.210 HD
ENDBRANCH  13  15
ENDBRANCH  12  13
ENDBRANCH   7  12
BRANCH  11  17
ATOM     17  C   UNL A   1      31.581  24.567  26.185  1.00  0.00     0.410 C 
ATOM     18  O   UNL A   1      31.494  24.318  27.380  1.00  0.00    -0.224 OA
BRANCH  17  19
ATOM     19  O   UNL A   1      31.056  25.661  25.580  1.00  0.00    -0.444 OA
BRANCH  19  20
ATOM     20  C   UNL A   1      31.739  26.932  25.742  1.00  0.00     0.106 C 
ATOM     21  C   UNL A   1      31.455  27.537  27.125  1.00  0.00     0.056 C 
ATOM     22  C   UNL A   1      33.245  26.809  25.468  1.00  0.00     0.056 C 
ATOM     23  C   UNL A   1      31.130  27.852  24.676  1.00  0.00     0.056 C 
ENDBRANCH  19  20
ENDBRANCH  17  19
ENDBRANCH  11  17
ENDBRANCH   4   7
ENDBRANCH   2   3
ENDBRANCH   1   2
BRANCH   1  24
ATOM     24  C   UNL A   1      39.212  22.518  26.810  1.00  0.00     0.023 C 
BRANCH  24  25
ATOM     25  C   UNL A   1      40.554  23.147  27.171  1.00  0.00     0.116 C 
BRANCH  25  26
ATOM     26  N   UNL A   1      41.107  23.972  26.108  1.00  0.00    -0.352 N 
ATOM     27  C   UNL A   1      41.402  25.315  26.095  1.00  0.00     0.251 C 
ATOM     28  H   UNL A   1      41.300  23.495  25.269  1.00  0.00     0.163 HD
ATOM     29  O   UNL A   1      41.725  25.855  25.040  1.00  0.00    -0.269 OA
BRANCH  27  30
ATOM     30  C   UNL A   1      41.298  26.118  27.335  1.00  0.00     0.039 A 
ATOM     31  C   UNL A   1      42.302  27.045  27.624  1.00  0.00     0.014 A 
ATOM     32  C   UNL A   1      40.218  25.966  28.206  1.00  0.00     0.014 A 
ATOM     33  C   UNL A   1      42.179  27.873  28.744  1.00  0.00     0.010 A 
ATOM     34  C   UNL A   1      40.050  26.855  29.266  1.00  0.00     0.010 A 
ATOM     35  C   UNL A   1      41.030  27.818  29.549  1.00  0.00    -0.014 A 
BRANCH  35  36
ATOM     36  C   UNL A   1      40.836  28.764  30.680  1.00  0.00     0.031 A 
ATOM     37  C   UNL A   1      41.687  28.658  31.919  1.00  0.00     0.074 A 
ATOM     38  C   UNL A   1      39.858  29.691  30.615  1.00  0.00     0.049 A 
ATOM     39  N   UNL A   1      41.646  29.379  33.011  1.00  0.00    -0.248 NA
ATOM     40  C   UNL A   1      42.699  27.589  31.945  1.00  0.00     0.031 C 
ATOM     41  C   UNL A   1      38.933  29.868  29.492  1.00  0.00     0.029 A 
ATOM     42  N   UNL A   1      39.477  30.659  31.511  1.00  0.00    -0.354 N 
ATOM     43  C   UNL A   1      42.615  28.846  33.855  1.00  0.00     0.074 A 
ATOM     44  C   UNL A   1      43.184  27.704  33.173  1.00  0.00     0.031 C 
ATOM     45  C   UNL A   1      38.121  30.906  29.749  1.00  0.00     0.029 A 
ATOM     46  C   UNL A   1      38.431  31.438  31.072  1.00  0.00     0.049 A 
ATOM     47  H   UNL A   1      39.911  30.784  32.386  1.00  0.00     0.167 HD
ATOM     48  C   UNL A   1      43.011  29.278  35.076  1.00  0.00     0.031 A 
ATOM     49  C   UNL A   1      37.789  32.464  31.666  1.00  0.00     0.031 A 
ATOM     50  C   UNL A   1      42.443  30.415  35.751  1.00  0.00     0.049 A 
ATOM     51  C   UNL A   1      38.235  32.914  33.031  1.00  0.00     0.074 A 
ATOM     52  C   UNL A   1      42.811  30.965  36.967  1.00  0.00     0.029 A 
ATOM     53  N   UNL A   1      41.385  31.175  35.274  1.00  0.00    -0.354 N 
ATOM     54  N   UNL A   1      39.202  32.440  33.780  1.00  0.00    -0.248 NA
ATOM     55  C   UNL A   1      37.511  34.046  33.624  1.00  0.00     0.031 C 
ATOM     56  C   UNL A   1      41.934  32.015  37.255  1.00  0.00     0.029 A 
ATOM     57  C   UNL A   1      41.068  32.169  36.185  1.00  0.00     0.049 A 
ATOM     58  H   UNL A   1      40.927  31.029  34.415  1.00  0.00     0.167 HD
ATOM     59  C   UNL A   1      39.221  33.236  34.921  1.00  0.00     0.074 A 
ATOM     60  C   UNL A   1      38.183  34.233  34.751  1.00  0.00     0.031 C 
ATOM     61  C   UNL A   1      40.027  33.152  36.009  1.00  0.00     0.031 A 
BRANCH  48  62
ATOM     62  C   UNL A   1      44.110  28.510  35.766  1.00  0.00    -0.014 A 
ATOM     63  C   UNL A   1      43.818  27.464  36.660  1.00  0.00     0.010 A 
ATOM     64  C   UNL A   1      45.456  28.807  35.481  1.00  0.00     0.010 A 
ATOM     65  C   UNL A   1      44.848  26.760  37.290  1.00  0.00     0.020 A 
ATOM     66  C   UNL A   1      46.490  28.083  36.083  1.00  0.00     0.020 A 
ATOM     67  C   UNL A   1      46.178  27.075  36.998  1.00  0.00     0.054 A 
BRANCH  67  68
ATOM     68  S   UNL A   1      47.493  26.126  37.812  1.00  0.00     0.124 S 
ATOM     69  O   UNL A   1      46.842  25.711  39.052  1.00  0.00    -0.237 OA
ATOM     70  O   UNL A   1      47.756  25.058  36.852  1.00  0.00    -0.237 OA
ATOM     71  O   UNL A   1      48.573  27.096  37.972  1.00  0.00    -0.744 OA
ENDBRANCH  67  68
ENDBRANCH  48  62
BRANCH  49  72
ATOM     72  C   UNL A   1      36.664  33.146  30.965  1.00  0.00    -0.014 A 
ATOM     73  C   UNL A   1      35.339  32.986  31.410  1.00  0.00     0.010 A 
ATOM     74  C   UNL A   1      36.914  33.965  29.850  1.00  0.00     0.010 A 
ATOM     75  C   UNL A   1      34.285  33.614  30.741  1.00  0.00     0.020 A 
ATOM     76  C   UNL A   1      35.866  34.623  29.198  1.00  0.00     0.020 A 
ATOM     77  C   UNL A   1      34.556  34.432  29.640  1.00  0.00     0.054 A 
BRANCH  77  78
ATOM     78  S   UNL A   1      33.178  35.278  28.818  1.00  0.00     0.124 S 
ATOM     79  O   UNL A   1      33.863  36.348  28.100  1.00  0.00    -0.237 OA
ATOM     80  O   UNL A   1      32.611  34.219  27.987  1.00  0.00    -0.237 OA
ATOM     81  O   UNL A   1      32.330  35.711  29.927  1.00  0.00    -0.744 OA
ENDBRANCH  77  78
ENDBRANCH  49  72
BRANCH  61  82
ATOM     82  C   UNL A   1      39.845  34.188  37.089  1.00  0.00    -0.014 A 
ATOM     83  C   UNL A   1      39.138  33.900  38.270  1.00  0.00     0.010 A 
ATOM     84  C   UNL A   1      40.428  35.459  36.932  1.00  0.00     0.010 A 
ATOM     85  C   UNL A   1      38.982  34.880  39.255  1.00  0.00     0.020 A 
ATOM     86  C   UNL A   1      40.304  36.429  37.930  1.00  0.00     0.020 A 
ATOM     87  C   UNL A   1      39.565  36.138  39.078  1.00  0.00     0.054 A 
BRANCH  87  88
ATOM     88  S   UNL A   1      39.372  37.381  40.385  1.00  0.00     0.124 S 
ATOM     89  O   UNL A   1      38.747  38.486  39.662  1.00  0.00    -0.237 OA
ATOM     90  O   UNL A   1      38.515  36.698  41.351  1.00  0.00    -0.237 OA
ATOM     91  O   UNL A   1      40.740  37.627  40.836  1.00  0.00    -0.744 OA
ENDBRANCH  87  88
ENDBRANCH  61  82
ENDBRANCH  35  36
ENDBRANCH  27  30
ENDBRANCH  25  26
ENDBRANCH  24  25
ENDBRANCH   1  24
TORSDOF 20
ENDMDL
MODEL 3
REMARK VINA RESULT:      -9.9      6.765     12.019
REMARK SMILES C[C@H](O)C[C@@]1(C(=O)NCCCCNC(=O)c2ccc(-c3c4nc(c(-c5ccc(S(=O)(=O)[O-])cc5)c5ccc([nH]5)c(-c5ccc(S(=O)(=O)[O-])cc5)c5nc(c(-c6ccc(S(=O)(=O)[O-])cc6)c6ccc3[nH]6)C=C5)C=C4)cc2)CCN(C(=O)OC(C)(C)C)C1
REMARK SMILES IDX 10 1 9 2 8 3 6 4 7 5 5 7 76 8 86 9 77 10 78 11 4 12 2 13
REMARK SMILES IDX 1 14 3 15 79 17 80 18 81 19 82 20 83 21 84 22 85 23 11 24
REMARK SMILES IDX 12 25 13 26 14 27 15 29 16 30 17 31 75 32 18 33 74 34 19 35
REMARK SMILES IDX 20 36 21 37 68 38 22 39 73 40 67 41 69 42 23 43 72 44 66 45
REMARK SMILES IDX 65 46 24 48 54 49 35 50 53 51 36 52 39 53 52 54 70 55 37 56
REMARK SMILES IDX 38 57 51 59 71 60 40 61 25 62 26 63 34 64 27 65 33 66 28 67
REMARK SMILES IDX 29 68 30 69 31 70 32 71 55 72 56 73 64 74 57 75 63 76 58 77
REMARK SMILES IDX 59 78 60 79 61 80 62 81 41 82 42 83 50 84 43 85 49 86 44 87
REMARK SMILES IDX 45 88 46 89 47 90 48 91
REMARK H PARENT 8 6 3 16 13 28 69 47 39 58
REMARK Flexibility Score: inf
ROOT
ATOM      1  C   UNL A   1      34.982  30.837  27.720  1.00  0.00     0.023 C 
ENDROOT
BRANCH   1   2
ATOM      2  C   UNL A   1      34.675  29.356  27.553  1.00  0.00     0.116 C 
BRANCH   2   3
ATOM      3  N   UNL A   1      33.306  28.982  27.876  1.00  0.00    -0.356 N 
ATOM      4  C   UNL A   1      32.459  28.100  27.263  1.00  0.00     0.228 C 
ATOM      5  O   UNL A   1      31.408  27.844  27.856  1.00  0.00    -0.274 OA
ATOM      6  H   UNL A   1      32.928  29.439  28.662  1.00  0.00     0.163 HD
BRANCH   4   7
ATOM      7  C   UNL A   1      32.733  27.554  25.842  1.00  0.00     0.071 C 
ATOM      8  C   UNL A   1      33.460  28.637  24.983  1.00  0.00     0.040 C 
ATOM      9  C   UNL A   1      31.422  27.339  25.080  1.00  0.00     0.140 C 
ATOM     10  C   UNL A   1      32.357  29.330  24.190  1.00  0.00     0.124 C 
ATOM     11  N   UNL A   1      31.385  28.283  23.999  1.00  0.00    -0.307 N 
BRANCH   7  12
ATOM     12  C   UNL A   1      33.602  26.272  26.041  1.00  0.00     0.050 C 
BRANCH  12  13
ATOM     13  C   UNL A   1      33.400  25.087  25.078  1.00  0.00     0.112 C 
ATOM     14  C   UNL A   1      33.873  23.770  25.691  1.00  0.00     0.038 C 
BRANCH  13  15
ATOM     15  O   UNL A   1      34.097  25.284  23.856  1.00  0.00    -0.393 OA
ATOM     16  H   UNL A   1      34.862  25.862  24.010  1.00  0.00     0.210 HD
ENDBRANCH  13  15
ENDBRANCH  12  13
ENDBRANCH   7  12
BRANCH  11  17
ATOM     17  C   UNL A   1      30.374  28.193  23.080  1.00  0.00     0.410 C 
ATOM     18  O   UNL A   1      30.534  27.647  21.996  1.00  0.00    -0.224 OA
BRANCH  17  19
ATOM     19  O   UNL A   1      29.213  28.747  23.506  1.00  0.00    -0.444 OA
BRANCH  19  20
ATOM     20  C   UNL A   1      28.832  30.043  22.972  1.00  0.00     0.106 C 
ATOM     21  C   UNL A   1      29.190  31.170  23.953  1.00  0.00     0.056 C 
ATOM     22  C   UNL A   1      29.431  30.285  21.578  1.00  0.00     0.056 C 
ATOM     23  C   UNL A   1      27.305  29.987  22.834  1.00  0.00     0.056 C 
ENDBRANCH  19  20
ENDBRANCH  17  19
ENDBRANCH  11  17
ENDBRANCH   4   7
ENDBRANCH   2   3
ENDBRANCH   1   2
BRANCH   1  24
ATOM     24  C   UNL A   1      33.772  31.766  27.729  1.00  0.00     0.023 C 
BRANCH  24  25
ATOM     25  C   UNL A   1      34.068  33.246  27.507  1.00  0.00     0.116 C 
BRANCH  25  26
ATOM     26  N   UNL A   1      33.279  34.125  28.356  1.00  0.00    -0.352 N 
ATOM     27  C   UNL A   1      33.422  34.429  29.689  1.00  0.00     0.251 C 
ATOM     28  H   UNL A   1      32.525  34.571  27.906  1.00  0.00     0.163 HD
ATOM     29  O   UNL A   1      32.553  35.083  30.259  1.00  0.00    -0.269 OA
BRANCH  27  30
ATOM     30  C   UNL A   1      34.598  33.943  30.447  1.00  0.00     0.039 A 
ATOM     31  C   UNL A   1      34.479  32.774  31.201  1.00  0.00     0.014 A 
ATOM     32  C   UNL A   1      35.813  34.630  30.412  1.00  0.00     0.014 A 
ATOM     33  C   UNL A   1      35.600  32.253  31.853  1.00  0.00     0.010 A 
ATOM     34  C   UNL A   1      36.949  34.059  30.982  1.00  0.00     0.010 A 
ATOM     35  C   UNL A   1      36.856  32.865  31.712  1.00  0.00    -0.014 A 
BRANCH  35  36
ATOM     36  C   UNL A   1      38.077  32.263  32.311  1.00  0.00     0.031 A 
ATOM     37  C   UNL A   1      38.492  32.617  33.716  1.00  0.00     0.074 A 
ATOM     38  C   UNL A   1      38.845  31.436  31.573  1.00  0.00     0.049 A 
ATOM     39  N   UNL A   1      39.535  32.210  34.395  1.00  0.00    -0.248 NA
ATOM     40  C   UNL A   1      37.638  33.569  34.446  1.00  0.00     0.031 C 
ATOM     41  C   UNL A   1      38.581  31.050  30.184  1.00  0.00     0.029 A 
ATOM     42  N   UNL A   1      40.003  30.768  31.885  1.00  0.00    -0.354 N 
ATOM     43  C   UNL A   1      39.469  32.861  35.621  1.00  0.00     0.074 A 
ATOM     44  C   UNL A   1      38.318  33.736  35.571  1.00  0.00     0.031 C 
ATOM     45  C   UNL A   1      39.524  30.185  29.780  1.00  0.00     0.029 A 
ATOM     46  C   UNL A   1      40.488  29.990  30.858  1.00  0.00     0.049 A 
ATOM     47  H   UNL A   1      40.446  30.838  32.761  1.00  0.00     0.167 HD
ATOM     48  C   UNL A   1      40.278  32.729  36.700  1.00  0.00     0.031 A 
ATOM     49  C   UNL A   1      41.585  29.210  30.788  1.00  0.00     0.031 A 
ATOM     50  C   UNL A   1      41.421  31.857  36.747  1.00  0.00     0.049 A 
ATOM     51  C   UNL A   1      42.478  29.094  31.993  1.00  0.00     0.074 A 
ATOM     52  C   UNL A   1      42.273  31.613  37.810  1.00  0.00     0.029 A 
ATOM     53  N   UNL A   1      41.879  31.089  35.687  1.00  0.00    -0.354 N 
ATOM     54  N   UNL A   1      42.356  29.664  33.168  1.00  0.00    -0.248 NA
ATOM     55  C   UNL A   1      43.650  28.218  31.866  1.00  0.00     0.031 C 
ATOM     56  C   UNL A   1      43.282  30.749  37.374  1.00  0.00     0.029 A 
ATOM     57  C   UNL A   1      43.017  30.395  36.061  1.00  0.00     0.049 A 
ATOM     58  H   UNL A   1      41.457  31.045  34.798  1.00  0.00     0.167 HD
ATOM     59  C   UNL A   1      43.420  29.193  33.930  1.00  0.00     0.074 A 
ATOM     60  C   UNL A   1      44.161  28.275  33.088  1.00  0.00     0.031 C 
ATOM     61  C   UNL A   1      43.752  29.490  35.212  1.00  0.00     0.031 A 
BRANCH  48  62
ATOM     62  C   UNL A   1      39.956  33.557  37.919  1.00  0.00    -0.014 A 
ATOM     63  C   UNL A   1      39.078  33.083  38.911  1.00  0.00     0.010 A 
ATOM     64  C   UNL A   1      40.576  34.808  38.098  1.00  0.00     0.010 A 
ATOM     65  C   UNL A   1      38.792  33.862  40.036  1.00  0.00     0.020 A 
ATOM     66  C   UNL A   1      40.318  35.576  39.239  1.00  0.00     0.020 A 
ATOM     67  C   UNL A   1      39.414  35.104  40.191  1.00  0.00     0.054 A 
BRANCH  67  68
ATOM     68  S   UNL A   1      39.041  36.080  41.675  1.00  0.00     0.124 S 
ATOM     69  O   UNL A   1      38.954  37.433  41.132  1.00  0.00    -0.237 OA
ATOM     70  O   UNL A   1      37.779  35.502  42.129  1.00  0.00    -0.237 OA
ATOM     71  O   UNL A   1      40.186  35.834  42.549  1.00  0.00    -0.744 OA
ENDBRANCH  67  68
ENDBRANCH  48  62
BRANCH  49  72
ATOM     72  C   UNL A   1      41.891  28.465  29.534  1.00  0.00    -0.014 A 
ATOM     73  C   UNL A   1      41.349  27.187  29.308  1.00  0.00     0.010 A 
ATOM     74  C   UNL A   1      42.724  29.034  28.554  1.00  0.00     0.010 A 
ATOM     75  C   UNL A   1      41.650  26.485  28.137  1.00  0.00     0.020 A 
ATOM     76  C   UNL A   1      43.001  28.349  27.367  1.00  0.00     0.020 A 
ATOM     77  C   UNL A   1      42.472  27.073  27.172  1.00  0.00     0.054 A 
BRANCH  77  78
ATOM     78  S   UNL A   1      42.810  26.164  25.638  1.00  0.00     0.124 S 
ATOM     79  O   UNL A   1      42.273  27.067  24.626  1.00  0.00    -0.237 OA
ATOM     80  O   UNL A   1      44.264  26.033  25.665  1.00  0.00    -0.237 OA
ATOM     81  O   UNL A   1      42.076  24.912  25.813  1.00  0.00    -0.744 OA
ENDBRANCH  77  78
ENDBRANCH  49  72
BRANCH  61  82
ATOM     82  C   UNL A   1      44.950  28.788  35.798  1.00  0.00    -0.014 A 
ATOM     83  C   UNL A   1      44.850  27.497  36.346  1.00  0.00     0.010 A 
ATOM     84  C   UNL A   1      46.207  29.422  35.764  1.00  0.00     0.010 A 
ATOM     85  C   UNL A   1      45.976  26.870  36.886  1.00  0.00     0.020 A 
ATOM     86  C   UNL A   1      47.341  28.784  36.271  1.00  0.00     0.020 A 
ATOM     87  C   UNL A   1      47.215  27.518  36.846  1.00  0.00     0.054 A 
BRANCH  87  88
ATOM     88  S   UNL A   1      48.666  26.670  37.527  1.00  0.00     0.124 S 
ATOM     89  O   UNL A   1      48.075  25.454  38.082  1.00  0.00    -0.237 OA
ATOM     90  O   UNL A   1      49.507  26.478  36.348  1.00  0.00    -0.237 OA
ATOM     91  O   UNL A   1      49.190  27.613  38.513  1.00  0.00    -0.744 OA
ENDBRANCH  87  88
ENDBRANCH  61  82
ENDBRANCH  35  36
ENDBRANCH  27  30
ENDBRANCH  25  26
ENDBRANCH  24  25
ENDBRANCH   1  24
TORSDOF 20
ENDMDL
