MODEL 1
REMARK VINA RESULT:     -10.7      0.000      0.000
REMARK SMILES C[C@H]1C[C@@H]1C(=O)NC[C@@H]1CC[C@H](C(=O)NCCCCNC(=O)c2ccc(-c3c4nc(c(-c5ccc(S(=O)(=O)[O-])cc5)c5ccc([nH]5)c(-c5ccc(S(=O)(=O)[O-])cc5)c5nc(c(-c6ccc(S(=O)(=O)[O-])cc6)c6ccc3[nH]6)C=C5)C=C4)cc2)O1
REMARK SMILES IDX 17 1 16 2 15 3 13 4 14 5 12 7 9 8 10 9 83 10 11 11 8 12 7 13
REMARK SMILES IDX 5 14 6 15 4 17 1 18 2 19 3 20 18 21 19 22 20 23 21 24 22 26
REMARK SMILES IDX 23 27 24 28 82 29 25 30 81 31 26 32 27 33 28 34 75 35 29 36
REMARK SMILES IDX 80 37 74 38 76 39 30 40 79 41 73 42 72 43 31 45 61 46 42 47
REMARK SMILES IDX 60 48 43 49 46 50 59 51 77 52 44 53 45 54 58 56 78 57 47 58
REMARK SMILES IDX 32 59 33 60 41 61 34 62 40 63 35 64 36 65 37 66 38 67 39 68
REMARK SMILES IDX 62 69 63 70 71 71 64 72 70 73 65 74 66 75 67 76 68 77 69 78
REMARK SMILES IDX 48 79 49 80 57 81 50 82 56 83 51 84 52 85 53 86 54 87 55 88
REMARK H PARENT 15 6 7 16 20 25 76 44 46 55
REMARK Flexibility Score: inf
ROOT
ATOM      1  C   UNL A   1      31.350  27.462  26.391  1.00  0.00     0.023 C 
ENDROOT
BRANCH   1   2
ATOM      2  C   UNL A   1      30.763  26.742  25.182  1.00  0.00     0.116 C 
BRANCH   2   3
ATOM      3  N   UNL A   1      30.389  27.632  24.106  1.00  0.00    -0.354 N 
ATOM      4  C   UNL A   1      30.677  27.527  22.775  1.00  0.00     0.249 C 
ATOM      5  O   UNL A   1      30.160  28.341  22.002  1.00  0.00    -0.272 OA
ATOM      6  H   UNL A   1      29.857  28.417  24.368  1.00  0.00     0.163 HD
BRANCH   4   7
ATOM      7  C   UNL A   1      31.652  26.453  22.249  1.00  0.00     0.207 C 
ATOM      8  C   UNL A   1      32.487  24.372  22.867  1.00  0.00     0.138 C 
ATOM      9  C   UNL A   1      33.489  25.389  23.395  1.00  0.00     0.037 C 
ATOM     10  O   UNL A   1      31.287  25.112  22.591  1.00  0.00    -0.363 OA
ATOM     11  C   UNL A   1      33.097  26.670  22.685  1.00  0.00     0.045 C 
BRANCH   8  12
ATOM     12  C   UNL A   1      32.165  23.153  23.757  1.00  0.00     0.147 C 
BRANCH  12  13
ATOM     13  N   UNL A   1      31.559  23.463  25.041  1.00  0.00    -0.353 N 
ATOM     14  C   UNL A   1      32.105  23.546  26.287  1.00  0.00     0.223 C 
ATOM     15  O   UNL A   1      31.370  23.874  27.217  1.00  0.00    -0.275 OA
ATOM     16  H   UNL A   1      30.592  23.643  25.005  1.00  0.00     0.163 HD
BRANCH  14  17
ATOM     17  C   UNL A   1      33.535  23.201  26.521  1.00  0.00     0.081 C 
ATOM     18  C   UNL A   1      35.214  21.297  25.819  1.00  0.00     0.008 C 
ATOM     19  C   UNL A   1      33.944  21.731  26.470  1.00  0.00    -0.001 C 
ATOM     20  C   UNL A   1      33.963  22.473  27.775  1.00  0.00     0.018 C 
ENDBRANCH  14  17
ENDBRANCH  12  13
ENDBRANCH   8  12
ENDBRANCH   4   7
ENDBRANCH   2   3
ENDBRANCH   1   2
BRANCH   1  21
ATOM     21  C   UNL A   1      32.530  28.368  26.050  1.00  0.00     0.023 C 
BRANCH  21  22
ATOM     22  C   UNL A   1      33.459  28.685  27.222  1.00  0.00     0.116 C 
BRANCH  22  23
ATOM     23  N   UNL A   1      33.445  30.074  27.651  1.00  0.00    -0.352 N 
ATOM     24  C   UNL A   1      34.460  30.785  28.255  1.00  0.00     0.251 C 
ATOM     25  H   UNL A   1      32.608  30.568  27.490  1.00  0.00     0.163 HD
ATOM     26  O   UNL A   1      34.284  31.924  28.674  1.00  0.00    -0.269 OA
BRANCH  24  27
ATOM     27  C   UNL A   1      35.776  30.137  28.420  1.00  0.00     0.039 A 
ATOM     28  C   UNL A   1      36.689  30.175  27.366  1.00  0.00     0.014 A 
ATOM     29  C   UNL A   1      36.124  29.543  29.636  1.00  0.00     0.014 A 
ATOM     30  C   UNL A   1      37.986  29.704  27.569  1.00  0.00     0.010 A 
ATOM     31  C   UNL A   1      37.435  29.149  29.864  1.00  0.00     0.010 A 
ATOM     32  C   UNL A   1      38.381  29.237  28.835  1.00  0.00    -0.014 A 
BRANCH  32  33
ATOM     33  C   UNL A   1      39.796  28.898  29.114  1.00  0.00     0.031 A 
ATOM     34  C   UNL A   1      40.720  29.913  29.719  1.00  0.00     0.074 A 
ATOM     35  C   UNL A   1      40.257  27.685  28.747  1.00  0.00     0.049 A 
ATOM     36  N   UNL A   1      41.983  29.790  30.034  1.00  0.00    -0.248 NA
ATOM     37  C   UNL A   1      40.161  31.251  29.980  1.00  0.00     0.031 C 
ATOM     38  C   UNL A   1      39.465  26.646  28.084  1.00  0.00     0.029 A 
ATOM     39  N   UNL A   1      41.501  27.122  28.875  1.00  0.00    -0.354 N 
ATOM     40  C   UNL A   1      42.372  31.031  30.526  1.00  0.00     0.074 A 
ATOM     41  C   UNL A   1      41.229  31.909  30.407  1.00  0.00     0.031 C 
ATOM     42  C   UNL A   1      40.231  25.560  27.898  1.00  0.00     0.029 A 
ATOM     43  C   UNL A   1      41.576  25.838  28.392  1.00  0.00     0.049 A 
ATOM     44  H   UNL A   1      42.267  27.594  29.275  1.00  0.00     0.167 HD
ATOM     45  C   UNL A   1      43.567  31.395  31.050  1.00  0.00     0.031 A 
ATOM     46  C   UNL A   1      42.610  24.978  28.351  1.00  0.00     0.031 A 
ATOM     47  C   UNL A   1      44.700  30.513  31.145  1.00  0.00     0.049 A 
ATOM     48  C   UNL A   1      43.929  25.402  28.934  1.00  0.00     0.074 A 
ATOM     49  C   UNL A   1      45.940  30.761  31.706  1.00  0.00     0.029 A 
ATOM     50  N   UNL A   1      44.736  29.215  30.654  1.00  0.00    -0.354 N 
ATOM     51  N   UNL A   1      44.253  26.549  29.482  1.00  0.00    -0.248 NA
ATOM     52  C   UNL A   1      45.014  24.414  28.910  1.00  0.00     0.031 C 
ATOM     53  C   UNL A   1      46.745  29.636  31.498  1.00  0.00     0.029 A 
ATOM     54  C   UNL A   1      45.985  28.659  30.873  1.00  0.00     0.049 A 
ATOM     55  H   UNL A   1      43.984  28.756  30.216  1.00  0.00     0.167 HD
ATOM     56  C   UNL A   1      45.574  26.413  29.892  1.00  0.00     0.074 A 
ATOM     57  C   UNL A   1      45.980  25.066  29.542  1.00  0.00     0.031 C 
ATOM     58  C   UNL A   1      46.376  27.319  30.505  1.00  0.00     0.031 A 
BRANCH  45  59
ATOM     59  C   UNL A   1      43.702  32.814  31.543  1.00  0.00    -0.014 A 
ATOM     60  C   UNL A   1      43.302  33.175  32.844  1.00  0.00     0.010 A 
ATOM     61  C   UNL A   1      44.244  33.801  30.701  1.00  0.00     0.010 A 
ATOM     62  C   UNL A   1      43.386  34.503  33.270  1.00  0.00     0.020 A 
ATOM     63  C   UNL A   1      44.363  35.125  31.136  1.00  0.00     0.020 A 
ATOM     64  C   UNL A   1      43.910  35.472  32.410  1.00  0.00     0.054 A 
BRANCH  64  65
ATOM     65  S   UNL A   1      44.002  37.189  32.988  1.00  0.00     0.124 S 
ATOM     66  O   UNL A   1      43.887  37.934  31.737  1.00  0.00    -0.237 OA
ATOM     67  O   UNL A   1      42.853  37.286  33.885  1.00  0.00    -0.237 OA
ATOM     68  O   UNL A   1      45.306  37.266  33.640  1.00  0.00    -0.744 OA
ENDBRANCH  64  65
ENDBRANCH  45  59
BRANCH  46  69
ATOM     69  C   UNL A   1      42.419  23.623  27.762  1.00  0.00    -0.014 A 
ATOM     70  C   UNL A   1      42.666  23.393  26.398  1.00  0.00     0.010 A 
ATOM     71  C   UNL A   1      42.038  22.542  28.579  1.00  0.00     0.010 A 
ATOM     72  C   UNL A   1      42.532  22.109  25.860  1.00  0.00     0.020 A 
ATOM     73  C   UNL A   1      41.930  21.252  28.051  1.00  0.00     0.020 A 
ATOM     74  C   UNL A   1      42.173  21.046  26.692  1.00  0.00     0.054 A 
BRANCH  74  75
ATOM     75  S   UNL A   1      42.079  19.377  25.986  1.00  0.00     0.124 S 
ATOM     76  O   UNL A   1      42.957  19.487  24.825  1.00  0.00    -0.237 OA
ATOM     77  O   UNL A   1      42.576  18.545  27.079  1.00  0.00    -0.237 OA
ATOM     78  O   UNL A   1      40.658  19.211  25.683  1.00  0.00    -0.744 OA
ENDBRANCH  74  75
ENDBRANCH  46  69
BRANCH  58  79
ATOM     79  C   UNL A   1      47.770  26.875  30.864  1.00  0.00    -0.014 A 
ATOM     80  C   UNL A   1      48.861  27.128  30.015  1.00  0.00     0.010 A 
ATOM     81  C   UNL A   1      47.998  26.244  32.102  1.00  0.00     0.010 A 
ATOM     82  C   UNL A   1      50.149  26.727  30.381  1.00  0.00     0.020 A 
ATOM     83  C   UNL A   1      49.287  25.872  32.486  1.00  0.00     0.020 A 
ATOM     84  C   UNL A   1      50.354  26.104  31.616  1.00  0.00     0.054 A 
BRANCH  84  85
ATOM     85  S   UNL A   1      52.041  25.635  32.086  1.00  0.00     0.124 S 
ATOM     86  O   UNL A   1      52.319  26.558  33.183  1.00  0.00    -0.237 OA
ATOM     87  O   UNL A   1      51.888  24.233  32.468  1.00  0.00    -0.237 OA
ATOM     88  O   UNL A   1      52.818  25.862  30.870  1.00  0.00    -0.744 OA
ENDBRANCH  84  85
ENDBRANCH  58  79
ENDBRANCH  32  33
ENDBRANCH  24  27
ENDBRANCH  22  23
ENDBRANCH  21  22
ENDBRANCH   1  21
TORSDOF 17
ENDMDL
MODEL 2
REMARK VINA RESULT:     -10.3      3.231     10.167
REMARK SMILES C[C@H]1C[C@@H]1C(=O)NC[C@@H]1CC[C@H](C(=O)NCCCCNC(=O)c2ccc(-c3c4nc(c(-c5ccc(S(=O)(=O)[O-])cc5)c5ccc([nH]5)c(-c5ccc(S(=O)(=O)[O-])cc5)c5nc(c(-c6ccc(S(=O)(=O)[O-])cc6)c6ccc3[nH]6)C=C5)C=C4)cc2)O1
REMARK SMILES IDX 17 1 16 2 15 3 13 4 14 5 12 7 9 8 10 9 83 10 11 11 8 12 7 13
REMARK SMILES IDX 5 14 6 15 4 17 1 18 2 19 3 20 18 21 19 22 20 23 21 24 22 26
REMARK SMILES IDX 23 27 24 28 82 29 25 30 81 31 26 32 27 33 28 34 75 35 29 36
REMARK SMILES IDX 80 37 74 38 76 39 30 40 79 41 73 42 72 43 31 45 61 46 42 47
REMARK SMILES IDX 60 48 43 49 46 50 59 51 77 52 44 53 45 54 58 56 78 57 47 58
REMARK SMILES IDX 32 59 33 60 41 61 34 62 40 63 35 64 36 65 37 66 38 67 39 68
REMARK SMILES IDX 62 69 63 70 71 71 64 72 70 73 65 74 66 75 67 76 68 77 69 78
REMARK SMILES IDX 48 79 49 80 57 81 50 82 56 83 51 84 52 85 53 86 54 87 55 88
REMARK H PARENT 15 6 7 16 20 25 76 44 46 55
REMARK Flexibility Score: inf
ROOT
ATOM      1  C   UNL A   1      33.737  33.952  29.790  1.00  0.00     0.023 C 
ENDROOT
BRANCH   1   2
ATOM      2  C   UNL A   1      34.713  35.063  30.164  1.00  0.00     0.116 C 
BRANCH   2   3
ATOM      3  N   UNL A   1      34.781  35.318  31.585  1.00  0.00    -0.354 N 
ATOM      4  C   UNL A   1      35.720  34.894  32.482  1.00  0.00     0.249 C 
ATOM      5  O   UNL A   1      35.654  35.322  33.639  1.00  0.00    -0.272 OA
ATOM      6  H   UNL A   1      34.054  35.869  31.954  1.00  0.00     0.163 HD
BRANCH   4   7
ATOM      7  C   UNL A   1      36.809  33.878  32.081  1.00  0.00     0.207 C 
ATOM      8  C   UNL A   1      37.992  32.100  33.004  1.00  0.00     0.138 C 
ATOM      9  C   UNL A   1      38.860  33.330  33.228  1.00  0.00     0.037 C 
ATOM     10  O   UNL A   1      36.677  32.598  32.708  1.00  0.00    -0.363 OA
ATOM     11  C   UNL A   1      38.231  34.373  32.326  1.00  0.00     0.045 C 
BRANCH   8  12
ATOM     12  C   UNL A   1      37.920  31.056  34.139  1.00  0.00     0.147 C 
BRANCH  12  13
ATOM     13  N   UNL A   1      37.704  29.684  33.709  1.00  0.00    -0.353 N 
ATOM     14  C   UNL A   1      38.576  28.753  33.232  1.00  0.00     0.223 C 
ATOM     15  O   UNL A   1      38.139  27.631  32.978  1.00  0.00    -0.275 OA
ATOM     16  H   UNL A   1      36.771  29.376  33.775  1.00  0.00     0.163 HD
BRANCH  14  17
ATOM     17  C   UNL A   1      40.003  29.097  32.978  1.00  0.00     0.081 C 
ATOM     18  C   UNL A   1      42.267  27.816  32.569  1.00  0.00     0.008 C 
ATOM     19  C   UNL A   1      41.078  28.107  33.420  1.00  0.00    -0.001 C 
ATOM     20  C   UNL A   1      40.937  29.428  34.119  1.00  0.00     0.018 C 
ENDBRANCH  14  17
ENDBRANCH  12  13
ENDBRANCH   8  12
ENDBRANCH   4   7
ENDBRANCH   2   3
ENDBRANCH   1   2
BRANCH   1  21
ATOM     21  C   UNL A   1      34.415  32.622  29.473  1.00  0.00     0.023 C 
BRANCH  21  22
ATOM     22  C   UNL A   1      34.314  32.178  28.015  1.00  0.00     0.116 C 
BRANCH  22  23
ATOM     23  N   UNL A   1      33.806  30.829  27.824  1.00  0.00    -0.352 N 
ATOM     24  C   UNL A   1      34.512  29.646  27.853  1.00  0.00     0.251 C 
ATOM     25  H   UNL A   1      32.839  30.752  27.653  1.00  0.00     0.163 HD
ATOM     26  O   UNL A   1      33.985  28.577  27.563  1.00  0.00    -0.269 OA
BRANCH  24  27
ATOM     27  C   UNL A   1      35.943  29.684  28.216  1.00  0.00     0.039 A 
ATOM     28  C   UNL A   1      36.321  29.365  29.520  1.00  0.00     0.014 A 
ATOM     29  C   UNL A   1      36.910  29.981  27.252  1.00  0.00     0.014 A 
ATOM     30  C   UNL A   1      37.676  29.247  29.829  1.00  0.00     0.010 A 
ATOM     31  C   UNL A   1      38.253  29.786  27.536  1.00  0.00     0.010 A 
ATOM     32  C   UNL A   1      38.648  29.405  28.825  1.00  0.00    -0.014 A 
BRANCH  32  33
ATOM     33  C   UNL A   1      40.075  29.113  29.094  1.00  0.00     0.031 A 
ATOM     34  C   UNL A   1      40.658  27.773  28.755  1.00  0.00     0.074 A 
ATOM     35  C   UNL A   1      40.822  30.046  29.718  1.00  0.00     0.049 A 
ATOM     36  N   UNL A   1      41.883  27.345  28.916  1.00  0.00    -0.248 NA
ATOM     37  C   UNL A   1      39.741  26.773  28.184  1.00  0.00     0.031 C 
ATOM     38  C   UNL A   1      40.339  31.357  30.161  1.00  0.00     0.029 A 
ATOM     39  N   UNL A   1      42.142  30.037  30.090  1.00  0.00    -0.354 N 
ATOM     40  C   UNL A   1      41.884  26.028  28.471  1.00  0.00     0.074 A 
ATOM     41  C   UNL A   1      40.525  25.709  28.094  1.00  0.00     0.031 C 
ATOM     42  C   UNL A   1      41.356  32.039  30.709  1.00  0.00     0.029 A 
ATOM     43  C   UNL A   1      42.551  31.202  30.693  1.00  0.00     0.049 A 
ATOM     44  H   UNL A   1      42.739  29.269  29.939  1.00  0.00     0.167 HD
ATOM     45  C   UNL A   1      42.930  25.173  28.366  1.00  0.00     0.031 A 
ATOM     46  C   UNL A   1      43.755  31.560  31.179  1.00  0.00     0.031 A 
ATOM     47  C   UNL A   1      44.274  25.502  28.762  1.00  0.00     0.049 A 
ATOM     48  C   UNL A   1      44.901  30.595  31.056  1.00  0.00     0.074 A 
ATOM     49  C   UNL A   1      45.418  24.731  28.650  1.00  0.00     0.029 A 
ATOM     50  N   UNL A   1      44.653  26.696  29.360  1.00  0.00    -0.354 N 
ATOM     51  N   UNL A   1      44.906  29.386  30.546  1.00  0.00    -0.248 NA
ATOM     52  C   UNL A   1      46.205  31.047  31.556  1.00  0.00     0.031 C 
ATOM     53  C   UNL A   1      46.475  25.434  29.236  1.00  0.00     0.029 A 
ATOM     54  C   UNL A   1      46.008  26.672  29.649  1.00  0.00     0.049 A 
ATOM     55  H   UNL A   1      44.049  27.449  29.550  1.00  0.00     0.167 HD
ATOM     56  C   UNL A   1      46.219  28.941  30.641  1.00  0.00     0.074 A 
ATOM     57  C   UNL A   1      46.980  30.018  31.242  1.00  0.00     0.031 C 
ATOM     58  C   UNL A   1      46.747  27.750  30.261  1.00  0.00     0.031 A 
BRANCH  45  59
ATOM     59  C   UNL A   1      42.646  23.799  27.814  1.00  0.00    -0.014 A 
ATOM     60  C   UNL A   1      42.301  22.729  28.661  1.00  0.00     0.010 A 
ATOM     61  C   UNL A   1      42.716  23.572  26.428  1.00  0.00     0.010 A 
ATOM     62  C   UNL A   1      42.090  21.449  28.140  1.00  0.00     0.020 A 
ATOM     63  C   UNL A   1      42.471  22.301  25.898  1.00  0.00     0.020 A 
ATOM     64  C   UNL A   1      42.184  21.242  26.761  1.00  0.00     0.054 A 
BRANCH  64  65
ATOM     65  S   UNL A   1      41.911  19.569  26.114  1.00  0.00     0.124 S 
ATOM     66  O   UNL A   1      42.332  18.739  27.240  1.00  0.00    -0.237 OA
ATOM     67  O   UNL A   1      40.479  19.565  25.831  1.00  0.00    -0.237 OA
ATOM     68  O   UNL A   1      42.776  19.506  24.939  1.00  0.00    -0.744 OA
ENDBRANCH  64  65
ENDBRANCH  45  59
BRANCH  46  69
ATOM     69  C   UNL A   1      43.931  32.904  31.794  1.00  0.00    -0.014 A 
ATOM     70  C   UNL A   1      44.200  34.029  30.994  1.00  0.00     0.010 A 
ATOM     71  C   UNL A   1      43.776  33.076  33.183  1.00  0.00     0.010 A 
ATOM     72  C   UNL A   1      44.316  35.297  31.571  1.00  0.00     0.020 A 
ATOM     73  C   UNL A   1      43.863  34.346  33.759  1.00  0.00     0.020 A 
ATOM     74  C   UNL A   1      44.139  35.449  32.948  1.00  0.00     0.054 A 
BRANCH  74  75
ATOM     75  S   UNL A   1      44.219  37.116  33.661  1.00  0.00     0.124 S 
ATOM     76  O   UNL A   1      43.225  37.039  34.727  1.00  0.00    -0.237 OA
ATOM     77  O   UNL A   1      45.610  37.204  34.098  1.00  0.00    -0.237 OA
ATOM     78  O   UNL A   1      43.869  37.986  32.540  1.00  0.00    -0.744 OA
ENDBRANCH  74  75
ENDBRANCH  46  69
BRANCH  58  79
ATOM     79  C   UNL A   1      48.227  27.557  30.459  1.00  0.00    -0.014 A 
ATOM     80  C   UNL A   1      49.155  27.951  29.478  1.00  0.00     0.010 A 
ATOM     81  C   UNL A   1      48.700  27.026  31.674  1.00  0.00     0.010 A 
ATOM     82  C   UNL A   1      50.526  27.784  29.695  1.00  0.00     0.020 A 
ATOM     83  C   UNL A   1      50.069  26.887  31.908  1.00  0.00     0.020 A 
ATOM     84  C   UNL A   1      50.974  27.255  30.910  1.00  0.00     0.054 A 
BRANCH  84  85
ATOM     85  S   UNL A   1      52.758  27.092  31.184  1.00  0.00     0.124 S 
ATOM     86  O   UNL A   1      52.807  26.264  32.386  1.00  0.00    -0.237 OA
ATOM     87  O   UNL A   1      53.212  26.444  29.956  1.00  0.00    -0.237 OA
ATOM     88  O   UNL A   1      53.212  28.470  31.359  1.00  0.00    -0.744 OA
ENDBRANCH  84  85
ENDBRANCH  58  79
ENDBRANCH  32  33
ENDBRANCH  24  27
ENDBRANCH  22  23
ENDBRANCH  21  22
ENDBRANCH   1  21
TORSDOF 17
ENDMDL
MODEL 3
REMARK VINA RESULT:     -10.2      3.409      9.485
REMARK SMILES C[C@H]1C[C@@H]1C(=O)NC[C@@H]1CC[C@H](C(=O)NCCCCNC(=O)c2ccc(-c3c4nc(c(-c5ccc(S(=O)(=O)[O-])cc5)c5ccc([nH]5)c(-c5ccc(S(=O)(=O)[O-])cc5)c5nc(c(-c6ccc(S(=O)(=O)[O-])cc6)c6ccc3[nH]6)C=C5)C=C4)cc2)O1
REMARK SMILES IDX 17 1 16 2 15 3 13 4 14 5 12 7 9 8 10 9 83 10 11 11 8 12 7 13
REMARK SMILES IDX 5 14 6 15 4 17 1 18 2 19 3 20 18 21 19 22 20 23 21 24 22 26
REMARK SMILES IDX 23 27 24 28 82 29 25 30 81 31 26 32 27 33 28 34 75 35 29 36
REMARK SMILES IDX 80 37 74 38 76 39 30 40 79 41 73 42 72 43 31 45 61 46 42 47
REMARK SMILES IDX 60 48 43 49 46 50 59 51 77 52 44 53 45 54 58 56 78 57 47 58
REMARK SMILES IDX 32 59 33 60 41 61 34 62 40 63 35 64 36 65 37 66 38 67 39 68
REMARK SMILES IDX 62 69 63 70 71 71 64 72 70 73 65 74 66 75 67 76 68 77 69 78
REMARK SMILES IDX 48 79 49 80 57 81 50 82 56 83 51 84 52 85 53 86 54 87 55 88
REMARK H PARENT 15 6 7 16 20 25 76 44 46 55
REMARK Flexibility Score: inf
ROOT
ATOM      1  C   UNL A   1      37.238  20.200  25.035  1.00  0.00     0.023 C 
ENDROOT
BRANCH   1   2
ATOM      2  C   UNL A   1      35.772  20.620  25.026  1.00  0.00     0.116 C 
BRANCH   2   3
ATOM      3  N   UNL A   1      35.484  21.730  25.906  1.00  0.00    -0.354 N 
ATOM      4  C   UNL A   1      34.309  22.410  26.063  1.00  0.00     0.249 C 
ATOM      5  O   UNL A   1      34.243  23.259  26.957  1.00  0.00    -0.272 OA
ATOM      6  H   UNL A   1      36.233  22.037  26.464  1.00  0.00     0.163 HD
BRANCH   4   7
ATOM      7  C   UNL A   1      33.108  22.159  25.127  1.00  0.00     0.207 C 
ATOM      8  C   UNL A   1      31.509  23.366  23.944  1.00  0.00     0.138 C 
ATOM      9  C   UNL A   1      30.864  23.032  25.282  1.00  0.00     0.037 C 
ATOM     10  O   UNL A   1      32.920  23.170  24.131  1.00  0.00    -0.363 OA
ATOM     11  C   UNL A   1      31.784  21.976  25.862  1.00  0.00     0.045 C 
BRANCH   8  12
ATOM     12  C   UNL A   1      31.242  24.764  23.348  1.00  0.00     0.147 C 
BRANCH  12  13
ATOM     13  N   UNL A   1      31.846  25.013  22.050  1.00  0.00    -0.353 N 
ATOM     14  C   UNL A   1      32.833  25.876  21.677  1.00  0.00     0.223 C 
ATOM     15  O   UNL A   1      33.199  25.859  20.503  1.00  0.00    -0.275 OA
ATOM     16  H   UNL A   1      31.482  24.466  21.317  1.00  0.00     0.163 HD
BRANCH  14  17
ATOM     17  C   UNL A   1      33.414  26.842  22.650  1.00  0.00     0.081 C 
ATOM     18  C   UNL A   1      32.539  28.692  24.309  1.00  0.00     0.008 C 
ATOM     19  C   UNL A   1      32.653  28.136  22.930  1.00  0.00    -0.001 C 
ATOM     20  C   UNL A   1      33.959  28.175  22.191  1.00  0.00     0.018 C 
ENDBRANCH  14  17
ENDBRANCH  12  13
ENDBRANCH   8  12
ENDBRANCH   4   7
ENDBRANCH   2   3
ENDBRANCH   1   2
BRANCH   1  21
ATOM     21  C   UNL A   1      38.210  21.373  25.134  1.00  0.00     0.023 C 
BRANCH  21  22
ATOM     22  C   UNL A   1      39.272  21.239  26.225  1.00  0.00     0.116 C 
BRANCH  22  23
ATOM     23  N   UNL A   1      40.069  20.025  26.153  1.00  0.00    -0.352 N 
ATOM     24  C   UNL A   1      41.442  19.908  26.202  1.00  0.00     0.251 C 
ATOM     25  H   UNL A   1      39.566  19.183  26.058  1.00  0.00     0.163 HD
ATOM     26  O   UNL A   1      42.001  18.833  26.017  1.00  0.00    -0.269 OA
BRANCH  24  27
ATOM     27  C   UNL A   1      42.246  21.120  26.459  1.00  0.00     0.039 A 
ATOM     28  C   UNL A   1      42.654  21.905  25.381  1.00  0.00     0.014 A 
ATOM     29  C   UNL A   1      42.546  21.505  27.769  1.00  0.00     0.014 A 
ATOM     30  C   UNL A   1      43.277  23.129  25.625  1.00  0.00     0.010 A 
ATOM     31  C   UNL A   1      43.091  22.757  28.014  1.00  0.00     0.010 A 
ATOM     32  C   UNL A   1      43.450  23.586  26.944  1.00  0.00    -0.014 A 
BRANCH  32  33
ATOM     33  C   UNL A   1      43.949  24.954  27.216  1.00  0.00     0.031 A 
ATOM     34  C   UNL A   1      45.401  25.288  27.037  1.00  0.00     0.074 A 
ATOM     35  C   UNL A   1      43.090  25.874  27.700  1.00  0.00     0.049 A 
ATOM     36  N   UNL A   1      46.011  26.429  27.225  1.00  0.00    -0.248 NA
ATOM     37  C   UNL A   1      46.290  24.190  26.619  1.00  0.00     0.031 C 
ATOM     38  C   UNL A   1      41.671  25.638  27.983  1.00  0.00     0.029 A 
ATOM     39  N   UNL A   1      43.281  27.188  28.041  1.00  0.00    -0.354 N 
ATOM     40  C   UNL A   1      47.352  26.189  26.951  1.00  0.00     0.074 A 
ATOM     41  C   UNL A   1      47.476  24.780  26.648  1.00  0.00     0.031 C 
ATOM     42  C   UNL A   1      41.114  26.778  28.417  1.00  0.00     0.029 A 
ATOM     43  C   UNL A   1      42.140  27.814  28.482  1.00  0.00     0.049 A 
ATOM     44  H   UNL A   1      44.154  27.640  27.976  1.00  0.00     0.167 HD
ATOM     45  C   UNL A   1      48.382  27.069  26.933  1.00  0.00     0.031 A 
ATOM     46  C   UNL A   1      41.939  29.080  28.891  1.00  0.00     0.031 A 
ATOM     47  C   UNL A   1      48.244  28.466  27.254  1.00  0.00     0.049 A 
ATOM     48  C   UNL A   1      43.095  30.041  28.867  1.00  0.00     0.074 A 
ATOM     49  C   UNL A   1      49.209  29.457  27.216  1.00  0.00     0.029 A 
ATOM     50  N   UNL A   1      47.070  29.066  27.687  1.00  0.00    -0.354 N 
ATOM     51  N   UNL A   1      44.339  29.820  28.515  1.00  0.00    -0.248 NA
ATOM     52  C   UNL A   1      42.817  31.423  29.276  1.00  0.00     0.031 C 
ATOM     53  C   UNL A   1      48.632  30.643  27.685  1.00  0.00     0.029 A 
ATOM     54  C   UNL A   1      47.292  30.409  27.946  1.00  0.00     0.049 A 
ATOM     55  H   UNL A   1      46.207  28.607  27.793  1.00  0.00     0.167 HD
ATOM     56  C   UNL A   1      44.989  31.042  28.637  1.00  0.00     0.074 A 
ATOM     57  C   UNL A   1      43.995  31.999  29.079  1.00  0.00     0.031 C 
ATOM     58  C   UNL A   1      46.291  31.345  28.400  1.00  0.00     0.031 A 
BRANCH  45  59
ATOM     59  C   UNL A   1      49.743  26.534  26.567  1.00  0.00    -0.014 A 
ATOM     60  C   UNL A   1      50.165  26.472  25.225  1.00  0.00     0.010 A 
ATOM     61  C   UNL A   1      50.620  26.096  27.575  1.00  0.00     0.010 A 
ATOM     62  C   UNL A   1      51.410  25.927  24.896  1.00  0.00     0.020 A 
ATOM     63  C   UNL A   1      51.880  25.582  27.253  1.00  0.00     0.020 A 
ATOM     64  C   UNL A   1      52.257  25.479  25.913  1.00  0.00     0.054 A 
BRANCH  64  65
ATOM     65  S   UNL A   1      53.863  24.771  25.456  1.00  0.00     0.124 S 
ATOM     66  O   UNL A   1      53.490  23.420  25.046  1.00  0.00    -0.237 OA
ATOM     67  O   UNL A   1      54.307  25.654  24.381  1.00  0.00    -0.237 OA
ATOM     68  O   UNL A   1      54.642  24.854  26.689  1.00  0.00    -0.744 OA
ENDBRANCH  64  65
ENDBRANCH  45  59
BRANCH  46  69
ATOM     69  C   UNL A   1      40.581  29.507  29.326  1.00  0.00    -0.014 A 
ATOM     70  C   UNL A   1      40.276  29.651  30.691  1.00  0.00     0.010 A 
ATOM     71  C   UNL A   1      39.597  29.824  28.371  1.00  0.00     0.010 A 
ATOM     72  C   UNL A   1      39.014  30.098  31.093  1.00  0.00     0.020 A 
ATOM     73  C   UNL A   1      38.343  30.299  28.768  1.00  0.00     0.020 A 
ATOM     74  C   UNL A   1      38.058  30.427  30.128  1.00  0.00     0.054 A 
BRANCH  74  75
ATOM     75  S   UNL A   1      36.455  31.078  30.673  1.00  0.00     0.124 S 
ATOM     76  O   UNL A   1      36.811  32.411  31.146  1.00  0.00    -0.237 OA
ATOM     77  O   UNL A   1      35.663  31.032  29.446  1.00  0.00    -0.237 OA
ATOM     78  O   UNL A   1      36.036  30.136  31.710  1.00  0.00    -0.744 OA
ENDBRANCH  74  75
ENDBRANCH  46  69
BRANCH  58  79
ATOM     79  C   UNL A   1      46.711  32.779  28.588  1.00  0.00    -0.014 A 
ATOM     80  C   UNL A   1      47.237  33.234  29.810  1.00  0.00     0.010 A 
ATOM     81  C   UNL A   1      46.630  33.672  27.502  1.00  0.00     0.010 A 
ATOM     82  C   UNL A   1      47.642  34.564  29.953  1.00  0.00     0.020 A 
ATOM     83  C   UNL A   1      47.063  34.992  27.631  1.00  0.00     0.020 A 
ATOM     84  C   UNL A   1      47.555  35.434  28.862  1.00  0.00     0.054 A 
BRANCH  84  85
ATOM     85  S   UNL A   1      48.129  37.142  29.060  1.00  0.00     0.124 S 
ATOM     86  O   UNL A   1      49.521  37.048  28.630  1.00  0.00    -0.237 OA
ATOM     87  O   UNL A   1      47.243  37.883  28.165  1.00  0.00    -0.237 OA
ATOM     88  O   UNL A   1      47.935  37.412  30.483  1.00  0.00    -0.744 OA
ENDBRANCH  84  85
ENDBRANCH  58  79
ENDBRANCH  32  33
ENDBRANCH  24  27
ENDBRANCH  22  23
ENDBRANCH  21  22
ENDBRANCH   1  21
TORSDOF 17
ENDMDL
