MODEL 1
REMARK VINA RESULT:      -9.6      0.000      0.000
REMARK SMILES CC(C)C[C@H](Nc1ncnc2scc(-c3ccccc3)c12)C(=O)NCCCCNC(=O)c1ccc(-c2c3nc(c(-c4ccc(S(=O)(=O)[O-])cc4)c4ccc([nH]4)c(-c4ccc(S(=O)(=O)[O-])cc4)c4nc(c(-c5ccc(S(=O)(=O)[O-])cc5)c5ccc2[nH]5)C=C4)C=C3)cc1
REMARK SMILES IDX 26 1 25 2 24 3 22 4 23 5 5 7 4 8 2 9 1 10 3 11 6 12 7 14
REMARK SMILES IDX 8 15 21 16 9 17 11 18 14 19 10 20 12 21 13 22 15 23 16 24
REMARK SMILES IDX 20 25 17 26 19 27 18 28 27 29 28 30 29 31 30 32 31 34 32 35
REMARK SMILES IDX 33 36 91 37 34 38 90 39 35 40 36 41 37 42 84 43 38 44 89 45
REMARK SMILES IDX 83 46 85 47 39 48 88 49 82 50 81 51 40 53 70 54 51 55 69 56
REMARK SMILES IDX 52 57 55 58 68 59 86 60 53 61 54 62 67 64 87 65 56 66 41 67
REMARK SMILES IDX 42 68 50 69 43 70 49 71 44 72 45 73 46 74 47 75 48 76 71 77
REMARK SMILES IDX 72 78 80 79 73 80 79 81 74 82 75 83 76 84 77 85 78 86 57 87
REMARK SMILES IDX 58 88 66 89 59 90 65 91 60 92 61 93 62 94 63 95 64 96
REMARK H PARENT 24 6 6 13 29 33 85 52 55 63
REMARK Flexibility Score: inf
ROOT
ATOM      1  C   UNL A   1      35.106  30.897  28.123  1.00  0.00     0.023 C 
ENDROOT
BRANCH   1   2
ATOM      2  C   UNL A   1      34.854  29.462  27.686  1.00  0.00     0.116 C 
BRANCH   2   3
ATOM      3  N   UNL A   1      34.974  29.244  26.259  1.00  0.00    -0.354 N 
ATOM      4  C   UNL A   1      34.381  28.324  25.441  1.00  0.00     0.242 C 
ATOM      5  O   UNL A   1      34.619  28.432  24.230  1.00  0.00    -0.273 OA
ATOM      6  H   UNL A   1      35.586  29.863  25.801  1.00  0.00     0.163 HD
BRANCH   4   7
ATOM      7  C   UNL A   1      33.487  27.168  25.952  1.00  0.00     0.170 C 
BRANCH   7   8
ATOM      8  C   UNL A   1      33.813  25.743  25.444  1.00  0.00     0.038 C 
BRANCH   8   9
ATOM      9  C   UNL A   1      33.551  24.514  26.345  1.00  0.00    -0.015 C 
ATOM     10  C   UNL A   1      32.071  24.344  26.709  1.00  0.00     0.007 C 
ATOM     11  C   UNL A   1      34.025  23.228  25.658  1.00  0.00     0.007 C 
ENDBRANCH   8   9
ENDBRANCH   7   8
BRANCH   7  12
ATOM     12  N   UNL A   1      32.072  27.588  26.091  1.00  0.00    -0.358 N 
ATOM     13  H   UNL A   1      31.486  26.999  26.620  1.00  0.00     0.162 HD
BRANCH  12  14
ATOM     14  C   UNL A   1      31.493  28.712  25.560  1.00  0.00     0.139 A 
ATOM     15  N   UNL A   1      31.487  29.820  26.335  1.00  0.00    -0.219 NA
ATOM     16  C   UNL A   1      30.878  28.774  24.273  1.00  0.00     0.062 A 
ATOM     17  C   UNL A   1      30.941  30.950  25.887  1.00  0.00     0.225 A 
ATOM     18  C   UNL A   1      30.307  30.014  23.977  1.00  0.00     0.129 A 
ATOM     19  C   UNL A   1      30.614  27.826  23.169  1.00  0.00     0.006 A 
ATOM     20  N   UNL A   1      30.329  31.127  24.727  1.00  0.00    -0.225 NA
ATOM     21  S   UNL A   1      29.461  30.053  22.508  1.00  0.00    -0.123 S 
ATOM     22  C   UNL A   1      29.786  28.415  22.221  1.00  0.00     0.076 A 
BRANCH  19  23
ATOM     23  C   UNL A   1      30.908  26.384  22.987  1.00  0.00    -0.017 A 
ATOM     24  C   UNL A   1      30.144  25.408  23.650  1.00  0.00     0.009 A 
ATOM     25  C   UNL A   1      32.029  25.933  22.285  1.00  0.00     0.009 A 
ATOM     26  C   UNL A   1      30.512  24.056  23.629  1.00  0.00     0.001 A 
ATOM     27  C   UNL A   1      32.390  24.584  22.234  1.00  0.00     0.001 A 
ATOM     28  C   UNL A   1      31.635  23.644  22.920  1.00  0.00     0.000 A 
ENDBRANCH  19  23
ENDBRANCH  12  14
ENDBRANCH   7  12
ENDBRANCH   4   7
ENDBRANCH   2   3
ENDBRANCH   1   2
BRANCH   1  29
ATOM     29  C   UNL A   1      34.381  31.962  27.321  1.00  0.00     0.023 C 
BRANCH  29  30
ATOM     30  C   UNL A   1      33.117  32.456  27.993  1.00  0.00     0.116 C 
BRANCH  30  31
ATOM     31  N   UNL A   1      33.000  33.910  27.949  1.00  0.00    -0.352 N 
ATOM     32  C   UNL A   1      33.623  34.850  28.732  1.00  0.00     0.251 C 
ATOM     33  H   UNL A   1      32.392  34.267  27.262  1.00  0.00     0.163 HD
ATOM     34  O   UNL A   1      33.266  36.024  28.704  1.00  0.00    -0.269 OA
BRANCH  32  35
ATOM     35  C   UNL A   1      34.717  34.415  29.619  1.00  0.00     0.039 A 
ATOM     36  C   UNL A   1      34.416  33.802  30.836  1.00  0.00     0.014 A 
ATOM     37  C   UNL A   1      36.041  34.558  29.198  1.00  0.00     0.014 A 
ATOM     38  C   UNL A   1      35.451  33.267  31.601  1.00  0.00     0.010 A 
ATOM     39  C   UNL A   1      37.050  33.919  29.898  1.00  0.00     0.010 A 
ATOM     40  C   UNL A   1      36.770  33.288  31.117  1.00  0.00    -0.014 A 
BRANCH  40  41
ATOM     41  C   UNL A   1      37.893  32.692  31.878  1.00  0.00     0.031 A 
ATOM     42  C   UNL A   1      38.592  31.477  31.328  1.00  0.00     0.074 A 
ATOM     43  C   UNL A   1      38.220  33.184  33.089  1.00  0.00     0.049 A 
ATOM     44  N   UNL A   1      39.519  30.739  31.879  1.00  0.00    -0.248 NA
ATOM     45  C   UNL A   1      38.157  31.002  30.002  1.00  0.00     0.031 C 
ATOM     46  C   UNL A   1      37.574  34.323  33.750  1.00  0.00     0.029 A 
ATOM     47  N   UNL A   1      39.178  32.784  33.986  1.00  0.00    -0.354 N 
ATOM     48  C   UNL A   1      39.749  29.699  30.987  1.00  0.00     0.074 A 
ATOM     49  C   UNL A   1      38.824  29.864  29.890  1.00  0.00     0.031 C 
ATOM     50  C   UNL A   1      38.179  34.550  34.927  1.00  0.00     0.029 A 
ATOM     51  C   UNL A   1      39.225  33.552  35.124  1.00  0.00     0.049 A 
ATOM     52  H   UNL A   1      39.775  32.017  33.827  1.00  0.00     0.167 HD
ATOM     53  C   UNL A   1      40.669  28.709  31.058  1.00  0.00     0.031 A 
ATOM     54  C   UNL A   1      40.023  33.460  36.205  1.00  0.00     0.031 A 
ATOM     55  C   UNL A   1      41.615  28.580  32.132  1.00  0.00     0.049 A 
ATOM     56  C   UNL A   1      41.062  32.372  36.248  1.00  0.00     0.074 A 
ATOM     57  C   UNL A   1      42.642  27.664  32.270  1.00  0.00     0.029 A 
ATOM     58  N   UNL A   1      41.655  29.402  33.249  1.00  0.00    -0.354 N 
ATOM     59  N   UNL A   1      41.310  31.436  35.362  1.00  0.00    -0.248 NA
ATOM     60  C   UNL A   1      41.935  32.337  37.427  1.00  0.00     0.031 C 
ATOM     61  C   UNL A   1      43.277  27.905  33.491  1.00  0.00     0.029 A 
ATOM     62  C   UNL A   1      42.679  29.005  34.089  1.00  0.00     0.049 A 
ATOM     63  H   UNL A   1      41.045  30.156  33.418  1.00  0.00     0.167 HD
ATOM     64  C   UNL A   1      42.387  30.716  35.866  1.00  0.00     0.074 A 
ATOM     65  C   UNL A   1      42.749  31.335  37.126  1.00  0.00     0.031 C 
ATOM     66  C   UNL A   1      43.020  29.641  35.335  1.00  0.00     0.031 A 
BRANCH  53  67
ATOM     67  C   UNL A   1      40.693  27.700  29.941  1.00  0.00    -0.014 A 
ATOM     68  C   UNL A   1      39.607  26.833  29.721  1.00  0.00     0.010 A 
ATOM     69  C   UNL A   1      41.809  27.628  29.088  1.00  0.00     0.010 A 
ATOM     70  C   UNL A   1      39.656  25.880  28.701  1.00  0.00     0.020 A 
ATOM     71  C   UNL A   1      41.850  26.696  28.046  1.00  0.00     0.020 A 
ATOM     72  C   UNL A   1      40.780  25.815  27.871  1.00  0.00     0.054 A 
BRANCH  72  73
ATOM     73  S   UNL A   1      40.809  24.582  26.543  1.00  0.00     0.124 S 
ATOM     74  O   UNL A   1      41.245  23.383  27.255  1.00  0.00    -0.237 OA
ATOM     75  O   UNL A   1      39.422  24.569  26.086  1.00  0.00    -0.237 OA
ATOM     76  O   UNL A   1      41.772  25.124  25.588  1.00  0.00    -0.744 OA
ENDBRANCH  72  73
ENDBRANCH  53  67
BRANCH  54  77
ATOM     77  C   UNL A   1      39.894  34.445  37.314  1.00  0.00    -0.014 A 
ATOM     78  C   UNL A   1      39.062  34.168  38.413  1.00  0.00     0.010 A 
ATOM     79  C   UNL A   1      40.613  35.653  37.288  1.00  0.00     0.010 A 
ATOM     80  C   UNL A   1      38.937  35.089  39.458  1.00  0.00     0.020 A 
ATOM     81  C   UNL A   1      40.511  36.566  38.342  1.00  0.00     0.020 A 
ATOM     82  C   UNL A   1      39.664  36.283  39.415  1.00  0.00     0.054 A 
BRANCH  82  83
ATOM     83  S   UNL A   1      39.526  37.441  40.806  1.00  0.00     0.124 S 
ATOM     84  O   UNL A   1      40.883  37.970  40.896  1.00  0.00    -0.237 OA
ATOM     85  O   UNL A   1      38.510  38.380  40.336  1.00  0.00    -0.237 OA
ATOM     86  O   UNL A   1      39.109  36.591  41.918  1.00  0.00    -0.744 OA
ENDBRANCH  82  83
ENDBRANCH  54  77
BRANCH  66  87
ATOM     87  C   UNL A   1      44.192  29.087  36.098  1.00  0.00    -0.014 A 
ATOM     88  C   UNL A   1      45.474  29.649  35.970  1.00  0.00     0.010 A 
ATOM     89  C   UNL A   1      43.989  28.028  37.002  1.00  0.00     0.010 A 
ATOM     90  C   UNL A   1      46.541  29.141  36.715  1.00  0.00     0.020 A 
ATOM     91  C   UNL A   1      45.048  27.536  37.768  1.00  0.00     0.020 A 
ATOM     92  C   UNL A   1      46.321  28.088  37.608  1.00  0.00     0.054 A 
BRANCH  92  93
ATOM     93  S   UNL A   1      47.712  27.479  38.599  1.00  0.00     0.124 S 
ATOM     94  O   UNL A   1      47.644  26.039  38.363  1.00  0.00    -0.237 OA
ATOM     95  O   UNL A   1      48.857  28.161  37.999  1.00  0.00    -0.237 OA
ATOM     96  O   UNL A   1      47.382  27.905  39.957  1.00  0.00    -0.744 OA
ENDBRANCH  92  93
ENDBRANCH  66  87
ENDBRANCH  40  41
ENDBRANCH  32  35
ENDBRANCH  30  31
ENDBRANCH  29  30
ENDBRANCH   1  29
TORSDOF 19
ENDMDL
MODEL 2
REMARK VINA RESULT:      -9.1      5.605     14.764
REMARK SMILES CC(C)C[C@H](Nc1ncnc2scc(-c3ccccc3)c12)C(=O)NCCCCNC(=O)c1ccc(-c2c3nc(c(-c4ccc(S(=O)(=O)[O-])cc4)c4ccc([nH]4)c(-c4ccc(S(=O)(=O)[O-])cc4)c4nc(c(-c5ccc(S(=O)(=O)[O-])cc5)c5ccc2[nH]5)C=C4)C=C3)cc1
REMARK SMILES IDX 26 1 25 2 24 3 22 4 23 5 5 7 4 8 2 9 1 10 3 11 6 12 7 14
REMARK SMILES IDX 8 15 21 16 9 17 11 18 14 19 10 20 12 21 13 22 15 23 16 24
REMARK SMILES IDX 20 25 17 26 19 27 18 28 27 29 28 30 29 31 30 32 31 34 32 35
REMARK SMILES IDX 33 36 91 37 34 38 90 39 35 40 36 41 37 42 84 43 38 44 89 45
REMARK SMILES IDX 83 46 85 47 39 48 88 49 82 50 81 51 40 53 70 54 51 55 69 56
REMARK SMILES IDX 52 57 55 58 68 59 86 60 53 61 54 62 67 64 87 65 56 66 41 67
REMARK SMILES IDX 42 68 50 69 43 70 49 71 44 72 45 73 46 74 47 75 48 76 71 77
REMARK SMILES IDX 72 78 80 79 73 80 79 81 74 82 75 83 76 84 77 85 78 86 57 87
REMARK SMILES IDX 58 88 66 89 59 90 65 91 60 92 61 93 62 94 63 95 64 96
REMARK H PARENT 24 6 6 13 29 33 85 52 55 63
REMARK Flexibility Score: inf
ROOT
ATOM      1  C   UNL A   1      45.321  22.937  40.143  1.00  0.00     0.023 C 
ENDROOT
BRANCH   1   2
ATOM      2  C   UNL A   1      45.819  21.509  39.979  1.00  0.00     0.116 C 
BRANCH   2   3
ATOM      3  N   UNL A   1      45.846  20.743  41.209  1.00  0.00    -0.354 N 
ATOM      4  C   UNL A   1      45.721  19.401  41.430  1.00  0.00     0.242 C 
ATOM      5  O   UNL A   1      45.866  19.021  42.600  1.00  0.00    -0.273 OA
ATOM      6  H   UNL A   1      45.978  21.281  42.022  1.00  0.00     0.163 HD
BRANCH   4   7
ATOM      7  C   UNL A   1      45.375  18.374  40.324  1.00  0.00     0.170 C 
BRANCH   7   8
ATOM      8  C   UNL A   1      44.534  17.143  40.738  1.00  0.00     0.038 C 
BRANCH   8   9
ATOM      9  C   UNL A   1      43.361  16.665  39.850  1.00  0.00    -0.015 C 
ATOM     10  C   UNL A   1      43.826  16.041  38.529  1.00  0.00     0.007 C 
ATOM     11  C   UNL A   1      42.506  15.631  40.594  1.00  0.00     0.007 C 
ENDBRANCH   8   9
ENDBRANCH   7   8
BRANCH   7  12
ATOM     12  N   UNL A   1      46.490  18.207  39.361  1.00  0.00    -0.358 N 
ATOM     13  H   UNL A   1      47.185  17.551  39.600  1.00  0.00     0.162 HD
BRANCH  12  14
ATOM     14  C   UNL A   1      46.654  18.870  38.172  1.00  0.00     0.139 A 
ATOM     15  N   UNL A   1      45.597  18.885  37.329  1.00  0.00    -0.219 NA
ATOM     16  C   UNL A   1      47.865  19.508  37.764  1.00  0.00     0.062 A 
ATOM     17  C   UNL A   1      45.684  19.508  36.155  1.00  0.00     0.225 A 
ATOM     18  C   UNL A   1      47.806  20.068  36.485  1.00  0.00     0.129 A 
ATOM     19  C   UNL A   1      49.225  19.675  38.320  1.00  0.00     0.006 A 
ATOM     20  N   UNL A   1      46.749  20.116  35.658  1.00  0.00    -0.225 NA
ATOM     21  S   UNL A   1      49.279  20.709  35.942  1.00  0.00    -0.123 S 
ATOM     22  C   UNL A   1      50.066  20.237  37.367  1.00  0.00     0.076 A 
BRANCH  19  23
ATOM     23  C   UNL A   1      49.863  19.213  39.576  1.00  0.00    -0.017 A 
ATOM     24  C   UNL A   1      49.354  19.609  40.825  1.00  0.00     0.009 A 
ATOM     25  C   UNL A   1      51.064  18.500  39.585  1.00  0.00     0.009 A 
ATOM     26  C   UNL A   1      50.041  19.328  42.014  1.00  0.00     0.001 A 
ATOM     27  C   UNL A   1      51.744  18.190  40.767  1.00  0.00     0.001 A 
ATOM     28  C   UNL A   1      51.235  18.617  41.984  1.00  0.00     0.000 A 
ENDBRANCH  19  23
ENDBRANCH  12  14
ENDBRANCH   7  12
ENDBRANCH   4   7
ENDBRANCH   2   3
ENDBRANCH   1   2
BRANCH   1  29
ATOM     29  C   UNL A   1      45.514  23.839  38.938  1.00  0.00     0.023 C 
BRANCH  29  30
ATOM     30  C   UNL A   1      45.836  25.271  39.312  1.00  0.00     0.116 C 
BRANCH  30  31
ATOM     31  N   UNL A   1      47.138  25.694  38.807  1.00  0.00    -0.352 N 
ATOM     32  C   UNL A   1      47.425  26.566  37.785  1.00  0.00     0.251 C 
ATOM     33  H   UNL A   1      47.918  25.302  39.260  1.00  0.00     0.163 HD
ATOM     34  O   UNL A   1      48.568  26.662  37.349  1.00  0.00    -0.269 OA
BRANCH  32  35
ATOM     35  C   UNL A   1      46.328  27.367  37.214  1.00  0.00     0.039 A 
ATOM     36  C   UNL A   1      46.624  28.458  36.396  1.00  0.00     0.014 A 
ATOM     37  C   UNL A   1      45.006  26.983  37.443  1.00  0.00     0.014 A 
ATOM     38  C   UNL A   1      45.584  29.122  35.747  1.00  0.00     0.010 A 
ATOM     39  C   UNL A   1      43.990  27.565  36.704  1.00  0.00     0.010 A 
ATOM     40  C   UNL A   1      44.264  28.654  35.866  1.00  0.00    -0.014 A 
BRANCH  40  41
ATOM     41  C   UNL A   1      43.136  29.304  35.160  1.00  0.00     0.031 A 
ATOM     42  C   UNL A   1      42.805  28.879  33.755  1.00  0.00     0.074 A 
ATOM     43  C   UNL A   1      42.477  30.325  35.743  1.00  0.00     0.049 A 
ATOM     44  N   UNL A   1      41.935  29.386  32.922  1.00  0.00    -0.248 NA
ATOM     45  C   UNL A   1      43.589  27.762  33.194  1.00  0.00     0.031 C 
ATOM     46  C   UNL A   1      42.748  30.863  37.080  1.00  0.00     0.029 A 
ATOM     47  N   UNL A   1      41.443  31.098  35.280  1.00  0.00    -0.354 N 
ATOM     48  C   UNL A   1      42.094  28.679  31.736  1.00  0.00     0.074 A 
ATOM     49  C   UNL A   1      43.183  27.751  31.935  1.00  0.00     0.031 C 
ATOM     50  C   UNL A   1      41.878  31.852  37.341  1.00  0.00     0.029 A 
ATOM     51  C   UNL A   1      41.016  32.046  36.180  1.00  0.00     0.049 A 
ATOM     52  H   UNL A   1      41.044  30.984  34.388  1.00  0.00     0.167 HD
ATOM     53  C   UNL A   1      41.378  28.772  30.592  1.00  0.00     0.031 A 
ATOM     54  C   UNL A   1      40.039  32.967  36.077  1.00  0.00     0.031 A 
ATOM     55  C   UNL A   1      40.268  29.668  30.420  1.00  0.00     0.049 A 
ATOM     56  C   UNL A   1      39.234  33.031  34.808  1.00  0.00     0.074 A 
ATOM     57  C   UNL A   1      39.422  29.793  29.333  1.00  0.00     0.029 A 
ATOM     58  N   UNL A   1      39.843  30.586  31.369  1.00  0.00    -0.354 N 
ATOM     59  N   UNL A   1      39.354  32.307  33.720  1.00  0.00    -0.248 NA
ATOM     60  C   UNL A   1      38.155  34.024  34.758  1.00  0.00     0.031 C 
ATOM     61  C   UNL A   1      38.511  30.817  29.609  1.00  0.00     0.029 A 
ATOM     62  C   UNL A   1      38.756  31.293  30.888  1.00  0.00     0.049 A 
ATOM     63  H   UNL A   1      40.254  30.716  32.255  1.00  0.00     0.167 HD
ATOM     64  C   UNL A   1      38.347  32.740  32.865  1.00  0.00     0.074 A 
ATOM     65  C   UNL A   1      37.621  33.778  33.570  1.00  0.00     0.031 C 
ATOM     66  C   UNL A   1      38.049  32.318  31.612  1.00  0.00     0.031 A 
BRANCH  53  67
ATOM     67  C   UNL A   1      41.776  27.878  29.448  1.00  0.00    -0.014 A 
ATOM     68  C   UNL A   1      42.788  28.258  28.546  1.00  0.00     0.010 A 
ATOM     69  C   UNL A   1      41.143  26.634  29.280  1.00  0.00     0.010 A 
ATOM     70  C   UNL A   1      43.125  27.433  27.471  1.00  0.00     0.020 A 
ATOM     71  C   UNL A   1      41.498  25.791  28.223  1.00  0.00     0.020 A 
ATOM     72  C   UNL A   1      42.475  26.205  27.314  1.00  0.00     0.054 A 
BRANCH  72  73
ATOM     73  S   UNL A   1      42.946  25.145  25.920  1.00  0.00     0.124 S 
ATOM     74  O   UNL A   1      44.320  25.573  25.668  1.00  0.00    -0.237 OA
ATOM     75  O   UNL A   1      42.799  23.802  26.474  1.00  0.00    -0.237 OA
ATOM     76  O   UNL A   1      41.984  25.495  24.878  1.00  0.00    -0.744 OA
ENDBRANCH  72  73
ENDBRANCH  53  67
BRANCH  54  77
ATOM     77  C   UNL A   1      39.749  33.877  37.219  1.00  0.00    -0.014 A 
ATOM     78  C   UNL A   1      38.819  33.502  38.205  1.00  0.00     0.010 A 
ATOM     79  C   UNL A   1      40.412  35.112  37.340  1.00  0.00     0.010 A 
ATOM     80  C   UNL A   1      38.542  34.352  39.280  1.00  0.00     0.020 A 
ATOM     81  C   UNL A   1      40.158  35.953  38.427  1.00  0.00     0.020 A 
ATOM     82  C   UNL A   1      39.215  35.573  39.384  1.00  0.00     0.054 A 
BRANCH  82  83
ATOM     83  S   UNL A   1      38.879  36.638  40.815  1.00  0.00     0.124 S 
ATOM     84  O   UNL A   1      37.979  35.806  41.607  1.00  0.00    -0.237 OA
ATOM     85  O   UNL A   1      40.212  36.843  41.377  1.00  0.00    -0.237 OA
ATOM     86  O   UNL A   1      38.274  37.828  40.220  1.00  0.00    -0.744 OA
ENDBRANCH  82  83
ENDBRANCH  54  77
BRANCH  66  87
ATOM     87  C   UNL A   1      36.867  32.953  30.935  1.00  0.00    -0.014 A 
ATOM     88  C   UNL A   1      35.575  32.847  31.477  1.00  0.00     0.010 A 
ATOM     89  C   UNL A   1      37.066  33.721  29.772  1.00  0.00     0.010 A 
ATOM     90  C   UNL A   1      34.495  33.474  30.852  1.00  0.00     0.020 A 
ATOM     91  C   UNL A   1      35.993  34.372  29.159  1.00  0.00     0.020 A 
ATOM     92  C   UNL A   1      34.712  34.232  29.696  1.00  0.00     0.054 A 
BRANCH  92  93
ATOM     93  S   UNL A   1      33.303  35.078  28.930  1.00  0.00     0.124 S 
ATOM     94  O   UNL A   1      32.420  35.292  30.073  1.00  0.00    -0.237 OA
ATOM     95  O   UNL A   1      33.914  36.282  28.373  1.00  0.00    -0.237 OA
ATOM     96  O   UNL A   1      32.820  34.117  27.939  1.00  0.00    -0.744 OA
ENDBRANCH  92  93
ENDBRANCH  66  87
ENDBRANCH  40  41
ENDBRANCH  32  35
ENDBRANCH  30  31
ENDBRANCH  29  30
ENDBRANCH   1  29
TORSDOF 19
ENDMDL
MODEL 3
REMARK VINA RESULT:      -9.0      5.512     11.329
REMARK SMILES CC(C)C[C@H](Nc1ncnc2scc(-c3ccccc3)c12)C(=O)NCCCCNC(=O)c1ccc(-c2c3nc(c(-c4ccc(S(=O)(=O)[O-])cc4)c4ccc([nH]4)c(-c4ccc(S(=O)(=O)[O-])cc4)c4nc(c(-c5ccc(S(=O)(=O)[O-])cc5)c5ccc2[nH]5)C=C4)C=C3)cc1
REMARK SMILES IDX 26 1 25 2 24 3 22 4 23 5 5 7 4 8 2 9 1 10 3 11 6 12 7 14
REMARK SMILES IDX 8 15 21 16 9 17 11 18 14 19 10 20 12 21 13 22 15 23 16 24
REMARK SMILES IDX 20 25 17 26 19 27 18 28 27 29 28 30 29 31 30 32 31 34 32 35
REMARK SMILES IDX 33 36 91 37 34 38 90 39 35 40 36 41 37 42 84 43 38 44 89 45
REMARK SMILES IDX 83 46 85 47 39 48 88 49 82 50 81 51 40 53 70 54 51 55 69 56
REMARK SMILES IDX 52 57 55 58 68 59 86 60 53 61 54 62 67 64 87 65 56 66 41 67
REMARK SMILES IDX 42 68 50 69 43 70 49 71 44 72 45 73 46 74 47 75 48 76 71 77
REMARK SMILES IDX 72 78 80 79 73 80 79 81 74 82 75 83 76 84 77 85 78 86 57 87
REMARK SMILES IDX 58 88 66 89 59 90 65 91 60 92 61 93 62 94 63 95 64 96
REMARK H PARENT 24 6 6 13 29 33 85 52 55 63
REMARK Flexibility Score: inf
ROOT
ATOM      1  C   UNL A   1      38.338  34.065  38.014  1.00  0.00     0.023 C 
ENDROOT
BRANCH   1   2
ATOM      2  C   UNL A   1      38.381  33.665  36.547  1.00  0.00     0.116 C 
BRANCH   2   3
ATOM      3  N   UNL A   1      37.112  33.790  35.858  1.00  0.00    -0.354 N 
ATOM      4  C   UNL A   1      36.602  33.106  34.791  1.00  0.00     0.242 C 
ATOM      5  O   UNL A   1      35.440  33.384  34.466  1.00  0.00    -0.273 OA
ATOM      6  H   UNL A   1      36.517  34.485  36.220  1.00  0.00     0.163 HD
BRANCH   4   7
ATOM      7  C   UNL A   1      37.404  32.063  33.974  1.00  0.00     0.170 C 
BRANCH   7   8
ATOM      8  C   UNL A   1      38.792  32.494  33.445  1.00  0.00     0.038 C 
BRANCH   8   9
ATOM      9  C   UNL A   1      38.959  33.832  32.687  1.00  0.00    -0.015 C 
ATOM     10  C   UNL A   1      39.839  34.839  33.437  1.00  0.00     0.007 C 
ATOM     11  C   UNL A   1      39.573  33.597  31.302  1.00  0.00     0.007 C 
ENDBRANCH   8   9
ENDBRANCH   7   8
BRANCH   7  12
ATOM     12  N   UNL A   1      36.519  31.238  33.117  1.00  0.00    -0.358 N 
ATOM     13  H   UNL A   1      36.192  30.394  33.503  1.00  0.00     0.162 HD
BRANCH  12  14
ATOM     14  C   UNL A   1      36.107  31.530  31.842  1.00  0.00     0.139 A 
ATOM     15  N   UNL A   1      34.993  32.286  31.717  1.00  0.00    -0.219 NA
ATOM     16  C   UNL A   1      36.756  31.065  30.657  1.00  0.00     0.062 A 
ATOM     17  C   UNL A   1      34.533  32.608  30.509  1.00  0.00     0.225 A 
ATOM     18  C   UNL A   1      36.116  31.447  29.475  1.00  0.00     0.129 A 
ATOM     19  C   UNL A   1      37.914  30.201  30.343  1.00  0.00     0.006 A 
ATOM     20  N   UNL A   1      35.031  32.225  29.344  1.00  0.00    -0.225 NA
ATOM     21  S   UNL A   1      36.805  30.787  28.073  1.00  0.00    -0.123 S 
ATOM     22  C   UNL A   1      37.957  29.937  28.979  1.00  0.00     0.076 A 
BRANCH  19  23
ATOM     23  C   UNL A   1      38.879  29.462  31.192  1.00  0.00    -0.017 A 
ATOM     24  C   UNL A   1      38.469  28.339  31.930  1.00  0.00     0.009 A 
ATOM     25  C   UNL A   1      40.180  29.919  31.416  1.00  0.00     0.009 A 
ATOM     26  C   UNL A   1      39.317  27.733  32.867  1.00  0.00     0.001 A 
ATOM     27  C   UNL A   1      41.044  29.307  32.328  1.00  0.00     0.001 A 
ATOM     28  C   UNL A   1      40.605  28.217  33.065  1.00  0.00     0.000 A 
ENDBRANCH  19  23
ENDBRANCH  12  14
ENDBRANCH   7  12
ENDBRANCH   4   7
ENDBRANCH   2   3
ENDBRANCH   1   2
BRANCH   1  29
ATOM     29  C   UNL A   1      39.089  35.335  38.369  1.00  0.00     0.023 C 
BRANCH  29  30
ATOM     30  C   UNL A   1      40.570  35.107  38.592  1.00  0.00     0.116 C 
BRANCH  30  31
ATOM     31  N   UNL A   1      40.826  34.040  39.555  1.00  0.00    -0.352 N 
ATOM     32  C   UNL A   1      41.336  32.785  39.336  1.00  0.00     0.251 C 
ATOM     33  H   UNL A   1      40.602  34.250  40.490  1.00  0.00     0.163 HD
ATOM     34  O   UNL A   1      41.302  31.933  40.218  1.00  0.00    -0.269 OA
BRANCH  32  35
ATOM     35  C   UNL A   1      41.908  32.478  38.013  1.00  0.00     0.039 A 
ATOM     36  C   UNL A   1      43.266  32.698  37.780  1.00  0.00     0.014 A 
ATOM     37  C   UNL A   1      41.098  31.906  37.030  1.00  0.00     0.014 A 
ATOM     38  C   UNL A   1      43.826  32.274  36.576  1.00  0.00     0.010 A 
ATOM     39  C   UNL A   1      41.680  31.377  35.890  1.00  0.00     0.010 A 
ATOM     40  C   UNL A   1      43.044  31.575  35.641  1.00  0.00    -0.014 A 
BRANCH  40  41
ATOM     41  C   UNL A   1      43.610  31.070  34.368  1.00  0.00     0.031 A 
ATOM     42  C   UNL A   1      43.653  31.980  33.170  1.00  0.00     0.074 A 
ATOM     43  C   UNL A   1      43.996  29.783  34.268  1.00  0.00     0.049 A 
ATOM     44  N   UNL A   1      44.005  31.710  31.941  1.00  0.00    -0.248 NA
ATOM     45  C   UNL A   1      43.197  33.368  33.370  1.00  0.00     0.031 C 
ATOM     46  C   UNL A   1      43.945  28.791  35.347  1.00  0.00     0.029 A 
ATOM     47  N   UNL A   1      44.503  29.084  33.202  1.00  0.00    -0.354 N 
ATOM     48  C   UNL A   1      43.777  32.876  31.220  1.00  0.00     0.074 A 
ATOM     49  C   UNL A   1      43.201  33.837  32.133  1.00  0.00     0.031 C 
ATOM     50  C   UNL A   1      44.438  27.626  34.896  1.00  0.00     0.029 A 
ATOM     51  C   UNL A   1      44.800  27.774  33.491  1.00  0.00     0.049 A 
ATOM     52  H   UNL A   1      44.642  29.485  32.314  1.00  0.00     0.167 HD
ATOM     53  C   UNL A   1      44.051  33.137  29.921  1.00  0.00     0.031 A 
ATOM     54  C   UNL A   1      45.306  26.802  32.708  1.00  0.00     0.031 A 
ATOM     55  C   UNL A   1      44.665  32.189  29.033  1.00  0.00     0.049 A 
ATOM     56  C   UNL A   1      45.635  27.123  31.276  1.00  0.00     0.074 A 
ATOM     57  C   UNL A   1      45.060  32.369  27.720  1.00  0.00     0.029 A 
ATOM     58  N   UNL A   1      44.985  30.883  29.375  1.00  0.00    -0.354 N 
ATOM     59  N   UNL A   1      45.476  28.254  30.629  1.00  0.00    -0.248 NA
ATOM     60  C   UNL A   1      46.222  26.044  30.473  1.00  0.00     0.031 C 
ATOM     61  C   UNL A   1      45.581  31.158  27.254  1.00  0.00     0.029 A 
ATOM     62  C   UNL A   1      45.558  30.240  28.293  1.00  0.00     0.049 A 
ATOM     63  H   UNL A   1      44.828  30.475  30.257  1.00  0.00     0.167 HD
ATOM     64  C   UNL A   1      45.969  28.029  29.349  1.00  0.00     0.074 A 
ATOM     65  C   UNL A   1      46.444  26.660  29.320  1.00  0.00     0.031 C 
ATOM     66  C   UNL A   1      46.026  28.877  28.293  1.00  0.00     0.031 A 
BRANCH  53  67
ATOM     67  C   UNL A   1      43.691  34.500  29.394  1.00  0.00    -0.014 A 
ATOM     68  C   UNL A   1      44.645  35.533  29.336  1.00  0.00     0.010 A 
ATOM     69  C   UNL A   1      42.386  34.749  28.933  1.00  0.00     0.010 A 
ATOM     70  C   UNL A   1      44.289  36.802  28.874  1.00  0.00     0.020 A 
ATOM     71  C   UNL A   1      42.033  36.009  28.441  1.00  0.00     0.020 A 
ATOM     72  C   UNL A   1      42.983  37.034  28.433  1.00  0.00     0.054 A 
BRANCH  72  73
ATOM     73  S   UNL A   1      42.553  38.685  27.820  1.00  0.00     0.124 S 
ATOM     74  O   UNL A   1      41.808  38.370  26.603  1.00  0.00    -0.237 OA
ATOM     75  O   UNL A   1      41.761  39.238  28.915  1.00  0.00    -0.237 OA
ATOM     76  O   UNL A   1      43.850  39.324  27.608  1.00  0.00    -0.744 OA
ENDBRANCH  72  73
ENDBRANCH  53  67
BRANCH  54  77
ATOM     77  C   UNL A   1      45.565  25.449  33.272  1.00  0.00    -0.014 A 
ATOM     78  C   UNL A   1      44.564  24.462  33.236  1.00  0.00     0.010 A 
ATOM     79  C   UNL A   1      46.817  25.132  33.831  1.00  0.00     0.010 A 
ATOM     80  C   UNL A   1      44.802  23.190  33.764  1.00  0.00     0.020 A 
ATOM     81  C   UNL A   1      47.068  23.853  34.337  1.00  0.00     0.020 A 
ATOM     82  C   UNL A   1      46.054  22.893  34.311  1.00  0.00     0.054 A 
BRANCH  82  83
ATOM     83  S   UNL A   1      46.358  21.219  34.944  1.00  0.00     0.124 S 
ATOM     84  O   UNL A   1      46.881  21.491  36.279  1.00  0.00    -0.237 OA
ATOM     85  O   UNL A   1      45.028  20.616  34.894  1.00  0.00    -0.237 OA
ATOM     86  O   UNL A   1      47.319  20.664  33.994  1.00  0.00    -0.744 OA
ENDBRANCH  82  83
ENDBRANCH  54  77
BRANCH  66  87
ATOM     87  C   UNL A   1      46.654  28.361  27.028  1.00  0.00    -0.014 A 
ATOM     88  C   UNL A   1      48.047  28.381  26.848  1.00  0.00     0.010 A 
ATOM     89  C   UNL A   1      45.837  27.790  26.034  1.00  0.00     0.010 A 
ATOM     90  C   UNL A   1      48.613  27.863  25.680  1.00  0.00     0.020 A 
ATOM     91  C   UNL A   1      46.401  27.247  24.878  1.00  0.00     0.020 A 
ATOM     92  C   UNL A   1      47.785  27.301  24.703  1.00  0.00     0.054 A 
BRANCH  92  93
ATOM     93  S   UNL A   1      48.546  26.592  23.217  1.00  0.00     0.124 S 
ATOM     94  O   UNL A   1      48.070  25.212  23.263  1.00  0.00    -0.237 OA
ATOM     95  O   UNL A   1      47.988  27.414  22.146  1.00  0.00    -0.237 OA
ATOM     96  O   UNL A   1      49.979  26.766  23.446  1.00  0.00    -0.744 OA
ENDBRANCH  92  93
ENDBRANCH  66  87
ENDBRANCH  40  41
ENDBRANCH  32  35
ENDBRANCH  30  31
ENDBRANCH  29  30
ENDBRANCH   1  29
TORSDOF 19
ENDMDL
