MODEL 1
REMARK VINA RESULT:     -10.4      0.000      0.000
REMARK SMILES CCC[NH2+][C@@]1(C(=O)NCCCCNC(=O)c2ccc(-c3c4nc(c(-c5ccc(S(=O)(=O)[O-])cc5)c5ccc([nH]5)c(-c5ccc(S(=O)(=O)[O-])cc5)c5nc(c(-c6ccc(S(=O)(=O)[O-])cc6)c6ccc3[nH]6)C=C5)C=C4)cc2)CCC[C@@H]1CC[NH+]1CC[NH+](C)CC1
REMARK SMILES IDX 10 1 9 2 8 3 6 4 7 5 5 7 76 8 79 9 77 10 78 11 4 12 3 15
REMARK SMILES IDX 2 16 1 17 80 18 81 19 82 20 83 21 88 22 84 24 87 25 85 26
REMARK SMILES IDX 86 27 11 29 12 30 13 31 14 32 15 34 16 35 17 36 75 37 18 38
REMARK SMILES IDX 74 39 19 40 20 41 21 42 68 43 22 44 73 45 67 46 69 47 23 48
REMARK SMILES IDX 72 49 66 50 65 51 24 53 54 54 35 55 53 56 36 57 39 58 52 59
REMARK SMILES IDX 70 60 37 61 38 62 51 64 71 65 40 66 25 67 26 68 34 69 27 70
REMARK SMILES IDX 33 71 28 72 29 73 30 74 31 75 32 76 55 77 56 78 64 79 57 80
REMARK SMILES IDX 63 81 58 82 59 83 60 84 61 85 62 86 41 87 42 88 50 89 43 90
REMARK SMILES IDX 49 91 44 92 45 93 46 94 47 95 48 96
REMARK H PARENT 8 6 4 13 4 14 82 23 85 28 13 33 69 52 39 63
REMARK Flexibility Score: inf
ROOT
ATOM      1  C   UNL A   1      31.396  27.556  26.124  1.00  0.00     0.023 C 
ENDROOT
BRANCH   1   2
ATOM      2  C   UNL A   1      32.010  26.369  25.389  1.00  0.00     0.116 C 
BRANCH   2   3
ATOM      3  N   UNL A   1      31.944  25.130  26.125  1.00  0.00    -0.351 N 
ATOM      4  C   UNL A   1      32.739  24.031  26.139  1.00  0.00     0.281 C 
ATOM      5  O   UNL A   1      32.642  23.368  27.185  1.00  0.00    -0.268 OA
ATOM      6  H   UNL A   1      31.172  25.071  26.734  1.00  0.00     0.163 HD
BRANCH   4   7
ATOM      7  C   UNL A   1      33.768  23.607  25.014  1.00  0.00     0.178 C 
ATOM      8  C   UNL A   1      34.543  24.848  24.494  1.00  0.00     0.079 C 
ATOM      9  C   UNL A   1      33.278  22.915  23.711  1.00  0.00     0.066 C 
ATOM     10  C   UNL A   1      34.114  25.123  23.054  1.00  0.00     0.008 C 
ATOM     11  C   UNL A   1      33.174  24.000  22.633  1.00  0.00     0.011 C 
BRANCH   7  12
ATOM     12  N   UNL A   1      34.849  22.777  25.676  1.00  0.00    -0.333 N 
ATOM     13  H   UNL A   1      34.511  22.512  26.601  1.00  0.00     0.347 HD
ATOM     14  H   UNL A   1      35.012  21.994  25.044  1.00  0.00     0.347 HD
BRANCH  12  15
ATOM     15  C   UNL A   1      36.153  23.420  25.845  1.00  0.00     0.261 C 
BRANCH  15  16
ATOM     16  C   UNL A   1      37.302  22.566  25.297  1.00  0.00     0.058 C 
ATOM     17  C   UNL A   1      38.582  22.607  26.114  1.00  0.00     0.010 C 
ENDBRANCH  15  16
ENDBRANCH  12  15
ENDBRANCH   7  12
BRANCH   9  18
ATOM     18  C   UNL A   1      32.128  21.875  23.751  1.00  0.00     0.072 C 
BRANCH  18  19
ATOM     19  C   UNL A   1      32.283  20.656  24.658  1.00  0.00     0.263 C 
BRANCH  19  20
ATOM     20  N   UNL A   1      33.132  19.600  24.084  1.00  0.00    -0.326 N 
ATOM     21  C   UNL A   1      32.321  18.413  23.726  1.00  0.00     0.324 C 
ATOM     22  C   UNL A   1      34.208  19.180  25.003  1.00  0.00     0.324 C 
ATOM     23  H   UNL A   1      33.561  19.999  23.249  1.00  0.00     0.348 HD
ATOM     24  C   UNL A   1      33.179  17.275  23.123  1.00  0.00     0.324 C 
ATOM     25  C   UNL A   1      35.069  18.040  24.405  1.00  0.00     0.324 C 
ATOM     26  N   UNL A   1      34.320  16.849  23.955  1.00  0.00    -0.328 N 
ATOM     27  C   UNL A   1      33.886  16.023  25.080  1.00  0.00     0.333 C 
ATOM     28  H   UNL A   1      34.941  16.266  23.393  1.00  0.00     0.348 HD
ENDBRANCH  19  20
ENDBRANCH  18  19
ENDBRANCH   9  18
ENDBRANCH   4   7
ENDBRANCH   2   3
ENDBRANCH   1   2
BRANCH   1  29
ATOM     29  C   UNL A   1      32.075  27.911  27.436  1.00  0.00     0.023 C 
BRANCH  29  30
ATOM     30  C   UNL A   1      33.454  28.513  27.245  1.00  0.00     0.116 C 
BRANCH  30  31
ATOM     31  N   UNL A   1      33.459  29.953  27.489  1.00  0.00    -0.352 N 
ATOM     32  C   UNL A   1      34.424  30.720  28.101  1.00  0.00     0.251 C 
ATOM     33  H   UNL A   1      32.665  30.440  27.172  1.00  0.00     0.163 HD
ATOM     34  O   UNL A   1      34.191  31.866  28.440  1.00  0.00    -0.269 OA
BRANCH  32  35
ATOM     35  C   UNL A   1      35.740  30.101  28.340  1.00  0.00     0.039 A 
ATOM     36  C   UNL A   1      36.718  30.146  27.347  1.00  0.00     0.014 A 
ATOM     37  C   UNL A   1      36.014  29.558  29.597  1.00  0.00     0.014 A 
ATOM     38  C   UNL A   1      38.007  29.704  27.647  1.00  0.00     0.010 A 
ATOM     39  C   UNL A   1      37.318  29.240  29.928  1.00  0.00     0.010 A 
ATOM     40  C   UNL A   1      38.322  29.287  28.950  1.00  0.00    -0.014 A 
BRANCH  40  41
ATOM     41  C   UNL A   1      39.686  28.848  29.325  1.00  0.00     0.031 A 
ATOM     42  C   UNL A   1      40.567  29.781  30.111  1.00  0.00     0.074 A 
ATOM     43  C   UNL A   1      40.155  27.663  28.890  1.00  0.00     0.049 A 
ATOM     44  N   UNL A   1      41.815  29.633  30.470  1.00  0.00    -0.248 NA
ATOM     45  C   UNL A   1      39.979  31.074  30.505  1.00  0.00     0.031 C 
ATOM     46  C   UNL A   1      39.408  26.697  28.080  1.00  0.00     0.029 A 
ATOM     47  N   UNL A   1      41.376  27.068  29.073  1.00  0.00    -0.354 N 
ATOM     48  C   UNL A   1      42.166  30.821  31.098  1.00  0.00     0.074 A 
ATOM     49  C   UNL A   1      41.028  31.706  31.006  1.00  0.00     0.031 C 
ATOM     50  C   UNL A   1      40.169  25.608  27.884  1.00  0.00     0.029 A 
ATOM     51  C   UNL A   1      41.469  25.817  28.513  1.00  0.00     0.049 A 
ATOM     52  H   UNL A   1      42.117  27.498  29.560  1.00  0.00     0.167 HD
ATOM     53  C   UNL A   1      43.322  31.140  31.727  1.00  0.00     0.031 A 
ATOM     54  C   UNL A   1      42.486  24.935  28.518  1.00  0.00     0.031 A 
ATOM     55  C   UNL A   1      44.438  30.243  31.836  1.00  0.00     0.049 A 
ATOM     56  C   UNL A   1      43.761  25.304  29.224  1.00  0.00     0.074 A 
ATOM     57  C   UNL A   1      45.633  30.429  32.506  1.00  0.00     0.029 A 
ATOM     58  N   UNL A   1      44.491  28.983  31.258  1.00  0.00    -0.354 N 
ATOM     59  N   UNL A   1      44.056  26.407  29.872  1.00  0.00    -0.248 NA
ATOM     60  C   UNL A   1      44.838  24.305  29.207  1.00  0.00     0.031 C 
ATOM     61  C   UNL A   1      46.429  29.298  32.292  1.00  0.00     0.029 A 
ATOM     62  C   UNL A   1      45.708  28.386  31.537  1.00  0.00     0.049 A 
ATOM     63  H   UNL A   1      43.770  28.573  30.728  1.00  0.00     0.167 HD
ATOM     64  C   UNL A   1      45.342  26.224  30.365  1.00  0.00     0.074 A 
ATOM     65  C   UNL A   1      45.764  24.901  29.946  1.00  0.00     0.031 C 
ATOM     66  C   UNL A   1      46.104  27.069  31.102  1.00  0.00     0.031 A 
BRANCH  53  67
ATOM     67  C   UNL A   1      43.417  32.520  32.324  1.00  0.00    -0.014 A 
ATOM     68  C   UNL A   1      43.133  32.745  33.685  1.00  0.00     0.010 A 
ATOM     69  C   UNL A   1      43.759  33.612  31.509  1.00  0.00     0.010 A 
ATOM     70  C   UNL A   1      43.110  34.045  34.199  1.00  0.00     0.020 A 
ATOM     71  C   UNL A   1      43.771  34.911  32.028  1.00  0.00     0.020 A 
ATOM     72  C   UNL A   1      43.416  35.121  33.362  1.00  0.00     0.054 A 
BRANCH  72  73
ATOM     73  S   UNL A   1      43.345  36.801  34.042  1.00  0.00     0.124 S 
ATOM     74  O   UNL A   1      42.047  36.798  34.712  1.00  0.00    -0.237 OA
ATOM     75  O   UNL A   1      44.507  36.839  34.926  1.00  0.00    -0.237 OA
ATOM     76  O   UNL A   1      43.435  37.656  32.861  1.00  0.00    -0.744 OA
ENDBRANCH  72  73
ENDBRANCH  53  67
BRANCH  54  77
ATOM     77  C   UNL A   1      42.308  23.598  27.891  1.00  0.00    -0.014 A 
ATOM     78  C   UNL A   1      42.899  23.324  26.645  1.00  0.00     0.010 A 
ATOM     79  C   UNL A   1      41.596  22.580  28.549  1.00  0.00     0.010 A 
ATOM     80  C   UNL A   1      42.780  22.057  26.066  1.00  0.00     0.020 A 
ATOM     81  C   UNL A   1      41.493  21.304  27.985  1.00  0.00     0.020 A 
ATOM     82  C   UNL A   1      42.083  21.053  26.743  1.00  0.00     0.054 A 
BRANCH  82  83
ATOM     83  S   UNL A   1      42.011  19.396  26.008  1.00  0.00     0.124 S 
ATOM     84  O   UNL A   1      40.577  19.220  25.795  1.00  0.00    -0.237 OA
ATOM     85  O   UNL A   1      42.817  19.553  24.800  1.00  0.00    -0.237 OA
ATOM     86  O   UNL A   1      42.602  18.541  27.035  1.00  0.00    -0.744 OA
ENDBRANCH  82  83
ENDBRANCH  54  77
BRANCH  66  87
ATOM     87  C   UNL A   1      47.460  26.578  31.530  1.00  0.00    -0.014 A 
ATOM     88  C   UNL A   1      47.636  25.889  32.742  1.00  0.00     0.010 A 
ATOM     89  C   UNL A   1      48.562  26.761  30.674  1.00  0.00     0.010 A 
ATOM     90  C   UNL A   1      48.899  25.413  33.104  1.00  0.00     0.020 A 
ATOM     91  C   UNL A   1      49.820  26.263  31.020  1.00  0.00     0.020 A 
ATOM     92  C   UNL A   1      49.982  25.604  32.240  1.00  0.00     0.054 A 
BRANCH  92  93
ATOM     93  S   UNL A   1      51.600  24.934  32.710  1.00  0.00     0.124 S 
ATOM     94  O   UNL A   1      52.374  25.125  31.487  1.00  0.00    -0.237 OA
ATOM     95  O   UNL A   1      51.985  25.783  33.836  1.00  0.00    -0.237 OA
ATOM     96  O   UNL A   1      51.312  23.544  33.056  1.00  0.00    -0.744 OA
ENDBRANCH  92  93
ENDBRANCH  66  87
ENDBRANCH  40  41
ENDBRANCH  32  35
ENDBRANCH  30  31
ENDBRANCH  29  30
ENDBRANCH   1  29
TORSDOF 20
ENDMDL
MODEL 2
REMARK VINA RESULT:     -10.1      3.795      5.354
REMARK SMILES CCC[NH2+][C@@]1(C(=O)NCCCCNC(=O)c2ccc(-c3c4nc(c(-c5ccc(S(=O)(=O)[O-])cc5)c5ccc([nH]5)c(-c5ccc(S(=O)(=O)[O-])cc5)c5nc(c(-c6ccc(S(=O)(=O)[O-])cc6)c6ccc3[nH]6)C=C5)C=C4)cc2)CCC[C@@H]1CC[NH+]1CC[NH+](C)CC1
REMARK SMILES IDX 10 1 9 2 8 3 6 4 7 5 5 7 76 8 79 9 77 10 78 11 4 12 3 15
REMARK SMILES IDX 2 16 1 17 80 18 81 19 82 20 83 21 88 22 84 24 87 25 85 26
REMARK SMILES IDX 86 27 11 29 12 30 13 31 14 32 15 34 16 35 17 36 75 37 18 38
REMARK SMILES IDX 74 39 19 40 20 41 21 42 68 43 22 44 73 45 67 46 69 47 23 48
REMARK SMILES IDX 72 49 66 50 65 51 24 53 54 54 35 55 53 56 36 57 39 58 52 59
REMARK SMILES IDX 70 60 37 61 38 62 51 64 71 65 40 66 25 67 26 68 34 69 27 70
REMARK SMILES IDX 33 71 28 72 29 73 30 74 31 75 32 76 55 77 56 78 64 79 57 80
REMARK SMILES IDX 63 81 58 82 59 83 60 84 61 85 62 86 41 87 42 88 50 89 43 90
REMARK SMILES IDX 49 91 44 92 45 93 46 94 47 95 48 96
REMARK H PARENT 8 6 4 13 4 14 82 23 85 28 13 33 69 52 39 63
REMARK Flexibility Score: inf
ROOT
ATOM      1  C   UNL A   1      31.994  30.481  26.772  1.00  0.00     0.023 C 
ENDROOT
BRANCH   1   2
ATOM      2  C   UNL A   1      31.796  30.014  25.334  1.00  0.00     0.116 C 
BRANCH   2   3
ATOM      3  N   UNL A   1      33.019  29.628  24.674  1.00  0.00    -0.351 N 
ATOM      4  C   UNL A   1      33.284  28.735  23.688  1.00  0.00     0.281 C 
ATOM      5  O   UNL A   1      34.335  28.979  23.073  1.00  0.00    -0.268 OA
ATOM      6  H   UNL A   1      33.816  30.105  25.003  1.00  0.00     0.163 HD
BRANCH   4   7
ATOM      7  C   UNL A   1      32.363  27.525  23.251  1.00  0.00     0.178 C 
ATOM      8  C   UNL A   1      31.139  28.039  22.445  1.00  0.00     0.079 C 
ATOM      9  C   UNL A   1      31.726  26.588  24.315  1.00  0.00     0.066 C 
ATOM     10  C   UNL A   1      29.879  27.820  23.279  1.00  0.00     0.008 C 
ATOM     11  C   UNL A   1      30.288  27.068  24.540  1.00  0.00     0.011 C 
BRANCH   7  12
ATOM     12  N   UNL A   1      33.133  26.714  22.229  1.00  0.00    -0.333 N 
ATOM     13  H   UNL A   1      33.351  27.330  21.446  1.00  0.00     0.347 HD
ATOM     14  H   UNL A   1      33.948  26.357  22.727  1.00  0.00     0.347 HD
BRANCH  12  15
ATOM     15  C   UNL A   1      32.457  25.532  21.691  1.00  0.00     0.261 C 
BRANCH  15  16
ATOM     16  C   UNL A   1      33.205  24.233  22.014  1.00  0.00     0.058 C 
ATOM     17  C   UNL A   1      32.399  23.199  22.782  1.00  0.00     0.010 C 
ENDBRANCH  15  16
ENDBRANCH  12  15
ENDBRANCH   7  12
BRANCH   9  18
ATOM     18  C   UNL A   1      32.519  26.178  25.584  1.00  0.00     0.072 C 
BRANCH  18  19
ATOM     19  C   UNL A   1      32.128  24.886  26.299  1.00  0.00     0.263 C 
BRANCH  19  20
ATOM     20  N   UNL A   1      33.281  24.091  26.751  1.00  0.00    -0.326 N 
ATOM     21  C   UNL A   1      34.367  24.124  25.743  1.00  0.00     0.324 C 
ATOM     22  C   UNL A   1      32.926  22.684  27.020  1.00  0.00     0.324 C 
ATOM     23  H   UNL A   1      33.597  24.514  27.623  1.00  0.00     0.348 HD
ATOM     24  C   UNL A   1      35.598  23.294  26.178  1.00  0.00     0.324 C 
ATOM     25  C   UNL A   1      34.155  21.848  27.454  1.00  0.00     0.324 C 
ATOM     26  N   UNL A   1      35.309  21.893  26.533  1.00  0.00    -0.328 N 
ATOM     27  C   UNL A   1      35.087  21.072  25.344  1.00  0.00     0.333 C 
ATOM     28  H   UNL A   1      36.121  21.496  27.008  1.00  0.00     0.348 HD
ENDBRANCH  19  20
ENDBRANCH  18  19
ENDBRANCH   9  18
ENDBRANCH   4   7
ENDBRANCH   2   3
ENDBRANCH   1   2
BRANCH   1  29
ATOM     29  C   UNL A   1      31.731  31.960  27.002  1.00  0.00     0.023 C 
BRANCH  29  30
ATOM     30  C   UNL A   1      33.002  32.787  27.051  1.00  0.00     0.116 C 
BRANCH  30  31
ATOM     31  N   UNL A   1      32.795  34.066  27.724  1.00  0.00    -0.352 N 
ATOM     32  C   UNL A   1      33.394  34.545  28.867  1.00  0.00     0.251 C 
ATOM     33  H   UNL A   1      32.139  34.666  27.304  1.00  0.00     0.163 HD
ATOM     34  O   UNL A   1      32.956  35.527  29.440  1.00  0.00    -0.269 OA
BRANCH  32  35
ATOM     35  C   UNL A   1      34.573  33.821  29.377  1.00  0.00     0.039 A 
ATOM     36  C   UNL A   1      35.853  34.277  29.065  1.00  0.00     0.014 A 
ATOM     37  C   UNL A   1      34.382  32.741  30.240  1.00  0.00     0.014 A 
ATOM     38  C   UNL A   1      36.951  33.682  29.687  1.00  0.00     0.010 A 
ATOM     39  C   UNL A   1      35.460  32.241  30.948  1.00  0.00     0.010 A 
ATOM     40  C   UNL A   1      36.757  32.689  30.661  1.00  0.00    -0.014 A 
BRANCH  40  41
ATOM     41  C   UNL A   1      37.890  32.059  31.377  1.00  0.00     0.031 A 
ATOM     42  C   UNL A   1      38.281  32.578  32.734  1.00  0.00     0.074 A 
ATOM     43  C   UNL A   1      38.611  31.093  30.776  1.00  0.00     0.049 A 
ATOM     44  N   UNL A   1      39.286  32.230  33.494  1.00  0.00    -0.248 NA
ATOM     45  C   UNL A   1      37.458  33.666  33.290  1.00  0.00     0.031 C 
ATOM     46  C   UNL A   1      38.356  30.544  29.442  1.00  0.00     0.029 A 
ATOM     47  N   UNL A   1      39.707  30.398  31.216  1.00  0.00    -0.354 N 
ATOM     48  C   UNL A   1      39.232  33.077  34.594  1.00  0.00     0.074 A 
ATOM     49  C   UNL A   1      38.146  34.002  34.369  1.00  0.00     0.031 C 
ATOM     50  C   UNL A   1      39.236  29.560  29.196  1.00  0.00     0.029 A 
ATOM     51  C   UNL A   1      40.144  29.440  30.332  1.00  0.00     0.049 A 
ATOM     52  H   UNL A   1      40.142  30.570  32.083  1.00  0.00     0.167 HD
ATOM     53  C   UNL A   1      39.998  33.067  35.710  1.00  0.00     0.031 A 
ATOM     54  C   UNL A   1      41.155  28.558  30.435  1.00  0.00     0.031 A 
ATOM     55  C   UNL A   1      41.059  32.127  35.936  1.00  0.00     0.049 A 
ATOM     56  C   UNL A   1      41.993  28.559  31.684  1.00  0.00     0.074 A 
ATOM     57  C   UNL A   1      41.858  31.977  37.055  1.00  0.00     0.029 A 
ATOM     58  N   UNL A   1      41.467  31.169  35.018  1.00  0.00    -0.354 N 
ATOM     59  N   UNL A   1      41.890  29.323  32.746  1.00  0.00    -0.248 NA
ATOM     60  C   UNL A   1      43.080  27.573  31.750  1.00  0.00     0.031 C 
ATOM     61  C   UNL A   1      42.781  30.958  36.794  1.00  0.00     0.029 A 
ATOM     62  C   UNL A   1      42.521  30.438  35.535  1.00  0.00     0.049 A 
ATOM     63  H   UNL A   1      41.067  31.030  34.130  1.00  0.00     0.167 HD
ATOM     64  C   UNL A   1      42.879  28.891  33.621  1.00  0.00     0.074 A 
ATOM     65  C   UNL A   1      43.564  27.793  32.966  1.00  0.00     0.031 C 
ATOM     66  C   UNL A   1      43.189  29.353  34.857  1.00  0.00     0.031 A 
BRANCH  53  67
ATOM     67  C   UNL A   1      39.706  34.119  36.749  1.00  0.00    -0.014 A 
ATOM     68  C   UNL A   1      40.179  35.437  36.604  1.00  0.00     0.010 A 
ATOM     69  C   UNL A   1      38.981  33.778  37.903  1.00  0.00     0.010 A 
ATOM     70  C   UNL A   1      40.003  36.371  37.629  1.00  0.00     0.020 A 
ATOM     71  C   UNL A   1      38.771  34.719  38.917  1.00  0.00     0.020 A 
ATOM     72  C   UNL A   1      39.311  36.000  38.785  1.00  0.00     0.054 A 
BRANCH  72  73
ATOM     73  S   UNL A   1      39.125  37.217  40.117  1.00  0.00     0.124 S 
ATOM     74  O   UNL A   1      40.516  37.557  40.408  1.00  0.00    -0.237 OA
ATOM     75  O   UNL A   1      38.342  38.273  39.480  1.00  0.00    -0.237 OA
ATOM     76  O   UNL A   1      38.431  36.477  41.168  1.00  0.00    -0.744 OA
ENDBRANCH  72  73
ENDBRANCH  53  67
BRANCH  54  77
ATOM     77  C   UNL A   1      41.381  27.563  29.354  1.00  0.00    -0.014 A 
ATOM     78  C   UNL A   1      42.426  27.752  28.433  1.00  0.00     0.010 A 
ATOM     79  C   UNL A   1      40.592  26.401  29.264  1.00  0.00     0.010 A 
ATOM     80  C   UNL A   1      42.679  26.801  27.440  1.00  0.00     0.020 A 
ATOM     81  C   UNL A   1      40.857  25.435  28.287  1.00  0.00     0.020 A 
ATOM     82  C   UNL A   1      41.896  25.645  27.378  1.00  0.00     0.054 A 
BRANCH  82  83
ATOM     83  S   UNL A   1      42.296  24.389  26.131  1.00  0.00     0.124 S 
ATOM     84  O   UNL A   1      41.036  23.660  26.019  1.00  0.00    -0.237 OA
ATOM     85  O   UNL A   1      42.664  25.202  24.974  1.00  0.00    -0.237 OA
ATOM     86  O   UNL A   1      43.399  23.646  26.737  1.00  0.00    -0.744 OA
ENDBRANCH  82  83
ENDBRANCH  54  77
BRANCH  66  87
ATOM     87  C   UNL A   1      44.299  28.656  35.595  1.00  0.00    -0.014 A 
ATOM     88  C   UNL A   1      44.048  27.520  36.383  1.00  0.00     0.010 A 
ATOM     89  C   UNL A   1      45.621  29.114  35.447  1.00  0.00     0.010 A 
ATOM     90  C   UNL A   1      45.100  26.868  37.032  1.00  0.00     0.020 A 
ATOM     91  C   UNL A   1      46.678  28.450  36.072  1.00  0.00     0.020 A 
ATOM     92  C   UNL A   1      46.407  27.338  36.873  1.00  0.00     0.054 A 
BRANCH  92  93
ATOM     93  S   UNL A   1      47.760  26.446  37.687  1.00  0.00     0.124 S 
ATOM     94  O   UNL A   1      48.929  26.961  36.983  1.00  0.00    -0.237 OA
ATOM     95  O   UNL A   1      47.629  26.866  39.081  1.00  0.00    -0.237 OA
ATOM     96  O   UNL A   1      47.448  25.040  37.436  1.00  0.00    -0.744 OA
ENDBRANCH  92  93
ENDBRANCH  66  87
ENDBRANCH  40  41
ENDBRANCH  32  35
ENDBRANCH  30  31
ENDBRANCH  29  30
ENDBRANCH   1  29
TORSDOF 20
ENDMDL
MODEL 3
REMARK VINA RESULT:      -9.9      2.829      9.340
REMARK SMILES CCC[NH2+][C@@]1(C(=O)NCCCCNC(=O)c2ccc(-c3c4nc(c(-c5ccc(S(=O)(=O)[O-])cc5)c5ccc([nH]5)c(-c5ccc(S(=O)(=O)[O-])cc5)c5nc(c(-c6ccc(S(=O)(=O)[O-])cc6)c6ccc3[nH]6)C=C5)C=C4)cc2)CCC[C@@H]1CC[NH+]1CC[NH+](C)CC1
REMARK SMILES IDX 10 1 9 2 8 3 6 4 7 5 5 7 76 8 79 9 77 10 78 11 4 12 3 15
REMARK SMILES IDX 2 16 1 17 80 18 81 19 82 20 83 21 88 22 84 24 87 25 85 26
REMARK SMILES IDX 86 27 11 29 12 30 13 31 14 32 15 34 16 35 17 36 75 37 18 38
REMARK SMILES IDX 74 39 19 40 20 41 21 42 68 43 22 44 73 45 67 46 69 47 23 48
REMARK SMILES IDX 72 49 66 50 65 51 24 53 54 54 35 55 53 56 36 57 39 58 52 59
REMARK SMILES IDX 70 60 37 61 38 62 51 64 71 65 40 66 25 67 26 68 34 69 27 70
REMARK SMILES IDX 33 71 28 72 29 73 30 74 31 75 32 76 55 77 56 78 64 79 57 80
REMARK SMILES IDX 63 81 58 82 59 83 60 84 61 85 62 86 41 87 42 88 50 89 43 90
REMARK SMILES IDX 49 91 44 92 45 93 46 94 47 95 48 96
REMARK H PARENT 8 6 4 13 4 14 82 23 85 28 13 33 69 52 39 63
REMARK Flexibility Score: inf
ROOT
ATOM      1  C   UNL A   1      34.778  23.400  24.102  1.00  0.00     0.023 C 
ENDROOT
BRANCH   1   2
ATOM      2  C   UNL A   1      34.053  24.342  23.148  1.00  0.00     0.116 C 
BRANCH   2   3
ATOM      3  N   UNL A   1      32.615  24.242  23.210  1.00  0.00    -0.351 N 
ATOM      4  C   UNL A   1      31.628  25.164  23.087  1.00  0.00     0.281 C 
ATOM      5  O   UNL A   1      30.536  24.674  22.754  1.00  0.00    -0.268 OA
ATOM      6  H   UNL A   1      32.287  23.328  23.374  1.00  0.00     0.163 HD
BRANCH   4   7
ATOM      7  C   UNL A   1      31.784  26.730  23.259  1.00  0.00     0.178 C 
ATOM      8  C   UNL A   1      32.317  27.367  21.947  1.00  0.00     0.079 C 
ATOM      9  C   UNL A   1      32.718  27.319  24.352  1.00  0.00     0.066 C 
ATOM     10  C   UNL A   1      33.736  27.877  22.194  1.00  0.00     0.008 C 
ATOM     11  C   UNL A   1      34.046  27.673  23.672  1.00  0.00     0.011 C 
BRANCH   7  12
ATOM     12  N   UNL A   1      30.392  27.314  23.385  1.00  0.00    -0.333 N 
ATOM     13  H   UNL A   1      29.856  27.013  22.571  1.00  0.00     0.347 HD
ATOM     14  H   UNL A   1      30.036  26.972  24.278  1.00  0.00     0.347 HD
BRANCH  12  15
ATOM     15  C   UNL A   1      30.301  28.773  23.464  1.00  0.00     0.261 C 
BRANCH  15  16
ATOM     16  C   UNL A   1      29.079  29.324  22.720  1.00  0.00     0.058 C 
ATOM     17  C   UNL A   1      28.580  30.672  23.212  1.00  0.00     0.010 C 
ENDBRANCH  15  16
ENDBRANCH  12  15
ENDBRANCH   7  12
BRANCH   9  18
ATOM     18  C   UNL A   1      32.819  26.653  25.749  1.00  0.00     0.072 C 
BRANCH  18  19
ATOM     19  C   UNL A   1      31.530  26.399  26.528  1.00  0.00     0.263 C 
BRANCH  19  20
ATOM     20  N   UNL A   1      31.376  25.004  26.973  1.00  0.00    -0.326 N 
ATOM     21  C   UNL A   1      32.642  24.255  26.795  1.00  0.00     0.324 C 
ATOM     22  C   UNL A   1      30.300  24.298  26.251  1.00  0.00     0.324 C 
ATOM     23  H   UNL A   1      31.127  25.044  27.961  1.00  0.00     0.348 HD
ATOM     24  C   UNL A   1      32.520  22.780  27.246  1.00  0.00     0.324 C 
ATOM     25  C   UNL A   1      30.176  22.820  26.698  1.00  0.00     0.324 C 
ATOM     26  N   UNL A   1      31.419  22.027  26.619  1.00  0.00    -0.328 N 
ATOM     27  C   UNL A   1      31.738  21.654  25.242  1.00  0.00     0.333 C 
ATOM     28  H   UNL A   1      31.282  21.153  27.129  1.00  0.00     0.348 HD
ENDBRANCH  19  20
ENDBRANCH  18  19
ENDBRANCH   9  18
ENDBRANCH   4   7
ENDBRANCH   2   3
ENDBRANCH   1   2
BRANCH   1  29
ATOM     29  C   UNL A   1      36.293  23.429  23.995  1.00  0.00     0.023 C 
BRANCH  29  30
ATOM     30  C   UNL A   1      36.974  23.743  25.314  1.00  0.00     0.116 C 
BRANCH  30  31
ATOM     31  N   UNL A   1      38.051  22.803  25.608  1.00  0.00    -0.352 N 
ATOM     32  C   UNL A   1      39.277  23.050  26.185  1.00  0.00     0.251 C 
ATOM     33  H   UNL A   1      37.878  21.867  25.361  1.00  0.00     0.163 HD
ATOM     34  O   UNL A   1      40.162  22.214  26.157  1.00  0.00    -0.269 OA
BRANCH  32  35
ATOM     35  C   UNL A   1      39.480  24.362  26.824  1.00  0.00     0.039 A 
ATOM     36  C   UNL A   1      39.089  24.556  28.148  1.00  0.00     0.014 A 
ATOM     37  C   UNL A   1      40.147  25.364  26.115  1.00  0.00     0.014 A 
ATOM     38  C   UNL A   1      39.436  25.747  28.788  1.00  0.00     0.010 A 
ATOM     39  C   UNL A   1      40.598  26.484  26.788  1.00  0.00     0.010 A 
ATOM     40  C   UNL A   1      40.227  26.698  28.123  1.00  0.00    -0.014 A 
BRANCH  40  41
ATOM     41  C   UNL A   1      40.654  27.957  28.776  1.00  0.00     0.031 A 
ATOM     42  C   UNL A   1      42.062  28.075  29.292  1.00  0.00     0.074 A 
ATOM     43  C   UNL A   1      39.763  28.946  28.978  1.00  0.00     0.049 A 
ATOM     44  N   UNL A   1      42.617  29.049  29.965  1.00  0.00    -0.248 NA
ATOM     45  C   UNL A   1      42.952  26.923  29.061  1.00  0.00     0.031 C 
ATOM     46  C   UNL A   1      38.357  28.923  28.565  1.00  0.00     0.029 A 
ATOM     47  N   UNL A   1      39.911  30.167  29.583  1.00  0.00    -0.354 N 
ATOM     48  C   UNL A   1      43.902  28.611  30.263  1.00  0.00     0.074 A 
ATOM     49  C   UNL A   1      44.020  27.260  29.765  1.00  0.00     0.031 C 
ATOM     50  C   UNL A   1      37.789  30.099  28.880  1.00  0.00     0.029 A 
ATOM     51  C   UNL A   1      38.773  30.938  29.556  1.00  0.00     0.049 A 
ATOM     52  H   UNL A   1      40.753  30.463  29.998  1.00  0.00     0.167 HD
ATOM     53  C   UNL A   1      44.908  29.284  30.868  1.00  0.00     0.031 A 
ATOM     54  C   UNL A   1      38.556  32.184  30.015  1.00  0.00     0.031 A 
ATOM     55  C   UNL A   1      44.789  30.636  31.336  1.00  0.00     0.049 A 
ATOM     56  C   UNL A   1      39.686  32.918  30.681  1.00  0.00     0.074 A 
ATOM     57  C   UNL A   1      45.759  31.443  31.903  1.00  0.00     0.029 A 
ATOM     58  N   UNL A   1      43.621  31.384  31.286  1.00  0.00    -0.354 N 
ATOM     59  N   UNL A   1      40.917  32.516  30.897  1.00  0.00    -0.248 NA
ATOM     60  C   UNL A   1      39.400  34.277  31.158  1.00  0.00     0.031 C 
ATOM     61  C   UNL A   1      45.163  32.664  32.239  1.00  0.00     0.029 A 
ATOM     62  C   UNL A   1      43.837  32.636  31.832  1.00  0.00     0.049 A 
ATOM     63  H   UNL A   1      42.764  31.070  30.917  1.00  0.00     0.167 HD
ATOM     64  C   UNL A   1      41.561  33.584  31.510  1.00  0.00     0.074 A 
ATOM     65  C   UNL A   1      40.585  34.651  31.621  1.00  0.00     0.031 C 
ATOM     66  C   UNL A   1      42.845  33.678  31.935  1.00  0.00     0.031 A 
BRANCH  53  67
ATOM     67  C   UNL A   1      46.208  28.545  31.058  1.00  0.00    -0.014 A 
ATOM     68  C   UNL A   1      47.209  28.567  30.067  1.00  0.00     0.010 A 
ATOM     69  C   UNL A   1      46.418  27.789  32.223  1.00  0.00     0.010 A 
ATOM     70  C   UNL A   1      48.358  27.783  30.203  1.00  0.00     0.020 A 
ATOM     71  C   UNL A   1      47.583  27.030  32.379  1.00  0.00     0.020 A 
ATOM     72  C   UNL A   1      48.530  27.009  31.353  1.00  0.00     0.054 A 
BRANCH  72  73
ATOM     73  S   UNL A   1      50.012  25.972  31.492  1.00  0.00     0.124 S 
ATOM     74  O   UNL A   1      49.978  25.232  30.233  1.00  0.00    -0.237 OA
ATOM     75  O   UNL A   1      51.084  26.958  31.611  1.00  0.00    -0.237 OA
ATOM     76  O   UNL A   1      49.766  25.174  32.690  1.00  0.00    -0.744 OA
ENDBRANCH  72  73
ENDBRANCH  53  67
BRANCH  54  77
ATOM     77  C   UNL A   1      37.235  32.832  29.795  1.00  0.00    -0.014 A 
ATOM     78  C   UNL A   1      36.421  33.155  30.895  1.00  0.00     0.010 A 
ATOM     79  C   UNL A   1      36.805  33.176  28.501  1.00  0.00     0.010 A 
ATOM     80  C   UNL A   1      35.199  33.807  30.706  1.00  0.00     0.020 A 
ATOM     81  C   UNL A   1      35.594  33.850  28.309  1.00  0.00     0.020 A 
ATOM     82  C   UNL A   1      34.796  34.156  29.415  1.00  0.00     0.054 A 
BRANCH  82  83
ATOM     83  S   UNL A   1      33.245  35.072  29.205  1.00  0.00     0.124 S 
ATOM     84  O   UNL A   1      33.722  36.393  28.806  1.00  0.00    -0.237 OA
ATOM     85  O   UNL A   1      32.564  34.304  28.165  1.00  0.00    -0.237 OA
ATOM     86  O   UNL A   1      32.625  35.002  30.526  1.00  0.00    -0.744 OA
ENDBRANCH  82  83
ENDBRANCH  54  77
BRANCH  66  87
ATOM     87  C   UNL A   1      43.278  34.988  32.534  1.00  0.00    -0.014 A 
ATOM     88  C   UNL A   1      43.269  35.191  33.925  1.00  0.00     0.010 A 
ATOM     89  C   UNL A   1      43.755  36.009  31.691  1.00  0.00     0.010 A 
ATOM     90  C   UNL A   1      43.707  36.405  34.461  1.00  0.00     0.020 A 
ATOM     91  C   UNL A   1      44.218  37.213  32.225  1.00  0.00     0.020 A 
ATOM     92  C   UNL A   1      44.178  37.407  33.608  1.00  0.00     0.054 A 
BRANCH  92  93
ATOM     93  S   UNL A   1      44.786  38.955  34.332  1.00  0.00     0.124 S 
ATOM     94  O   UNL A   1      44.324  39.944  33.364  1.00  0.00    -0.237 OA
ATOM     95  O   UNL A   1      44.118  38.985  35.632  1.00  0.00    -0.237 OA
ATOM     96  O   UNL A   1      46.234  38.765  34.388  1.00  0.00    -0.744 OA
ENDBRANCH  92  93
ENDBRANCH  66  87
ENDBRANCH  40  41
ENDBRANCH  32  35
ENDBRANCH  30  31
ENDBRANCH  29  30
ENDBRANCH   1  29
TORSDOF 20
ENDMDL
