MODEL 1
REMARK VINA RESULT:     -10.9      0.000      0.000
REMARK SMILES CN1CC(=O)N(CC(=O)N2CCCC[C@H]2C(=O)NCCCCNC(=O)c2ccc(-c3c4nc(c(-c5ccc(S(=O)(=O)[O-])cc5)c5ccc([nH]5)c(-c5ccc(S(=O)(=O)[O-])cc5)c5nc(c(-c6ccc(S(=O)(=O)[O-])cc6)c6ccc3[nH]6)C=C5)C=C4)cc2)C1=O
REMARK SMILES IDX 20 1 19 2 18 3 16 4 17 5 15 7 10 8 11 9 12 10 14 11 13 12
REMARK SMILES IDX 8 13 9 14 7 15 6 16 1 17 2 18 3 19 86 20 4 21 87 22 5 23
REMARK SMILES IDX 21 24 22 25 23 26 24 27 25 29 26 30 27 31 85 32 28 33 84 34
REMARK SMILES IDX 29 35 30 36 31 37 78 38 32 39 83 40 77 41 79 42 33 43 82 44
REMARK SMILES IDX 76 45 75 46 34 48 64 49 45 50 63 51 46 52 49 53 62 54 80 55
REMARK SMILES IDX 47 56 48 57 61 59 81 60 50 61 35 62 36 63 44 64 37 65 43 66
REMARK SMILES IDX 38 67 39 68 40 69 41 70 42 71 65 72 66 73 74 74 67 75 73 76
REMARK SMILES IDX 68 77 69 78 70 79 71 80 72 81 51 82 52 83 60 84 53 85 59 86
REMARK SMILES IDX 54 87 55 88 56 89 57 90 58 91
REMARK H PARENT 18 6 23 28 79 47 49 58
REMARK Flexibility Score: inf
ROOT
ATOM      1  C   UNL A   1      32.885  29.258  24.810  1.00  0.00     0.023 C 
ENDROOT
BRANCH   1   2
ATOM      2  C   UNL A   1      32.566  28.422  23.570  1.00  0.00     0.116 C 
BRANCH   2   3
ATOM      3  N   UNL A   1      31.259  27.820  23.694  1.00  0.00    -0.354 N 
ATOM      4  C   UNL A   1      30.948  26.560  24.113  1.00  0.00     0.242 C 
ATOM      5  O   UNL A   1      29.795  26.172  23.923  1.00  0.00    -0.273 OA
ATOM      6  H   UNL A   1      30.497  28.391  23.446  1.00  0.00     0.163 HD
BRANCH   4   7
ATOM      7  C   UNL A   1      32.037  25.678  24.801  1.00  0.00     0.174 C 
ATOM      8  N   UNL A   1      31.529  24.353  25.225  1.00  0.00    -0.329 N 
ATOM      9  C   UNL A   1      31.014  23.561  24.099  1.00  0.00     0.120 C 
ATOM     10  C   UNL A   1      32.158  23.231  23.143  1.00  0.00     0.022 C 
ATOM     11  C   UNL A   1      33.226  25.439  23.842  1.00  0.00     0.035 C 
ATOM     12  C   UNL A   1      32.880  24.496  22.677  1.00  0.00     0.004 C 
BRANCH   8  13
ATOM     13  C   UNL A   1      31.800  23.660  26.401  1.00  0.00     0.243 C 
ATOM     14  O   UNL A   1      30.895  23.510  27.240  1.00  0.00    -0.273 OA
BRANCH  13  15
ATOM     15  C   UNL A   1      33.208  23.245  26.871  1.00  0.00     0.230 C 
BRANCH  15  16
ATOM     16  N   UNL A   1      34.097  22.466  26.049  1.00  0.00    -0.253 N 
ATOM     17  C   UNL A   1      37.097  22.037  24.089  1.00  0.00     0.149 C 
ATOM     18  N   UNL A   1      35.886  21.903  24.863  1.00  0.00    -0.318 N 
ATOM     19  C   UNL A   1      35.117  20.684  24.912  1.00  0.00     0.221 C 
ATOM     20  C   UNL A   1      35.339  22.879  25.668  1.00  0.00     0.327 C 
ATOM     21  C   UNL A   1      33.927  21.148  25.740  1.00  0.00     0.250 C 
ATOM     22  O   UNL A   1      35.877  23.924  25.987  1.00  0.00    -0.248 OA
ATOM     23  O   UNL A   1      32.985  20.443  26.068  1.00  0.00    -0.272 OA
ENDBRANCH  15  16
ENDBRANCH  13  15
ENDBRANCH   8  13
ENDBRANCH   4   7
ENDBRANCH   2   3
ENDBRANCH   1   2
BRANCH   1  24
ATOM     24  C   UNL A   1      33.839  28.588  25.791  1.00  0.00     0.023 C 
BRANCH  24  25
ATOM     25  C   UNL A   1      33.477  28.776  27.259  1.00  0.00     0.116 C 
BRANCH  25  26
ATOM     26  N   UNL A   1      33.539  30.160  27.724  1.00  0.00    -0.352 N 
ATOM     27  C   UNL A   1      34.614  30.831  28.262  1.00  0.00     0.251 C 
ATOM     28  H   UNL A   1      32.705  30.678  27.643  1.00  0.00     0.163 HD
ATOM     29  O   UNL A   1      34.506  31.986  28.657  1.00  0.00    -0.269 OA
BRANCH  27  30
ATOM     30  C   UNL A   1      35.891  30.106  28.409  1.00  0.00     0.039 A 
ATOM     31  C   UNL A   1      36.808  30.137  27.358  1.00  0.00     0.014 A 
ATOM     32  C   UNL A   1      36.225  29.518  29.631  1.00  0.00     0.014 A 
ATOM     33  C   UNL A   1      38.104  29.666  27.567  1.00  0.00     0.010 A 
ATOM     34  C   UNL A   1      37.540  29.138  29.865  1.00  0.00     0.010 A 
ATOM     35  C   UNL A   1      38.496  29.221  28.840  1.00  0.00    -0.014 A 
BRANCH  35  36
ATOM     36  C   UNL A   1      39.905  28.855  29.137  1.00  0.00     0.031 A 
ATOM     37  C   UNL A   1      40.831  29.874  29.741  1.00  0.00     0.074 A 
ATOM     38  C   UNL A   1      40.373  27.643  28.774  1.00  0.00     0.049 A 
ATOM     39  N   UNL A   1      42.116  29.789  29.965  1.00  0.00    -0.248 NA
ATOM     40  C   UNL A   1      40.242  31.175  30.101  1.00  0.00     0.031 C 
ATOM     41  C   UNL A   1      39.592  26.586  28.124  1.00  0.00     0.029 A 
ATOM     42  N   UNL A   1      41.628  27.099  28.893  1.00  0.00    -0.354 N 
ATOM     43  C   UNL A   1      42.495  31.033  30.457  1.00  0.00     0.074 A 
ATOM     44  C   UNL A   1      41.314  31.868  30.453  1.00  0.00     0.031 C 
ATOM     45  C   UNL A   1      40.377  25.513  27.933  1.00  0.00     0.029 A 
ATOM     46  C   UNL A   1      41.722  25.815  28.407  1.00  0.00     0.049 A 
ATOM     47  H   UNL A   1      42.389  27.582  29.289  1.00  0.00     0.167 HD
ATOM     48  C   UNL A   1      43.710  31.437  30.895  1.00  0.00     0.031 A 
ATOM     49  C   UNL A   1      42.776  24.977  28.347  1.00  0.00     0.031 A 
ATOM     50  C   UNL A   1      44.872  30.593  30.936  1.00  0.00     0.049 A 
ATOM     51  C   UNL A   1      44.105  25.433  28.881  1.00  0.00     0.074 A 
ATOM     52  C   UNL A   1      46.132  30.886  31.426  1.00  0.00     0.029 A 
ATOM     53  N   UNL A   1      44.912  29.285  30.479  1.00  0.00    -0.354 N 
ATOM     54  N   UNL A   1      44.429  26.595  29.397  1.00  0.00    -0.248 NA
ATOM     55  C   UNL A   1      45.207  24.463  28.835  1.00  0.00     0.031 C 
ATOM     56  C   UNL A   1      46.945  29.762  31.239  1.00  0.00     0.029 A 
ATOM     57  C   UNL A   1      46.178  28.758  30.669  1.00  0.00     0.049 A 
ATOM     58  H   UNL A   1      44.154  28.802  30.079  1.00  0.00     0.167 HD
ATOM     59  C   UNL A   1      45.767  26.487  29.758  1.00  0.00     0.074 A 
ATOM     60  C   UNL A   1      46.187  25.144  29.414  1.00  0.00     0.031 C 
ATOM     61  C   UNL A   1      46.574  27.417  30.325  1.00  0.00     0.031 A 
BRANCH  48  62
ATOM     62  C   UNL A   1      43.832  32.860  31.370  1.00  0.00    -0.014 A 
ATOM     63  C   UNL A   1      43.608  33.195  32.717  1.00  0.00     0.010 A 
ATOM     64  C   UNL A   1      44.185  33.873  30.461  1.00  0.00     0.010 A 
ATOM     65  C   UNL A   1      43.683  34.524  33.138  1.00  0.00     0.020 A 
ATOM     66  C   UNL A   1      44.289  35.202  30.883  1.00  0.00     0.020 A 
ATOM     67  C   UNL A   1      44.016  35.520  32.216  1.00  0.00     0.054 A 
BRANCH  67  68
ATOM     68  S   UNL A   1      44.115  37.239  32.788  1.00  0.00     0.124 S 
ATOM     69  O   UNL A   1      45.473  37.298  33.325  1.00  0.00    -0.237 OA
ATOM     70  O   UNL A   1      43.892  38.001  31.562  1.00  0.00    -0.237 OA
ATOM     71  O   UNL A   1      43.048  37.335  33.780  1.00  0.00    -0.744 OA
ENDBRANCH  67  68
ENDBRANCH  48  62
BRANCH  49  72
ATOM     72  C   UNL A   1      42.607  23.609  27.788  1.00  0.00    -0.014 A 
ATOM     73  C   UNL A   1      42.745  23.386  26.407  1.00  0.00     0.010 A 
ATOM     74  C   UNL A   1      42.323  22.520  28.632  1.00  0.00     0.010 A 
ATOM     75  C   UNL A   1      42.587  22.104  25.876  1.00  0.00     0.020 A 
ATOM     76  C   UNL A   1      42.187  21.232  28.107  1.00  0.00     0.020 A 
ATOM     77  C   UNL A   1      42.309  21.033  26.730  1.00  0.00     0.054 A 
BRANCH  77  78
ATOM     78  S   UNL A   1      42.165  19.365  26.028  1.00  0.00     0.124 S 
ATOM     79  O   UNL A   1      40.738  19.281  25.735  1.00  0.00    -0.237 OA
ATOM     80  O   UNL A   1      43.047  19.431  24.866  1.00  0.00    -0.237 OA
ATOM     81  O   UNL A   1      42.637  18.501  27.108  1.00  0.00    -0.744 OA
ENDBRANCH  77  78
ENDBRANCH  49  72
BRANCH  61  82
ATOM     82  C   UNL A   1      47.985  27.005  30.640  1.00  0.00    -0.014 A 
ATOM     83  C   UNL A   1      49.023  27.208  29.715  1.00  0.00     0.010 A 
ATOM     84  C   UNL A   1      48.284  26.463  31.903  1.00  0.00     0.010 A 
ATOM     85  C   UNL A   1      50.335  26.852  30.040  1.00  0.00     0.020 A 
ATOM     86  C   UNL A   1      49.595  26.127  32.240  1.00  0.00     0.020 A 
ATOM     87  C   UNL A   1      50.612  26.312  31.300  1.00  0.00     0.054 A 
BRANCH  87  88
ATOM     88  S   UNL A   1      52.330  25.904  31.720  1.00  0.00     0.124 S 
ATOM     89  O   UNL A   1      52.208  24.528  32.190  1.00  0.00    -0.237 OA
ATOM     90  O   UNL A   1      53.023  26.075  30.445  1.00  0.00    -0.237 OA
ATOM     91  O   UNL A   1      52.676  26.886  32.745  1.00  0.00    -0.744 OA
ENDBRANCH  87  88
ENDBRANCH  61  82
ENDBRANCH  35  36
ENDBRANCH  27  30
ENDBRANCH  25  26
ENDBRANCH  24  25
ENDBRANCH   1  24
TORSDOF 17
ENDMDL
MODEL 2
REMARK VINA RESULT:     -10.6      3.460      6.718
REMARK SMILES CN1CC(=O)N(CC(=O)N2CCCC[C@H]2C(=O)NCCCCNC(=O)c2ccc(-c3c4nc(c(-c5ccc(S(=O)(=O)[O-])cc5)c5ccc([nH]5)c(-c5ccc(S(=O)(=O)[O-])cc5)c5nc(c(-c6ccc(S(=O)(=O)[O-])cc6)c6ccc3[nH]6)C=C5)C=C4)cc2)C1=O
REMARK SMILES IDX 20 1 19 2 18 3 16 4 17 5 15 7 10 8 11 9 12 10 14 11 13 12
REMARK SMILES IDX 8 13 9 14 7 15 6 16 1 17 2 18 3 19 86 20 4 21 87 22 5 23
REMARK SMILES IDX 21 24 22 25 23 26 24 27 25 29 26 30 27 31 85 32 28 33 84 34
REMARK SMILES IDX 29 35 30 36 31 37 78 38 32 39 83 40 77 41 79 42 33 43 82 44
REMARK SMILES IDX 76 45 75 46 34 48 64 49 45 50 63 51 46 52 49 53 62 54 80 55
REMARK SMILES IDX 47 56 48 57 61 59 81 60 50 61 35 62 36 63 44 64 37 65 43 66
REMARK SMILES IDX 38 67 39 68 40 69 41 70 42 71 65 72 66 73 74 74 67 75 73 76
REMARK SMILES IDX 68 77 69 78 70 79 71 80 72 81 51 82 52 83 60 84 53 85 59 86
REMARK SMILES IDX 54 87 55 88 56 89 57 90 58 91
REMARK H PARENT 18 6 23 28 79 47 49 58
REMARK Flexibility Score: inf
ROOT
ATOM      1  C   UNL A   1      33.084  34.481  28.441  1.00  0.00     0.023 C 
ENDROOT
BRANCH   1   2
ATOM      2  C   UNL A   1      34.268  35.444  28.359  1.00  0.00     0.116 C 
BRANCH   2   3
ATOM      3  N   UNL A   1      33.965  36.671  29.057  1.00  0.00    -0.354 N 
ATOM      4  C   UNL A   1      33.308  36.827  30.242  1.00  0.00     0.242 C 
ATOM      5  O   UNL A   1      32.951  37.966  30.543  1.00  0.00    -0.273 OA
ATOM      6  H   UNL A   1      34.270  37.500  28.623  1.00  0.00     0.163 HD
BRANCH   4   7
ATOM      7  C   UNL A   1      33.040  35.586  31.151  1.00  0.00     0.174 C 
ATOM      8  N   UNL A   1      34.268  35.058  31.789  1.00  0.00    -0.329 N 
ATOM      9  C   UNL A   1      34.931  36.054  32.643  1.00  0.00     0.120 C 
ATOM     10  C   UNL A   1      34.023  36.403  33.819  1.00  0.00     0.022 C 
ATOM     11  C   UNL A   1      32.044  35.945  32.277  1.00  0.00     0.035 C 
ATOM     12  C   UNL A   1      32.648  36.875  33.342  1.00  0.00     0.004 C 
BRANCH   8  13
ATOM     13  C   UNL A   1      34.641  33.730  31.976  1.00  0.00     0.243 C 
ATOM     14  O   UNL A   1      33.951  33.004  32.711  1.00  0.00    -0.273 OA
BRANCH  13  15
ATOM     15  C   UNL A   1      35.985  33.124  31.525  1.00  0.00     0.230 C 
BRANCH  15  16
ATOM     16  N   UNL A   1      37.041  32.814  32.453  1.00  0.00    -0.253 N 
ATOM     17  C   UNL A   1      38.650  30.679  34.877  1.00  0.00     0.149 C 
ATOM     18  N   UNL A   1      38.277  31.676  33.902  1.00  0.00    -0.318 N 
ATOM     19  C   UNL A   1      39.047  32.873  33.670  1.00  0.00     0.221 C 
ATOM     20  C   UNL A   1      37.189  31.602  33.058  1.00  0.00     0.327 C 
ATOM     21  C   UNL A   1      38.145  33.584  32.671  1.00  0.00     0.250 C 
ATOM     22  O   UNL A   1      36.490  30.620  32.880  1.00  0.00    -0.248 OA
ATOM     23  O   UNL A   1      38.387  34.666  32.156  1.00  0.00    -0.272 OA
ENDBRANCH  15  16
ENDBRANCH  13  15
ENDBRANCH   8  13
ENDBRANCH   4   7
ENDBRANCH   2   3
ENDBRANCH   1   2
BRANCH   1  24
ATOM     24  C   UNL A   1      33.223  33.238  27.571  1.00  0.00     0.023 C 
BRANCH  24  25
ATOM     25  C   UNL A   1      34.026  32.107  28.202  1.00  0.00     0.116 C 
BRANCH  25  26
ATOM     26  N   UNL A   1      33.617  30.769  27.783  1.00  0.00    -0.352 N 
ATOM     27  C   UNL A   1      34.366  29.614  27.768  1.00  0.00     0.251 C 
ATOM     28  H   UNL A   1      32.687  30.682  27.471  1.00  0.00     0.163 HD
ATOM     29  O   UNL A   1      33.902  28.564  27.341  1.00  0.00    -0.269 OA
BRANCH  27  30
ATOM     30  C   UNL A   1      35.768  29.681  28.225  1.00  0.00     0.039 A 
ATOM     31  C   UNL A   1      36.058  29.382  29.556  1.00  0.00     0.014 A 
ATOM     32  C   UNL A   1      36.793  29.909  27.304  1.00  0.00     0.014 A 
ATOM     33  C   UNL A   1      37.387  29.207  29.944  1.00  0.00     0.010 A 
ATOM     34  C   UNL A   1      38.105  29.642  27.670  1.00  0.00     0.010 A 
ATOM     35  C   UNL A   1      38.415  29.275  28.989  1.00  0.00    -0.014 A 
BRANCH  35  36
ATOM     36  C   UNL A   1      39.821  28.948  29.336  1.00  0.00     0.031 A 
ATOM     37  C   UNL A   1      40.682  29.975  30.018  1.00  0.00     0.074 A 
ATOM     38  C   UNL A   1      40.349  27.768  28.951  1.00  0.00     0.049 A 
ATOM     39  N   UNL A   1      41.958  29.927  30.297  1.00  0.00    -0.248 NA
ATOM     40  C   UNL A   1      40.030  31.240  30.398  1.00  0.00     0.031 C 
ATOM     41  C   UNL A   1      39.637  26.709  28.228  1.00  0.00     0.029 A 
ATOM     42  N   UNL A   1      41.617  27.264  29.107  1.00  0.00    -0.354 N 
ATOM     43  C   UNL A   1      42.269  31.163  30.851  1.00  0.00     0.074 A 
ATOM     44  C   UNL A   1      41.060  31.956  30.824  1.00  0.00     0.031 C 
ATOM     45  C   UNL A   1      40.468  25.673  28.034  1.00  0.00     0.029 A 
ATOM     46  C   UNL A   1      41.779  26.004  28.579  1.00  0.00     0.049 A 
ATOM     47  H   UNL A   1      42.341  27.758  29.554  1.00  0.00     0.167 HD
ATOM     48  C   UNL A   1      43.448  31.593  31.358  1.00  0.00     0.031 A 
ATOM     49  C   UNL A   1      42.864  25.205  28.537  1.00  0.00     0.031 A 
ATOM     50  C   UNL A   1      44.637  30.789  31.421  1.00  0.00     0.049 A 
ATOM     51  C   UNL A   1      44.151  25.687  29.147  1.00  0.00     0.074 A 
ATOM     52  C   UNL A   1      45.863  31.107  31.978  1.00  0.00     0.029 A 
ATOM     53  N   UNL A   1      44.746  29.501  30.919  1.00  0.00    -0.354 N 
ATOM     54  N   UNL A   1      44.410  26.839  29.719  1.00  0.00    -0.248 NA
ATOM     55  C   UNL A   1      45.289  24.759  29.115  1.00  0.00     0.031 C 
ATOM     56  C   UNL A   1      46.724  30.020  31.787  1.00  0.00     0.029 A 
ATOM     57  C   UNL A   1      46.020  29.012  31.147  1.00  0.00     0.049 A 
ATOM     58  H   UNL A   1      44.024  29.007  30.467  1.00  0.00     0.167 HD
ATOM     59  C   UNL A   1      45.733  26.765  30.136  1.00  0.00     0.074 A 
ATOM     60  C   UNL A   1      46.217  25.451  29.763  1.00  0.00     0.031 C 
ATOM     61  C   UNL A   1      46.480  27.699  30.773  1.00  0.00     0.031 A 
BRANCH  48  62
ATOM     62  C   UNL A   1      43.497  33.000  31.889  1.00  0.00    -0.014 A 
ATOM     63  C   UNL A   1      43.151  33.282  33.223  1.00  0.00     0.010 A 
ATOM     64  C   UNL A   1      43.904  34.051  31.049  1.00  0.00     0.010 A 
ATOM     65  C   UNL A   1      43.160  34.597  33.693  1.00  0.00     0.020 A 
ATOM     66  C   UNL A   1      43.941  35.366  31.523  1.00  0.00     0.020 A 
ATOM     67  C   UNL A   1      43.548  35.632  32.837  1.00  0.00     0.054 A 
BRANCH  67  68
ATOM     68  S   UNL A   1      43.559  37.330  33.473  1.00  0.00     0.124 S 
ATOM     69  O   UNL A   1      42.320  37.368  34.247  1.00  0.00    -0.237 OA
ATOM     70  O   UNL A   1      44.791  37.373  34.259  1.00  0.00    -0.237 OA
ATOM     71  O   UNL A   1      43.566  38.152  32.266  1.00  0.00    -0.744 OA
ENDBRANCH  67  68
ENDBRANCH  48  62
BRANCH  49  72
ATOM     72  C   UNL A   1      42.770  23.854  27.922  1.00  0.00    -0.014 A 
ATOM     73  C   UNL A   1      42.228  22.780  28.650  1.00  0.00     0.010 A 
ATOM     74  C   UNL A   1      43.206  23.636  26.602  1.00  0.00     0.010 A 
ATOM     75  C   UNL A   1      42.137  21.509  28.077  1.00  0.00     0.020 A 
ATOM     76  C   UNL A   1      43.096  22.371  26.018  1.00  0.00     0.020 A 
ATOM     77  C   UNL A   1      42.571  21.312  26.763  1.00  0.00     0.054 A 
BRANCH  77  78
ATOM     78  S   UNL A   1      42.391  19.667  26.017  1.00  0.00     0.124 S 
ATOM     79  O   UNL A   1      42.861  18.795  27.089  1.00  0.00    -0.237 OA
ATOM     80  O   UNL A   1      40.961  19.603  25.729  1.00  0.00    -0.237 OA
ATOM     81  O   UNL A   1      43.252  19.733  24.839  1.00  0.00    -0.744 OA
ENDBRANCH  77  78
ENDBRANCH  49  72
BRANCH  61  82
ATOM     82  C   UNL A   1      47.890  27.325  31.136  1.00  0.00    -0.014 A 
ATOM     83  C   UNL A   1      48.169  26.600  32.308  1.00  0.00     0.010 A 
ATOM     84  C   UNL A   1      48.941  27.652  30.261  1.00  0.00     0.010 A 
ATOM     85  C   UNL A   1      49.482  26.230  32.610  1.00  0.00     0.020 A 
ATOM     86  C   UNL A   1      50.251  27.264  30.548  1.00  0.00     0.020 A 
ATOM     87  C   UNL A   1      50.514  26.566  31.729  1.00  0.00     0.054 A 
BRANCH  87  88
ATOM     88  S   UNL A   1      52.204  26.030  32.116  1.00  0.00     0.124 S 
ATOM     89  O   UNL A   1      51.970  24.976  33.099  1.00  0.00    -0.237 OA
ATOM     90  O   UNL A   1      52.707  25.581  30.820  1.00  0.00    -0.237 OA
ATOM     91  O   UNL A   1      52.837  27.240  32.637  1.00  0.00    -0.744 OA
ENDBRANCH  87  88
ENDBRANCH  61  82
ENDBRANCH  35  36
ENDBRANCH  27  30
ENDBRANCH  25  26
ENDBRANCH  24  25
ENDBRANCH   1  24
TORSDOF 17
ENDMDL
MODEL 3
REMARK VINA RESULT:     -10.5      4.422      9.513
REMARK SMILES CN1CC(=O)N(CC(=O)N2CCCC[C@H]2C(=O)NCCCCNC(=O)c2ccc(-c3c4nc(c(-c5ccc(S(=O)(=O)[O-])cc5)c5ccc([nH]5)c(-c5ccc(S(=O)(=O)[O-])cc5)c5nc(c(-c6ccc(S(=O)(=O)[O-])cc6)c6ccc3[nH]6)C=C5)C=C4)cc2)C1=O
REMARK SMILES IDX 20 1 19 2 18 3 16 4 17 5 15 7 10 8 11 9 12 10 14 11 13 12
REMARK SMILES IDX 8 13 9 14 7 15 6 16 1 17 2 18 3 19 86 20 4 21 87 22 5 23
REMARK SMILES IDX 21 24 22 25 23 26 24 27 25 29 26 30 27 31 85 32 28 33 84 34
REMARK SMILES IDX 29 35 30 36 31 37 78 38 32 39 83 40 77 41 79 42 33 43 82 44
REMARK SMILES IDX 76 45 75 46 34 48 64 49 45 50 63 51 46 52 49 53 62 54 80 55
REMARK SMILES IDX 47 56 48 57 61 59 81 60 50 61 35 62 36 63 44 64 37 65 43 66
REMARK SMILES IDX 38 67 39 68 40 69 41 70 42 71 65 72 66 73 74 74 67 75 73 76
REMARK SMILES IDX 68 77 69 78 70 79 71 80 72 81 51 82 52 83 60 84 53 85 59 86
REMARK SMILES IDX 54 87 55 88 56 89 57 90 58 91
REMARK H PARENT 18 6 23 28 79 47 49 58
REMARK Flexibility Score: inf
ROOT
ATOM      1  C   UNL A   1      33.002  29.606  27.303  1.00  0.00     0.023 C 
ENDROOT
BRANCH   1   2
ATOM      2  C   UNL A   1      34.039  28.796  26.522  1.00  0.00     0.116 C 
BRANCH   2   3
ATOM      3  N   UNL A   1      34.059  29.210  25.139  1.00  0.00    -0.354 N 
ATOM      4  C   UNL A   1      33.617  28.522  24.047  1.00  0.00     0.242 C 
ATOM      5  O   UNL A   1      33.940  28.955  22.941  1.00  0.00    -0.273 OA
ATOM      6  H   UNL A   1      34.439  30.100  24.961  1.00  0.00     0.163 HD
BRANCH   4   7
ATOM      7  C   UNL A   1      32.741  27.243  24.235  1.00  0.00     0.174 C 
ATOM      8  N   UNL A   1      31.505  27.495  25.011  1.00  0.00    -0.329 N 
ATOM      9  C   UNL A   1      30.636  28.495  24.375  1.00  0.00     0.120 C 
ATOM     10  C   UNL A   1      30.132  27.957  23.039  1.00  0.00     0.022 C 
ATOM     11  C   UNL A   1      32.324  26.666  22.863  1.00  0.00     0.035 C 
ATOM     12  C   UNL A   1      31.290  27.539  22.132  1.00  0.00     0.004 C 
BRANCH   8  13
ATOM     13  C   UNL A   1      30.922  26.696  25.990  1.00  0.00     0.243 C 
ATOM     14  O   UNL A   1      31.076  26.994  27.187  1.00  0.00    -0.273 OA
BRANCH  13  15
ATOM     15  C   UNL A   1      30.278  25.320  25.731  1.00  0.00     0.230 C 
BRANCH  15  16
ATOM     16  N   UNL A   1      31.060  24.135  25.493  1.00  0.00    -0.253 N 
ATOM     17  C   UNL A   1      33.350  21.545  26.533  1.00  0.00     0.149 C 
ATOM     18  N   UNL A   1      32.381  22.394  25.880  1.00  0.00    -0.318 N 
ATOM     19  C   UNL A   1      31.969  22.206  24.512  1.00  0.00     0.221 C 
ATOM     20  C   UNL A   1      31.709  23.442  26.472  1.00  0.00     0.327 C 
ATOM     21  C   UNL A   1      31.070  23.422  24.331  1.00  0.00     0.250 C 
ATOM     22  O   UNL A   1      31.693  23.698  27.663  1.00  0.00    -0.248 OA
ATOM     23  O   UNL A   1      30.463  23.697  23.307  1.00  0.00    -0.272 OA
ENDBRANCH  15  16
ENDBRANCH  13  15
ENDBRANCH   8  13
ENDBRANCH   4   7
ENDBRANCH   2   3
ENDBRANCH   1   2
BRANCH   1  24
ATOM     24  C   UNL A   1      32.839  31.043  26.826  1.00  0.00     0.023 C 
BRANCH  24  25
ATOM     25  C   UNL A   1      33.671  32.066  27.591  1.00  0.00     0.116 C 
BRANCH  25  26
ATOM     26  N   UNL A   1      33.026  33.365  27.760  1.00  0.00    -0.352 N 
ATOM     27  C   UNL A   1      33.357  34.373  28.637  1.00  0.00     0.251 C 
ATOM     28  H   UNL A   1      32.256  33.542  27.172  1.00  0.00     0.163 HD
ATOM     29  O   UNL A   1      32.690  35.399  28.703  1.00  0.00    -0.269 OA
BRANCH  27  30
ATOM     30  C   UNL A   1      34.501  34.166  29.545  1.00  0.00     0.039 A 
ATOM     31  C   UNL A   1      34.272  33.604  30.802  1.00  0.00     0.014 A 
ATOM     32  C   UNL A   1      35.802  34.403  29.096  1.00  0.00     0.014 A 
ATOM     33  C   UNL A   1      35.356  33.182  31.570  1.00  0.00     0.010 A 
ATOM     34  C   UNL A   1      36.873  33.897  29.820  1.00  0.00     0.010 A 
ATOM     35  C   UNL A   1      36.661  33.270  31.058  1.00  0.00    -0.014 A 
BRANCH  35  36
ATOM     36  C   UNL A   1      37.822  32.695  31.784  1.00  0.00     0.031 A 
ATOM     37  C   UNL A   1      38.558  31.518  31.205  1.00  0.00     0.074 A 
ATOM     38  C   UNL A   1      38.150  33.167  33.004  1.00  0.00     0.049 A 
ATOM     39  N   UNL A   1      39.515  30.803  31.735  1.00  0.00    -0.248 NA
ATOM     40  C   UNL A   1      38.132  31.060  29.872  1.00  0.00     0.031 C 
ATOM     41  C   UNL A   1      37.476  34.265  33.705  1.00  0.00     0.029 A 
ATOM     42  N   UNL A   1      39.132  32.774  33.879  1.00  0.00    -0.354 N 
ATOM     43  C   UNL A   1      39.781  29.792  30.819  1.00  0.00     0.074 A 
ATOM     44  C   UNL A   1      38.852  29.959  29.723  1.00  0.00     0.031 C 
ATOM     45  C   UNL A   1      38.084  34.476  34.883  1.00  0.00     0.029 A 
ATOM     46  C   UNL A   1      39.164  33.508  35.042  1.00  0.00     0.049 A 
ATOM     47  H   UNL A   1      39.756  32.036  33.691  1.00  0.00     0.167 HD
ATOM     48  C   UNL A   1      40.727  28.827  30.872  1.00  0.00     0.031 A 
ATOM     49  C   UNL A   1      39.970  33.411  36.117  1.00  0.00     0.031 A 
ATOM     50  C   UNL A   1      41.676  28.689  31.943  1.00  0.00     0.049 A 
ATOM     51  C   UNL A   1      41.043  32.359  36.134  1.00  0.00     0.074 A 
ATOM     52  C   UNL A   1      42.719  27.788  32.058  1.00  0.00     0.029 A 
ATOM     53  N   UNL A   1      41.705  29.483  33.079  1.00  0.00    -0.354 N 
ATOM     54  N   UNL A   1      41.317  31.447  35.231  1.00  0.00    -0.248 NA
ATOM     55  C   UNL A   1      41.924  32.327  37.310  1.00  0.00     0.031 C 
ATOM     56  C   UNL A   1      43.362  28.018  33.280  1.00  0.00     0.029 A 
ATOM     57  C   UNL A   1      42.743  29.089  33.904  1.00  0.00     0.049 A 
ATOM     58  H   UNL A   1      41.079  30.219  33.270  1.00  0.00     0.167 HD
ATOM     59  C   UNL A   1      42.415  30.750  35.718  1.00  0.00     0.074 A 
ATOM     60  C   UNL A   1      42.764  31.352  36.989  1.00  0.00     0.031 C 
ATOM     61  C   UNL A   1      43.076  29.705  35.162  1.00  0.00     0.031 A 
BRANCH  48  62
ATOM     62  C   UNL A   1      40.780  27.849  29.730  1.00  0.00    -0.014 A 
ATOM     63  C   UNL A   1      39.737  26.929  29.516  1.00  0.00     0.010 A 
ATOM     64  C   UNL A   1      41.879  27.857  28.852  1.00  0.00     0.010 A 
ATOM     65  C   UNL A   1      39.817  25.999  28.477  1.00  0.00     0.020 A 
ATOM     66  C   UNL A   1      41.949  26.946  27.794  1.00  0.00     0.020 A 
ATOM     67  C   UNL A   1      40.926  26.009  27.627  1.00  0.00     0.054 A 
BRANCH  67  68
ATOM     68  S   UNL A   1      41.002  24.797  26.280  1.00  0.00     0.124 S 
ATOM     69  O   UNL A   1      39.704  24.137  26.398  1.00  0.00    -0.237 OA
ATOM     70  O   UNL A   1      41.173  25.637  25.097  1.00  0.00    -0.237 OA
ATOM     71  O   UNL A   1      42.156  23.970  26.625  1.00  0.00    -0.744 OA
ENDBRANCH  67  68
ENDBRANCH  48  62
BRANCH  49  72
ATOM     72  C   UNL A   1      39.812  34.358  37.254  1.00  0.00    -0.014 A 
ATOM     73  C   UNL A   1      40.417  35.627  37.207  1.00  0.00     0.010 A 
ATOM     74  C   UNL A   1      39.045  34.006  38.379  1.00  0.00     0.010 A 
ATOM     75  C   UNL A   1      40.272  36.520  38.271  1.00  0.00     0.020 A 
ATOM     76  C   UNL A   1      38.880  34.906  39.435  1.00  0.00     0.020 A 
ATOM     77  C   UNL A   1      39.503  36.155  39.380  1.00  0.00     0.054 A 
BRANCH  77  78
ATOM     78  S   UNL A   1      39.279  37.352  40.726  1.00  0.00     0.124 S 
ATOM     79  O   UNL A   1      38.665  36.529  41.764  1.00  0.00    -0.237 OA
ATOM     80  O   UNL A   1      40.646  37.791  40.992  1.00  0.00    -0.237 OA
ATOM     81  O   UNL A   1      38.412  38.368  40.135  1.00  0.00    -0.744 OA
ENDBRANCH  77  78
ENDBRANCH  49  72
BRANCH  61  82
ATOM     82  C   UNL A   1      44.265  29.166  35.909  1.00  0.00    -0.014 A 
ATOM     83  C   UNL A   1      44.129  28.106  36.821  1.00  0.00     0.010 A 
ATOM     84  C   UNL A   1      45.544  29.689  35.645  1.00  0.00     0.010 A 
ATOM     85  C   UNL A   1      45.251  27.594  37.478  1.00  0.00     0.020 A 
ATOM     86  C   UNL A   1      46.670  29.166  36.282  1.00  0.00     0.020 A 
ATOM     87  C   UNL A   1      46.515  28.129  37.205  1.00  0.00     0.054 A 
BRANCH  87  88
ATOM     88  S   UNL A   1      47.964  27.415  38.031  1.00  0.00     0.124 S 
ATOM     89  O   UNL A   1      47.406  26.206  38.628  1.00  0.00    -0.237 OA
ATOM     90  O   UNL A   1      48.893  27.199  36.924  1.00  0.00    -0.237 OA
ATOM     91  O   UNL A   1      48.366  28.452  38.978  1.00  0.00    -0.744 OA
ENDBRANCH  87  88
ENDBRANCH  61  82
ENDBRANCH  35  36
ENDBRANCH  27  30
ENDBRANCH  25  26
ENDBRANCH  24  25
ENDBRANCH   1  24
TORSDOF 17
ENDMDL
