MODEL 1
REMARK VINA RESULT:     -11.5      0.000      0.000
REMARK SMILES O=C(NCCCCNC(=O)[C@H]1CC=CC[C@@H]1C(=O)NNc1ccccc1)c1ccc(-c2c3nc(c(-c4ccc(S(=O)(=O)[O-])cc4)c4ccc([nH]4)c(-c4ccc(S(=O)(=O)[O-])cc4)c4nc(c(-c5ccc(S(=O)(=O)[O-])cc5)c5ccc2[nH]5)C=C4)C=C3)cc1
REMARK SMILES IDX 5 1 4 2 3 3 1 4 2 5 27 7 28 8 86 9 29 10 85 11 30 12 31 13
REMARK SMILES IDX 32 14 79 15 33 16 84 17 78 18 80 19 34 20 83 21 77 22 76 23
REMARK SMILES IDX 35 25 65 26 46 27 64 28 47 29 50 30 63 31 81 32 48 33 49 34
REMARK SMILES IDX 62 36 82 37 51 38 36 39 37 40 45 41 38 42 44 43 39 44 40 45
REMARK SMILES IDX 41 46 42 47 43 48 66 49 67 50 75 51 68 52 74 53 69 54 70 55
REMARK SMILES IDX 71 56 72 57 73 58 52 59 53 60 61 61 54 62 60 63 55 64 56 65
REMARK SMILES IDX 57 66 58 67 59 68 6 69 7 70 8 71 9 72 10 74 11 75 12 76
REMARK SMILES IDX 16 77 13 78 15 79 14 80 17 81 18 82 19 83 20 85 21 87 22 88
REMARK SMILES IDX 26 89 23 90 25 91 24 92
REMARK H PARENT 3 6 80 24 50 35 8 73 19 84 20 86
REMARK Flexibility Score: inf
ROOT
ATOM      1  C   UNL A   1      32.540  28.290  26.217  1.00  0.00     0.023 C 
ENDROOT
BRANCH   1   2
ATOM      2  C   UNL A   1      33.753  28.733  27.017  1.00  0.00     0.116 C 
BRANCH   2   3
ATOM      3  N   UNL A   1      33.635  30.025  27.679  1.00  0.00    -0.352 N 
ATOM      4  O   UNL A   1      34.441  31.773  28.899  1.00  0.00    -0.269 OA
ATOM      5  C   UNL A   1      34.645  30.696  28.352  1.00  0.00     0.251 C 
ATOM      6  H   UNL A   1      32.755  30.465  27.645  1.00  0.00     0.163 HD
BRANCH   5   7
ATOM      7  C   UNL A   1      35.970  30.037  28.430  1.00  0.00     0.039 A 
ATOM      8  C   UNL A   1      36.371  29.456  29.634  1.00  0.00     0.014 A 
ATOM      9  C   UNL A   1      36.870  30.172  27.370  1.00  0.00     0.014 A 
ATOM     10  C   UNL A   1      37.718  29.194  29.845  1.00  0.00     0.010 A 
ATOM     11  C   UNL A   1      38.208  29.801  27.553  1.00  0.00     0.010 A 
ATOM     12  C   UNL A   1      38.653  29.354  28.807  1.00  0.00    -0.014 A 
BRANCH  12  13
ATOM     13  C   UNL A   1      40.068  28.967  29.048  1.00  0.00     0.031 A 
ATOM     14  C   UNL A   1      40.620  27.635  28.609  1.00  0.00     0.074 A 
ATOM     15  C   UNL A   1      40.872  29.867  29.651  1.00  0.00     0.049 A 
ATOM     16  N   UNL A   1      41.831  27.161  28.766  1.00  0.00    -0.248 NA
ATOM     17  C   UNL A   1      39.706  26.713  27.914  1.00  0.00     0.031 C 
ATOM     18  C   UNL A   1      40.445  31.188  30.129  1.00  0.00     0.029 A 
ATOM     19  N   UNL A   1      42.207  29.825  29.951  1.00  0.00    -0.354 N 
ATOM     20  C   UNL A   1      41.818  25.879  28.228  1.00  0.00     0.074 A 
ATOM     21  C   UNL A   1      40.478  25.646  27.734  1.00  0.00     0.031 C 
ATOM     22  C   UNL A   1      41.507  31.847  30.612  1.00  0.00     0.029 A 
ATOM     23  C   UNL A   1      42.667  30.969  30.561  1.00  0.00     0.049 A 
ATOM     24  H   UNL A   1      42.784  29.052  29.749  1.00  0.00     0.167 HD
ATOM     25  C   UNL A   1      42.830  24.980  28.161  1.00  0.00     0.031 A 
ATOM     26  C   UNL A   1      43.876  31.271  31.067  1.00  0.00     0.031 A 
ATOM     27  C   UNL A   1      44.170  25.234  28.631  1.00  0.00     0.049 A 
ATOM     28  C   UNL A   1      44.968  30.249  30.994  1.00  0.00     0.074 A 
ATOM     29  C   UNL A   1      45.280  24.409  28.546  1.00  0.00     0.029 A 
ATOM     30  N   UNL A   1      44.581  26.387  29.279  1.00  0.00    -0.354 N 
ATOM     31  N   UNL A   1      44.939  29.059  30.448  1.00  0.00    -0.248 NA
ATOM     32  C   UNL A   1      46.248  30.604  31.620  1.00  0.00     0.031 C 
ATOM     33  C   UNL A   1      46.347  25.043  29.190  1.00  0.00     0.029 A 
ATOM     34  C   UNL A   1      45.915  26.281  29.635  1.00  0.00     0.049 A 
ATOM     35  H   UNL A   1      44.008  27.168  29.460  1.00  0.00     0.167 HD
ATOM     36  C   UNL A   1      46.196  28.514  30.675  1.00  0.00     0.074 A 
ATOM     37  C   UNL A   1      46.970  29.520  31.373  1.00  0.00     0.031 C 
ATOM     38  C   UNL A   1      46.661  27.285  30.348  1.00  0.00     0.031 A 
BRANCH  25  39
ATOM     39  C   UNL A   1      42.548  23.616  27.587  1.00  0.00    -0.014 A 
ATOM     40  C   UNL A   1      42.813  23.320  26.239  1.00  0.00     0.010 A 
ATOM     41  C   UNL A   1      42.131  22.581  28.445  1.00  0.00     0.010 A 
ATOM     42  C   UNL A   1      42.656  22.015  25.757  1.00  0.00     0.020 A 
ATOM     43  C   UNL A   1      41.989  21.273  27.971  1.00  0.00     0.020 A 
ATOM     44  C   UNL A   1      42.247  20.999  26.627  1.00  0.00     0.054 A 
BRANCH  44  45
ATOM     45  S   UNL A   1      42.118  19.303  25.992  1.00  0.00     0.124 S 
ATOM     46  O   UNL A   1      40.681  19.175  25.765  1.00  0.00    -0.237 OA
ATOM     47  O   UNL A   1      42.943  19.348  24.787  1.00  0.00    -0.237 OA
ATOM     48  O   UNL A   1      42.652  18.484  27.078  1.00  0.00    -0.744 OA
ENDBRANCH  44  45
ENDBRANCH  25  39
BRANCH  26  49
ATOM     49  C   UNL A   1      44.078  32.573  31.753  1.00  0.00    -0.014 A 
ATOM     50  C   UNL A   1      43.841  32.709  33.130  1.00  0.00     0.010 A 
ATOM     51  C   UNL A   1      44.540  33.684  31.021  1.00  0.00     0.010 A 
ATOM     52  C   UNL A   1      44.053  33.938  33.762  1.00  0.00     0.020 A 
ATOM     53  C   UNL A   1      44.782  34.903  31.654  1.00  0.00     0.020 A 
ATOM     54  C   UNL A   1      44.521  35.027  33.020  1.00  0.00     0.054 A 
BRANCH  54  55
ATOM     55  S   UNL A   1      44.843  36.600  33.862  1.00  0.00     0.124 S 
ATOM     56  O   UNL A   1      45.033  36.168  35.243  1.00  0.00    -0.237 OA
ATOM     57  O   UNL A   1      46.039  37.090  33.181  1.00  0.00    -0.237 OA
ATOM     58  O   UNL A   1      43.631  37.374  33.606  1.00  0.00    -0.744 OA
ENDBRANCH  54  55
ENDBRANCH  26  49
BRANCH  38  59
ATOM     59  C   UNL A   1      48.071  26.967  30.754  1.00  0.00    -0.014 A 
ATOM     60  C   UNL A   1      49.149  27.308  29.918  1.00  0.00     0.010 A 
ATOM     61  C   UNL A   1      48.323  26.345  31.989  1.00  0.00     0.010 A 
ATOM     62  C   UNL A   1      50.457  27.002  30.298  1.00  0.00     0.020 A 
ATOM     63  C   UNL A   1      49.633  26.060  32.382  1.00  0.00     0.020 A 
ATOM     64  C   UNL A   1      50.690  26.376  31.526  1.00  0.00     0.054 A 
BRANCH  64  65
ATOM     65  S   UNL A   1      52.400  26.017  32.012  1.00  0.00     0.124 S 
ATOM     66  O   UNL A   1      52.641  27.028  33.038  1.00  0.00    -0.237 OA
ATOM     67  O   UNL A   1      52.317  24.640  32.494  1.00  0.00    -0.237 OA
ATOM     68  O   UNL A   1      53.155  26.192  30.773  1.00  0.00    -0.744 OA
ENDBRANCH  64  65
ENDBRANCH  38  59
ENDBRANCH  12  13
ENDBRANCH   5   7
ENDBRANCH   2   3
ENDBRANCH   1   2
BRANCH   1  69
ATOM     69  C   UNL A   1      31.428  27.618  27.013  1.00  0.00     0.023 C 
BRANCH  69  70
ATOM     70  C   UNL A   1      30.614  26.572  26.247  1.00  0.00     0.116 C 
BRANCH  70  71
ATOM     71  N   UNL A   1      31.170  25.227  26.264  1.00  0.00    -0.356 N 
ATOM     72  C   UNL A   1      32.240  24.609  25.712  1.00  0.00     0.224 C 
ATOM     73  H   UNL A   1      30.633  24.614  26.816  1.00  0.00     0.163 HD
ATOM     74  O   UNL A   1      32.507  23.498  26.191  1.00  0.00    -0.275 OA
BRANCH  72  75
ATOM     75  C   UNL A   1      33.116  25.151  24.579  1.00  0.00     0.095 C 
ATOM     76  C   UNL A   1      34.609  24.932  24.766  1.00  0.00     0.041 C 
ATOM     77  C   UNL A   1      32.591  24.827  23.170  1.00  0.00     0.097 C 
ATOM     78  C   UNL A   1      35.170  23.803  23.955  1.00  0.00    -0.030 C 
ATOM     79  C   UNL A   1      33.101  23.509  22.586  1.00  0.00     0.041 C 
ATOM     80  C   UNL A   1      34.489  23.133  23.015  1.00  0.00    -0.030 C 
BRANCH  77  81
ATOM     81  C   UNL A   1      32.724  26.055  22.245  1.00  0.00     0.242 C 
ATOM     82  O   UNL A   1      33.778  26.222  21.614  1.00  0.00    -0.273 OA
ATOM     83  N   UNL A   1      31.721  26.963  22.015  1.00  0.00    -0.270 N 
ATOM     84  H   UNL A   1      31.850  27.593  21.269  1.00  0.00     0.191 HD
BRANCH  83  85
ATOM     85  N   UNL A   1      30.555  27.073  22.729  1.00  0.00    -0.299 N 
ATOM     86  H   UNL A   1      30.262  26.323  23.295  1.00  0.00     0.188 HD
BRANCH  85  87
ATOM     87  C   UNL A   1      29.772  28.236  22.671  1.00  0.00     0.054 A 
ATOM     88  C   UNL A   1      28.443  28.164  23.126  1.00  0.00     0.027 A 
ATOM     89  C   UNL A   1      30.195  29.436  22.093  1.00  0.00     0.027 A 
ATOM     90  C   UNL A   1      27.560  29.238  22.990  1.00  0.00     0.002 A 
ATOM     91  C   UNL A   1      29.325  30.530  21.990  1.00  0.00     0.002 A 
ATOM     92  C   UNL A   1      28.005  30.426  22.427  1.00  0.00     0.000 A 
ENDBRANCH  85  87
ENDBRANCH  83  85
ENDBRANCH  77  81
ENDBRANCH  72  75
ENDBRANCH  70  71
ENDBRANCH  69  70
ENDBRANCH   1  69
TORSDOF 17
ENDMDL
MODEL 2
REMARK VINA RESULT:     -11.3      5.051     10.385
REMARK SMILES O=C(NCCCCNC(=O)[C@H]1CC=CC[C@@H]1C(=O)NNc1ccccc1)c1ccc(-c2c3nc(c(-c4ccc(S(=O)(=O)[O-])cc4)c4ccc([nH]4)c(-c4ccc(S(=O)(=O)[O-])cc4)c4nc(c(-c5ccc(S(=O)(=O)[O-])cc5)c5ccc2[nH]5)C=C4)C=C3)cc1
REMARK SMILES IDX 5 1 4 2 3 3 1 4 2 5 27 7 28 8 86 9 29 10 85 11 30 12 31 13
REMARK SMILES IDX 32 14 79 15 33 16 84 17 78 18 80 19 34 20 83 21 77 22 76 23
REMARK SMILES IDX 35 25 65 26 46 27 64 28 47 29 50 30 63 31 81 32 48 33 49 34
REMARK SMILES IDX 62 36 82 37 51 38 36 39 37 40 45 41 38 42 44 43 39 44 40 45
REMARK SMILES IDX 41 46 42 47 43 48 66 49 67 50 75 51 68 52 74 53 69 54 70 55
REMARK SMILES IDX 71 56 72 57 73 58 52 59 53 60 61 61 54 62 60 63 55 64 56 65
REMARK SMILES IDX 57 66 58 67 59 68 6 69 7 70 8 71 9 72 10 74 11 75 12 76
REMARK SMILES IDX 16 77 13 78 15 79 14 80 17 81 18 82 19 83 20 85 21 87 22 88
REMARK SMILES IDX 26 89 23 90 25 91 24 92
REMARK H PARENT 3 6 80 24 50 35 8 73 19 84 20 86
REMARK Flexibility Score: inf
ROOT
ATOM      1  C   UNL A   1      40.065  22.210  27.291  1.00  0.00     0.023 C 
ENDROOT
BRANCH   1   2
ATOM      2  C   UNL A   1      41.332  23.042  27.187  1.00  0.00     0.116 C 
BRANCH   2   3
ATOM      3  N   UNL A   1      41.417  23.921  26.029  1.00  0.00    -0.352 N 
ATOM      4  O   UNL A   1      41.553  25.961  25.022  1.00  0.00    -0.269 OA
ATOM      5  C   UNL A   1      41.509  25.304  26.055  1.00  0.00     0.251 C 
ATOM      6  H   UNL A   1      41.408  23.492  25.143  1.00  0.00     0.163 HD
BRANCH   5   7
ATOM      7  C   UNL A   1      41.502  25.966  27.381  1.00  0.00     0.039 A 
ATOM      8  C   UNL A   1      40.318  25.998  28.119  1.00  0.00     0.014 A 
ATOM      9  C   UNL A   1      42.614  26.706  27.788  1.00  0.00     0.014 A 
ATOM     10  C   UNL A   1      40.183  26.924  29.145  1.00  0.00     0.010 A 
ATOM     11  C   UNL A   1      42.506  27.557  28.895  1.00  0.00     0.010 A 
ATOM     12  C   UNL A   1      41.277  27.709  29.554  1.00  0.00    -0.014 A 
BRANCH  12  13
ATOM     13  C   UNL A   1      41.115  28.615  30.721  1.00  0.00     0.031 A 
ATOM     14  C   UNL A   1      42.018  28.538  31.925  1.00  0.00     0.074 A 
ATOM     15  C   UNL A   1      40.143  29.548  30.663  1.00  0.00     0.049 A 
ATOM     16  N   UNL A   1      41.983  29.257  33.019  1.00  0.00    -0.248 NA
ATOM     17  C   UNL A   1      43.090  27.529  31.911  1.00  0.00     0.031 C 
ATOM     18  C   UNL A   1      39.200  29.712  29.549  1.00  0.00     0.029 A 
ATOM     19  N   UNL A   1      39.793  30.542  31.538  1.00  0.00    -0.354 N 
ATOM     20  C   UNL A   1      42.996  28.767  33.837  1.00  0.00     0.074 A 
ATOM     21  C   UNL A   1      43.635  27.689  33.112  1.00  0.00     0.031 C 
ATOM     22  C   UNL A   1      38.417  30.773  29.786  1.00  0.00     0.029 A 
ATOM     23  C   UNL A   1      38.740  31.311  31.100  1.00  0.00     0.049 A 
ATOM     24  H   UNL A   1      40.252  30.693  32.397  1.00  0.00     0.167 HD
ATOM     25  C   UNL A   1      43.352  29.177  35.079  1.00  0.00     0.031 A 
ATOM     26  C   UNL A   1      38.071  32.311  31.701  1.00  0.00     0.031 A 
ATOM     27  C   UNL A   1      42.727  30.271  35.780  1.00  0.00     0.049 A 
ATOM     28  C   UNL A   1      38.477  32.727  33.081  1.00  0.00     0.074 A 
ATOM     29  C   UNL A   1      43.062  30.803  37.014  1.00  0.00     0.029 A 
ATOM     30  N   UNL A   1      41.638  30.994  35.319  1.00  0.00    -0.354 N 
ATOM     31  N   UNL A   1      39.461  32.273  33.817  1.00  0.00    -0.248 NA
ATOM     32  C   UNL A   1      37.673  33.778  33.717  1.00  0.00     0.031 C 
ATOM     33  C   UNL A   1      42.142  31.811  37.322  1.00  0.00     0.029 A 
ATOM     34  C   UNL A   1      41.264  31.938  36.260  1.00  0.00     0.049 A 
ATOM     35  H   UNL A   1      41.196  30.855  34.449  1.00  0.00     0.167 HD
ATOM     36  C   UNL A   1      39.388  32.974  35.012  1.00  0.00     0.074 A 
ATOM     37  C   UNL A   1      38.288  33.909  34.884  1.00  0.00     0.031 C 
ATOM     38  C   UNL A   1      40.153  32.844  36.122  1.00  0.00     0.031 A 
BRANCH  25  39
ATOM     39  C   UNL A   1      44.450  28.436  35.797  1.00  0.00    -0.014 A 
ATOM     40  C   UNL A   1      45.781  28.884  35.759  1.00  0.00     0.010 A 
ATOM     41  C   UNL A   1      44.118  27.347  36.625  1.00  0.00     0.010 A 
ATOM     42  C   UNL A   1      46.762  28.249  36.530  1.00  0.00     0.020 A 
ATOM     43  C   UNL A   1      45.092  26.721  37.409  1.00  0.00     0.020 A 
ATOM     44  C   UNL A   1      46.411  27.174  37.352  1.00  0.00     0.054 A 
BRANCH  44  45
ATOM     45  S   UNL A   1      47.690  26.414  38.393  1.00  0.00     0.124 S 
ATOM     46  O   UNL A   1      48.916  26.932  37.790  1.00  0.00    -0.237 OA
ATOM     47  O   UNL A   1      47.376  26.935  39.721  1.00  0.00    -0.237 OA
ATOM     48  O   UNL A   1      47.471  24.980  38.223  1.00  0.00    -0.744 OA
ENDBRANCH  44  45
ENDBRANCH  25  39
BRANCH  26  49
ATOM     49  C   UNL A   1      36.902  32.924  31.019  1.00  0.00    -0.014 A 
ATOM     50  C   UNL A   1      35.591  32.570  31.375  1.00  0.00     0.010 A 
ATOM     51  C   UNL A   1      37.107  33.895  30.020  1.00  0.00     0.010 A 
ATOM     52  C   UNL A   1      34.503  33.170  30.734  1.00  0.00     0.020 A 
ATOM     53  C   UNL A   1      36.023  34.517  29.400  1.00  0.00     0.020 A 
ATOM     54  C   UNL A   1      34.726  34.139  29.750  1.00  0.00     0.054 A 
BRANCH  54  55
ATOM     55  S   UNL A   1      33.306  34.947  28.964  1.00  0.00     0.124 S 
ATOM     56  O   UNL A   1      33.929  36.114  28.347  1.00  0.00    -0.237 OA
ATOM     57  O   UNL A   1      32.824  33.923  28.041  1.00  0.00    -0.237 OA
ATOM     58  O   UNL A   1      32.415  35.230  30.087  1.00  0.00    -0.744 OA
ENDBRANCH  54  55
ENDBRANCH  26  49
BRANCH  38  59
ATOM     59  C   UNL A   1      39.814  33.733  37.284  1.00  0.00    -0.014 A 
ATOM     60  C   UNL A   1      39.104  33.226  38.386  1.00  0.00     0.010 A 
ATOM     61  C   UNL A   1      40.228  35.076  37.285  1.00  0.00     0.010 A 
ATOM     62  C   UNL A   1      38.784  34.061  39.460  1.00  0.00     0.020 A 
ATOM     63  C   UNL A   1      39.930  35.906  38.368  1.00  0.00     0.020 A 
ATOM     64  C   UNL A   1      39.196  35.396  39.442  1.00  0.00     0.054 A 
BRANCH  64  65
ATOM     65  S   UNL A   1      38.798  36.452  40.861  1.00  0.00     0.124 S 
ATOM     66  O   UNL A   1      37.721  35.703  41.503  1.00  0.00    -0.237 OA
ATOM     67  O   UNL A   1      40.059  36.495  41.597  1.00  0.00    -0.237 OA
ATOM     68  O   UNL A   1      38.399  37.718  40.247  1.00  0.00    -0.744 OA
ENDBRANCH  64  65
ENDBRANCH  38  59
ENDBRANCH  12  13
ENDBRANCH   5   7
ENDBRANCH   2   3
ENDBRANCH   1   2
BRANCH   1  69
ATOM     69  C   UNL A   1      38.889  22.680  26.445  1.00  0.00     0.023 C 
BRANCH  69  70
ATOM     70  C   UNL A   1      38.164  21.582  25.663  1.00  0.00     0.116 C 
BRANCH  70  71
ATOM     71  N   UNL A   1      37.674  21.982  24.352  1.00  0.00    -0.356 N 
ATOM     72  C   UNL A   1      36.600  22.653  23.877  1.00  0.00     0.224 C 
ATOM     73  H   UNL A   1      38.277  21.689  23.630  1.00  0.00     0.163 HD
ATOM     74  O   UNL A   1      36.689  23.012  22.694  1.00  0.00    -0.275 OA
BRANCH  72  75
ATOM     75  C   UNL A   1      35.326  22.992  24.655  1.00  0.00     0.095 C 
ATOM     76  C   UNL A   1      35.056  24.480  24.821  1.00  0.00     0.041 C 
ATOM     77  C   UNL A   1      34.100  22.159  24.244  1.00  0.00     0.097 C 
ATOM     78  C   UNL A   1      34.009  25.020  23.895  1.00  0.00    -0.030 C 
ATOM     79  C   UNL A   1      33.265  22.766  23.116  1.00  0.00     0.041 C 
ATOM     80  C   UNL A   1      33.239  24.266  23.097  1.00  0.00    -0.030 C 
BRANCH  77  81
ATOM     81  C   UNL A   1      33.305  21.713  25.489  1.00  0.00     0.242 C 
ATOM     82  O   UNL A   1      33.440  22.343  26.547  1.00  0.00    -0.273 OA
ATOM     83  N   UNL A   1      32.393  20.686  25.497  1.00  0.00    -0.270 N 
ATOM     84  H   UNL A   1      31.811  20.612  26.288  1.00  0.00     0.191 HD
BRANCH  83  85
ATOM     85  N   UNL A   1      32.219  19.755  24.505  1.00  0.00    -0.299 N 
ATOM     86  H   UNL A   1      31.680  19.987  23.714  1.00  0.00     0.188 HD
BRANCH  85  87
ATOM     87  C   UNL A   1      32.795  18.480  24.594  1.00  0.00     0.054 A 
ATOM     88  C   UNL A   1      33.503  17.993  23.480  1.00  0.00     0.027 A 
ATOM     89  C   UNL A   1      32.623  17.618  25.680  1.00  0.00     0.027 A 
ATOM     90  C   UNL A   1      34.002  16.688  23.438  1.00  0.00     0.002 A 
ATOM     91  C   UNL A   1      33.156  16.321  25.660  1.00  0.00     0.002 A 
ATOM     92  C   UNL A   1      33.833  15.853  24.535  1.00  0.00     0.000 A 
ENDBRANCH  85  87
ENDBRANCH  83  85
ENDBRANCH  77  81
ENDBRANCH  72  75
ENDBRANCH  70  71
ENDBRANCH  69  70
ENDBRANCH   1  69
TORSDOF 17
ENDMDL
MODEL 3
REMARK VINA RESULT:     -11.3      3.475      6.841
REMARK SMILES O=C(NCCCCNC(=O)[C@H]1CC=CC[C@@H]1C(=O)NNc1ccccc1)c1ccc(-c2c3nc(c(-c4ccc(S(=O)(=O)[O-])cc4)c4ccc([nH]4)c(-c4ccc(S(=O)(=O)[O-])cc4)c4nc(c(-c5ccc(S(=O)(=O)[O-])cc5)c5ccc2[nH]5)C=C4)C=C3)cc1
REMARK SMILES IDX 5 1 4 2 3 3 1 4 2 5 27 7 28 8 86 9 29 10 85 11 30 12 31 13
REMARK SMILES IDX 32 14 79 15 33 16 84 17 78 18 80 19 34 20 83 21 77 22 76 23
REMARK SMILES IDX 35 25 65 26 46 27 64 28 47 29 50 30 63 31 81 32 48 33 49 34
REMARK SMILES IDX 62 36 82 37 51 38 36 39 37 40 45 41 38 42 44 43 39 44 40 45
REMARK SMILES IDX 41 46 42 47 43 48 66 49 67 50 75 51 68 52 74 53 69 54 70 55
REMARK SMILES IDX 71 56 72 57 73 58 52 59 53 60 61 61 54 62 60 63 55 64 56 65
REMARK SMILES IDX 57 66 58 67 59 68 6 69 7 70 8 71 9 72 10 74 11 75 12 76
REMARK SMILES IDX 16 77 13 78 15 79 14 80 17 81 18 82 19 83 20 85 21 87 22 88
REMARK SMILES IDX 26 89 23 90 25 91 24 92
REMARK H PARENT 3 6 80 24 50 35 8 73 19 84 20 86
REMARK Flexibility Score: inf
ROOT
ATOM      1  C   UNL A   1      34.973  33.271  27.952  1.00  0.00     0.023 C 
ENDROOT
BRANCH   1   2
ATOM      2  C   UNL A   1      34.142  32.291  28.763  1.00  0.00     0.116 C 
BRANCH   2   3
ATOM      3  N   UNL A   1      33.641  31.133  28.035  1.00  0.00    -0.352 N 
ATOM      4  O   UNL A   1      33.851  29.068  27.094  1.00  0.00    -0.269 OA
ATOM      5  C   UNL A   1      34.354  29.984  27.735  1.00  0.00     0.251 C 
ATOM      6  H   UNL A   1      32.706  31.170  27.728  1.00  0.00     0.163 HD
BRANCH   5   7
ATOM      7  C   UNL A   1      35.769  29.921  28.172  1.00  0.00     0.039 A 
ATOM      8  C   UNL A   1      36.781  30.153  27.239  1.00  0.00     0.014 A 
ATOM      9  C   UNL A   1      36.075  29.450  29.451  1.00  0.00     0.014 A 
ATOM     10  C   UNL A   1      38.071  29.723  27.517  1.00  0.00     0.010 A 
ATOM     11  C   UNL A   1      37.399  29.122  29.764  1.00  0.00     0.010 A 
ATOM     12  C   UNL A   1      38.401  29.211  28.785  1.00  0.00    -0.014 A 
BRANCH  12  13
ATOM     13  C   UNL A   1      39.816  28.856  29.071  1.00  0.00     0.031 A 
ATOM     14  C   UNL A   1      40.416  27.545  28.633  1.00  0.00     0.074 A 
ATOM     15  C   UNL A   1      40.575  29.766  29.716  1.00  0.00     0.049 A 
ATOM     16  N   UNL A   1      41.633  27.098  28.826  1.00  0.00    -0.248 NA
ATOM     17  C   UNL A   1      39.551  26.611  27.893  1.00  0.00     0.031 C 
ATOM     18  C   UNL A   1      40.099  31.068  30.198  1.00  0.00     0.029 A 
ATOM     19  N   UNL A   1      41.900  29.752  30.063  1.00  0.00    -0.354 N 
ATOM     20  C   UNL A   1      41.670  25.824  28.270  1.00  0.00     0.074 A 
ATOM     21  C   UNL A   1      40.355  25.566  27.724  1.00  0.00     0.031 C 
ATOM     22  C   UNL A   1      41.125  31.745  30.728  1.00  0.00     0.029 A 
ATOM     23  C   UNL A   1      42.309  30.897  30.706  1.00  0.00     0.049 A 
ATOM     24  H   UNL A   1      42.502  28.996  29.870  1.00  0.00     0.167 HD
ATOM     25  C   UNL A   1      42.707  24.952  28.226  1.00  0.00     0.031 A 
ATOM     26  C   UNL A   1      43.491  31.221  31.259  1.00  0.00     0.031 A 
ATOM     27  C   UNL A   1      44.023  25.231  28.747  1.00  0.00     0.049 A 
ATOM     28  C   UNL A   1      44.610  30.228  31.210  1.00  0.00     0.074 A 
ATOM     29  C   UNL A   1      45.155  24.436  28.689  1.00  0.00     0.029 A 
ATOM     30  N   UNL A   1      44.381  26.384  29.426  1.00  0.00    -0.354 N 
ATOM     31  N   UNL A   1      44.631  29.045  30.646  1.00  0.00    -0.248 NA
ATOM     32  C   UNL A   1      45.857  30.604  31.887  1.00  0.00     0.031 C 
ATOM     33  C   UNL A   1      46.183  25.086  29.381  1.00  0.00     0.029 A 
ATOM     34  C   UNL A   1      45.704  26.305  29.828  1.00  0.00     0.049 A 
ATOM     35  H   UNL A   1      43.783  27.148  29.598  1.00  0.00     0.167 HD
ATOM     36  C   UNL A   1      45.892  28.528  30.910  1.00  0.00     0.074 A 
ATOM     37  C   UNL A   1      46.615  29.542  31.650  1.00  0.00     0.031 C 
ATOM     38  C   UNL A   1      46.399  27.316  30.582  1.00  0.00     0.031 A 
BRANCH  25  39
ATOM     39  C   UNL A   1      42.480  23.590  27.622  1.00  0.00    -0.014 A 
ATOM     40  C   UNL A   1      42.818  23.317  26.286  1.00  0.00     0.010 A 
ATOM     41  C   UNL A   1      42.038  22.537  28.445  1.00  0.00     0.010 A 
ATOM     42  C   UNL A   1      42.710  22.015  25.781  1.00  0.00     0.020 A 
ATOM     43  C   UNL A   1      41.945  21.233  27.950  1.00  0.00     0.020 A 
ATOM     44  C   UNL A   1      42.277  20.981  26.617  1.00  0.00     0.054 A 
BRANCH  44  45
ATOM     45  S   UNL A   1      42.211  19.291  25.956  1.00  0.00     0.124 S 
ATOM     46  O   UNL A   1      40.786  19.131  25.681  1.00  0.00    -0.237 OA
ATOM     47  O   UNL A   1      43.073  19.373  24.780  1.00  0.00    -0.237 OA
ATOM     48  O   UNL A   1      42.730  18.470  27.048  1.00  0.00    -0.744 OA
ENDBRANCH  44  45
ENDBRANCH  25  39
BRANCH  26  49
ATOM     49  C   UNL A   1      43.635  32.517  31.971  1.00  0.00    -0.014 A 
ATOM     50  C   UNL A   1      43.172  32.674  33.287  1.00  0.00     0.010 A 
ATOM     51  C   UNL A   1      44.271  33.598  31.331  1.00  0.00     0.010 A 
ATOM     52  C   UNL A   1      43.333  33.896  33.947  1.00  0.00     0.020 A 
ATOM     53  C   UNL A   1      44.460  34.809  31.997  1.00  0.00     0.020 A 
ATOM     54  C   UNL A   1      43.975  34.955  33.298  1.00  0.00     0.054 A 
BRANCH  54  55
ATOM     55  S   UNL A   1      44.223  36.517  34.184  1.00  0.00     0.124 S 
ATOM     56  O   UNL A   1      42.932  37.173  34.005  1.00  0.00    -0.237 OA
ATOM     57  O   UNL A   1      44.525  36.071  35.543  1.00  0.00    -0.237 OA
ATOM     58  O   UNL A   1      45.345  37.132  33.478  1.00  0.00    -0.744 OA
ENDBRANCH  54  55
ENDBRANCH  26  49
BRANCH  38  59
ATOM     59  C   UNL A   1      47.801  27.026  31.033  1.00  0.00    -0.014 A 
ATOM     60  C   UNL A   1      48.034  26.272  32.198  1.00  0.00     0.010 A 
ATOM     61  C   UNL A   1      48.892  27.488  30.278  1.00  0.00     0.010 A 
ATOM     62  C   UNL A   1      49.341  26.014  32.617  1.00  0.00     0.020 A 
ATOM     63  C   UNL A   1      50.199  27.210  30.682  1.00  0.00     0.020 A 
ATOM     64  C   UNL A   1      50.415  26.488  31.858  1.00  0.00     0.054 A 
BRANCH  64  65
ATOM     65  S   UNL A   1      52.103  26.112  32.404  1.00  0.00     0.124 S 
ATOM     66  O   UNL A   1      52.036  24.670  32.625  1.00  0.00    -0.237 OA
ATOM     67  O   UNL A   1      52.914  26.538  31.266  1.00  0.00    -0.237 OA
ATOM     68  O   UNL A   1      52.263  26.922  33.611  1.00  0.00    -0.744 OA
ENDBRANCH  64  65
ENDBRANCH  38  59
ENDBRANCH  12  13
ENDBRANCH   5   7
ENDBRANCH   2   3
ENDBRANCH   1   2
BRANCH   1  69
ATOM     69  C   UNL A   1      35.979  34.101  28.739  1.00  0.00     0.023 C 
BRANCH  69  70
ATOM     70  C   UNL A   1      36.519  33.442  30.010  1.00  0.00     0.116 C 
BRANCH  70  71
ATOM     71  N   UNL A   1      37.626  34.144  30.644  1.00  0.00    -0.356 N 
ATOM     72  C   UNL A   1      38.268  34.077  31.833  1.00  0.00     0.224 C 
ATOM     73  H   UNL A   1      38.002  34.842  30.059  1.00  0.00     0.163 HD
ATOM     74  O   UNL A   1      39.346  34.686  31.881  1.00  0.00    -0.275 OA
BRANCH  72  75
ATOM     75  C   UNL A   1      37.785  33.337  33.084  1.00  0.00     0.095 C 
ATOM     76  C   UNL A   1      38.580  32.087  33.432  1.00  0.00     0.041 C 
ATOM     77  C   UNL A   1      37.479  34.256  34.278  1.00  0.00     0.097 C 
ATOM     78  C   UNL A   1      39.554  32.273  34.555  1.00  0.00    -0.030 C 
ATOM     79  C   UNL A   1      38.668  34.517  35.204  1.00  0.00     0.041 C 
ATOM     80  C   UNL A   1      39.630  33.372  35.319  1.00  0.00    -0.030 C 
BRANCH  77  81
ATOM     81  C   UNL A   1      36.176  33.818  34.980  1.00  0.00     0.242 C 
ATOM     82  O   UNL A   1      36.219  33.482  36.172  1.00  0.00    -0.273 OA
ATOM     83  N   UNL A   1      34.938  33.832  34.390  1.00  0.00    -0.270 N 
ATOM     84  H   UNL A   1      34.159  33.715  34.982  1.00  0.00     0.191 HD
BRANCH  83  85
ATOM     85  N   UNL A   1      34.684  33.994  33.051  1.00  0.00    -0.299 N 
ATOM     86  H   UNL A   1      34.880  33.256  32.430  1.00  0.00     0.188 HD
BRANCH  85  87
ATOM     87  C   UNL A   1      34.149  35.190  32.551  1.00  0.00     0.054 A 
ATOM     88  C   UNL A   1      33.563  35.170  31.272  1.00  0.00     0.027 A 
ATOM     89  C   UNL A   1      34.254  36.425  33.197  1.00  0.00     0.027 A 
ATOM     90  C   UNL A   1      33.119  36.339  30.649  1.00  0.00     0.002 A 
ATOM     91  C   UNL A   1      33.773  37.595  32.593  1.00  0.00     0.002 A 
ATOM     92  C   UNL A   1      33.218  37.553  31.315  1.00  0.00     0.000 A 
ENDBRANCH  85  87
ENDBRANCH  83  85
ENDBRANCH  77  81
ENDBRANCH  72  75
ENDBRANCH  70  71
ENDBRANCH  69  70
ENDBRANCH   1  69
TORSDOF 17
ENDMDL
