MODEL 1
REMARK VINA RESULT:     -12.7      0.000      0.000
REMARK SMILES Nc1ccc(C(=O)N2Cc3nc[nH]c3C[C@H]2C(=O)NCCCCNC(=O)c2ccc(-c3c4nc(c(-c5ccc(S(=O)(=O)[O-])cc5)c5ccc([nH]5)c(-c5ccc(S(=O)(=O)[O-])cc5)c5nc(c(-c6ccc(S(=O)(=O)[O-])cc6)c6ccc3[nH]6)C=C5)C=C4)cc2)cc1
REMARK SMILES IDX 21 1 20 2 19 3 17 4 18 5 16 7 8 8 9 9 10 10 15 11 11 12
REMARK SMILES IDX 14 13 12 14 13 15 6 17 7 18 5 19 2 20 3 21 88 22 4 23 87 24
REMARK SMILES IDX 1 25 22 28 23 29 24 30 25 31 26 33 27 34 28 35 86 36 29 37
REMARK SMILES IDX 85 38 30 39 31 40 32 41 79 42 33 43 84 44 78 45 80 46 34 47
REMARK SMILES IDX 83 48 77 49 76 50 35 52 65 53 46 54 64 55 47 56 50 57 63 58
REMARK SMILES IDX 81 59 48 60 49 61 62 63 82 64 51 65 36 66 37 67 45 68 38 69
REMARK SMILES IDX 44 70 39 71 40 72 41 73 42 74 43 75 66 76 67 77 75 78 68 79
REMARK SMILES IDX 74 80 69 81 70 82 71 83 72 84 73 85 52 86 53 87 61 88 54 89
REMARK SMILES IDX 60 90 55 91 56 92 57 93 58 94 59 95
REMARK H PARENT 19 6 13 16 1 26 1 27 24 32 80 51 50 62
REMARK Flexibility Score: inf
ROOT
ATOM      1  C   UNL A   1      35.996  22.229  23.891  1.00  0.00     0.023 C 
ENDROOT
BRANCH   1   2
ATOM      2  C   UNL A   1      34.760  22.966  23.376  1.00  0.00     0.116 C 
BRANCH   2   3
ATOM      3  N   UNL A   1      34.762  24.396  23.596  1.00  0.00    -0.354 N 
ATOM      4  C   UNL A   1      33.775  25.247  23.987  1.00  0.00     0.243 C 
ATOM      5  O   UNL A   1      34.168  26.278  24.551  1.00  0.00    -0.273 OA
ATOM      6  H   UNL A   1      35.631  24.829  23.433  1.00  0.00     0.163 HD
BRANCH   4   7
ATOM      7  C   UNL A   1      32.243  25.019  23.831  1.00  0.00     0.181 C 
ATOM      8  N   UNL A   1      31.358  25.203  25.037  1.00  0.00    -0.320 N 
ATOM      9  C   UNL A   1      30.625  26.471  25.253  1.00  0.00     0.178 C 
ATOM     10  C   UNL A   1      30.627  27.345  24.056  1.00  0.00     0.081 A 
ATOM     11  C   UNL A   1      31.706  25.664  22.516  1.00  0.00     0.091 C 
ATOM     12  N   UNL A   1      30.365  28.691  24.082  1.00  0.00    -0.240 NA
ATOM     13  C   UNL A   1      31.107  26.979  22.822  1.00  0.00     0.042 A 
ATOM     14  C   UNL A   1      30.665  29.125  22.876  1.00  0.00     0.197 A 
ATOM     15  N   UNL A   1      31.084  28.108  22.056  1.00  0.00    -0.348 N 
ATOM     16  H   UNL A   1      31.320  28.179  21.103  1.00  0.00     0.167 HD
BRANCH   8  17
ATOM     17  C   UNL A   1      31.033  24.189  25.952  1.00  0.00     0.254 C 
ATOM     18  O   UNL A   1      30.223  24.374  26.863  1.00  0.00    -0.269 OA
BRANCH  17  19
ATOM     19  C   UNL A   1      31.685  22.853  25.927  1.00  0.00     0.040 A 
ATOM     20  C   UNL A   1      33.188  20.466  25.730  1.00  0.00     0.031 A 
ATOM     21  C   UNL A   1      33.495  21.421  26.701  1.00  0.00     0.026 A 
ATOM     22  C   UNL A   1      32.168  20.749  24.822  1.00  0.00     0.026 A 
ATOM     23  C   UNL A   1      32.739  22.596  26.815  1.00  0.00     0.016 A 
ATOM     24  C   UNL A   1      31.441  21.940  24.903  1.00  0.00     0.016 A 
BRANCH  20  25
ATOM     25  N   UNL A   1      33.990  19.348  25.552  1.00  0.00    -0.399 N 
ATOM     26  H   UNL A   1      34.656  19.330  24.827  1.00  0.00     0.156 HD
ATOM     27  H   UNL A   1      33.893  18.573  26.151  1.00  0.00     0.156 HD
ENDBRANCH  20  25
ENDBRANCH  17  19
ENDBRANCH   8  17
ENDBRANCH   4   7
ENDBRANCH   2   3
ENDBRANCH   1   2
BRANCH   1  28
ATOM     28  C   UNL A   1      36.485  22.636  25.288  1.00  0.00     0.023 C 
BRANCH  28  29
ATOM     29  C   UNL A   1      37.987  22.878  25.425  1.00  0.00     0.116 C 
BRANCH  29  30
ATOM     30  N   UNL A   1      38.649  22.037  26.424  1.00  0.00    -0.352 N 
ATOM     31  C   UNL A   1      39.782  22.367  27.153  1.00  0.00     0.251 C 
ATOM     32  H   UNL A   1      38.254  21.152  26.595  1.00  0.00     0.163 HD
ATOM     33  O   UNL A   1      40.526  21.508  27.619  1.00  0.00    -0.269 OA
BRANCH  31  34
ATOM     34  C   UNL A   1      40.050  23.797  27.378  1.00  0.00     0.039 A 
ATOM     35  C   UNL A   1      39.098  24.788  27.135  1.00  0.00     0.014 A 
ATOM     36  C   UNL A   1      41.277  24.101  27.963  1.00  0.00     0.014 A 
ATOM     37  C   UNL A   1      39.356  26.081  27.588  1.00  0.00     0.010 A 
ATOM     38  C   UNL A   1      41.455  25.331  28.545  1.00  0.00     0.010 A 
ATOM     39  C   UNL A   1      40.524  26.341  28.325  1.00  0.00    -0.014 A 
BRANCH  39  40
ATOM     40  C   UNL A   1      40.730  27.631  28.979  1.00  0.00     0.031 A 
ATOM     41  C   UNL A   1      41.788  28.485  28.375  1.00  0.00     0.074 A 
ATOM     42  C   UNL A   1      39.912  28.125  29.935  1.00  0.00     0.049 A 
ATOM     43  N   UNL A   1      42.954  28.742  28.866  1.00  0.00    -0.248 NA
ATOM     44  C   UNL A   1      41.594  29.003  27.010  1.00  0.00     0.031 C 
ATOM     45  C   UNL A   1      38.652  27.573  30.449  1.00  0.00     0.029 A 
ATOM     46  N   UNL A   1      39.993  29.316  30.585  1.00  0.00    -0.354 N 
ATOM     47  C   UNL A   1      43.558  29.638  27.989  1.00  0.00     0.074 A 
ATOM     48  C   UNL A   1      42.759  29.617  26.789  1.00  0.00     0.031 C 
ATOM     49  C   UNL A   1      37.976  28.530  31.122  1.00  0.00     0.029 A 
ATOM     50  C   UNL A   1      38.834  29.691  31.255  1.00  0.00     0.049 A 
ATOM     51  H   UNL A   1      40.807  29.869  30.583  1.00  0.00     0.167 HD
ATOM     52  C   UNL A   1      44.528  30.500  28.411  1.00  0.00     0.031 A 
ATOM     53  C   UNL A   1      38.592  30.877  31.869  1.00  0.00     0.031 A 
ATOM     54  C   UNL A   1      45.016  30.149  29.721  1.00  0.00     0.049 A 
ATOM     55  C   UNL A   1      39.917  31.475  32.173  1.00  0.00     0.074 A 
ATOM     56  C   UNL A   1      45.596  29.021  30.269  1.00  0.00     0.029 A 
ATOM     57  N   UNL A   1      44.534  30.878  30.786  1.00  0.00    -0.354 N 
ATOM     58  N   UNL A   1      40.761  30.939  33.012  1.00  0.00    -0.248 NA
ATOM     59  C   UNL A   1      40.499  32.378  31.193  1.00  0.00     0.031 C 
ATOM     60  C   UNL A   1      44.978  28.882  31.547  1.00  0.00     0.029 A 
ATOM     61  C   UNL A   1      44.136  29.979  31.743  1.00  0.00     0.049 A 
ATOM     62  H   UNL A   1      44.485  31.859  30.850  1.00  0.00     0.167 HD
ATOM     63  C   UNL A   1      42.000  31.074  32.402  1.00  0.00     0.074 A 
ATOM     64  C   UNL A   1      41.786  32.045  31.327  1.00  0.00     0.031 C 
ATOM     65  C   UNL A   1      43.014  30.187  32.637  1.00  0.00     0.031 A 
BRANCH  52  66
ATOM     66  C   UNL A   1      44.752  31.874  27.827  1.00  0.00    -0.014 A 
ATOM     67  C   UNL A   1      45.963  32.134  27.150  1.00  0.00     0.010 A 
ATOM     68  C   UNL A   1      43.952  32.987  28.157  1.00  0.00     0.010 A 
ATOM     69  C   UNL A   1      46.384  33.446  26.890  1.00  0.00     0.020 A 
ATOM     70  C   UNL A   1      44.341  34.294  27.863  1.00  0.00     0.020 A 
ATOM     71  C   UNL A   1      45.574  34.518  27.262  1.00  0.00     0.054 A 
BRANCH  71  72
ATOM     72  S   UNL A   1      46.172  36.207  27.018  1.00  0.00     0.124 S 
ATOM     73  O   UNL A   1      44.925  36.951  26.885  1.00  0.00    -0.237 OA
ATOM     74  O   UNL A   1      46.927  36.446  28.246  1.00  0.00    -0.237 OA
ATOM     75  O   UNL A   1      46.980  36.111  25.805  1.00  0.00    -0.744 OA
ENDBRANCH  71  72
ENDBRANCH  52  66
BRANCH  53  76
ATOM     76  C   UNL A   1      37.321  31.646  31.890  1.00  0.00    -0.014 A 
ATOM     77  C   UNL A   1      36.664  31.940  33.101  1.00  0.00     0.010 A 
ATOM     78  C   UNL A   1      36.901  32.341  30.736  1.00  0.00     0.010 A 
ATOM     79  C   UNL A   1      35.674  32.939  33.165  1.00  0.00     0.020 A 
ATOM     80  C   UNL A   1      35.912  33.332  30.792  1.00  0.00     0.020 A 
ATOM     81  C   UNL A   1      35.321  33.646  32.013  1.00  0.00     0.054 A 
BRANCH  81  82
ATOM     82  S   UNL A   1      34.184  35.059  32.136  1.00  0.00     0.124 S 
ATOM     83  O   UNL A   1      33.027  34.470  32.805  1.00  0.00    -0.237 OA
ATOM     84  O   UNL A   1      34.952  36.018  32.925  1.00  0.00    -0.237 OA
ATOM     85  O   UNL A   1      33.963  35.445  30.743  1.00  0.00    -0.744 OA
ENDBRANCH  81  82
ENDBRANCH  53  76
BRANCH  65  86
ATOM     86  C   UNL A   1      42.873  29.194  33.771  1.00  0.00    -0.014 A 
ATOM     87  C   UNL A   1      43.143  29.491  35.122  1.00  0.00     0.010 A 
ATOM     88  C   UNL A   1      42.278  27.956  33.469  1.00  0.00     0.010 A 
ATOM     89  C   UNL A   1      42.848  28.563  36.136  1.00  0.00     0.020 A 
ATOM     90  C   UNL A   1      41.965  27.036  34.472  1.00  0.00     0.020 A 
ATOM     91  C   UNL A   1      42.261  27.338  35.801  1.00  0.00     0.054 A 
BRANCH  91  92
ATOM     92  S   UNL A   1      41.844  26.153  37.113  1.00  0.00     0.124 S 
ATOM     93  O   UNL A   1      42.979  26.276  38.023  1.00  0.00    -0.237 OA
ATOM     94  O   UNL A   1      40.572  26.664  37.621  1.00  0.00    -0.237 OA
ATOM     95  O   UNL A   1      41.750  24.874  36.410  1.00  0.00    -0.744 OA
ENDBRANCH  91  92
ENDBRANCH  65  86
ENDBRANCH  39  40
ENDBRANCH  31  34
ENDBRANCH  29  30
ENDBRANCH  28  29
ENDBRANCH   1  28
TORSDOF 17
ENDMDL
MODEL 2
REMARK VINA RESULT:     -12.7      1.757      3.806
REMARK SMILES Nc1ccc(C(=O)N2Cc3nc[nH]c3C[C@H]2C(=O)NCCCCNC(=O)c2ccc(-c3c4nc(c(-c5ccc(S(=O)(=O)[O-])cc5)c5ccc([nH]5)c(-c5ccc(S(=O)(=O)[O-])cc5)c5nc(c(-c6ccc(S(=O)(=O)[O-])cc6)c6ccc3[nH]6)C=C5)C=C4)cc2)cc1
REMARK SMILES IDX 21 1 20 2 19 3 17 4 18 5 16 7 8 8 9 9 10 10 15 11 11 12
REMARK SMILES IDX 14 13 12 14 13 15 6 17 7 18 5 19 2 20 3 21 88 22 4 23 87 24
REMARK SMILES IDX 1 25 22 28 23 29 24 30 25 31 26 33 27 34 28 35 86 36 29 37
REMARK SMILES IDX 85 38 30 39 31 40 32 41 79 42 33 43 84 44 78 45 80 46 34 47
REMARK SMILES IDX 83 48 77 49 76 50 35 52 65 53 46 54 64 55 47 56 50 57 63 58
REMARK SMILES IDX 81 59 48 60 49 61 62 63 82 64 51 65 36 66 37 67 45 68 38 69
REMARK SMILES IDX 44 70 39 71 40 72 41 73 42 74 43 75 66 76 67 77 75 78 68 79
REMARK SMILES IDX 74 80 69 81 70 82 71 83 72 84 73 85 52 86 53 87 61 88 54 89
REMARK SMILES IDX 60 90 55 91 56 92 57 93 58 94 59 95
REMARK H PARENT 19 6 13 16 1 26 1 27 24 32 80 51 50 62
REMARK Flexibility Score: inf
ROOT
ATOM      1  C   UNL A   1      38.836  23.981  26.545  1.00  0.00     0.023 C 
ENDROOT
BRANCH   1   2
ATOM      2  C   UNL A   1      37.420  24.053  25.975  1.00  0.00     0.116 C 
BRANCH   2   3
ATOM      3  N   UNL A   1      37.224  23.348  24.727  1.00  0.00    -0.354 N 
ATOM      4  C   UNL A   1      36.154  23.285  23.888  1.00  0.00     0.243 C 
ATOM      5  O   UNL A   1      36.431  23.030  22.708  1.00  0.00    -0.273 OA
ATOM      6  H   UNL A   1      38.002  22.822  24.433  1.00  0.00     0.163 HD
BRANCH   4   7
ATOM      7  C   UNL A   1      34.667  23.543  24.268  1.00  0.00     0.181 C 
ATOM      8  N   UNL A   1      33.629  23.535  23.175  1.00  0.00    -0.320 N 
ATOM      9  C   UNL A   1      32.814  22.328  22.911  1.00  0.00     0.178 C 
ATOM     10  C   UNL A   1      32.925  21.315  23.988  1.00  0.00     0.081 A 
ATOM     11  C   UNL A   1      34.268  22.760  25.558  1.00  0.00     0.091 C 
ATOM     12  N   UNL A   1      32.597  19.992  23.839  1.00  0.00    -0.240 NA
ATOM     13  C   UNL A   1      33.573  21.513  25.182  1.00  0.00     0.042 A 
ATOM     14  C   UNL A   1      33.025  19.405  24.938  1.00  0.00     0.197 A 
ATOM     15  N   UNL A   1      33.592  20.300  25.808  1.00  0.00    -0.348 N 
ATOM     16  H   UNL A   1      33.943  20.107  26.708  1.00  0.00     0.167 HD
BRANCH   8  17
ATOM     17  C   UNL A   1      33.240  24.663  22.434  1.00  0.00     0.254 C 
ATOM     18  O   UNL A   1      33.282  24.675  21.202  1.00  0.00    -0.269 OA
BRANCH  17  19
ATOM     19  C   UNL A   1      32.817  25.935  23.079  1.00  0.00     0.040 A 
ATOM     20  C   UNL A   1      31.858  28.426  24.012  1.00  0.00     0.031 A 
ATOM     21  C   UNL A   1      31.002  27.328  23.910  1.00  0.00     0.026 A 
ATOM     22  C   UNL A   1      33.177  28.280  23.582  1.00  0.00     0.026 A 
ATOM     23  C   UNL A   1      31.479  26.086  23.467  1.00  0.00     0.016 A 
ATOM     24  C   UNL A   1      33.645  27.055  23.097  1.00  0.00     0.016 A 
BRANCH  20  25
ATOM     25  N   UNL A   1      31.373  29.678  24.358  1.00  0.00    -0.399 N 
ATOM     26  H   UNL A   1      31.130  29.871  25.293  1.00  0.00     0.156 HD
ATOM     27  H   UNL A   1      31.271  30.374  23.669  1.00  0.00     0.156 HD
ENDBRANCH  20  25
ENDBRANCH  17  19
ENDBRANCH   8  17
ENDBRANCH   4   7
ENDBRANCH   2   3
ENDBRANCH   1   2
BRANCH   1  28
ATOM     28  C   UNL A   1      39.480  22.588  26.564  1.00  0.00     0.023 C 
BRANCH  28  29
ATOM     29  C   UNL A   1      40.822  22.482  27.285  1.00  0.00     0.116 C 
BRANCH  29  30
ATOM     30  N   UNL A   1      41.964  22.209  26.409  1.00  0.00    -0.352 N 
ATOM     31  C   UNL A   1      42.675  23.145  25.674  1.00  0.00     0.251 C 
ATOM     32  H   UNL A   1      42.254  21.272  26.335  1.00  0.00     0.163 HD
ATOM     33  O   UNL A   1      43.296  22.836  24.660  1.00  0.00    -0.269 OA
BRANCH  31  34
ATOM     34  C   UNL A   1      42.686  24.530  26.170  1.00  0.00     0.039 A 
ATOM     35  C   UNL A   1      41.965  25.555  25.555  1.00  0.00     0.014 A 
ATOM     36  C   UNL A   1      43.368  24.744  27.366  1.00  0.00     0.014 A 
ATOM     37  C   UNL A   1      41.851  26.776  26.218  1.00  0.00     0.010 A 
ATOM     38  C   UNL A   1      43.120  25.886  28.084  1.00  0.00     0.010 A 
ATOM     39  C   UNL A   1      42.403  26.926  27.503  1.00  0.00    -0.014 A 
BRANCH  39  40
ATOM     40  C   UNL A   1      42.136  28.119  28.302  1.00  0.00     0.031 A 
ATOM     41  C   UNL A   1      43.181  29.176  28.232  1.00  0.00     0.074 A 
ATOM     42  C   UNL A   1      40.955  28.362  28.913  1.00  0.00     0.049 A 
ATOM     43  N   UNL A   1      44.026  29.495  29.155  1.00  0.00    -0.248 NA
ATOM     44  C   UNL A   1      43.414  29.865  26.952  1.00  0.00     0.031 C 
ATOM     45  C   UNL A   1      39.706  27.591  28.851  1.00  0.00     0.029 A 
ATOM     46  N   UNL A   1      40.590  29.443  29.652  1.00  0.00    -0.354 N 
ATOM     47  C   UNL A   1      44.748  30.578  28.664  1.00  0.00     0.074 A 
ATOM     48  C   UNL A   1      44.459  30.641  27.253  1.00  0.00     0.031 C 
ATOM     49  C   UNL A   1      38.680  28.347  29.299  1.00  0.00     0.029 A 
ATOM     50  C   UNL A   1      39.221  29.570  29.859  1.00  0.00     0.049 A 
ATOM     51  H   UNL A   1      41.243  30.084  30.014  1.00  0.00     0.167 HD
ATOM     52  C   UNL A   1      45.337  31.478  29.504  1.00  0.00     0.031 A 
ATOM     53  C   UNL A   1      38.576  30.613  30.440  1.00  0.00     0.031 A 
ATOM     54  C   UNL A   1      45.364  30.996  30.862  1.00  0.00     0.049 A 
ATOM     55  C   UNL A   1      39.577  31.314  31.283  1.00  0.00     0.074 A 
ATOM     56  C   UNL A   1      45.885  29.878  31.483  1.00  0.00     0.029 A 
ATOM     57  N   UNL A   1      44.412  31.494  31.724  1.00  0.00    -0.354 N 
ATOM     58  N   UNL A   1      40.134  30.764  32.327  1.00  0.00    -0.248 NA
ATOM     59  C   UNL A   1      40.316  32.418  30.689  1.00  0.00     0.031 C 
ATOM     60  C   UNL A   1      44.877  29.475  32.408  1.00  0.00     0.029 A 
ATOM     61  C   UNL A   1      43.849  30.420  32.367  1.00  0.00     0.049 A 
ATOM     62  H   UNL A   1      44.179  32.441  31.855  1.00  0.00     0.167 HD
ATOM     63  C   UNL A   1      41.469  31.138  32.255  1.00  0.00     0.074 A 
ATOM     64  C   UNL A   1      41.501  32.227  31.276  1.00  0.00     0.031 C 
ATOM     65  C   UNL A   1      42.460  30.355  32.777  1.00  0.00     0.031 A 
BRANCH  52  66
ATOM     66  C   UNL A   1      45.523  32.941  29.181  1.00  0.00    -0.014 A 
ATOM     67  C   UNL A   1      44.380  33.758  29.052  1.00  0.00     0.010 A 
ATOM     68  C   UNL A   1      46.746  33.477  28.729  1.00  0.00     0.010 A 
ATOM     69  C   UNL A   1      44.448  35.012  28.429  1.00  0.00     0.020 A 
ATOM     70  C   UNL A   1      46.832  34.742  28.147  1.00  0.00     0.020 A 
ATOM     71  C   UNL A   1      45.674  35.489  27.968  1.00  0.00     0.054 A 
BRANCH  71  72
ATOM     72  S   UNL A   1      45.734  37.060  27.073  1.00  0.00     0.124 S 
ATOM     73  O   UNL A   1      46.350  37.943  28.058  1.00  0.00    -0.237 OA
ATOM     74  O   UNL A   1      46.561  36.722  25.917  1.00  0.00    -0.237 OA
ATOM     75  O   UNL A   1      44.332  37.335  26.771  1.00  0.00    -0.744 OA
ENDBRANCH  71  72
ENDBRANCH  52  66
BRANCH  53  76
ATOM     76  C   UNL A   1      37.275  31.211  30.044  1.00  0.00    -0.014 A 
ATOM     77  C   UNL A   1      36.329  31.610  31.008  1.00  0.00     0.010 A 
ATOM     78  C   UNL A   1      37.080  31.655  28.718  1.00  0.00     0.010 A 
ATOM     79  C   UNL A   1      35.270  32.475  30.672  1.00  0.00     0.020 A 
ATOM     80  C   UNL A   1      36.026  32.511  28.375  1.00  0.00     0.020 A 
ATOM     81  C   UNL A   1      35.140  32.939  29.360  1.00  0.00     0.054 A 
BRANCH  81  82
ATOM     82  S   UNL A   1      33.889  34.201  28.972  1.00  0.00     0.124 S 
ATOM     83  O   UNL A   1      34.697  35.270  28.389  1.00  0.00    -0.237 OA
ATOM     84  O   UNL A   1      33.005  33.499  28.046  1.00  0.00    -0.237 OA
ATOM     85  O   UNL A   1      33.299  34.511  30.273  1.00  0.00    -0.744 OA
ENDBRANCH  81  82
ENDBRANCH  53  76
BRANCH  65  86
ATOM     86  C   UNL A   1      42.085  29.194  33.673  1.00  0.00    -0.014 A 
ATOM     87  C   UNL A   1      41.880  27.876  33.218  1.00  0.00     0.010 A 
ATOM     88  C   UNL A   1      42.108  29.421  35.061  1.00  0.00     0.010 A 
ATOM     89  C   UNL A   1      41.678  26.824  34.128  1.00  0.00     0.020 A 
ATOM     90  C   UNL A   1      41.928  28.378  35.972  1.00  0.00     0.020 A 
ATOM     91  C   UNL A   1      41.704  27.084  35.502  1.00  0.00     0.054 A 
BRANCH  91  92
ATOM     92  S   UNL A   1      41.482  25.720  36.679  1.00  0.00     0.124 S 
ATOM     93  O   UNL A   1      40.393  26.202  37.523  1.00  0.00    -0.237 OA
ATOM     94  O   UNL A   1      41.152  24.591  35.811  1.00  0.00    -0.237 OA
ATOM     95  O   UNL A   1      42.781  25.618  37.344  1.00  0.00    -0.744 OA
ENDBRANCH  91  92
ENDBRANCH  65  86
ENDBRANCH  39  40
ENDBRANCH  31  34
ENDBRANCH  29  30
ENDBRANCH  28  29
ENDBRANCH   1  28
TORSDOF 17
ENDMDL
MODEL 3
REMARK VINA RESULT:     -12.6      1.479      3.043
REMARK SMILES Nc1ccc(C(=O)N2Cc3nc[nH]c3C[C@H]2C(=O)NCCCCNC(=O)c2ccc(-c3c4nc(c(-c5ccc(S(=O)(=O)[O-])cc5)c5ccc([nH]5)c(-c5ccc(S(=O)(=O)[O-])cc5)c5nc(c(-c6ccc(S(=O)(=O)[O-])cc6)c6ccc3[nH]6)C=C5)C=C4)cc2)cc1
REMARK SMILES IDX 21 1 20 2 19 3 17 4 18 5 16 7 8 8 9 9 10 10 15 11 11 12
REMARK SMILES IDX 14 13 12 14 13 15 6 17 7 18 5 19 2 20 3 21 88 22 4 23 87 24
REMARK SMILES IDX 1 25 22 28 23 29 24 30 25 31 26 33 27 34 28 35 86 36 29 37
REMARK SMILES IDX 85 38 30 39 31 40 32 41 79 42 33 43 84 44 78 45 80 46 34 47
REMARK SMILES IDX 83 48 77 49 76 50 35 52 65 53 46 54 64 55 47 56 50 57 63 58
REMARK SMILES IDX 81 59 48 60 49 61 62 63 82 64 51 65 36 66 37 67 45 68 38 69
REMARK SMILES IDX 44 70 39 71 40 72 41 73 42 74 43 75 66 76 67 77 75 78 68 79
REMARK SMILES IDX 74 80 69 81 70 82 71 83 72 84 73 85 52 86 53 87 61 88 54 89
REMARK SMILES IDX 60 90 55 91 56 92 57 93 58 94 59 95
REMARK H PARENT 19 6 13 16 1 26 1 27 24 32 80 51 50 62
REMARK Flexibility Score: inf
ROOT
ATOM      1  C   UNL A   1      34.932  22.880  26.297  1.00  0.00     0.023 C 
ENDROOT
BRANCH   1   2
ATOM      2  C   UNL A   1      34.020  24.030  25.872  1.00  0.00     0.116 C 
BRANCH   2   3
ATOM      3  N   UNL A   1      32.845  24.220  26.694  1.00  0.00    -0.354 N 
ATOM      4  C   UNL A   1      31.539  24.415  26.366  1.00  0.00     0.243 C 
ATOM      5  O   UNL A   1      30.725  24.057  27.229  1.00  0.00    -0.273 OA
ATOM      6  H   UNL A   1      33.022  24.204  27.663  1.00  0.00     0.163 HD
BRANCH   4   7
ATOM      7  C   UNL A   1      31.001  24.988  25.023  1.00  0.00     0.181 C 
ATOM      8  N   UNL A   1      31.647  26.224  24.452  1.00  0.00    -0.320 N 
ATOM      9  C   UNL A   1      32.682  26.122  23.399  1.00  0.00     0.178 C 
ATOM     10  C   UNL A   1      32.761  24.767  22.802  1.00  0.00     0.081 A 
ATOM     11  C   UNL A   1      30.733  23.850  23.989  1.00  0.00     0.091 C 
ATOM     12  N   UNL A   1      33.840  24.294  22.101  1.00  0.00    -0.240 NA
ATOM     13  C   UNL A   1      31.878  23.747  23.062  1.00  0.00     0.042 A 
ATOM     14  C   UNL A   1      33.602  23.011  21.925  1.00  0.00     0.197 A 
ATOM     15  N   UNL A   1      32.394  22.637  22.459  1.00  0.00    -0.348 N 
ATOM     16  H   UNL A   1      31.981  21.744  22.415  1.00  0.00     0.167 HD
BRANCH   8  17
ATOM     17  C   UNL A   1      31.246  27.539  24.737  1.00  0.00     0.254 C 
ATOM     18  O   UNL A   1      30.325  28.084  24.124  1.00  0.00    -0.269 OA
BRANCH  17  19
ATOM     19  C   UNL A   1      31.941  28.384  25.745  1.00  0.00     0.040 A 
ATOM     20  C   UNL A   1      33.461  30.093  27.408  1.00  0.00     0.031 A 
ATOM     21  C   UNL A   1      32.502  30.616  26.539  1.00  0.00     0.026 A 
ATOM     22  C   UNL A   1      33.695  28.719  27.386  1.00  0.00     0.026 A 
ATOM     23  C   UNL A   1      31.732  29.770  25.728  1.00  0.00     0.016 A 
ATOM     24  C   UNL A   1      32.961  27.875  26.546  1.00  0.00     0.016 A 
BRANCH  20  25
ATOM     25  N   UNL A   1      34.290  30.930  28.141  1.00  0.00    -0.399 N 
ATOM     26  H   UNL A   1      34.458  31.850  27.833  1.00  0.00     0.156 HD
ATOM     27  H   UNL A   1      34.709  30.603  28.970  1.00  0.00     0.156 HD
ENDBRANCH  20  25
ENDBRANCH  17  19
ENDBRANCH   8  17
ENDBRANCH   4   7
ENDBRANCH   2   3
ENDBRANCH   1   2
BRANCH   1  28
ATOM     28  C   UNL A   1      36.089  22.555  25.342  1.00  0.00     0.023 C 
BRANCH  28  29
ATOM     29  C   UNL A   1      37.454  23.120  25.732  1.00  0.00     0.116 C 
BRANCH  29  30
ATOM     30  N   UNL A   1      38.331  22.171  26.420  1.00  0.00    -0.352 N 
ATOM     31  C   UNL A   1      39.631  22.410  26.837  1.00  0.00     0.251 C 
ATOM     32  H   UNL A   1      37.963  21.277  26.604  1.00  0.00     0.163 HD
ATOM     33  O   UNL A   1      40.441  21.499  26.992  1.00  0.00    -0.269 OA
BRANCH  31  34
ATOM     34  C   UNL A   1      40.006  23.805  27.122  1.00  0.00     0.039 A 
ATOM     35  C   UNL A   1      39.245  24.892  26.688  1.00  0.00     0.014 A 
ATOM     36  C   UNL A   1      41.108  23.982  27.956  1.00  0.00     0.014 A 
ATOM     37  C   UNL A   1      39.546  26.156  27.192  1.00  0.00     0.010 A 
ATOM     38  C   UNL A   1      41.296  25.195  28.569  1.00  0.00     0.010 A 
ATOM     39  C   UNL A   1      40.553  26.298  28.162  1.00  0.00    -0.014 A 
BRANCH  39  40
ATOM     40  C   UNL A   1      40.761  27.569  28.851  1.00  0.00     0.031 A 
ATOM     41  C   UNL A   1      41.804  28.449  28.257  1.00  0.00     0.074 A 
ATOM     42  C   UNL A   1      39.955  28.028  29.835  1.00  0.00     0.049 A 
ATOM     43  N   UNL A   1      42.976  28.699  28.738  1.00  0.00    -0.248 NA
ATOM     44  C   UNL A   1      41.585  29.006  26.912  1.00  0.00     0.031 C 
ATOM     45  C   UNL A   1      38.707  27.452  30.351  1.00  0.00     0.029 A 
ATOM     46  N   UNL A   1      40.037  29.199  30.519  1.00  0.00    -0.354 N 
ATOM     47  C   UNL A   1      43.560  29.625  27.880  1.00  0.00     0.074 A 
ATOM     48  C   UNL A   1      42.743  29.635  26.692  1.00  0.00     0.031 C 
ATOM     49  C   UNL A   1      38.034  28.383  31.062  1.00  0.00     0.029 A 
ATOM     50  C   UNL A   1      38.887  29.546  31.218  1.00  0.00     0.049 A 
ATOM     51  H   UNL A   1      40.848  29.758  30.521  1.00  0.00     0.167 HD
ATOM     52  C   UNL A   1      44.531  30.481  28.313  1.00  0.00     0.031 A 
ATOM     53  C   UNL A   1      38.647  30.711  31.871  1.00  0.00     0.031 A 
ATOM     54  C   UNL A   1      45.041  30.093  29.604  1.00  0.00     0.049 A 
ATOM     55  C   UNL A   1      39.972  31.309  32.173  1.00  0.00     0.074 A 
ATOM     56  C   UNL A   1      45.637  28.954  30.109  1.00  0.00     0.029 A 
ATOM     57  N   UNL A   1      44.571  30.786  30.698  1.00  0.00    -0.354 N 
ATOM     58  N   UNL A   1      40.832  30.753  32.982  1.00  0.00    -0.248 NA
ATOM     59  C   UNL A   1      40.533  32.245  31.212  1.00  0.00     0.031 C 
ATOM     60  C   UNL A   1      45.040  28.772  31.391  1.00  0.00     0.029 A 
ATOM     61  C   UNL A   1      44.194  29.856  31.633  1.00  0.00     0.049 A 
ATOM     62  H   UNL A   1      44.517  31.765  30.792  1.00  0.00     0.167 HD
ATOM     63  C   UNL A   1      42.061  30.916  32.358  1.00  0.00     0.074 A 
ATOM     64  C   UNL A   1      41.824  31.918  31.316  1.00  0.00     0.031 C 
ATOM     65  C   UNL A   1      43.084  30.029  32.550  1.00  0.00     0.031 A 
BRANCH  52  66
ATOM     66  C   UNL A   1      44.736  31.873  27.768  1.00  0.00    -0.014 A 
ATOM     67  C   UNL A   1      45.862  32.124  26.953  1.00  0.00     0.010 A 
ATOM     68  C   UNL A   1      44.032  32.996  28.247  1.00  0.00     0.010 A 
ATOM     69  C   UNL A   1      46.301  33.431  26.701  1.00  0.00     0.020 A 
ATOM     70  C   UNL A   1      44.435  34.302  27.965  1.00  0.00     0.020 A 
ATOM     71  C   UNL A   1      45.590  34.511  27.222  1.00  0.00     0.054 A 
BRANCH  71  72
ATOM     72  S   UNL A   1      46.224  36.188  26.979  1.00  0.00     0.124 S 
ATOM     73  O   UNL A   1      47.076  36.359  28.151  1.00  0.00    -0.237 OA
ATOM     74  O   UNL A   1      46.918  36.072  25.699  1.00  0.00    -0.237 OA
ATOM     75  O   UNL A   1      45.016  37.009  26.956  1.00  0.00    -0.744 OA
ENDBRANCH  71  72
ENDBRANCH  52  66
BRANCH  53  76
ATOM     76  C   UNL A   1      37.371  31.470  31.935  1.00  0.00    -0.014 A 
ATOM     77  C   UNL A   1      36.819  31.870  33.167  1.00  0.00     0.010 A 
ATOM     78  C   UNL A   1      36.840  32.052  30.764  1.00  0.00     0.010 A 
ATOM     79  C   UNL A   1      35.823  32.864  33.229  1.00  0.00     0.020 A 
ATOM     80  C   UNL A   1      35.846  33.038  30.817  1.00  0.00     0.020 A 
ATOM     81  C   UNL A   1      35.360  33.458  32.052  1.00  0.00     0.054 A 
BRANCH  81  82
ATOM     82  S   UNL A   1      34.217  34.870  32.147  1.00  0.00     0.124 S 
ATOM     83  O   UNL A   1      33.959  35.155  30.738  1.00  0.00    -0.237 OA
ATOM     84  O   UNL A   1      33.092  34.319  32.897  1.00  0.00    -0.237 OA
ATOM     85  O   UNL A   1      34.989  35.890  32.853  1.00  0.00    -0.744 OA
ENDBRANCH  81  82
ENDBRANCH  53  76
BRANCH  65  86
ATOM     86  C   UNL A   1      42.968  29.001  33.656  1.00  0.00    -0.014 A 
ATOM     87  C   UNL A   1      43.628  29.095  34.897  1.00  0.00     0.010 A 
ATOM     88  C   UNL A   1      42.011  27.984  33.487  1.00  0.00     0.010 A 
ATOM     89  C   UNL A   1      43.356  28.179  35.928  1.00  0.00     0.020 A 
ATOM     90  C   UNL A   1      41.721  27.081  34.512  1.00  0.00     0.020 A 
ATOM     91  C   UNL A   1      42.402  27.176  35.726  1.00  0.00     0.054 A 
BRANCH  91  92
ATOM     92  S   UNL A   1      42.020  26.015  37.070  1.00  0.00     0.124 S 
ATOM     93  O   UNL A   1      42.996  26.382  38.092  1.00  0.00    -0.237 OA
ATOM     94  O   UNL A   1      40.629  26.330  37.386  1.00  0.00    -0.237 OA
ATOM     95  O   UNL A   1      42.225  24.700  36.463  1.00  0.00    -0.744 OA
ENDBRANCH  91  92
ENDBRANCH  65  86
ENDBRANCH  39  40
ENDBRANCH  31  34
ENDBRANCH  29  30
ENDBRANCH  28  29
ENDBRANCH   1  28
TORSDOF 17
ENDMDL
