MODEL 1
REMARK VINA RESULT:     -12.2      0.000      0.000
REMARK SMILES CCCc1c(C(=O)NCCCCNC(=O)c2ccc(-c3c4nc(c(-c5ccc(S(=O)(=O)[O-])cc5)c5ccc([nH]5)c(-c5ccc(S(=O)(=O)[O-])cc5)c5nc(c(-c6ccc(S(=O)(=O)[O-])cc6)c6ccc3[nH]6)C=C5)C=C4)cc2)nnn1-c1ccccc1[N+](=O)[O-]
REMARK SMILES IDX 11 1 10 2 9 3 8 4 6 5 7 6 5 8 4 9 78 10 76 11 77 12 3 13
REMARK SMILES IDX 2 14 1 15 79 16 80 17 84 18 81 19 83 20 82 21 85 22 86 23
REMARK SMILES IDX 87 24 12 25 13 26 14 27 15 29 16 30 17 31 75 32 18 33 74 34
REMARK SMILES IDX 19 35 20 36 21 37 68 38 22 39 73 40 67 41 69 42 23 43 72 44
REMARK SMILES IDX 66 45 65 46 24 48 54 49 35 50 53 51 36 52 39 53 52 54 70 55
REMARK SMILES IDX 37 56 38 57 51 59 71 60 40 61 25 62 26 63 34 64 27 65 33 66
REMARK SMILES IDX 28 67 29 68 30 69 31 70 32 71 55 72 56 73 64 74 57 75 63 76
REMARK SMILES IDX 58 77 59 78 60 79 61 80 62 81 41 82 42 83 50 84 43 85 49 86
REMARK SMILES IDX 44 87 45 88 46 89 47 90 48 91
REMARK H PARENT 8 7 13 28 69 47 39 58
REMARK Flexibility Score: inf
ROOT
ATOM      1  C   UNL A   1      36.581  22.558  25.764  1.00  0.00     0.023 C 
ENDROOT
BRANCH   1   2
ATOM      2  C   UNL A   1      35.823  21.440  25.051  1.00  0.00     0.023 C 
BRANCH   2   3
ATOM      3  C   UNL A   1      34.298  21.439  25.177  1.00  0.00     0.116 C 
BRANCH   3   4
ATOM      4  N   UNL A   1      33.807  21.521  26.523  1.00  0.00    -0.351 N 
ATOM      5  C   UNL A   1      33.046  22.439  27.207  1.00  0.00     0.273 C 
ATOM      6  O   UNL A   1      32.886  22.134  28.396  1.00  0.00    -0.267 OA
ATOM      7  H   UNL A   1      34.072  20.752  27.077  1.00  0.00     0.163 HD
BRANCH   5   8
ATOM      8  C   UNL A   1      32.457  23.697  26.692  1.00  0.00     0.174 A 
ATOM      9  C   UNL A   1      32.836  24.817  25.932  1.00  0.00     0.078 A 
ATOM     10  N   UNL A   1      31.638  25.526  25.778  1.00  0.00    -0.210 N 
ATOM     11  N   UNL A   1      31.145  23.920  27.103  1.00  0.00    -0.124 NA
ATOM     12  N   UNL A   1      30.724  25.082  26.649  1.00  0.00    -0.061 NA
BRANCH   9  13
ATOM     13  C   UNL A   1      34.107  25.395  25.399  1.00  0.00     0.059 C 
BRANCH  13  14
ATOM     14  C   UNL A   1      34.517  24.857  24.015  1.00  0.00     0.003 C 
ATOM     15  C   UNL A   1      33.432  24.239  23.142  1.00  0.00     0.004 C 
ENDBRANCH  13  14
ENDBRANCH   9  13
BRANCH  10  16
ATOM     16  C   UNL A   1      31.431  26.750  25.101  1.00  0.00     0.144 A 
ATOM     17  C   UNL A   1      30.963  26.681  23.778  1.00  0.00     0.036 A 
ATOM     18  C   UNL A   1      31.567  28.002  25.721  1.00  0.00     0.294 A 
ATOM     19  C   UNL A   1      30.553  27.843  23.122  1.00  0.00     0.003 A 
ATOM     20  C   UNL A   1      31.155  29.167  25.054  1.00  0.00     0.088 A 
ATOM     21  C   UNL A   1      30.634  29.079  23.764  1.00  0.00     0.007 A 
BRANCH  18  22
ATOM     22  N   UNL A   1      32.175  28.160  27.044  1.00  0.00     0.065 N 
ATOM     23  O   UNL A   1      33.393  28.378  27.080  1.00  0.00    -0.258 OA
ATOM     24  O   UNL A   1      31.437  28.080  28.031  1.00  0.00    -0.258 OA
ENDBRANCH  18  22
ENDBRANCH  10  16
ENDBRANCH   5   8
ENDBRANCH   3   4
ENDBRANCH   2   3
ENDBRANCH   1   2
BRANCH   1  25
ATOM     25  C   UNL A   1      38.090  22.523  25.581  1.00  0.00     0.116 C 
BRANCH  25  26
ATOM     26  N   UNL A   1      38.829  21.778  26.608  1.00  0.00    -0.352 N 
ATOM     27  C   UNL A   1      39.951  22.228  27.318  1.00  0.00     0.251 C 
ATOM     28  H   UNL A   1      38.505  20.872  26.819  1.00  0.00     0.163 HD
ATOM     29  O   UNL A   1      40.693  21.477  27.902  1.00  0.00    -0.269 OA
BRANCH  27  30
ATOM     30  C   UNL A   1      40.143  23.693  27.351  1.00  0.00     0.039 A 
ATOM     31  C   UNL A   1      39.095  24.617  27.298  1.00  0.00     0.014 A 
ATOM     32  C   UNL A   1      41.435  24.081  27.663  1.00  0.00     0.014 A 
ATOM     33  C   UNL A   1      39.355  25.937  27.679  1.00  0.00     0.010 A 
ATOM     34  C   UNL A   1      41.602  25.275  28.295  1.00  0.00     0.010 A 
ATOM     35  C   UNL A   1      40.614  26.250  28.208  1.00  0.00    -0.014 A 
BRANCH  35  36
ATOM     36  C   UNL A   1      40.985  27.564  28.716  1.00  0.00     0.031 A 
ATOM     37  C   UNL A   1      42.185  28.210  28.123  1.00  0.00     0.074 A 
ATOM     38  C   UNL A   1      40.123  28.275  29.479  1.00  0.00     0.049 A 
ATOM     39  N   UNL A   1      43.321  28.423  28.700  1.00  0.00    -0.248 NA
ATOM     40  C   UNL A   1      42.164  28.589  26.702  1.00  0.00     0.031 C 
ATOM     41  C   UNL A   1      38.758  27.920  29.913  1.00  0.00     0.029 A 
ATOM     42  N   UNL A   1      40.239  29.550  29.918  1.00  0.00    -0.354 N 
ATOM     43  C   UNL A   1      44.093  29.147  27.796  1.00  0.00     0.074 A 
ATOM     44  C   UNL A   1      43.400  29.068  26.532  1.00  0.00     0.031 C 
ATOM     45  C   UNL A   1      38.101  29.028  30.314  1.00  0.00     0.029 A 
ATOM     46  C   UNL A   1      39.058  30.111  30.383  1.00  0.00     0.049 A 
ATOM     47  H   UNL A   1      41.094  30.040  29.908  1.00  0.00     0.167 HD
ATOM     48  C   UNL A   1      45.132  29.932  28.205  1.00  0.00     0.031 A 
ATOM     49  C   UNL A   1      38.880  31.379  30.820  1.00  0.00     0.031 A 
ATOM     50  C   UNL A   1      45.422  29.737  29.604  1.00  0.00     0.049 A 
ATOM     51  C   UNL A   1      40.220  31.868  31.229  1.00  0.00     0.074 A 
ATOM     52  C   UNL A   1      45.833  28.666  30.372  1.00  0.00     0.029 A 
ATOM     53  N   UNL A   1      44.873  30.643  30.486  1.00  0.00    -0.354 N 
ATOM     54  N   UNL A   1      40.896  31.335  32.211  1.00  0.00    -0.248 NA
ATOM     55  C   UNL A   1      41.015  32.603  30.259  1.00  0.00     0.031 C 
ATOM     56  C   UNL A   1      45.064  28.763  31.572  1.00  0.00     0.029 A 
ATOM     57  C   UNL A   1      44.291  29.925  31.501  1.00  0.00     0.049 A 
ATOM     58  H   UNL A   1      44.895  31.624  30.403  1.00  0.00     0.167 HD
ATOM     59  C   UNL A   1      42.208  31.284  31.760  1.00  0.00     0.074 A 
ATOM     60  C   UNL A   1      42.237  32.179  30.602  1.00  0.00     0.031 C 
ATOM     61  C   UNL A   1      43.073  30.314  32.188  1.00  0.00     0.031 A 
BRANCH  48  62
ATOM     62  C   UNL A   1      45.661  31.131  27.458  1.00  0.00    -0.014 A 
ATOM     63  C   UNL A   1      47.043  31.213  27.190  1.00  0.00     0.010 A 
ATOM     64  C   UNL A   1      44.897  32.296  27.240  1.00  0.00     0.010 A 
ATOM     65  C   UNL A   1      47.640  32.417  26.791  1.00  0.00     0.020 A 
ATOM     66  C   UNL A   1      45.476  33.490  26.802  1.00  0.00     0.020 A 
ATOM     67  C   UNL A   1      46.852  33.553  26.618  1.00  0.00     0.054 A 
BRANCH  67  68
ATOM     68  S   UNL A   1      47.649  35.133  26.233  1.00  0.00     0.124 S 
ATOM     69  O   UNL A   1      46.520  35.931  25.764  1.00  0.00    -0.237 OA
ATOM     70  O   UNL A   1      48.208  35.522  27.525  1.00  0.00    -0.237 OA
ATOM     71  O   UNL A   1      48.634  34.780  25.213  1.00  0.00    -0.744 OA
ENDBRANCH  67  68
ENDBRANCH  48  62
BRANCH  49  72
ATOM     72  C   UNL A   1      37.695  32.243  30.621  1.00  0.00    -0.014 A 
ATOM     73  C   UNL A   1      37.775  33.427  29.869  1.00  0.00     0.010 A 
ATOM     74  C   UNL A   1      36.410  31.754  30.946  1.00  0.00     0.010 A 
ATOM     75  C   UNL A   1      36.612  34.060  29.398  1.00  0.00     0.020 A 
ATOM     76  C   UNL A   1      35.248  32.381  30.482  1.00  0.00     0.020 A 
ATOM     77  C   UNL A   1      35.357  33.518  29.686  1.00  0.00     0.054 A 
BRANCH  77  78
ATOM     78  S   UNL A   1      33.877  34.231  28.905  1.00  0.00     0.124 S 
ATOM     79  O   UNL A   1      33.060  34.596  30.058  1.00  0.00    -0.237 OA
ATOM     80  O   UNL A   1      34.430  35.348  28.143  1.00  0.00    -0.237 OA
ATOM     81  O   UNL A   1      33.353  33.134  28.093  1.00  0.00    -0.744 OA
ENDBRANCH  77  78
ENDBRANCH  49  72
BRANCH  61  82
ATOM     82  C   UNL A   1      42.622  29.405  33.318  1.00  0.00    -0.014 A 
ATOM     83  C   UNL A   1      41.849  28.243  33.113  1.00  0.00     0.010 A 
ATOM     84  C   UNL A   1      43.134  29.638  34.605  1.00  0.00     0.010 A 
ATOM     85  C   UNL A   1      41.578  27.354  34.166  1.00  0.00     0.020 A 
ATOM     86  C   UNL A   1      42.880  28.749  35.657  1.00  0.00     0.020 A 
ATOM     87  C   UNL A   1      42.097  27.615  35.435  1.00  0.00     0.054 A 
BRANCH  87  88
ATOM     88  S   UNL A   1      41.784  26.440  36.785  1.00  0.00     0.124 S 
ATOM     89  O   UNL A   1      41.629  25.174  36.075  1.00  0.00    -0.237 OA
ATOM     90  O   UNL A   1      42.988  26.557  37.605  1.00  0.00    -0.237 OA
ATOM     91  O   UNL A   1      40.566  26.950  37.413  1.00  0.00    -0.744 OA
ENDBRANCH  87  88
ENDBRANCH  61  82
ENDBRANCH  35  36
ENDBRANCH  27  30
ENDBRANCH  25  26
ENDBRANCH   1  25
TORSDOF 18
ENDMDL
MODEL 2
REMARK VINA RESULT:     -12.1      1.448      1.885
REMARK SMILES CCCc1c(C(=O)NCCCCNC(=O)c2ccc(-c3c4nc(c(-c5ccc(S(=O)(=O)[O-])cc5)c5ccc([nH]5)c(-c5ccc(S(=O)(=O)[O-])cc5)c5nc(c(-c6ccc(S(=O)(=O)[O-])cc6)c6ccc3[nH]6)C=C5)C=C4)cc2)nnn1-c1ccccc1[N+](=O)[O-]
REMARK SMILES IDX 11 1 10 2 9 3 8 4 6 5 7 6 5 8 4 9 78 10 76 11 77 12 3 13
REMARK SMILES IDX 2 14 1 15 79 16 80 17 84 18 81 19 83 20 82 21 85 22 86 23
REMARK SMILES IDX 87 24 12 25 13 26 14 27 15 29 16 30 17 31 75 32 18 33 74 34
REMARK SMILES IDX 19 35 20 36 21 37 68 38 22 39 73 40 67 41 69 42 23 43 72 44
REMARK SMILES IDX 66 45 65 46 24 48 54 49 35 50 53 51 36 52 39 53 52 54 70 55
REMARK SMILES IDX 37 56 38 57 51 59 71 60 40 61 25 62 26 63 34 64 27 65 33 66
REMARK SMILES IDX 28 67 29 68 30 69 31 70 32 71 55 72 56 73 64 74 57 75 63 76
REMARK SMILES IDX 58 77 59 78 60 79 61 80 62 81 41 82 42 83 50 84 43 85 49 86
REMARK SMILES IDX 44 87 45 88 46 89 47 90 48 91
REMARK H PARENT 8 7 13 28 69 47 39 58
REMARK Flexibility Score: inf
ROOT
ATOM      1  C   UNL A   1      37.263  21.888  24.690  1.00  0.00     0.023 C 
ENDROOT
BRANCH   1   2
ATOM      2  C   UNL A   1      36.203  21.007  25.348  1.00  0.00     0.023 C 
BRANCH   2   3
ATOM      3  C   UNL A   1      35.040  21.715  26.047  1.00  0.00     0.116 C 
BRANCH   3   4
ATOM      4  N   UNL A   1      33.742  21.190  25.731  1.00  0.00    -0.351 N 
ATOM      5  C   UNL A   1      32.485  21.741  25.644  1.00  0.00     0.273 C 
ATOM      6  O   UNL A   1      31.615  20.901  25.378  1.00  0.00    -0.267 OA
ATOM      7  H   UNL A   1      33.754  20.225  25.535  1.00  0.00     0.163 HD
BRANCH   5   8
ATOM      8  C   UNL A   1      32.095  23.154  25.850  1.00  0.00     0.174 A 
ATOM      9  C   UNL A   1      32.537  24.442  25.501  1.00  0.00     0.078 A 
ATOM     10  N   UNL A   1      31.526  25.277  25.993  1.00  0.00    -0.210 N 
ATOM     11  N   UNL A   1      30.991  23.324  26.683  1.00  0.00    -0.124 NA
ATOM     12  N   UNL A   1      30.753  24.607  26.856  1.00  0.00    -0.061 NA
BRANCH   9  13
ATOM     13  C   UNL A   1      33.754  25.047  24.880  1.00  0.00     0.059 C 
BRANCH  13  14
ATOM     14  C   UNL A   1      33.905  24.762  23.373  1.00  0.00     0.003 C 
ATOM     15  C   UNL A   1      34.721  23.546  22.957  1.00  0.00     0.004 C 
ENDBRANCH  13  14
ENDBRANCH   9  13
BRANCH  10  16
ATOM     16  C   UNL A   1      31.453  26.688  25.931  1.00  0.00     0.144 A 
ATOM     17  C   UNL A   1      32.017  27.407  26.997  1.00  0.00     0.036 A 
ATOM     18  C   UNL A   1      30.949  27.382  24.819  1.00  0.00     0.294 A 
ATOM     19  C   UNL A   1      32.154  28.794  26.908  1.00  0.00     0.003 A 
ATOM     20  C   UNL A   1      31.088  28.777  24.738  1.00  0.00     0.088 A 
ATOM     21  C   UNL A   1      31.705  29.474  25.775  1.00  0.00     0.007 A 
BRANCH  18  22
ATOM     22  N   UNL A   1      30.227  26.710  23.737  1.00  0.00     0.065 N 
ATOM     23  O   UNL A   1      30.906  26.244  22.813  1.00  0.00    -0.258 OA
ATOM     24  O   UNL A   1      28.997  26.640  23.822  1.00  0.00    -0.258 OA
ENDBRANCH  18  22
ENDBRANCH  10  16
ENDBRANCH   5   8
ENDBRANCH   3   4
ENDBRANCH   2   3
ENDBRANCH   1   2
BRANCH   1  25
ATOM     25  C   UNL A   1      38.112  22.695  25.657  1.00  0.00     0.116 C 
BRANCH  25  26
ATOM     26  N   UNL A   1      38.958  21.903  26.561  1.00  0.00    -0.352 N 
ATOM     27  C   UNL A   1      40.095  22.354  27.245  1.00  0.00     0.251 C 
ATOM     28  H   UNL A   1      38.700  20.963  26.698  1.00  0.00     0.163 HD
ATOM     29  O   UNL A   1      40.916  21.599  27.707  1.00  0.00    -0.269 OA
BRANCH  27  30
ATOM     30  C   UNL A   1      40.205  23.818  27.412  1.00  0.00     0.039 A 
ATOM     31  C   UNL A   1      39.106  24.682  27.451  1.00  0.00     0.014 A 
ATOM     32  C   UNL A   1      41.476  24.249  27.752  1.00  0.00     0.014 A 
ATOM     33  C   UNL A   1      39.295  25.974  27.951  1.00  0.00     0.010 A 
ATOM     34  C   UNL A   1      41.582  25.388  28.491  1.00  0.00     0.010 A 
ATOM     35  C   UNL A   1      40.540  26.308  28.500  1.00  0.00    -0.014 A 
BRANCH  35  36
ATOM     36  C   UNL A   1      40.841  27.589  29.125  1.00  0.00     0.031 A 
ATOM     37  C   UNL A   1      41.893  28.426  28.491  1.00  0.00     0.074 A 
ATOM     38  C   UNL A   1      40.013  28.109  30.060  1.00  0.00     0.049 A 
ATOM     39  N   UNL A   1      43.064  28.696  28.964  1.00  0.00    -0.248 NA
ATOM     40  C   UNL A   1      41.663  28.959  27.140  1.00  0.00     0.031 C 
ATOM     41  C   UNL A   1      38.751  27.560  30.592  1.00  0.00     0.029 A 
ATOM     42  N   UNL A   1      40.059  29.332  30.640  1.00  0.00    -0.354 N 
ATOM     43  C   UNL A   1      43.648  29.599  28.079  1.00  0.00     0.074 A 
ATOM     44  C   UNL A   1      42.818  29.588  26.898  1.00  0.00     0.031 C 
ATOM     45  C   UNL A   1      38.044  28.536  31.197  1.00  0.00     0.029 A 
ATOM     46  C   UNL A   1      38.894  29.704  31.297  1.00  0.00     0.049 A 
ATOM     47  H   UNL A   1      40.854  29.911  30.599  1.00  0.00     0.167 HD
ATOM     48  C   UNL A   1      44.648  30.441  28.468  1.00  0.00     0.031 A 
ATOM     49  C   UNL A   1      38.648  30.887  31.906  1.00  0.00     0.031 A 
ATOM     50  C   UNL A   1      45.123  30.122  29.792  1.00  0.00     0.049 A 
ATOM     51  C   UNL A   1      39.975  31.470  32.226  1.00  0.00     0.074 A 
ATOM     52  C   UNL A   1      45.725  29.023  30.371  1.00  0.00     0.029 A 
ATOM     53  N   UNL A   1      44.600  30.857  30.835  1.00  0.00    -0.354 N 
ATOM     54  N   UNL A   1      40.812  30.907  33.054  1.00  0.00    -0.248 NA
ATOM     55  C   UNL A   1      40.572  32.393  31.274  1.00  0.00     0.031 C 
ATOM     56  C   UNL A   1      45.101  28.898  31.649  1.00  0.00     0.029 A 
ATOM     57  C   UNL A   1      44.216  29.968  31.809  1.00  0.00     0.049 A 
ATOM     58  H   UNL A   1      44.517  31.837  30.873  1.00  0.00     0.167 HD
ATOM     59  C   UNL A   1      42.059  31.052  32.460  1.00  0.00     0.074 A 
ATOM     60  C   UNL A   1      41.862  32.071  31.427  1.00  0.00     0.031 C 
ATOM     61  C   UNL A   1      43.059  30.141  32.668  1.00  0.00     0.031 A 
BRANCH  48  62
ATOM     62  C   UNL A   1      44.965  31.769  27.825  1.00  0.00    -0.014 A 
ATOM     63  C   UNL A   1      46.301  32.053  27.470  1.00  0.00     0.010 A 
ATOM     64  C   UNL A   1      44.052  32.842  27.792  1.00  0.00     0.010 A 
ATOM     65  C   UNL A   1      46.714  33.358  27.167  1.00  0.00     0.020 A 
ATOM     66  C   UNL A   1      44.446  34.139  27.451  1.00  0.00     0.020 A 
ATOM     67  C   UNL A   1      45.784  34.396  27.178  1.00  0.00     0.054 A 
BRANCH  67  68
ATOM     68  S   UNL A   1      46.350  36.096  26.917  1.00  0.00     0.124 S 
ATOM     69  O   UNL A   1      47.031  35.990  25.630  1.00  0.00    -0.237 OA
ATOM     70  O   UNL A   1      45.096  36.844  26.912  1.00  0.00    -0.237 OA
ATOM     71  O   UNL A   1      47.217  36.347  28.066  1.00  0.00    -0.744 OA
ENDBRANCH  67  68
ENDBRANCH  48  62
BRANCH  49  72
ATOM     72  C   UNL A   1      37.371  31.632  31.947  1.00  0.00    -0.014 A 
ATOM     73  C   UNL A   1      36.762  31.967  33.167  1.00  0.00     0.010 A 
ATOM     74  C   UNL A   1      36.887  32.256  30.775  1.00  0.00     0.010 A 
ATOM     75  C   UNL A   1      35.755  32.945  33.225  1.00  0.00     0.020 A 
ATOM     76  C   UNL A   1      35.882  33.229  30.825  1.00  0.00     0.020 A 
ATOM     77  C   UNL A   1      35.339  33.589  32.056  1.00  0.00     0.054 A 
BRANCH  77  78
ATOM     78  S   UNL A   1      34.184  34.988  32.171  1.00  0.00     0.124 S 
ATOM     79  O   UNL A   1      33.040  34.393  32.855  1.00  0.00    -0.237 OA
ATOM     80  O   UNL A   1      34.945  35.964  32.947  1.00  0.00    -0.237 OA
ATOM     81  O   UNL A   1      33.951  35.360  30.777  1.00  0.00    -0.744 OA
ENDBRANCH  77  78
ENDBRANCH  49  72
BRANCH  61  82
ATOM     82  C   UNL A   1      42.837  29.065  33.717  1.00  0.00    -0.014 A 
ATOM     83  C   UNL A   1      43.277  29.186  35.051  1.00  0.00     0.010 A 
ATOM     84  C   UNL A   1      42.014  27.976  33.390  1.00  0.00     0.010 A 
ATOM     85  C   UNL A   1      42.925  28.234  36.022  1.00  0.00     0.020 A 
ATOM     86  C   UNL A   1      41.645  27.030  34.355  1.00  0.00     0.020 A 
ATOM     87  C   UNL A   1      42.109  27.160  35.665  1.00  0.00     0.054 A 
BRANCH  87  88
ATOM     88  S   UNL A   1      41.616  25.955  36.934  1.00  0.00     0.124 S 
ATOM     89  O   UNL A   1      41.225  24.796  36.137  1.00  0.00    -0.237 OA
ATOM     90  O   UNL A   1      42.837  25.794  37.722  1.00  0.00    -0.237 OA
ATOM     91  O   UNL A   1      40.520  26.621  37.637  1.00  0.00    -0.744 OA
ENDBRANCH  87  88
ENDBRANCH  61  82
ENDBRANCH  35  36
ENDBRANCH  27  30
ENDBRANCH  25  26
ENDBRANCH   1  25
TORSDOF 18
ENDMDL
MODEL 3
REMARK VINA RESULT:     -12.0      2.908      8.083
REMARK SMILES CCCc1c(C(=O)NCCCCNC(=O)c2ccc(-c3c4nc(c(-c5ccc(S(=O)(=O)[O-])cc5)c5ccc([nH]5)c(-c5ccc(S(=O)(=O)[O-])cc5)c5nc(c(-c6ccc(S(=O)(=O)[O-])cc6)c6ccc3[nH]6)C=C5)C=C4)cc2)nnn1-c1ccccc1[N+](=O)[O-]
REMARK SMILES IDX 11 1 10 2 9 3 8 4 6 5 7 6 5 8 4 9 78 10 76 11 77 12 3 13
REMARK SMILES IDX 2 14 1 15 79 16 80 17 84 18 81 19 83 20 82 21 85 22 86 23
REMARK SMILES IDX 87 24 12 25 13 26 14 27 15 29 16 30 17 31 75 32 18 33 74 34
REMARK SMILES IDX 19 35 20 36 21 37 68 38 22 39 73 40 67 41 69 42 23 43 72 44
REMARK SMILES IDX 66 45 65 46 24 48 54 49 35 50 53 51 36 52 39 53 52 54 70 55
REMARK SMILES IDX 37 56 38 57 51 59 71 60 40 61 25 62 26 63 34 64 27 65 33 66
REMARK SMILES IDX 28 67 29 68 30 69 31 70 32 71 55 72 56 73 64 74 57 75 63 76
REMARK SMILES IDX 58 77 59 78 60 79 61 80 62 81 41 82 42 83 50 84 43 85 49 86
REMARK SMILES IDX 44 87 45 88 46 89 47 90 48 91
REMARK H PARENT 8 7 13 28 69 47 39 58
REMARK Flexibility Score: inf
ROOT
ATOM      1  C   UNL A   1      31.809  31.566  26.904  1.00  0.00     0.023 C 
ENDROOT
BRANCH   1   2
ATOM      2  C   UNL A   1      32.137  30.078  26.801  1.00  0.00     0.023 C 
BRANCH   2   3
ATOM      3  C   UNL A   1      32.699  29.576  25.470  1.00  0.00     0.116 C 
BRANCH   3   4
ATOM      4  N   UNL A   1      31.810  29.717  24.352  1.00  0.00    -0.351 N 
ATOM      5  C   UNL A   1      31.088  28.830  23.589  1.00  0.00     0.273 C 
ATOM      6  O   UNL A   1      30.468  29.385  22.672  1.00  0.00    -0.267 OA
ATOM      7  H   UNL A   1      31.691  30.653  24.070  1.00  0.00     0.163 HD
BRANCH   5   8
ATOM      8  C   UNL A   1      31.007  27.358  23.737  1.00  0.00     0.174 A 
ATOM      9  C   UNL A   1      31.865  26.255  23.885  1.00  0.00     0.078 A 
ATOM     10  N   UNL A   1      30.986  25.185  24.087  1.00  0.00    -0.210 N 
ATOM     11  N   UNL A   1      29.713  26.849  23.654  1.00  0.00    -0.124 NA
ATOM     12  N   UNL A   1      29.743  25.535  23.736  1.00  0.00    -0.061 NA
BRANCH   9  13
ATOM     13  C   UNL A   1      33.334  25.994  23.788  1.00  0.00     0.059 C 
BRANCH  13  14
ATOM     14  C   UNL A   1      34.043  25.851  25.147  1.00  0.00     0.003 C 
ATOM     15  C   UNL A   1      34.851  24.585  25.400  1.00  0.00     0.004 C 
ENDBRANCH  13  14
ENDBRANCH   9  13
BRANCH  10  16
ATOM     16  C   UNL A   1      31.303  23.821  24.286  1.00  0.00     0.144 A 
ATOM     17  C   UNL A   1      31.704  23.085  23.159  1.00  0.00     0.036 A 
ATOM     18  C   UNL A   1      31.338  23.217  25.553  1.00  0.00     0.294 A 
ATOM     19  C   UNL A   1      32.216  21.795  23.314  1.00  0.00     0.003 A 
ATOM     20  C   UNL A   1      31.852  21.919  25.701  1.00  0.00     0.088 A 
ATOM     21  C   UNL A   1      32.305  21.221  24.583  1.00  0.00     0.007 A 
BRANCH  18  22
ATOM     22  N   UNL A   1      30.808  23.875  26.749  1.00  0.00     0.065 N 
ATOM     23  O   UNL A   1      29.765  23.411  27.230  1.00  0.00    -0.258 OA
ATOM     24  O   UNL A   1      31.437  24.834  27.206  1.00  0.00    -0.258 OA
ENDBRANCH  18  22
ENDBRANCH  10  16
ENDBRANCH   5   8
ENDBRANCH   3   4
ENDBRANCH   2   3
ENDBRANCH   1   2
BRANCH   1  25
ATOM     25  C   UNL A   1      32.953  32.439  27.393  1.00  0.00     0.116 C 
BRANCH  25  26
ATOM     26  N   UNL A   1      32.601  33.839  27.667  1.00  0.00    -0.352 N 
ATOM     27  C   UNL A   1      33.119  34.642  28.692  1.00  0.00     0.251 C 
ATOM     28  H   UNL A   1      31.935  34.253  27.072  1.00  0.00     0.163 HD
ATOM     29  O   UNL A   1      32.575  35.654  29.061  1.00  0.00    -0.269 OA
BRANCH  27  30
ATOM     30  C   UNL A   1      34.408  34.200  29.264  1.00  0.00     0.039 A 
ATOM     31  C   UNL A   1      34.520  33.397  30.403  1.00  0.00     0.014 A 
ATOM     32  C   UNL A   1      35.499  34.460  28.453  1.00  0.00     0.014 A 
ATOM     33  C   UNL A   1      35.742  32.762  30.650  1.00  0.00     0.010 A 
ATOM     34  C   UNL A   1      36.570  33.624  28.545  1.00  0.00     0.010 A 
ATOM     35  C   UNL A   1      36.758  32.861  29.691  1.00  0.00    -0.014 A 
BRANCH  35  36
ATOM     36  C   UNL A   1      38.044  32.183  29.790  1.00  0.00     0.031 A 
ATOM     37  C   UNL A   1      38.113  30.780  29.303  1.00  0.00     0.074 A 
ATOM     38  C   UNL A   1      39.172  32.883  30.046  1.00  0.00     0.049 A 
ATOM     39  N   UNL A   1      38.269  29.714  30.014  1.00  0.00    -0.248 NA
ATOM     40  C   UNL A   1      37.900  30.510  27.872  1.00  0.00     0.031 C 
ATOM     41  C   UNL A   1      39.338  34.335  30.252  1.00  0.00     0.029 A 
ATOM     42  N   UNL A   1      40.455  32.448  30.037  1.00  0.00    -0.354 N 
ATOM     43  C   UNL A   1      38.384  28.654  29.119  1.00  0.00     0.074 A 
ATOM     44  C   UNL A   1      37.978  29.176  27.836  1.00  0.00     0.031 C 
ATOM     45  C   UNL A   1      40.633  34.677  30.088  1.00  0.00     0.029 A 
ATOM     46  C   UNL A   1      41.407  33.457  30.000  1.00  0.00     0.049 A 
ATOM     47  H   UNL A   1      40.692  31.492  30.055  1.00  0.00     0.167 HD
ATOM     48  C   UNL A   1      39.006  27.489  29.460  1.00  0.00     0.031 A 
ATOM     49  C   UNL A   1      42.749  33.303  29.923  1.00  0.00     0.031 A 
ATOM     50  C   UNL A   1      39.314  27.448  30.869  1.00  0.00     0.049 A 
ATOM     51  C   UNL A   1      43.038  31.940  30.436  1.00  0.00     0.074 A 
ATOM     52  C   UNL A   1      38.566  27.474  32.029  1.00  0.00     0.029 A 
ATOM     53  N   UNL A   1      40.593  27.808  31.238  1.00  0.00    -0.354 N 
ATOM     54  N   UNL A   1      42.793  31.583  31.667  1.00  0.00    -0.248 NA
ATOM     55  C   UNL A   1      43.132  30.848  29.481  1.00  0.00     0.031 C 
ATOM     56  C   UNL A   1      39.298  28.323  32.914  1.00  0.00     0.029 A 
ATOM     57  C   UNL A   1      40.483  28.700  32.276  1.00  0.00     0.049 A 
ATOM     58  H   UNL A   1      41.429  27.485  30.832  1.00  0.00     0.167 HD
ATOM     59  C   UNL A   1      42.271  30.299  31.572  1.00  0.00     0.074 A 
ATOM     60  C   UNL A   1      42.609  29.860  30.217  1.00  0.00     0.031 C 
ATOM     61  C   UNL A   1      41.377  29.823  32.491  1.00  0.00     0.031 A 
BRANCH  48  62
ATOM     62  C   UNL A   1      39.663  26.538  28.491  1.00  0.00    -0.014 A 
ATOM     63  C   UNL A   1      39.095  25.262  28.296  1.00  0.00     0.010 A 
ATOM     64  C   UNL A   1      40.951  26.752  27.961  1.00  0.00     0.010 A 
ATOM     65  C   UNL A   1      39.809  24.232  27.667  1.00  0.00     0.020 A 
ATOM     66  C   UNL A   1      41.655  25.745  27.295  1.00  0.00     0.020 A 
ATOM     67  C   UNL A   1      41.093  24.478  27.187  1.00  0.00     0.054 A 
BRANCH  67  68
ATOM     68  S   UNL A   1      42.058  23.109  26.496  1.00  0.00     0.124 S 
ATOM     69  O   UNL A   1      41.011  22.157  26.137  1.00  0.00    -0.237 OA
ATOM     70  O   UNL A   1      42.746  23.748  25.377  1.00  0.00    -0.237 OA
ATOM     71  O   UNL A   1      42.920  22.706  27.604  1.00  0.00    -0.744 OA
ENDBRANCH  67  68
ENDBRANCH  48  62
BRANCH  49  72
ATOM     72  C   UNL A   1      43.712  34.142  29.177  1.00  0.00    -0.014 A 
ATOM     73  C   UNL A   1      45.033  34.306  29.623  1.00  0.00     0.010 A 
ATOM     74  C   UNL A   1      43.402  34.564  27.865  1.00  0.00     0.010 A 
ATOM     75  C   UNL A   1      46.026  34.808  28.764  1.00  0.00     0.020 A 
ATOM     76  C   UNL A   1      44.385  35.067  27.005  1.00  0.00     0.020 A 
ATOM     77  C   UNL A   1      45.700  35.161  27.452  1.00  0.00     0.054 A 
BRANCH  77  78
ATOM     78  S   UNL A   1      47.028  35.616  26.295  1.00  0.00     0.124 S 
ATOM     79  O   UNL A   1      46.643  36.965  25.893  1.00  0.00    -0.237 OA
ATOM     80  O   UNL A   1      48.222  35.524  27.133  1.00  0.00    -0.237 OA
ATOM     81  O   UNL A   1      46.934  34.603  25.246  1.00  0.00    -0.744 OA
ENDBRANCH  77  78
ENDBRANCH  49  72
BRANCH  61  82
ATOM     82  C   UNL A   1      41.112  30.662  33.730  1.00  0.00    -0.014 A 
ATOM     83  C   UNL A   1      41.802  30.484  34.946  1.00  0.00     0.010 A 
ATOM     84  C   UNL A   1      40.260  31.773  33.611  1.00  0.00     0.010 A 
ATOM     85  C   UNL A   1      41.629  31.374  36.018  1.00  0.00     0.020 A 
ATOM     86  C   UNL A   1      40.093  32.673  34.670  1.00  0.00     0.020 A 
ATOM     87  C   UNL A   1      40.773  32.466  35.872  1.00  0.00     0.054 A 
BRANCH  87  88
ATOM     88  S   UNL A   1      40.586  33.642  37.244  1.00  0.00     0.124 S 
ATOM     89  O   UNL A   1      41.242  32.949  38.349  1.00  0.00    -0.237 OA
ATOM     90  O   UNL A   1      41.277  34.832  36.750  1.00  0.00    -0.237 OA
ATOM     91  O   UNL A   1      39.137  33.791  37.379  1.00  0.00    -0.744 OA
ENDBRANCH  87  88
ENDBRANCH  61  82
ENDBRANCH  35  36
ENDBRANCH  27  30
ENDBRANCH  25  26
ENDBRANCH   1  25
TORSDOF 18
ENDMDL
