MODEL 1
REMARK VINA RESULT:     -10.5      0.000      0.000
REMARK SMILES CCCSc1nc2n(n1)[C@@H](c1ccccc1C(=O)NCCCCNC(=O)c1ccc(-c3c4nc(c(-c5ccc(S(=O)(=O)[O-])cc5)c5ccc([nH]5)c(-c5ccc(S(=O)(=O)[O-])cc5)c5nc(c(-c6ccc(S(=O)(=O)[O-])cc6)c6ccc3[nH]6)C=C5)C=C4)cc1)C(C(=O)Nc1cccc(C)c1C)=C(C)N2
REMARK SMILES IDX 21 1 20 2 19 3 17 4 18 5 16 7 11 8 12 9 13 10 15 11 14 12
REMARK SMILES IDX 10 13 5 14 6 15 9 16 7 17 8 18 101 19 99 20 87 22 100 23
REMARK SMILES IDX 4 24 3 25 2 26 1 27 88 28 89 29 90 30 91 32 92 33 97 34
REMARK SMILES IDX 93 35 95 36 98 37 94 38 96 39 22 40 23 41 24 42 25 43 26 45
REMARK SMILES IDX 27 46 28 47 86 48 29 49 85 50 30 51 31 52 32 53 79 54 33 55
REMARK SMILES IDX 84 56 78 57 80 58 34 59 83 60 77 61 76 62 35 64 65 65 46 66
REMARK SMILES IDX 64 67 47 68 50 69 63 70 81 71 48 72 49 73 62 75 82 76 51 77
REMARK SMILES IDX 36 78 37 79 45 80 38 81 44 82 39 83 40 84 41 85 42 86 43 87
REMARK SMILES IDX 66 88 67 89 75 90 68 91 74 92 69 93 70 94 71 95 72 96 73 97
REMARK SMILES IDX 52 98 53 99 61 100 54 101 60 102 55 103 56 104 57 105 58 106
REMARK SMILES IDX 59 107
REMARK H PARENT 19 6 101 21 90 31 24 44 80 63 50 74
REMARK Flexibility Score: inf
ROOT
ATOM      1  C   UNL A   1      39.547  33.587  37.008  1.00  0.00     0.023 C 
ENDROOT
BRANCH   1   2
ATOM      2  C   UNL A   1      38.317  32.682  37.184  1.00  0.00     0.116 C 
BRANCH   2   3
ATOM      3  N   UNL A   1      37.927  31.932  35.998  1.00  0.00    -0.352 N 
ATOM      4  C   UNL A   1      37.470  32.042  34.712  1.00  0.00     0.251 C 
ATOM      5  O   UNL A   1      37.607  30.957  34.118  1.00  0.00    -0.269 OA
ATOM      6  H   UNL A   1      38.035  30.974  36.198  1.00  0.00     0.163 HD
BRANCH   4   7
ATOM      7  C   UNL A   1      36.789  33.155  33.932  1.00  0.00     0.045 A 
ATOM      8  C   UNL A   1      36.980  33.654  32.625  1.00  0.00    -0.006 A 
ATOM      9  C   UNL A   1      36.263  34.827  32.220  1.00  0.00     0.007 A 
ATOM     10  C   UNL A   1      35.312  35.444  33.023  1.00  0.00     0.000 A 
ATOM     11  C   UNL A   1      35.756  33.783  34.689  1.00  0.00     0.014 A 
ATOM     12  C   UNL A   1      35.025  34.891  34.248  1.00  0.00     0.001 A 
BRANCH   8  13
ATOM     13  C   UNL A   1      37.672  32.870  31.518  1.00  0.00     0.180 C 
ATOM     14  C   UNL A   1      40.837  34.294  30.931  1.00  0.00     0.210 A 
ATOM     15  N   UNL A   1      40.221  34.699  29.785  1.00  0.00    -0.185 NA
ATOM     16  N   UNL A   1      40.084  33.559  31.765  1.00  0.00    -0.141 NA
ATOM     17  C   UNL A   1      39.049  34.150  29.866  1.00  0.00     0.227 A 
ATOM     18  N   UNL A   1      38.921  33.519  31.070  1.00  0.00    -0.218 N 
ATOM     19  N   UNL A   1      38.040  34.137  28.990  1.00  0.00    -0.328 N 
ATOM     20  C   UNL A   1      36.865  33.436  29.197  1.00  0.00     0.026 C 
ATOM     21  H   UNL A   1      38.136  34.653  28.157  1.00  0.00     0.169 HD
ATOM     22  C   UNL A   1      36.703  32.713  30.332  1.00  0.00     0.065 C 
ATOM     23  C   UNL A   1      35.870  33.577  28.080  1.00  0.00     0.065 C 
BRANCH  14  24
ATOM     24  S   UNL A   1      42.500  34.701  31.242  1.00  0.00    -0.084 SA
BRANCH  24  25
ATOM     25  C   UNL A   1      42.780  33.775  32.793  1.00  0.00     0.078 C 
BRANCH  25  26
ATOM     26  C   UNL A   1      44.230  33.355  33.066  1.00  0.00     0.008 C 
ATOM     27  C   UNL A   1      44.434  32.307  34.152  1.00  0.00     0.005 C 
ENDBRANCH  25  26
ENDBRANCH  24  25
ENDBRANCH  14  24
BRANCH  22  28
ATOM     28  C   UNL A   1      35.541  31.817  30.570  1.00  0.00     0.255 C 
ATOM     29  O   UNL A   1      34.407  32.261  30.681  1.00  0.00    -0.269 OA
ATOM     30  N   UNL A   1      35.763  30.472  30.777  1.00  0.00    -0.322 N 
ATOM     31  H   UNL A   1      35.381  30.026  31.567  1.00  0.00     0.170 HD
BRANCH  30  32
ATOM     32  C   UNL A   1      36.534  29.738  29.861  1.00  0.00     0.044 A 
ATOM     33  C   UNL A   1      36.243  30.053  28.532  1.00  0.00     0.026 A 
ATOM     34  C   UNL A   1      37.644  28.937  30.213  1.00  0.00    -0.025 A 
ATOM     35  C   UNL A   1      37.202  29.806  27.575  1.00  0.00     0.002 A 
ATOM     36  C   UNL A   1      38.512  28.528  29.185  1.00  0.00    -0.046 A 
ATOM     37  C   UNL A   1      37.967  28.576  31.634  1.00  0.00     0.047 C 
ATOM     38  C   UNL A   1      38.332  29.060  27.901  1.00  0.00     0.004 A 
ATOM     39  C   UNL A   1      39.620  27.526  29.361  1.00  0.00     0.044 C 
ENDBRANCH  30  32
ENDBRANCH  22  28
ENDBRANCH   8  13
ENDBRANCH   4   7
ENDBRANCH   2   3
ENDBRANCH   1   2
BRANCH   1  40
ATOM     40  C   UNL A   1      40.905  32.868  37.176  1.00  0.00     0.023 C 
BRANCH  40  41
ATOM     41  C   UNL A   1      41.215  31.766  36.157  1.00  0.00     0.116 C 
BRANCH  41  42
ATOM     42  N   UNL A   1      41.333  30.420  36.711  1.00  0.00    -0.352 N 
ATOM     43  C   UNL A   1      41.360  29.184  36.067  1.00  0.00     0.251 C 
ATOM     44  H   UNL A   1      41.406  30.379  37.692  1.00  0.00     0.163 HD
ATOM     45  O   UNL A   1      41.014  28.194  36.704  1.00  0.00    -0.269 OA
BRANCH  43  46
ATOM     46  C   UNL A   1      41.891  29.005  34.679  1.00  0.00     0.039 A 
ATOM     47  C   UNL A   1      41.040  28.780  33.578  1.00  0.00     0.014 A 
ATOM     48  C   UNL A   1      43.253  28.849  34.478  1.00  0.00     0.014 A 
ATOM     49  C   UNL A   1      41.568  28.411  32.319  1.00  0.00     0.010 A 
ATOM     50  C   UNL A   1      43.771  28.453  33.269  1.00  0.00     0.010 A 
ATOM     51  C   UNL A   1      42.943  28.218  32.180  1.00  0.00    -0.014 A 
BRANCH  51  52
ATOM     52  C   UNL A   1      43.708  28.090  30.938  1.00  0.00     0.031 A 
ATOM     53  C   UNL A   1      43.751  29.346  30.169  1.00  0.00     0.074 A 
ATOM     54  C   UNL A   1      44.620  27.122  30.708  1.00  0.00     0.049 A 
ATOM     55  N   UNL A   1      43.011  29.567  29.133  1.00  0.00    -0.248 NA
ATOM     56  C   UNL A   1      44.477  30.531  30.652  1.00  0.00     0.031 C 
ATOM     57  C   UNL A   1      44.652  25.783  31.273  1.00  0.00     0.029 A 
ATOM     58  N   UNL A   1      45.749  27.150  29.929  1.00  0.00    -0.354 N 
ATOM     59  C   UNL A   1      43.425  30.794  28.658  1.00  0.00     0.074 A 
ATOM     60  C   UNL A   1      44.049  31.448  29.779  1.00  0.00     0.031 C 
ATOM     61  C   UNL A   1      45.797  25.158  30.906  1.00  0.00     0.029 A 
ATOM     62  C   UNL A   1      46.610  26.067  30.112  1.00  0.00     0.049 A 
ATOM     63  H   UNL A   1      45.938  27.876  29.293  1.00  0.00     0.167 HD
ATOM     64  C   UNL A   1      43.559  31.002  27.318  1.00  0.00     0.031 A 
ATOM     65  C   UNL A   1      47.674  25.648  29.371  1.00  0.00     0.031 A 
ATOM     66  C   UNL A   1      43.052  29.869  26.564  1.00  0.00     0.049 A 
ATOM     67  C   UNL A   1      47.354  26.082  27.995  1.00  0.00     0.074 A 
ATOM     68  C   UNL A   1      41.837  29.222  26.463  1.00  0.00     0.029 A 
ATOM     69  N   UNL A   1      43.997  28.984  26.089  1.00  0.00    -0.354 N 
ATOM     70  N   UNL A   1      46.392  25.533  27.311  1.00  0.00    -0.248 NA
ATOM     71  C   UNL A   1      47.749  27.414  27.566  1.00  0.00     0.031 C 
ATOM     72  C   UNL A   1      42.153  27.838  26.329  1.00  0.00     0.029 A 
ATOM     73  C   UNL A   1      43.540  27.703  26.272  1.00  0.00     0.049 A 
ATOM     74  H   UNL A   1      44.860  29.231  25.685  1.00  0.00     0.167 HD
ATOM     75  C   UNL A   1      45.739  26.606  26.725  1.00  0.00     0.074 A 
ATOM     76  C   UNL A   1      46.687  27.718  26.814  1.00  0.00     0.031 C 
ATOM     77  C   UNL A   1      44.399  26.552  26.469  1.00  0.00     0.031 A 
BRANCH  64  78
ATOM     78  C   UNL A   1      44.532  31.980  26.706  1.00  0.00    -0.014 A 
ATOM     79  C   UNL A   1      45.909  31.729  26.867  1.00  0.00     0.010 A 
ATOM     80  C   UNL A   1      44.173  33.240  26.187  1.00  0.00     0.010 A 
ATOM     81  C   UNL A   1      46.864  32.717  26.610  1.00  0.00     0.020 A 
ATOM     82  C   UNL A   1      45.119  34.219  25.885  1.00  0.00     0.020 A 
ATOM     83  C   UNL A   1      46.458  33.963  26.135  1.00  0.00     0.054 A 
BRANCH  83  84
ATOM     84  S   UNL A   1      47.686  35.268  25.908  1.00  0.00     0.124 S 
ATOM     85  O   UNL A   1      46.840  36.448  25.759  1.00  0.00    -0.237 OA
ATOM     86  O   UNL A   1      48.453  35.185  27.148  1.00  0.00    -0.237 OA
ATOM     87  O   UNL A   1      48.404  34.854  24.705  1.00  0.00    -0.744 OA
ENDBRANCH  83  84
ENDBRANCH  64  78
BRANCH  65  88
ATOM     88  C   UNL A   1      49.089  25.539  29.850  1.00  0.00    -0.014 A 
ATOM     89  C   UNL A   1      50.164  25.629  28.940  1.00  0.00     0.010 A 
ATOM     90  C   UNL A   1      49.412  25.509  31.219  1.00  0.00     0.010 A 
ATOM     91  C   UNL A   1      51.498  25.732  29.383  1.00  0.00     0.020 A 
ATOM     92  C   UNL A   1      50.742  25.596  31.671  1.00  0.00     0.020 A 
ATOM     93  C   UNL A   1      51.779  25.729  30.750  1.00  0.00     0.054 A 
BRANCH  93  94
ATOM     94  S   UNL A   1      53.491  25.998  31.316  1.00  0.00     0.124 S 
ATOM     95  O   UNL A   1      53.711  24.858  32.202  1.00  0.00    -0.237 OA
ATOM     96  O   UNL A   1      54.243  25.979  30.065  1.00  0.00    -0.237 OA
ATOM     97  O   UNL A   1      53.431  27.297  31.982  1.00  0.00    -0.744 OA
ENDBRANCH  93  94
ENDBRANCH  65  88
BRANCH  77  98
ATOM     98  C   UNL A   1      43.713  25.206  26.604  1.00  0.00    -0.014 A 
ATOM     99  C   UNL A   1      43.188  24.722  27.818  1.00  0.00     0.010 A 
ATOM    100  C   UNL A   1      43.468  24.469  25.437  1.00  0.00     0.010 A 
ATOM    101  C   UNL A   1      42.455  23.527  27.870  1.00  0.00     0.020 A 
ATOM    102  C   UNL A   1      42.726  23.284  25.475  1.00  0.00     0.020 A 
ATOM    103  C   UNL A   1      42.227  22.814  26.692  1.00  0.00     0.054 A 
BRANCH 103 104
ATOM    104  S   UNL A   1      41.233  21.296  26.749  1.00  0.00     0.124 S 
ATOM    105  O   UNL A   1      40.136  21.601  25.834  1.00  0.00    -0.237 OA
ATOM    106  O   UNL A   1      42.171  20.277  26.285  1.00  0.00    -0.237 OA
ATOM    107  O   UNL A   1      40.852  21.182  28.156  1.00  0.00    -0.744 OA
ENDBRANCH 103 104
ENDBRANCH  77  98
ENDBRANCH  51  52
ENDBRANCH  43  46
ENDBRANCH  41  42
ENDBRANCH  40  41
ENDBRANCH   1  40
TORSDOF 20
ENDMDL
MODEL 2
REMARK VINA RESULT:      -9.7      3.729     11.614
REMARK SMILES CCCSc1nc2n(n1)[C@@H](c1ccccc1C(=O)NCCCCNC(=O)c1ccc(-c3c4nc(c(-c5ccc(S(=O)(=O)[O-])cc5)c5ccc([nH]5)c(-c5ccc(S(=O)(=O)[O-])cc5)c5nc(c(-c6ccc(S(=O)(=O)[O-])cc6)c6ccc3[nH]6)C=C5)C=C4)cc1)C(C(=O)Nc1cccc(C)c1C)=C(C)N2
REMARK SMILES IDX 21 1 20 2 19 3 17 4 18 5 16 7 11 8 12 9 13 10 15 11 14 12
REMARK SMILES IDX 10 13 5 14 6 15 9 16 7 17 8 18 101 19 99 20 87 22 100 23
REMARK SMILES IDX 4 24 3 25 2 26 1 27 88 28 89 29 90 30 91 32 92 33 97 34
REMARK SMILES IDX 93 35 95 36 98 37 94 38 96 39 22 40 23 41 24 42 25 43 26 45
REMARK SMILES IDX 27 46 28 47 86 48 29 49 85 50 30 51 31 52 32 53 79 54 33 55
REMARK SMILES IDX 84 56 78 57 80 58 34 59 83 60 77 61 76 62 35 64 65 65 46 66
REMARK SMILES IDX 64 67 47 68 50 69 63 70 81 71 48 72 49 73 62 75 82 76 51 77
REMARK SMILES IDX 36 78 37 79 45 80 38 81 44 82 39 83 40 84 41 85 42 86 43 87
REMARK SMILES IDX 66 88 67 89 75 90 68 91 74 92 69 93 70 94 71 95 72 96 73 97
REMARK SMILES IDX 52 98 53 99 61 100 54 101 60 102 55 103 56 104 57 105 58 106
REMARK SMILES IDX 59 107
REMARK H PARENT 19 6 101 21 90 31 24 44 80 63 50 74
REMARK Flexibility Score: inf
ROOT
ATOM      1  C   UNL A   1      47.108  26.879  31.239  1.00  0.00     0.023 C 
ENDROOT
BRANCH   1   2
ATOM      2  C   UNL A   1      47.253  28.142  30.375  1.00  0.00     0.116 C 
BRANCH   2   3
ATOM      3  N   UNL A   1      46.557  29.318  30.878  1.00  0.00    -0.352 N 
ATOM      4  C   UNL A   1      45.664  30.305  30.557  1.00  0.00     0.251 C 
ATOM      5  O   UNL A   1      45.272  30.875  31.591  1.00  0.00    -0.269 OA
ATOM      6  H   UNL A   1      46.835  29.456  31.813  1.00  0.00     0.163 HD
BRANCH   4   7
ATOM      7  C   UNL A   1      45.147  30.865  29.242  1.00  0.00     0.045 A 
ATOM      8  C   UNL A   1      44.876  30.262  27.994  1.00  0.00    -0.006 A 
ATOM      9  C   UNL A   1      44.524  31.097  26.884  1.00  0.00     0.007 A 
ATOM     10  C   UNL A   1      44.343  32.469  27.000  1.00  0.00     0.000 A 
ATOM     11  C   UNL A   1      44.881  32.264  29.324  1.00  0.00     0.014 A 
ATOM     12  C   UNL A   1      44.478  33.049  28.239  1.00  0.00     0.001 A 
BRANCH   8  13
ATOM     13  C   UNL A   1      44.648  28.767  27.813  1.00  0.00     0.180 C 
ATOM     14  C   UNL A   1      47.160  27.484  25.709  1.00  0.00     0.210 A 
ATOM     15  N   UNL A   1      46.112  27.397  24.842  1.00  0.00    -0.185 NA
ATOM     16  N   UNL A   1      46.867  27.962  26.928  1.00  0.00    -0.141 NA
ATOM     17  C   UNL A   1      45.100  27.781  25.559  1.00  0.00     0.227 A 
ATOM     18  N   UNL A   1      45.537  28.185  26.788  1.00  0.00    -0.218 N 
ATOM     19  N   UNL A   1      43.799  27.828  25.259  1.00  0.00    -0.328 N 
ATOM     20  C   UNL A   1      42.823  28.196  26.169  1.00  0.00     0.026 C 
ATOM     21  H   UNL A   1      43.520  27.590  24.345  1.00  0.00     0.169 HD
ATOM     22  C   UNL A   1      43.175  28.526  27.436  1.00  0.00     0.065 C 
ATOM     23  C   UNL A   1      41.431  28.184  25.604  1.00  0.00     0.065 C 
BRANCH  14  24
ATOM     24  S   UNL A   1      48.753  26.971  25.234  1.00  0.00    -0.084 SA
BRANCH  24  25
ATOM     25  C   UNL A   1      48.457  26.568  23.476  1.00  0.00     0.078 C 
BRANCH  25  26
ATOM     26  C   UNL A   1      49.512  27.080  22.486  1.00  0.00     0.008 C 
ATOM     27  C   UNL A   1      48.984  27.768  21.235  1.00  0.00     0.005 C 
ENDBRANCH  25  26
ENDBRANCH  24  25
ENDBRANCH  14  24
BRANCH  22  28
ATOM     28  C   UNL A   1      42.187  28.791  28.514  1.00  0.00     0.255 C 
ATOM     29  O   UNL A   1      41.627  29.874  28.612  1.00  0.00    -0.269 OA
ATOM     30  N   UNL A   1      41.979  27.834  29.484  1.00  0.00    -0.322 N 
ATOM     31  H   UNL A   1      42.039  28.077  30.436  1.00  0.00     0.170 HD
BRANCH  30  32
ATOM     32  C   UNL A   1      41.683  26.512  29.115  1.00  0.00     0.044 A 
ATOM     33  C   UNL A   1      40.406  26.375  28.566  1.00  0.00     0.026 A 
ATOM     34  C   UNL A   1      42.628  25.463  29.075  1.00  0.00    -0.025 A 
ATOM     35  C   UNL A   1      40.159  25.303  27.739  1.00  0.00     0.002 A 
ATOM     36  C   UNL A   1      42.279  24.289  28.384  1.00  0.00    -0.046 A 
ATOM     37  C   UNL A   1      44.002  25.584  29.668  1.00  0.00     0.047 C 
ATOM     38  C   UNL A   1      41.092  24.273  27.640  1.00  0.00     0.004 A 
ATOM     39  C   UNL A   1      43.087  23.020  28.408  1.00  0.00     0.044 C 
ENDBRANCH  30  32
ENDBRANCH  22  28
ENDBRANCH   8  13
ENDBRANCH   4   7
ENDBRANCH   2   3
ENDBRANCH   1   2
BRANCH   1  40
ATOM     40  C   UNL A   1      47.523  27.060  32.718  1.00  0.00     0.023 C 
BRANCH  40  41
ATOM     41  C   UNL A   1      46.664  26.326  33.754  1.00  0.00     0.116 C 
BRANCH  41  42
ATOM     42  N   UNL A   1      45.691  25.387  33.202  1.00  0.00    -0.352 N 
ATOM     43  C   UNL A   1      44.307  25.330  33.365  1.00  0.00     0.251 C 
ATOM     44  H   UNL A   1      46.071  24.686  32.625  1.00  0.00     0.163 HD
ATOM     45  O   UNL A   1      43.752  24.248  33.206  1.00  0.00    -0.269 OA
BRANCH  43  46
ATOM     46  C   UNL A   1      43.470  26.546  33.618  1.00  0.00     0.039 A 
ATOM     47  C   UNL A   1      42.373  26.525  34.502  1.00  0.00     0.014 A 
ATOM     48  C   UNL A   1      43.631  27.669  32.824  1.00  0.00     0.014 A 
ATOM     49  C   UNL A   1      41.478  27.617  34.570  1.00  0.00     0.010 A 
ATOM     50  C   UNL A   1      42.744  28.717  32.855  1.00  0.00     0.010 A 
ATOM     51  C   UNL A   1      41.654  28.705  33.714  1.00  0.00    -0.014 A 
BRANCH  51  52
ATOM     52  C   UNL A   1      41.014  30.020  33.792  1.00  0.00     0.031 A 
ATOM     53  C   UNL A   1      40.090  30.265  32.671  1.00  0.00     0.074 A 
ATOM     54  C   UNL A   1      40.914  30.746  34.925  1.00  0.00     0.049 A 
ATOM     55  N   UNL A   1      40.393  31.000  31.653  1.00  0.00    -0.248 NA
ATOM     56  C   UNL A   1      38.835  29.514  32.517  1.00  0.00     0.031 C 
ATOM     57  C   UNL A   1      41.811  30.730  36.069  1.00  0.00     0.029 A 
ATOM     58  N   UNL A   1      39.950  31.643  35.308  1.00  0.00    -0.354 N 
ATOM     59  C   UNL A   1      39.239  31.053  30.899  1.00  0.00     0.074 A 
ATOM     60  C   UNL A   1      38.473  29.897  31.289  1.00  0.00     0.031 C 
ATOM     61  C   UNL A   1      41.300  31.495  37.063  1.00  0.00     0.029 A 
ATOM     62  C   UNL A   1      40.010  32.026  36.649  1.00  0.00     0.049 A 
ATOM     63  H   UNL A   1      39.269  31.989  34.687  1.00  0.00     0.167 HD
ATOM     64  C   UNL A   1      38.852  32.222  30.317  1.00  0.00     0.031 A 
ATOM     65  C   UNL A   1      39.385  33.043  37.306  1.00  0.00     0.031 A 
ATOM     66  C   UNL A   1      39.876  33.240  30.467  1.00  0.00     0.049 A 
ATOM     67  C   UNL A   1      39.194  34.083  36.274  1.00  0.00     0.074 A 
ATOM     68  C   UNL A   1      41.203  33.360  30.103  1.00  0.00     0.029 A 
ATOM     69  N   UNL A   1      39.671  34.166  31.469  1.00  0.00    -0.354 N 
ATOM     70  N   UNL A   1      40.199  34.742  35.773  1.00  0.00    -0.248 NA
ATOM     71  C   UNL A   1      37.992  34.052  35.456  1.00  0.00     0.031 C 
ATOM     72  C   UNL A   1      41.832  34.048  31.181  1.00  0.00     0.029 A 
ATOM     73  C   UNL A   1      40.858  34.392  32.118  1.00  0.00     0.049 A 
ATOM     74  H   UNL A   1      38.811  34.594  31.684  1.00  0.00     0.167 HD
ATOM     75  C   UNL A   1      39.941  34.768  34.412  1.00  0.00     0.074 A 
ATOM     76  C   UNL A   1      38.519  34.440  34.291  1.00  0.00     0.031 C 
ATOM     77  C   UNL A   1      40.964  34.787  33.508  1.00  0.00     0.031 A 
BRANCH  64  78
ATOM     78  C   UNL A   1      37.417  32.590  30.027  1.00  0.00    -0.014 A 
ATOM     79  C   UNL A   1      37.054  32.825  28.686  1.00  0.00     0.010 A 
ATOM     80  C   UNL A   1      36.470  32.940  31.011  1.00  0.00     0.010 A 
ATOM     81  C   UNL A   1      35.852  33.460  28.358  1.00  0.00     0.020 A 
ATOM     82  C   UNL A   1      35.249  33.533  30.694  1.00  0.00     0.020 A 
ATOM     83  C   UNL A   1      34.964  33.823  29.369  1.00  0.00     0.054 A 
BRANCH  83  84
ATOM     84  S   UNL A   1      33.466  34.737  28.945  1.00  0.00     0.124 S 
ATOM     85  O   UNL A   1      34.017  35.961  28.374  1.00  0.00    -0.237 OA
ATOM     86  O   UNL A   1      32.811  33.833  28.005  1.00  0.00    -0.237 OA
ATOM     87  O   UNL A   1      32.788  34.893  30.230  1.00  0.00    -0.744 OA
ENDBRANCH  83  84
ENDBRANCH  64  78
BRANCH  65  88
ATOM     88  C   UNL A   1      38.433  32.893  38.454  1.00  0.00    -0.014 A 
ATOM     89  C   UNL A   1      38.427  33.830  39.508  1.00  0.00     0.010 A 
ATOM     90  C   UNL A   1      37.412  31.924  38.453  1.00  0.00     0.010 A 
ATOM     91  C   UNL A   1      37.415  33.828  40.490  1.00  0.00     0.020 A 
ATOM     92  C   UNL A   1      36.407  31.903  39.437  1.00  0.00     0.020 A 
ATOM     93  C   UNL A   1      36.401  32.870  40.441  1.00  0.00     0.054 A 
BRANCH  93  94
ATOM     94  S   UNL A   1      35.025  32.957  41.634  1.00  0.00     0.124 S 
ATOM     95  O   UNL A   1      35.530  33.904  42.625  1.00  0.00    -0.237 OA
ATOM     96  O   UNL A   1      33.921  33.435  40.808  1.00  0.00    -0.237 OA
ATOM     97  O   UNL A   1      34.894  31.580  42.105  1.00  0.00    -0.744 OA
ENDBRANCH  93  94
ENDBRANCH  65  88
BRANCH  77  98
ATOM     98  C   UNL A   1      42.363  35.041  34.038  1.00  0.00    -0.014 A 
ATOM     99  C   UNL A   1      43.249  34.012  34.413  1.00  0.00     0.010 A 
ATOM    100  C   UNL A   1      42.845  36.358  34.027  1.00  0.00     0.010 A 
ATOM    101  C   UNL A   1      44.574  34.289  34.781  1.00  0.00     0.020 A 
ATOM    102  C   UNL A   1      44.169  36.643  34.379  1.00  0.00     0.020 A 
ATOM    103  C   UNL A   1      45.027  35.609  34.760  1.00  0.00     0.054 A 
BRANCH 103 104
ATOM    104  S   UNL A   1      46.755  35.964  35.185  1.00  0.00     0.124 S 
ATOM    105  O   UNL A   1      47.397  36.026  33.875  1.00  0.00    -0.237 OA
ATOM    106  O   UNL A   1      46.660  37.236  35.897  1.00  0.00    -0.237 OA
ATOM    107  O   UNL A   1      47.151  34.827  36.016  1.00  0.00    -0.744 OA
ENDBRANCH 103 104
ENDBRANCH  77  98
ENDBRANCH  51  52
ENDBRANCH  43  46
ENDBRANCH  41  42
ENDBRANCH  40  41
ENDBRANCH   1  40
TORSDOF 20
ENDMDL
MODEL 3
REMARK VINA RESULT:      -9.3      5.313     10.210
REMARK SMILES CCCSc1nc2n(n1)[C@@H](c1ccccc1C(=O)NCCCCNC(=O)c1ccc(-c3c4nc(c(-c5ccc(S(=O)(=O)[O-])cc5)c5ccc([nH]5)c(-c5ccc(S(=O)(=O)[O-])cc5)c5nc(c(-c6ccc(S(=O)(=O)[O-])cc6)c6ccc3[nH]6)C=C5)C=C4)cc1)C(C(=O)Nc1cccc(C)c1C)=C(C)N2
REMARK SMILES IDX 21 1 20 2 19 3 17 4 18 5 16 7 11 8 12 9 13 10 15 11 14 12
REMARK SMILES IDX 10 13 5 14 6 15 9 16 7 17 8 18 101 19 99 20 87 22 100 23
REMARK SMILES IDX 4 24 3 25 2 26 1 27 88 28 89 29 90 30 91 32 92 33 97 34
REMARK SMILES IDX 93 35 95 36 98 37 94 38 96 39 22 40 23 41 24 42 25 43 26 45
REMARK SMILES IDX 27 46 28 47 86 48 29 49 85 50 30 51 31 52 32 53 79 54 33 55
REMARK SMILES IDX 84 56 78 57 80 58 34 59 83 60 77 61 76 62 35 64 65 65 46 66
REMARK SMILES IDX 64 67 47 68 50 69 63 70 81 71 48 72 49 73 62 75 82 76 51 77
REMARK SMILES IDX 36 78 37 79 45 80 38 81 44 82 39 83 40 84 41 85 42 86 43 87
REMARK SMILES IDX 66 88 67 89 75 90 68 91 74 92 69 93 70 94 71 95 72 96 73 97
REMARK SMILES IDX 52 98 53 99 61 100 54 101 60 102 55 103 56 104 57 105 58 106
REMARK SMILES IDX 59 107
REMARK H PARENT 19 6 101 21 90 31 24 44 80 63 50 74
REMARK Flexibility Score: inf
ROOT
ATOM      1  C   UNL A   1      42.119  24.102  35.888  1.00  0.00     0.023 C 
ENDROOT
BRANCH   1   2
ATOM      2  C   UNL A   1      42.925  23.440  34.759  1.00  0.00     0.116 C 
BRANCH   2   3
ATOM      3  N   UNL A   1      44.372  23.553  34.886  1.00  0.00    -0.352 N 
ATOM      4  C   UNL A   1      45.430  23.393  35.740  1.00  0.00     0.251 C 
ATOM      5  O   UNL A   1      46.497  23.405  35.101  1.00  0.00    -0.269 OA
ATOM      6  H   UNL A   1      44.727  23.863  34.021  1.00  0.00     0.163 HD
BRANCH   4   7
ATOM      7  C   UNL A   1      45.551  23.290  37.252  1.00  0.00     0.045 A 
ATOM      8  C   UNL A   1      46.052  22.276  38.098  1.00  0.00    -0.006 A 
ATOM      9  C   UNL A   1      45.897  22.419  39.515  1.00  0.00     0.007 A 
ATOM     10  C   UNL A   1      45.361  23.556  40.105  1.00  0.00     0.000 A 
ATOM     11  C   UNL A   1      45.073  24.463  37.908  1.00  0.00     0.014 A 
ATOM     12  C   UNL A   1      44.988  24.604  39.297  1.00  0.00     0.001 A 
BRANCH   8  13
ATOM     13  C   UNL A   1      47.001  21.181  37.629  1.00  0.00     0.180 C 
ATOM     14  C   UNL A   1      45.795  18.075  38.761  1.00  0.00     0.210 A 
ATOM     15  N   UNL A   1      46.876  18.180  39.584  1.00  0.00    -0.185 NA
ATOM     16  N   UNL A   1      45.622  19.088  37.898  1.00  0.00    -0.141 NA
ATOM     17  C   UNL A   1      47.447  19.276  39.188  1.00  0.00     0.227 A 
ATOM     18  N   UNL A   1      46.680  19.869  38.226  1.00  0.00    -0.218 N 
ATOM     19  N   UNL A   1      48.591  19.843  39.580  1.00  0.00    -0.328 N 
ATOM     20  C   UNL A   1      49.108  20.989  39.001  1.00  0.00     0.026 C 
ATOM     21  H   UNL A   1      49.091  19.426  40.319  1.00  0.00     0.169 HD
ATOM     22  C   UNL A   1      48.445  21.584  37.980  1.00  0.00     0.065 C 
ATOM     23  C   UNL A   1      50.401  21.448  39.613  1.00  0.00     0.065 C 
BRANCH  14  24
ATOM     24  S   UNL A   1      44.747  16.688  38.839  1.00  0.00    -0.084 SA
BRANCH  24  25
ATOM     25  C   UNL A   1      43.928  16.986  40.446  1.00  0.00     0.078 C 
BRANCH  25  26
ATOM     26  C   UNL A   1      44.571  16.301  41.659  1.00  0.00     0.008 C 
ATOM     27  C   UNL A   1      43.619  15.605  42.623  1.00  0.00     0.005 C 
ENDBRANCH  25  26
ENDBRANCH  24  25
ENDBRANCH  14  24
BRANCH  22  28
ATOM     28  C   UNL A   1      48.996  22.727  37.205  1.00  0.00     0.255 C 
ATOM     29  O   UNL A   1      49.041  23.854  37.679  1.00  0.00    -0.269 OA
ATOM     30  N   UNL A   1      49.361  22.533  35.890  1.00  0.00    -0.322 N 
ATOM     31  H   UNL A   1      49.012  23.129  35.189  1.00  0.00     0.170 HD
BRANCH  30  32
ATOM     32  C   UNL A   1      50.232  21.485  35.551  1.00  0.00     0.044 A 
ATOM     33  C   UNL A   1      49.628  20.516  34.746  1.00  0.00     0.026 A 
ATOM     34  C   UNL A   1      51.625  21.496  35.785  1.00  0.00    -0.025 A 
ATOM     35  C   UNL A   1      50.431  19.726  33.955  1.00  0.00     0.002 A 
ATOM     36  C   UNL A   1      52.414  20.547  35.112  1.00  0.00    -0.046 A 
ATOM     37  C   UNL A   1      52.294  22.521  36.656  1.00  0.00     0.047 C 
ATOM     38  C   UNL A   1      51.813  19.749  34.129  1.00  0.00     0.004 A 
ATOM     39  C   UNL A   1      53.872  20.303  35.393  1.00  0.00     0.044 C 
ENDBRANCH  30  32
ENDBRANCH  22  28
ENDBRANCH   8  13
ENDBRANCH   4   7
ENDBRANCH   2   3
ENDBRANCH   1   2
BRANCH   1  40
ATOM     40  C   UNL A   1      41.709  25.567  35.614  1.00  0.00     0.023 C 
BRANCH  40  41
ATOM     41  C   UNL A   1      41.811  26.529  36.803  1.00  0.00     0.116 C 
BRANCH  41  42
ATOM     42  N   UNL A   1      41.019  27.750  36.686  1.00  0.00    -0.352 N 
ATOM     43  C   UNL A   1      41.161  28.832  35.819  1.00  0.00     0.251 C 
ATOM     44  H   UNL A   1      40.267  27.820  37.319  1.00  0.00     0.163 HD
ATOM     45  O   UNL A   1      40.704  29.915  36.168  1.00  0.00    -0.269 OA
BRANCH  43  46
ATOM     46  C   UNL A   1      41.745  28.698  34.446  1.00  0.00     0.039 A 
ATOM     47  C   UNL A   1      40.941  28.460  33.314  1.00  0.00     0.014 A 
ATOM     48  C   UNL A   1      43.117  28.599  34.289  1.00  0.00     0.014 A 
ATOM     49  C   UNL A   1      41.524  28.135  32.067  1.00  0.00     0.010 A 
ATOM     50  C   UNL A   1      43.690  28.245  33.092  1.00  0.00     0.010 A 
ATOM     51  C   UNL A   1      42.909  27.998  31.972  1.00  0.00    -0.014 A 
BRANCH  51  52
ATOM     52  C   UNL A   1      43.720  27.922  30.754  1.00  0.00     0.031 A 
ATOM     53  C   UNL A   1      43.738  29.192  30.008  1.00  0.00     0.074 A 
ATOM     54  C   UNL A   1      44.676  26.995  30.540  1.00  0.00     0.049 A 
ATOM     55  N   UNL A   1      43.024  29.401  28.952  1.00  0.00    -0.248 NA
ATOM     56  C   UNL A   1      44.399  30.395  30.534  1.00  0.00     0.031 C 
ATOM     57  C   UNL A   1      44.743  25.648  31.084  1.00  0.00     0.029 A 
ATOM     58  N   UNL A   1      45.829  27.081  29.801  1.00  0.00    -0.354 N 
ATOM     59  C   UNL A   1      43.404  30.652  28.510  1.00  0.00     0.074 A 
ATOM     60  C   UNL A   1      43.964  31.310  29.662  1.00  0.00     0.031 C 
ATOM     61  C   UNL A   1      45.923  25.075  30.746  1.00  0.00     0.029 A 
ATOM     62  C   UNL A   1      46.726  26.029  29.995  1.00  0.00     0.049 A 
ATOM     63  H   UNL A   1      46.009  27.825  29.183  1.00  0.00     0.167 HD
ATOM     64  C   UNL A   1      43.574  30.888  27.179  1.00  0.00     0.031 A 
ATOM     65  C   UNL A   1      47.830  25.666  29.283  1.00  0.00     0.031 A 
ATOM     66  C   UNL A   1      43.138  29.750  26.390  1.00  0.00     0.049 A 
ATOM     67  C   UNL A   1      47.538  26.110  27.905  1.00  0.00     0.074 A 
ATOM     68  C   UNL A   1      41.954  29.056  26.238  1.00  0.00     0.029 A 
ATOM     69  N   UNL A   1      44.133  28.911  25.933  1.00  0.00    -0.354 N 
ATOM     70  N   UNL A   1      46.622  25.536  27.180  1.00  0.00    -0.248 NA
ATOM     71  C   UNL A   1      47.894  27.464  27.511  1.00  0.00     0.031 C 
ATOM     72  C   UNL A   1      42.330  27.689  26.092  1.00  0.00     0.029 A 
ATOM     73  C   UNL A   1      43.722  27.610  26.080  1.00  0.00     0.049 A 
ATOM     74  H   UNL A   1      44.998  29.199  25.563  1.00  0.00     0.167 HD
ATOM     75  C   UNL A   1      45.947  26.592  26.589  1.00  0.00     0.074 A 
ATOM     76  C   UNL A   1      46.846  27.739  26.729  1.00  0.00     0.031 C 
ATOM     77  C   UNL A   1      44.620  26.491  26.288  1.00  0.00     0.031 A 
BRANCH  64  78
ATOM     78  C   UNL A   1      44.526  31.914  26.616  1.00  0.00    -0.014 A 
ATOM     79  C   UNL A   1      45.909  31.682  26.763  1.00  0.00     0.010 A 
ATOM     80  C   UNL A   1      44.143  33.192  26.161  1.00  0.00     0.010 A 
ATOM     81  C   UNL A   1      46.844  32.701  26.555  1.00  0.00     0.020 A 
ATOM     82  C   UNL A   1      45.069  34.203  25.908  1.00  0.00     0.020 A 
ATOM     83  C   UNL A   1      46.413  33.961  26.144  1.00  0.00     0.054 A 
BRANCH  83  84
ATOM     84  S   UNL A   1      47.615  35.298  25.982  1.00  0.00     0.124 S 
ATOM     85  O   UNL A   1      48.414  34.843  24.850  1.00  0.00    -0.237 OA
ATOM     86  O   UNL A   1      46.757  36.453  25.734  1.00  0.00    -0.237 OA
ATOM     87  O   UNL A   1      48.298  35.299  27.273  1.00  0.00    -0.744 OA
ENDBRANCH  83  84
ENDBRANCH  64  78
BRANCH  65  88
ATOM     88  C   UNL A   1      49.231  25.605  29.808  1.00  0.00    -0.014 A 
ATOM     89  C   UNL A   1      50.330  25.792  28.943  1.00  0.00     0.010 A 
ATOM     90  C   UNL A   1      49.509  25.524  31.185  1.00  0.00     0.010 A 
ATOM     91  C   UNL A   1      51.642  25.940  29.439  1.00  0.00     0.020 A 
ATOM     92  C   UNL A   1      50.816  25.655  31.690  1.00  0.00     0.020 A 
ATOM     93  C   UNL A   1      51.875  25.884  30.814  1.00  0.00     0.054 A 
BRANCH  93  94
ATOM     94  S   UNL A   1      53.551  26.210  31.454  1.00  0.00     0.124 S 
ATOM     95  O   UNL A   1      54.274  26.610  30.249  1.00  0.00    -0.237 OA
ATOM     96  O   UNL A   1      53.316  27.270  32.429  1.00  0.00    -0.237 OA
ATOM     97  O   UNL A   1      53.956  24.926  32.022  1.00  0.00    -0.744 OA
ENDBRANCH  93  94
ENDBRANCH  65  88
BRANCH  77  98
ATOM     98  C   UNL A   1      43.983  25.117  26.377  1.00  0.00    -0.014 A 
ATOM     99  C   UNL A   1      43.433  24.593  27.564  1.00  0.00     0.010 A 
ATOM    100  C   UNL A   1      43.813  24.388  25.192  1.00  0.00     0.010 A 
ATOM    101  C   UNL A   1      42.747  23.369  27.571  1.00  0.00     0.020 A 
ATOM    102  C   UNL A   1      43.118  23.174  25.185  1.00  0.00     0.020 A 
ATOM    103  C   UNL A   1      42.593  22.666  26.376  1.00  0.00     0.054 A 
BRANCH 103 104
ATOM    104  S   UNL A   1      41.659  21.109  26.374  1.00  0.00     0.124 S 
ATOM    105  O   UNL A   1      41.697  20.715  27.780  1.00  0.00    -0.237 OA
ATOM    106  O   UNL A   1      40.349  21.517  25.873  1.00  0.00    -0.237 OA
ATOM    107  O   UNL A   1      42.419  20.248  25.468  1.00  0.00    -0.744 OA
ENDBRANCH 103 104
ENDBRANCH  77  98
ENDBRANCH  51  52
ENDBRANCH  43  46
ENDBRANCH  41  42
ENDBRANCH  40  41
ENDBRANCH   1  40
TORSDOF 20
ENDMDL
