MODEL 1
REMARK VINA RESULT:     -13.6      0.000      0.000
REMARK SMILES O=C(COc1ccccc1/C=C1/SC(=S)N(c2ccc(F)c(Cl)c2)C1=O)NCCCCNC(=O)c1ccc(-c2c3nc(c(-c4ccc(S(=O)(=O)[O-])cc4)c4ccc([nH]4)c(-c4ccc(S(=O)(=O)[O-])cc4)c4nc(c(-c5ccc(S(=O)(=O)[O-])cc5)c5ccc2[nH]5)C=C4)C=C3)cc1
REMARK SMILES IDX 29 1 28 2 27 3 1 4 2 5 3 7 4 8 5 9 6 10 10 11 7 12 9 13 8 14
REMARK SMILES IDX 11 15 12 16 13 17 25 18 14 19 16 20 26 21 15 22 17 23 18 24
REMARK SMILES IDX 24 25 19 26 22 27 20 28 23 29 21 30 30 31 31 32 32 33 33 34
REMARK SMILES IDX 34 36 35 37 36 38 94 39 37 40 93 41 38 42 39 43 40 44 87 45
REMARK SMILES IDX 41 46 92 47 86 48 88 49 42 50 91 51 85 52 84 53 43 55 73 56
REMARK SMILES IDX 54 57 72 58 55 59 58 60 71 61 89 62 56 63 57 64 70 66 90 67
REMARK SMILES IDX 59 68 44 69 45 70 53 71 46 72 52 73 47 74 48 75 49 76 50 77
REMARK SMILES IDX 51 78 74 79 75 80 83 81 76 82 82 83 77 84 78 85 79 86 80 87
REMARK SMILES IDX 81 88 60 89 61 90 69 91 62 92 68 93 63 94 64 95 65 96 66 97
REMARK SMILES IDX 67 98
REMARK H PARENT 27 6 32 35 88 54 58 65
REMARK Flexibility Score: inf
ROOT
ATOM      1  C   UNL A   1      34.313  28.940  26.077  1.00  0.00     0.023 C 
ENDROOT
BRANCH   1   2
ATOM      2  C   UNL A   1      32.968  29.508  25.208  1.00  0.00     0.116 C 
BRANCH   2   3
ATOM      3  N   UNL A   1      31.476  28.502  24.117  1.00  0.00    -0.353 N 
ATOM      4  O   UNL A   1      30.436  29.018  21.950  1.00  0.00    -0.271 OA
ATOM      5  C   UNL A   1      30.718  28.252  22.866  1.00  0.00     0.257 C 
ATOM      6  H   UNL A   1      31.077  27.881  24.769  1.00  0.00     0.163 HD
BRANCH   5   7
ATOM      7  C   UNL A   1      30.285  26.783  22.756  1.00  0.00     0.329 C 
BRANCH   7   8
ATOM      8  O   UNL A   1      31.349  25.861  22.912  1.00  0.00    -0.483 OA
BRANCH   8   9
ATOM      9  C   UNL A   1      31.454  25.229  24.132  1.00  0.00     0.127 A 
ATOM     10  C   UNL A   1      30.260  25.263  24.862  1.00  0.00     0.047 A 
ATOM     11  C   UNL A   1      32.654  24.795  24.753  1.00  0.00     0.018 A 
ATOM     12  C   UNL A   1      30.235  24.879  26.199  1.00  0.00     0.004 A 
ATOM     13  C   UNL A   1      32.606  24.415  26.103  1.00  0.00     0.012 A 
ATOM     14  C   UNL A   1      31.409  24.468  26.823  1.00  0.00     0.001 A 
BRANCH  11  15
ATOM     15  C   UNL A   1      33.984  24.764  24.122  1.00  0.00     0.033 C 
ATOM     16  C   UNL A   1      34.476  23.607  23.641  1.00  0.00     0.081 C 
ATOM     17  S   UNL A   1      36.733  23.314  23.842  1.00  0.00    -0.054 SA
ATOM     18  C   UNL A   1      33.523  21.902  23.901  1.00  0.00     0.270 C 
ATOM     19  C   UNL A   1      36.473  21.092  24.548  1.00  0.00     0.152 C 
ATOM     20  N   UNL A   1      34.724  20.608  24.372  1.00  0.00    -0.261 N 
ATOM     21  O   UNL A   1      32.327  21.758  23.691  1.00  0.00    -0.268 OA
ATOM     22  S   UNL A   1      37.800  20.348  25.280  1.00  0.00    -0.051 S 
BRANCH  20  23
ATOM     23  C   UNL A   1      34.194  19.297  24.682  1.00  0.00     0.052 A 
ATOM     24  C   UNL A   1      32.826  19.150  24.987  1.00  0.00     0.030 A 
ATOM     25  C   UNL A   1      34.975  18.139  24.695  1.00  0.00     0.050 A 
ATOM     26  C   UNL A   1      32.263  17.909  25.301  1.00  0.00     0.043 A 
ATOM     27  C   UNL A   1      34.413  16.890  25.009  1.00  0.00     0.078 A 
ATOM     28  C   UNL A   1      33.062  16.780  25.313  1.00  0.00     0.141 A 
ATOM     29  Cl  UNL A   1      35.423  15.496  25.033  1.00  0.00    -0.081 Cl
ATOM     30  F   UNL A   1      32.511  15.601  25.625  1.00  0.00    -0.205 F 
ENDBRANCH  20  23
ENDBRANCH  11  15
ENDBRANCH   8   9
ENDBRANCH   7   8
ENDBRANCH   5   7
ENDBRANCH   2   3
ENDBRANCH   1   2
BRANCH   1  31
ATOM     31  C   UNL A   1      34.352  29.192  27.590  1.00  0.00     0.023 C 
BRANCH  31  32
ATOM     32  C   UNL A   1      35.582  29.921  28.110  1.00  0.00     0.116 C 
BRANCH  32  33
ATOM     33  N   UNL A   1      35.532  30.165  29.539  1.00  0.00    -0.352 N 
ATOM     34  C   UNL A   1      36.523  29.879  30.452  1.00  0.00     0.251 C 
ATOM     35  H   UNL A   1      34.710  30.576  29.890  1.00  0.00     0.163 HD
ATOM     36  O   UNL A   1      36.323  29.984  31.656  1.00  0.00    -0.269 OA
BRANCH  34  37
ATOM     37  C   UNL A   1      37.826  29.409  29.936  1.00  0.00     0.039 A 
ATOM     38  C   UNL A   1      38.187  29.706  28.622  1.00  0.00     0.014 A 
ATOM     39  C   UNL A   1      38.724  28.769  30.798  1.00  0.00     0.014 A 
ATOM     40  C   UNL A   1      39.472  29.388  28.178  1.00  0.00     0.010 A 
ATOM     41  C   UNL A   1      40.028  28.533  30.377  1.00  0.00     0.010 A 
ATOM     42  C   UNL A   1      40.409  28.816  29.056  1.00  0.00    -0.014 A 
BRANCH  42  43
ATOM     43  C   UNL A   1      41.772  28.450  28.591  1.00  0.00     0.031 A 
ATOM     44  C   UNL A   1      42.849  29.502  28.549  1.00  0.00     0.074 A 
ATOM     45  C   UNL A   1      42.034  27.193  28.180  1.00  0.00     0.049 A 
ATOM     46  N   UNL A   1      44.093  29.395  28.161  1.00  0.00    -0.248 NA
ATOM     47  C   UNL A   1      42.469  30.862  28.969  1.00  0.00     0.031 C 
ATOM     48  C   UNL A   1      41.065  26.095  28.130  1.00  0.00     0.029 A 
ATOM     49  N   UNL A   1      43.200  26.626  27.729  1.00  0.00    -0.354 N 
ATOM     50  C   UNL A   1      44.632  30.673  28.265  1.00  0.00     0.074 A 
ATOM     51  C   UNL A   1      43.567  31.549  28.695  1.00  0.00     0.031 C 
ATOM     52  C   UNL A   1      41.688  24.979  27.715  1.00  0.00     0.029 A 
ATOM     53  C   UNL A   1      43.087  25.287  27.435  1.00  0.00     0.049 A 
ATOM     54  H   UNL A   1      44.039  27.131  27.627  1.00  0.00     0.167 HD
ATOM     55  C   UNL A   1      45.905  31.079  28.051  1.00  0.00     0.031 A 
ATOM     56  C   UNL A   1      44.008  24.406  26.995  1.00  0.00     0.031 A 
ATOM     57  C   UNL A   1      46.971  30.198  27.656  1.00  0.00     0.049 A 
ATOM     58  C   UNL A   1      45.422  24.877  26.776  1.00  0.00     0.074 A 
ATOM     59  C   UNL A   1      48.310  30.493  27.480  1.00  0.00     0.029 A 
ATOM     60  N   UNL A   1      46.816  28.848  27.378  1.00  0.00    -0.354 N 
ATOM     61  N   UNL A   1      45.930  26.075  26.953  1.00  0.00    -0.248 NA
ATOM     62  C   UNL A   1      46.392  23.875  26.311  1.00  0.00     0.031 C 
ATOM     63  C   UNL A   1      48.957  29.332  27.047  1.00  0.00     0.029 A 
ATOM     64  C   UNL A   1      48.031  28.301  27.010  1.00  0.00     0.049 A 
ATOM     65  H   UNL A   1      45.966  28.353  27.435  1.00  0.00     0.167 HD
ATOM     66  C   UNL A   1      47.282  25.963  26.647  1.00  0.00     0.074 A 
ATOM     67  C   UNL A   1      47.516  24.578  26.291  1.00  0.00     0.031 C 
ATOM     68  C   UNL A   1      48.244  26.918  26.662  1.00  0.00     0.031 A 
BRANCH  55  69
ATOM     69  C   UNL A   1      46.211  32.542  28.240  1.00  0.00    -0.014 A 
ATOM     70  C   UNL A   1      46.603  33.050  29.492  1.00  0.00     0.010 A 
ATOM     71  C   UNL A   1      46.128  33.419  27.143  1.00  0.00     0.010 A 
ATOM     72  C   UNL A   1      46.856  34.414  29.655  1.00  0.00     0.020 A 
ATOM     73  C   UNL A   1      46.411  34.779  27.295  1.00  0.00     0.020 A 
ATOM     74  C   UNL A   1      46.755  35.271  28.556  1.00  0.00     0.054 A 
BRANCH  74  75
ATOM     75  S   UNL A   1      47.106  37.034  28.794  1.00  0.00     0.124 S 
ATOM     76  O   UNL A   1      46.040  37.660  28.014  1.00  0.00    -0.237 OA
ATOM     77  O   UNL A   1      46.998  37.191  30.242  1.00  0.00    -0.237 OA
ATOM     78  O   UNL A   1      48.452  37.196  28.251  1.00  0.00    -0.744 OA
ENDBRANCH  74  75
ENDBRANCH  55  69
BRANCH  56  79
ATOM     79  C   UNL A   1      43.634  22.983  26.767  1.00  0.00    -0.014 A 
ATOM     80  C   UNL A   1      44.098  22.297  25.630  1.00  0.00     0.010 A 
ATOM     81  C   UNL A   1      42.819  22.301  27.689  1.00  0.00     0.010 A 
ATOM     82  C   UNL A   1      43.740  20.964  25.409  1.00  0.00     0.020 A 
ATOM     83  C   UNL A   1      42.481  20.958  27.485  1.00  0.00     0.020 A 
ATOM     84  C   UNL A   1      42.935  20.301  26.340  1.00  0.00     0.054 A 
BRANCH  84  85
ATOM     85  S   UNL A   1      42.526  18.556  26.056  1.00  0.00     0.124 S 
ATOM     86  O   UNL A   1      42.882  17.948  27.334  1.00  0.00    -0.237 OA
ATOM     87  O   UNL A   1      41.097  18.612  25.758  1.00  0.00    -0.237 OA
ATOM     88  O   UNL A   1      43.375  18.186  24.926  1.00  0.00    -0.744 OA
ENDBRANCH  84  85
ENDBRANCH  56  79
BRANCH  68  89
ATOM     89  C   UNL A   1      49.647  26.497  26.315  1.00  0.00    -0.014 A 
ATOM     90  C   UNL A   1      50.170  26.695  25.026  1.00  0.00     0.010 A 
ATOM     91  C   UNL A   1      50.475  25.956  27.316  1.00  0.00     0.010 A 
ATOM     92  C   UNL A   1      51.488  26.331  24.736  1.00  0.00     0.020 A 
ATOM     93  C   UNL A   1      51.801  25.617  27.038  1.00  0.00     0.020 A 
ATOM     94  C   UNL A   1      52.295  25.794  25.745  1.00  0.00     0.054 A 
BRANCH  94  95
ATOM     95  S   UNL A   1      54.016  25.375  25.355  1.00  0.00     0.124 S 
ATOM     96  O   UNL A   1      54.335  26.345  24.311  1.00  0.00    -0.237 OA
ATOM     97  O   UNL A   1      54.693  25.579  26.632  1.00  0.00    -0.237 OA
ATOM     98  O   UNL A   1      53.942  23.985  24.912  1.00  0.00    -0.744 OA
ENDBRANCH  94  95
ENDBRANCH  68  89
ENDBRANCH  42  43
ENDBRANCH  34  37
ENDBRANCH  32  33
ENDBRANCH  31  32
ENDBRANCH   1  31
TORSDOF 18
ENDMDL
MODEL 2
REMARK VINA RESULT:     -13.2      0.662      7.893
REMARK SMILES O=C(COc1ccccc1/C=C1/SC(=S)N(c2ccc(F)c(Cl)c2)C1=O)NCCCCNC(=O)c1ccc(-c2c3nc(c(-c4ccc(S(=O)(=O)[O-])cc4)c4ccc([nH]4)c(-c4ccc(S(=O)(=O)[O-])cc4)c4nc(c(-c5ccc(S(=O)(=O)[O-])cc5)c5ccc2[nH]5)C=C4)C=C3)cc1
REMARK SMILES IDX 29 1 28 2 27 3 1 4 2 5 3 7 4 8 5 9 6 10 10 11 7 12 9 13 8 14
REMARK SMILES IDX 11 15 12 16 13 17 25 18 14 19 16 20 26 21 15 22 17 23 18 24
REMARK SMILES IDX 24 25 19 26 22 27 20 28 23 29 21 30 30 31 31 32 32 33 33 34
REMARK SMILES IDX 34 36 35 37 36 38 94 39 37 40 93 41 38 42 39 43 40 44 87 45
REMARK SMILES IDX 41 46 92 47 86 48 88 49 42 50 91 51 85 52 84 53 43 55 73 56
REMARK SMILES IDX 54 57 72 58 55 59 58 60 71 61 89 62 56 63 57 64 70 66 90 67
REMARK SMILES IDX 59 68 44 69 45 70 53 71 46 72 52 73 47 74 48 75 49 76 50 77
REMARK SMILES IDX 51 78 74 79 75 80 83 81 76 82 82 83 77 84 78 85 79 86 80 87
REMARK SMILES IDX 81 88 60 89 61 90 69 91 62 92 68 93 63 94 64 95 65 96 66 97
REMARK SMILES IDX 67 98
REMARK H PARENT 27 6 32 35 88 54 58 65
REMARK Flexibility Score: inf
ROOT
ATOM      1  C   UNL A   1      34.283  28.546  26.215  1.00  0.00     0.023 C 
ENDROOT
BRANCH   1   2
ATOM      2  C   UNL A   1      33.273  29.291  25.070  1.00  0.00     0.116 C 
BRANCH   2   3
ATOM      3  N   UNL A   1      31.669  28.556  23.923  1.00  0.00    -0.353 N 
ATOM      4  O   UNL A   1      30.680  29.365  21.824  1.00  0.00    -0.271 OA
ATOM      5  C   UNL A   1      30.881  28.498  22.668  1.00  0.00     0.257 C 
ATOM      6  H   UNL A   1      31.207  27.930  24.528  1.00  0.00     0.163 HD
BRANCH   5   7
ATOM      7  C   UNL A   1      30.283  27.102  22.443  1.00  0.00     0.329 C 
BRANCH   7   8
ATOM      8  O   UNL A   1      31.224  26.051  22.573  1.00  0.00    -0.483 OA
BRANCH   8   9
ATOM      9  C   UNL A   1      31.329  25.457  23.812  1.00  0.00     0.127 A 
ATOM     10  C   UNL A   1      30.139  25.522  24.545  1.00  0.00     0.047 A 
ATOM     11  C   UNL A   1      32.529  25.032  24.441  1.00  0.00     0.018 A 
ATOM     12  C   UNL A   1      30.117  25.180  25.893  1.00  0.00     0.004 A 
ATOM     13  C   UNL A   1      32.484  24.694  25.802  1.00  0.00     0.012 A 
ATOM     14  C   UNL A   1      31.291  24.780  26.525  1.00  0.00     0.001 A 
BRANCH  11  15
ATOM     15  C   UNL A   1      33.855  24.971  23.805  1.00  0.00     0.033 C 
ATOM     16  C   UNL A   1      34.360  23.788  23.408  1.00  0.00     0.081 C 
ATOM     17  S   UNL A   1      36.622  23.539  23.617  1.00  0.00    -0.054 SA
ATOM     18  C   UNL A   1      33.431  22.095  23.800  1.00  0.00     0.270 C 
ATOM     19  C   UNL A   1      36.395  21.373  24.488  1.00  0.00     0.152 C 
ATOM     20  N   UNL A   1      34.651  20.855  24.359  1.00  0.00    -0.261 N 
ATOM     21  O   UNL A   1      32.236  21.920  23.609  1.00  0.00    -0.268 OA
ATOM     22  S   UNL A   1      37.735  20.703  25.264  1.00  0.00    -0.051 S 
BRANCH  20  23
ATOM     23  C   UNL A   1      34.140  19.564  24.769  1.00  0.00     0.052 A 
ATOM     24  C   UNL A   1      32.904  19.482  25.439  1.00  0.00     0.030 A 
ATOM     25  C   UNL A   1      34.813  18.364  24.531  1.00  0.00     0.050 A 
ATOM     26  C   UNL A   1      32.366  18.263  25.865  1.00  0.00     0.043 A 
ATOM     27  C   UNL A   1      34.276  17.136  24.956  1.00  0.00     0.078 A 
ATOM     28  C   UNL A   1      33.058  17.091  25.622  1.00  0.00     0.141 A 
ATOM     29  Cl  UNL A   1      35.156  15.687  24.659  1.00  0.00    -0.081 Cl
ATOM     30  F   UNL A   1      32.537  15.932  26.044  1.00  0.00    -0.205 F 
ENDBRANCH  20  23
ENDBRANCH  11  15
ENDBRANCH   8   9
ENDBRANCH   7   8
ENDBRANCH   5   7
ENDBRANCH   2   3
ENDBRANCH   1   2
BRANCH   1  31
ATOM     31  C   UNL A   1      34.255  29.077  27.655  1.00  0.00     0.023 C 
BRANCH  31  32
ATOM     32  C   UNL A   1      35.583  29.580  28.202  1.00  0.00     0.116 C 
BRANCH  32  33
ATOM     33  N   UNL A   1      35.524  29.908  29.614  1.00  0.00    -0.352 N 
ATOM     34  C   UNL A   1      36.552  29.793  30.523  1.00  0.00     0.251 C 
ATOM     35  H   UNL A   1      34.665  30.246  29.955  1.00  0.00     0.163 HD
ATOM     36  O   UNL A   1      36.357  29.952  31.722  1.00  0.00    -0.269 OA
BRANCH  34  37
ATOM     37  C   UNL A   1      37.893  29.439  30.011  1.00  0.00     0.039 A 
ATOM     38  C   UNL A   1      38.247  29.806  28.713  1.00  0.00     0.014 A 
ATOM     39  C   UNL A   1      38.826  28.840  30.866  1.00  0.00     0.014 A 
ATOM     40  C   UNL A   1      39.558  29.600  28.278  1.00  0.00     0.010 A 
ATOM     41  C   UNL A   1      40.149  28.717  30.456  1.00  0.00     0.010 A 
ATOM     42  C   UNL A   1      40.524  29.072  29.151  1.00  0.00    -0.014 A 
BRANCH  42  43
ATOM     43  C   UNL A   1      41.916  28.824  28.695  1.00  0.00     0.031 A 
ATOM     44  C   UNL A   1      42.295  27.461  28.177  1.00  0.00     0.074 A 
ATOM     45  C   UNL A   1      42.842  29.801  28.773  1.00  0.00     0.049 A 
ATOM     46  N   UNL A   1      43.454  27.033  27.748  1.00  0.00    -0.248 NA
ATOM     47  C   UNL A   1      41.239  26.434  28.168  1.00  0.00     0.031 C 
ATOM     48  C   UNL A   1      42.612  31.150  29.298  1.00  0.00     0.029 A 
ATOM     49  N   UNL A   1      44.164  29.811  28.405  1.00  0.00    -0.354 N 
ATOM     50  C   UNL A   1      43.271  25.688  27.446  1.00  0.00     0.074 A 
ATOM     51  C   UNL A   1      41.910  25.355  27.796  1.00  0.00     0.031 C 
ATOM     52  C   UNL A   1      43.742  31.866  29.178  1.00  0.00     0.029 A 
ATOM     53  C   UNL A   1      44.785  31.021  28.604  1.00  0.00     0.049 A 
ATOM     54  H   UNL A   1      44.624  29.024  28.032  1.00  0.00     0.167 HD
ATOM     55  C   UNL A   1      44.147  24.812  26.901  1.00  0.00     0.031 A 
ATOM     56  C   UNL A   1      46.051  31.409  28.347  1.00  0.00     0.031 A 
ATOM     57  C   UNL A   1      45.491  25.155  26.523  1.00  0.00     0.049 A 
ATOM     58  C   UNL A   1      47.005  30.422  27.727  1.00  0.00     0.074 A 
ATOM     59  C   UNL A   1      46.438  24.363  25.898  1.00  0.00     0.029 A 
ATOM     60  N   UNL A   1      46.078  26.394  26.732  1.00  0.00    -0.354 N 
ATOM     61  N   UNL A   1      46.791  29.174  27.378  1.00  0.00    -0.248 NA
ATOM     62  C   UNL A   1      48.368  30.898  27.452  1.00  0.00     0.031 C 
ATOM     63  C   UNL A   1      47.614  25.108  25.775  1.00  0.00     0.029 A 
ATOM     64  C   UNL A   1      47.381  26.383  26.270  1.00  0.00     0.049 A 
ATOM     65  H   UNL A   1      45.632  27.168  27.148  1.00  0.00     0.167 HD
ATOM     66  C   UNL A   1      47.983  28.726  26.820  1.00  0.00     0.074 A 
ATOM     67  C   UNL A   1      48.908  29.841  26.861  1.00  0.00     0.031 C 
ATOM     68  C   UNL A   1      48.285  27.505  26.317  1.00  0.00     0.031 A 
BRANCH  55  69
ATOM     69  C   UNL A   1      43.674  23.398  26.683  1.00  0.00    -0.014 A 
ATOM     70  C   UNL A   1      43.699  22.809  25.406  1.00  0.00     0.010 A 
ATOM     71  C   UNL A   1      43.221  22.638  27.777  1.00  0.00     0.010 A 
ATOM     72  C   UNL A   1      43.231  21.506  25.217  1.00  0.00     0.020 A 
ATOM     73  C   UNL A   1      42.782  21.324  27.598  1.00  0.00     0.020 A 
ATOM     74  C   UNL A   1      42.771  20.772  26.315  1.00  0.00     0.054 A 
BRANCH  74  75
ATOM     75  S   UNL A   1      42.187  19.077  26.043  1.00  0.00     0.124 S 
ATOM     76  O   UNL A   1      42.983  18.667  24.889  1.00  0.00    -0.237 OA
ATOM     77  O   UNL A   1      42.520  18.417  27.302  1.00  0.00    -0.237 OA
ATOM     78  O   UNL A   1      40.758  19.240  25.787  1.00  0.00    -0.744 OA
ENDBRANCH  74  75
ENDBRANCH  55  69
BRANCH  56  79
ATOM     79  C   UNL A   1      46.480  32.804  28.640  1.00  0.00    -0.014 A 
ATOM     80  C   UNL A   1      47.023  33.135  29.895  1.00  0.00     0.010 A 
ATOM     81  C   UNL A   1      46.359  33.811  27.664  1.00  0.00     0.010 A 
ATOM     82  C   UNL A   1      47.419  34.446  30.175  1.00  0.00     0.020 A 
ATOM     83  C   UNL A   1      46.779  35.118  27.931  1.00  0.00     0.020 A 
ATOM     84  C   UNL A   1      47.296  35.431  29.190  1.00  0.00     0.054 A 
BRANCH  84  85
ATOM     85  S   UNL A   1      47.862  37.114  29.561  1.00  0.00     0.124 S 
ATOM     86  O   UNL A   1      48.810  36.884  30.647  1.00  0.00    -0.237 OA
ATOM     87  O   UNL A   1      48.446  37.538  28.291  1.00  0.00    -0.237 OA
ATOM     88  O   UNL A   1      46.635  37.812  29.937  1.00  0.00    -0.744 OA
ENDBRANCH  84  85
ENDBRANCH  56  79
BRANCH  68  89
ATOM     89  C   UNL A   1      49.661  27.312  25.737  1.00  0.00    -0.014 A 
ATOM     90  C   UNL A   1      50.712  26.788  26.509  1.00  0.00     0.010 A 
ATOM     91  C   UNL A   1      49.885  27.599  24.378  1.00  0.00     0.010 A 
ATOM     92  C   UNL A   1      51.971  26.584  25.940  1.00  0.00     0.020 A 
ATOM     93  C   UNL A   1      51.135  27.369  23.798  1.00  0.00     0.020 A 
ATOM     94  C   UNL A   1      52.175  26.875  24.587  1.00  0.00     0.054 A 
BRANCH  94  95
ATOM     95  S   UNL A   1      53.805  26.554  23.861  1.00  0.00     0.124 S 
ATOM     96  O   UNL A   1      54.373  25.594  24.803  1.00  0.00    -0.237 OA
ATOM     97  O   UNL A   1      53.471  26.021  22.543  1.00  0.00    -0.237 OA
ATOM     98  O   UNL A   1      54.444  27.868  23.851  1.00  0.00    -0.744 OA
ENDBRANCH  94  95
ENDBRANCH  68  89
ENDBRANCH  42  43
ENDBRANCH  34  37
ENDBRANCH  32  33
ENDBRANCH  31  32
ENDBRANCH   1  31
TORSDOF 18
ENDMDL
MODEL 3
REMARK VINA RESULT:     -13.2      6.313     13.087
REMARK SMILES O=C(COc1ccccc1/C=C1/SC(=S)N(c2ccc(F)c(Cl)c2)C1=O)NCCCCNC(=O)c1ccc(-c2c3nc(c(-c4ccc(S(=O)(=O)[O-])cc4)c4ccc([nH]4)c(-c4ccc(S(=O)(=O)[O-])cc4)c4nc(c(-c5ccc(S(=O)(=O)[O-])cc5)c5ccc2[nH]5)C=C4)C=C3)cc1
REMARK SMILES IDX 29 1 28 2 27 3 1 4 2 5 3 7 4 8 5 9 6 10 10 11 7 12 9 13 8 14
REMARK SMILES IDX 11 15 12 16 13 17 25 18 14 19 16 20 26 21 15 22 17 23 18 24
REMARK SMILES IDX 24 25 19 26 22 27 20 28 23 29 21 30 30 31 31 32 32 33 33 34
REMARK SMILES IDX 34 36 35 37 36 38 94 39 37 40 93 41 38 42 39 43 40 44 87 45
REMARK SMILES IDX 41 46 92 47 86 48 88 49 42 50 91 51 85 52 84 53 43 55 73 56
REMARK SMILES IDX 54 57 72 58 55 59 58 60 71 61 89 62 56 63 57 64 70 66 90 67
REMARK SMILES IDX 59 68 44 69 45 70 53 71 46 72 52 73 47 74 48 75 49 76 50 77
REMARK SMILES IDX 51 78 74 79 75 80 83 81 76 82 82 83 77 84 78 85 79 86 80 87
REMARK SMILES IDX 81 88 60 89 61 90 69 91 62 92 68 93 63 94 64 95 65 96 66 97
REMARK SMILES IDX 67 98
REMARK H PARENT 27 6 32 35 88 54 58 65
REMARK Flexibility Score: inf
ROOT
ATOM      1  C   UNL A   1      42.408  23.012  27.606  1.00  0.00     0.023 C 
ENDROOT
BRANCH   1   2
ATOM      2  C   UNL A   1      44.101  22.877  27.532  1.00  0.00     0.116 C 
BRANCH   2   3
ATOM      3  N   UNL A   1      45.455  23.066  25.933  1.00  0.00    -0.353 N 
ATOM      4  O   UNL A   1      45.115  22.920  23.503  1.00  0.00    -0.271 OA
ATOM      5  C   UNL A   1      45.756  23.258  24.493  1.00  0.00     0.257 C 
ATOM      6  H   UNL A   1      46.341  22.987  26.356  1.00  0.00     0.163 HD
BRANCH   5   7
ATOM      7  C   UNL A   1      47.065  24.034  24.291  1.00  0.00     0.329 C 
BRANCH   7   8
ATOM      8  O   UNL A   1      46.986  25.396  24.670  1.00  0.00    -0.483 OA
BRANCH   8   9
ATOM      9  C   UNL A   1      47.249  25.694  25.988  1.00  0.00     0.127 A 
ATOM     10  C   UNL A   1      48.396  25.052  26.468  1.00  0.00     0.047 A 
ATOM     11  C   UNL A   1      46.378  26.360  26.890  1.00  0.00     0.018 A 
ATOM     12  C   UNL A   1      48.693  25.052  27.828  1.00  0.00     0.004 A 
ATOM     13  C   UNL A   1      46.696  26.345  28.257  1.00  0.00     0.012 A 
ATOM     14  C   UNL A   1      47.836  25.686  28.723  1.00  0.00     0.001 A 
BRANCH  11  15
ATOM     15  C   UNL A   1      45.115  27.025  26.529  1.00  0.00     0.033 C 
ATOM     16  C   UNL A   1      45.104  28.338  26.234  1.00  0.00     0.081 C 
ATOM     17  S   UNL A   1      43.245  29.499  26.884  1.00  0.00    -0.054 SA
ATOM     18  C   UNL A   1      46.722  29.445  26.426  1.00  0.00     0.270 C 
ATOM     19  C   UNL A   1      44.533  31.290  27.682  1.00  0.00     0.152 C 
ATOM     20  N   UNL A   1      46.274  31.034  27.209  1.00  0.00    -0.261 N 
ATOM     21  O   UNL A   1      47.821  29.115  26.001  1.00  0.00    -0.268 OA
ATOM     22  S   UNL A   1      43.774  32.398  28.705  1.00  0.00    -0.051 S 
BRANCH  20  23
ATOM     23  C   UNL A   1      47.354  31.952  27.504  1.00  0.00     0.052 A 
ATOM     24  C   UNL A   1      47.974  31.921  28.768  1.00  0.00     0.030 A 
ATOM     25  C   UNL A   1      47.835  32.889  26.585  1.00  0.00     0.050 A 
ATOM     26  C   UNL A   1      49.016  32.789  29.110  1.00  0.00     0.043 A 
ATOM     27  C   UNL A   1      48.883  33.763  26.923  1.00  0.00     0.078 A 
ATOM     28  C   UNL A   1      49.466  33.711  28.182  1.00  0.00     0.141 A 
ATOM     29  Cl  UNL A   1      49.424  34.914  25.763  1.00  0.00    -0.081 Cl
ATOM     30  F   UNL A   1      50.457  34.543  28.526  1.00  0.00    -0.205 F 
ENDBRANCH  20  23
ENDBRANCH  11  15
ENDBRANCH   8   9
ENDBRANCH   7   8
ENDBRANCH   5   7
ENDBRANCH   2   3
ENDBRANCH   1   2
BRANCH   1  31
ATOM     31  C   UNL A   1      41.581  22.302  26.525  1.00  0.00     0.023 C 
BRANCH  31  32
ATOM     32  C   UNL A   1      40.193  21.845  26.946  1.00  0.00     0.116 C 
BRANCH  32  33
ATOM     33  N   UNL A   1      39.150  22.306  26.050  1.00  0.00    -0.352 N 
ATOM     34  C   UNL A   1      38.606  23.571  26.011  1.00  0.00     0.251 C 
ATOM     35  H   UNL A   1      38.797  21.651  25.406  1.00  0.00     0.163 HD
ATOM     36  O   UNL A   1      37.624  23.817  25.320  1.00  0.00    -0.269 OA
BRANCH  34  37
ATOM     37  C   UNL A   1      39.222  24.616  26.855  1.00  0.00     0.039 A 
ATOM     38  C   UNL A   1      40.070  25.555  26.269  1.00  0.00     0.014 A 
ATOM     39  C   UNL A   1      38.866  24.718  28.205  1.00  0.00     0.014 A 
ATOM     40  C   UNL A   1      40.539  26.625  27.034  1.00  0.00     0.010 A 
ATOM     41  C   UNL A   1      39.266  25.830  28.938  1.00  0.00     0.010 A 
ATOM     42  C   UNL A   1      40.126  26.782  28.368  1.00  0.00    -0.014 A 
BRANCH  42  43
ATOM     43  C   UNL A   1      40.636  27.901  29.202  1.00  0.00     0.031 A 
ATOM     44  C   UNL A   1      39.763  29.104  29.443  1.00  0.00     0.074 A 
ATOM     45  C   UNL A   1      41.883  27.854  29.713  1.00  0.00     0.049 A 
ATOM     46  N   UNL A   1      40.023  30.191  30.122  1.00  0.00    -0.248 NA
ATOM     47  C   UNL A   1      38.433  29.100  28.810  1.00  0.00     0.031 C 
ATOM     48  C   UNL A   1      42.843  26.765  29.515  1.00  0.00     0.029 A 
ATOM     49  N   UNL A   1      42.555  28.747  30.511  1.00  0.00    -0.354 N 
ATOM     50  C   UNL A   1      38.904  31.004  29.976  1.00  0.00     0.074 A 
ATOM     51  C   UNL A   1      37.989  30.314  29.096  1.00  0.00     0.031 C 
ATOM     52  C   UNL A   1      43.962  27.035  30.208  1.00  0.00     0.029 A 
ATOM     53  C   UNL A   1      43.816  28.329  30.868  1.00  0.00     0.049 A 
ATOM     54  H   UNL A   1      42.170  29.605  30.801  1.00  0.00     0.167 HD
ATOM     55  C   UNL A   1      38.646  32.206  30.544  1.00  0.00     0.031 A 
ATOM     56  C   UNL A   1      44.746  28.919  31.646  1.00  0.00     0.031 A 
ATOM     57  C   UNL A   1      39.544  32.874  31.445  1.00  0.00     0.049 A 
ATOM     58  C   UNL A   1      44.432  30.249  32.278  1.00  0.00     0.074 A 
ATOM     59  C   UNL A   1      39.350  34.060  32.131  1.00  0.00     0.029 A 
ATOM     60  N   UNL A   1      40.806  32.413  31.789  1.00  0.00    -0.354 N 
ATOM     61  N   UNL A   1      43.337  30.968  32.188  1.00  0.00    -0.248 NA
ATOM     62  C   UNL A   1      45.474  30.842  33.129  1.00  0.00     0.031 C 
ATOM     63  C   UNL A   1      40.516  34.341  32.850  1.00  0.00     0.029 A 
ATOM     64  C   UNL A   1      41.412  33.301  32.658  1.00  0.00     0.049 A 
ATOM     65  H   UNL A   1      41.210  31.576  31.461  1.00  0.00     0.167 HD
ATOM     66  C   UNL A   1      43.549  32.083  32.991  1.00  0.00     0.074 A 
ATOM     67  C   UNL A   1      44.868  31.936  33.572  1.00  0.00     0.031 C 
ATOM     68  C   UNL A   1      42.726  33.134  33.228  1.00  0.00     0.031 A 
BRANCH  55  69
ATOM     69  C   UNL A   1      37.338  32.871  30.202  1.00  0.00    -0.014 A 
ATOM     70  C   UNL A   1      37.192  33.632  29.028  1.00  0.00     0.010 A 
ATOM     71  C   UNL A   1      36.231  32.712  31.055  1.00  0.00     0.010 A 
ATOM     72  C   UNL A   1      35.979  34.265  28.740  1.00  0.00     0.020 A 
ATOM     73  C   UNL A   1      35.007  33.316  30.755  1.00  0.00     0.020 A 
ATOM     74  C   UNL A   1      34.895  34.106  29.608  1.00  0.00     0.054 A 
BRANCH  74  75
ATOM     75  S   UNL A   1      33.329  34.923  29.200  1.00  0.00     0.124 S 
ATOM     76  O   UNL A   1      32.671  34.979  30.504  1.00  0.00    -0.237 OA
ATOM     77  O   UNL A   1      33.767  36.209  28.664  1.00  0.00    -0.237 OA
ATOM     78  O   UNL A   1      32.710  34.024  28.229  1.00  0.00    -0.744 OA
ENDBRANCH  74  75
ENDBRANCH  55  69
BRANCH  56  79
ATOM     79  C   UNL A   1      46.048  28.241  31.899  1.00  0.00    -0.014 A 
ATOM     80  C   UNL A   1      47.192  28.594  31.160  1.00  0.00     0.010 A 
ATOM     81  C   UNL A   1      46.156  27.246  32.888  1.00  0.00     0.010 A 
ATOM     82  C   UNL A   1      48.413  27.953  31.391  1.00  0.00     0.020 A 
ATOM     83  C   UNL A   1      47.383  26.621  33.141  1.00  0.00     0.020 A 
ATOM     84  C   UNL A   1      48.501  26.971  32.382  1.00  0.00     0.054 A 
BRANCH  84  85
ATOM     85  S   UNL A   1      50.108  26.189  32.696  1.00  0.00     0.124 S 
ATOM     86  O   UNL A   1      49.960  24.905  32.020  1.00  0.00    -0.237 OA
ATOM     87  O   UNL A   1      51.042  27.127  32.078  1.00  0.00    -0.237 OA
ATOM     88  O   UNL A   1      50.178  26.126  34.155  1.00  0.00    -0.744 OA
ENDBRANCH  84  85
ENDBRANCH  56  79
BRANCH  68  89
ATOM     89  C   UNL A   1      43.208  34.194  34.182  1.00  0.00    -0.014 A 
ATOM     90  C   UNL A   1      43.737  35.410  33.714  1.00  0.00     0.010 A 
ATOM     91  C   UNL A   1      43.067  33.994  35.568  1.00  0.00     0.010 A 
ATOM     92  C   UNL A   1      44.146  36.394  34.617  1.00  0.00     0.020 A 
ATOM     93  C   UNL A   1      43.447  34.988  36.473  1.00  0.00     0.020 A 
ATOM     94  C   UNL A   1      43.997  36.178  35.992  1.00  0.00     0.054 A 
BRANCH  94  95
ATOM     95  S   UNL A   1      44.489  37.491  37.141  1.00  0.00     0.124 S 
ATOM     96  O   UNL A   1      43.222  37.819  37.787  1.00  0.00    -0.237 OA
ATOM     97  O   UNL A   1      45.474  36.825  37.988  1.00  0.00    -0.237 OA
ATOM     98  O   UNL A   1      45.030  38.530  36.268  1.00  0.00    -0.744 OA
ENDBRANCH  94  95
ENDBRANCH  68  89
ENDBRANCH  42  43
ENDBRANCH  34  37
ENDBRANCH  32  33
ENDBRANCH  31  32
ENDBRANCH   1  31
TORSDOF 18
ENDMDL
