MODEL 1
REMARK VINA RESULT:      -9.6      0.000      0.000
REMARK SMILES CCCOc1ccccc1C(=O)NCCCCNC(=O)c1ccc(-c2c3nc(c(-c4ccc(S(=O)(=O)[O-])cc4)c4ccc([nH]4)c(-c4ccc(S(=O)(=O)[O-])cc4)c4nc(c(-c5ccc(S(=O)(=O)[O-])cc5)c5ccc2[nH]5)C=C4)C=C3)cc1
REMARK SMILES IDX 15 1 14 2 13 3 11 4 12 5 10 7 5 8 6 9 7 10 9 11 8 12 4 13
REMARK SMILES IDX 3 14 2 15 1 16 16 17 17 18 18 19 19 20 20 22 21 23 22 24
REMARK SMILES IDX 80 25 23 26 79 27 24 28 25 29 26 30 73 31 27 32 78 33 72 34
REMARK SMILES IDX 74 35 28 36 77 37 71 38 70 39 29 41 59 42 40 43 58 44 41 45
REMARK SMILES IDX 44 46 57 47 75 48 42 49 43 50 56 52 76 53 45 54 30 55 31 56
REMARK SMILES IDX 39 57 32 58 38 59 33 60 34 61 35 62 36 63 37 64 60 65 61 66
REMARK SMILES IDX 69 67 62 68 68 69 63 70 64 71 65 72 66 73 67 74 46 75 47 76
REMARK SMILES IDX 55 77 48 78 54 79 49 80 50 81 51 82 52 83 53 84
REMARK H PARENT 13 6 18 21 74 40 44 51
REMARK Flexibility Score: inf
ROOT
ATOM      1  C   UNL A   1      31.531  28.180  25.491  1.00  0.00     0.023 C 
ENDROOT
BRANCH   1   2
ATOM      2  C   UNL A   1      32.515  27.764  24.402  1.00  0.00     0.116 C 
BRANCH   2   3
ATOM      3  N   UNL A   1      31.986  26.805  23.450  1.00  0.00    -0.352 N 
ATOM      4  C   UNL A   1      31.877  25.435  23.533  1.00  0.00     0.255 C 
ATOM      5  O   UNL A   1      31.395  24.839  22.568  1.00  0.00    -0.269 OA
ATOM      6  H   UNL A   1      31.652  27.196  22.612  1.00  0.00     0.163 HD
BRANCH   4   7
ATOM      7  C   UNL A   1      32.364  24.627  24.690  1.00  0.00     0.081 A 
ATOM      8  C   UNL A   1      33.656  24.114  24.859  1.00  0.00     0.132 A 
ATOM      9  C   UNL A   1      33.947  23.273  25.942  1.00  0.00     0.047 A 
ATOM     10  C   UNL A   1      32.996  23.041  26.933  1.00  0.00     0.004 A 
ATOM     11  C   UNL A   1      31.439  24.440  25.736  1.00  0.00     0.018 A 
ATOM     12  C   UNL A   1      31.753  23.659  26.851  1.00  0.00     0.001 A 
BRANCH   8  13
ATOM     13  O   UNL A   1      34.667  24.332  23.972  1.00  0.00    -0.493 OA
BRANCH  13  14
ATOM     14  C   UNL A   1      35.169  23.148  23.334  1.00  0.00     0.229 C 
BRANCH  14  15
ATOM     15  C   UNL A   1      36.689  23.004  23.455  1.00  0.00     0.038 C 
ATOM     16  C   UNL A   1      37.110  21.800  24.283  1.00  0.00     0.007 C 
ENDBRANCH  14  15
ENDBRANCH  13  14
ENDBRANCH   8  13
ENDBRANCH   4   7
ENDBRANCH   2   3
ENDBRANCH   1   2
BRANCH   1  17
ATOM     17  C   UNL A   1      31.990  27.902  26.930  1.00  0.00     0.023 C 
BRANCH  17  18
ATOM     18  C   UNL A   1      33.351  28.462  27.351  1.00  0.00     0.116 C 
BRANCH  18  19
ATOM     19  N   UNL A   1      33.354  29.898  27.585  1.00  0.00    -0.352 N 
ATOM     20  C   UNL A   1      34.344  30.730  28.051  1.00  0.00     0.251 C 
ATOM     21  H   UNL A   1      32.505  30.349  27.375  1.00  0.00     0.163 HD
ATOM     22  O   UNL A   1      34.081  31.916  28.259  1.00  0.00    -0.269 OA
BRANCH  20  23
ATOM     23  C   UNL A   1      35.708  30.227  28.343  1.00  0.00     0.039 A 
ATOM     24  C   UNL A   1      36.620  30.124  27.289  1.00  0.00     0.014 A 
ATOM     25  C   UNL A   1      36.091  29.825  29.625  1.00  0.00     0.014 A 
ATOM     26  C   UNL A   1      37.930  29.696  27.533  1.00  0.00     0.010 A 
ATOM     27  C   UNL A   1      37.419  29.472  29.881  1.00  0.00     0.010 A 
ATOM     28  C   UNL A   1      38.357  29.406  28.840  1.00  0.00    -0.014 A 
BRANCH  28  29
ATOM     29  C   UNL A   1      39.779  29.058  29.123  1.00  0.00     0.031 A 
ATOM     30  C   UNL A   1      40.716  30.067  29.737  1.00  0.00     0.074 A 
ATOM     31  C   UNL A   1      40.247  27.837  28.786  1.00  0.00     0.049 A 
ATOM     32  N   UNL A   1      41.985  29.939  30.035  1.00  0.00    -0.248 NA
ATOM     33  C   UNL A   1      40.161  31.395  30.039  1.00  0.00     0.031 C 
ATOM     34  C   UNL A   1      39.462  26.776  28.151  1.00  0.00     0.029 A 
ATOM     35  N   UNL A   1      41.496  27.281  28.930  1.00  0.00    -0.354 N 
ATOM     36  C   UNL A   1      42.383  31.170  30.547  1.00  0.00     0.074 A 
ATOM     37  C   UNL A   1      41.233  32.046  30.470  1.00  0.00     0.031 C 
ATOM     38  C   UNL A   1      40.236  25.691  27.991  1.00  0.00     0.029 A 
ATOM     39  C   UNL A   1      41.583  25.987  28.469  1.00  0.00     0.049 A 
ATOM     40  H   UNL A   1      42.256  27.763  29.326  1.00  0.00     0.167 HD
ATOM     41  C   UNL A   1      43.587  31.536  31.050  1.00  0.00     0.031 A 
ATOM     42  C   UNL A   1      42.625  25.133  28.426  1.00  0.00     0.031 A 
ATOM     43  C   UNL A   1      44.732  30.665  31.127  1.00  0.00     0.049 A 
ATOM     44  C   UNL A   1      43.957  25.568  28.976  1.00  0.00     0.074 A 
ATOM     45  C   UNL A   1      45.980  30.933  31.666  1.00  0.00     0.029 A 
ATOM     46  N   UNL A   1      44.777  29.364  30.649  1.00  0.00    -0.354 N 
ATOM     47  N   UNL A   1      44.292  26.716  29.514  1.00  0.00    -0.248 NA
ATOM     48  C   UNL A   1      45.049  24.584  28.925  1.00  0.00     0.031 C 
ATOM     49  C   UNL A   1      46.795  29.816  31.459  1.00  0.00     0.029 A 
ATOM     50  C   UNL A   1      46.035  28.826  30.858  1.00  0.00     0.049 A 
ATOM     51  H   UNL A   1      44.023  28.894  30.223  1.00  0.00     0.167 HD
ATOM     52  C   UNL A   1      45.621  26.579  29.901  1.00  0.00     0.074 A 
ATOM     53  C   UNL A   1      46.024  25.235  29.545  1.00  0.00     0.031 C 
ATOM     54  C   UNL A   1      46.431  27.484  30.504  1.00  0.00     0.031 A 
BRANCH  41  55
ATOM     55  C   UNL A   1      43.734  32.950  31.555  1.00  0.00    -0.014 A 
ATOM     56  C   UNL A   1      44.186  33.982  30.711  1.00  0.00     0.010 A 
ATOM     57  C   UNL A   1      43.369  33.264  32.877  1.00  0.00     0.010 A 
ATOM     58  C   UNL A   1      44.313  35.288  31.192  1.00  0.00     0.020 A 
ATOM     59  C   UNL A   1      43.463  34.575  33.353  1.00  0.00     0.020 A 
ATOM     60  C   UNL A   1      43.952  35.576  32.512  1.00  0.00     0.054 A 
BRANCH  60  61
ATOM     61  S   UNL A   1      44.108  37.284  33.101  1.00  0.00     0.124 S 
ATOM     62  O   UNL A   1      45.475  37.301  33.615  1.00  0.00    -0.237 OA
ATOM     63  O   UNL A   1      43.884  38.064  31.886  1.00  0.00    -0.237 OA
ATOM     64  O   UNL A   1      43.061  37.401  34.114  1.00  0.00    -0.744 OA
ENDBRANCH  60  61
ENDBRANCH  41  55
BRANCH  42  65
ATOM     65  C   UNL A   1      42.446  23.767  27.857  1.00  0.00    -0.014 A 
ATOM     66  C   UNL A   1      42.547  23.549  26.471  1.00  0.00     0.010 A 
ATOM     67  C   UNL A   1      42.182  22.674  28.701  1.00  0.00     0.010 A 
ATOM     68  C   UNL A   1      42.364  22.269  25.939  1.00  0.00     0.020 A 
ATOM     69  C   UNL A   1      42.031  21.387  28.177  1.00  0.00     0.020 A 
ATOM     70  C   UNL A   1      42.111  21.194  26.797  1.00  0.00     0.054 A 
BRANCH  70  71
ATOM     71  S   UNL A   1      41.927  19.534  26.088  1.00  0.00     0.124 S 
ATOM     72  O   UNL A   1      40.506  19.500  25.759  1.00  0.00    -0.237 OA
ATOM     73  O   UNL A   1      42.841  19.576  24.949  1.00  0.00    -0.237 OA
ATOM     74  O   UNL A   1      42.341  18.651  27.175  1.00  0.00    -0.744 OA
ENDBRANCH  70  71
ENDBRANCH  42  65
BRANCH  54  75
ATOM     75  C   UNL A   1      47.825  27.042  30.871  1.00  0.00    -0.014 A 
ATOM     76  C   UNL A   1      48.132  26.557  32.154  1.00  0.00     0.010 A 
ATOM     77  C   UNL A   1      48.836  27.070  29.891  1.00  0.00     0.010 A 
ATOM     78  C   UNL A   1      49.434  26.145  32.461  1.00  0.00     0.020 A 
ATOM     79  C   UNL A   1      50.128  26.628  30.184  1.00  0.00     0.020 A 
ATOM     80  C   UNL A   1      50.422  26.184  31.474  1.00  0.00     0.054 A 
BRANCH  80  81
ATOM     81  S   UNL A   1      52.093  25.609  31.888  1.00  0.00     0.124 S 
ATOM     82  O   UNL A   1      52.405  26.407  33.071  1.00  0.00    -0.237 OA
ATOM     83  O   UNL A   1      51.891  24.183  32.126  1.00  0.00    -0.237 OA
ATOM     84  O   UNL A   1      52.876  25.931  30.696  1.00  0.00    -0.744 OA
ENDBRANCH  80  81
ENDBRANCH  54  75
ENDBRANCH  28  29
ENDBRANCH  20  23
ENDBRANCH  18  19
ENDBRANCH  17  18
ENDBRANCH   1  17
TORSDOF 17
ENDMDL
MODEL 2
REMARK VINA RESULT:      -9.5      4.917     10.573
REMARK SMILES CCCOc1ccccc1C(=O)NCCCCNC(=O)c1ccc(-c2c3nc(c(-c4ccc(S(=O)(=O)[O-])cc4)c4ccc([nH]4)c(-c4ccc(S(=O)(=O)[O-])cc4)c4nc(c(-c5ccc(S(=O)(=O)[O-])cc5)c5ccc2[nH]5)C=C4)C=C3)cc1
REMARK SMILES IDX 15 1 14 2 13 3 11 4 12 5 10 7 5 8 6 9 7 10 9 11 8 12 4 13
REMARK SMILES IDX 3 14 2 15 1 16 16 17 17 18 18 19 19 20 20 22 21 23 22 24
REMARK SMILES IDX 80 25 23 26 79 27 24 28 25 29 26 30 73 31 27 32 78 33 72 34
REMARK SMILES IDX 74 35 28 36 77 37 71 38 70 39 29 41 59 42 40 43 58 44 41 45
REMARK SMILES IDX 44 46 57 47 75 48 42 49 43 50 56 52 76 53 45 54 30 55 31 56
REMARK SMILES IDX 39 57 32 58 38 59 33 60 34 61 35 62 36 63 37 64 60 65 61 66
REMARK SMILES IDX 69 67 62 68 68 69 63 70 64 71 65 72 66 73 67 74 46 75 47 76
REMARK SMILES IDX 55 77 48 78 54 79 49 80 50 81 51 82 52 83 53 84
REMARK H PARENT 13 6 18 21 74 40 44 51
REMARK Flexibility Score: inf
ROOT
ATOM      1  C   UNL A   1      37.655  23.566  26.005  1.00  0.00     0.023 C 
ENDROOT
BRANCH   1   2
ATOM      2  C   UNL A   1      36.446  22.775  25.518  1.00  0.00     0.116 C 
BRANCH   2   3
ATOM      3  N   UNL A   1      35.559  22.323  26.574  1.00  0.00    -0.352 N 
ATOM      4  C   UNL A   1      34.273  21.835  26.511  1.00  0.00     0.255 C 
ATOM      5  O   UNL A   1      33.724  21.525  27.570  1.00  0.00    -0.269 OA
ATOM      6  H   UNL A   1      35.938  22.372  27.481  1.00  0.00     0.163 HD
BRANCH   4   7
ATOM      7  C   UNL A   1      33.486  21.720  25.248  1.00  0.00     0.081 A 
ATOM      8  C   UNL A   1      33.121  20.532  24.602  1.00  0.00     0.132 A 
ATOM      9  C   UNL A   1      32.478  20.572  23.358  1.00  0.00     0.047 A 
ATOM     10  C   UNL A   1      32.076  21.787  22.807  1.00  0.00     0.004 A 
ATOM     11  C   UNL A   1      33.011  22.934  24.712  1.00  0.00     0.018 A 
ATOM     12  C   UNL A   1      32.306  22.967  23.506  1.00  0.00     0.001 A 
BRANCH   8  13
ATOM     13  O   UNL A   1      33.422  19.296  25.090  1.00  0.00    -0.493 OA
BRANCH  13  14
ATOM     14  C   UNL A   1      34.684  18.771  24.654  1.00  0.00     0.229 C 
BRANCH  14  15
ATOM     15  C   UNL A   1      34.617  17.286  24.285  1.00  0.00     0.038 C 
ATOM     16  C   UNL A   1      33.741  17.011  23.073  1.00  0.00     0.007 C 
ENDBRANCH  14  15
ENDBRANCH  13  14
ENDBRANCH   8  13
ENDBRANCH   4   7
ENDBRANCH   2   3
ENDBRANCH   1   2
BRANCH   1  17
ATOM     17  C   UNL A   1      38.826  22.721  26.525  1.00  0.00     0.023 C 
BRANCH  17  18
ATOM     18  C   UNL A   1      40.078  23.469  26.988  1.00  0.00     0.116 C 
BRANCH  18  19
ATOM     19  N   UNL A   1      40.667  24.326  25.969  1.00  0.00    -0.352 N 
ATOM     20  C   UNL A   1      41.040  25.648  26.013  1.00  0.00     0.251 C 
ATOM     21  H   UNL A   1      40.826  23.883  25.105  1.00  0.00     0.163 HD
ATOM     22  O   UNL A   1      41.437  26.192  24.981  1.00  0.00    -0.269 OA
BRANCH  20  23
ATOM     23  C   UNL A   1      40.941  26.442  27.261  1.00  0.00     0.039 A 
ATOM     24  C   UNL A   1      41.919  27.409  27.514  1.00  0.00     0.014 A 
ATOM     25  C   UNL A   1      39.927  26.229  28.197  1.00  0.00     0.014 A 
ATOM     26  C   UNL A   1      41.835  28.209  28.659  1.00  0.00     0.010 A 
ATOM     27  C   UNL A   1      39.801  27.079  29.300  1.00  0.00     0.010 A 
ATOM     28  C   UNL A   1      40.751  28.083  29.543  1.00  0.00    -0.014 A 
BRANCH  28  29
ATOM     29  C   UNL A   1      40.596  29.006  30.704  1.00  0.00     0.031 A 
ATOM     30  C   UNL A   1      41.463  28.862  31.929  1.00  0.00     0.074 A 
ATOM     31  C   UNL A   1      39.638  29.957  30.678  1.00  0.00     0.049 A 
ATOM     32  N   UNL A   1      41.454  29.566  33.034  1.00  0.00    -0.248 NA
ATOM     33  C   UNL A   1      42.458  27.779  31.918  1.00  0.00     0.031 C 
ATOM     34  C   UNL A   1      38.702  30.185  29.574  1.00  0.00     0.029 A 
ATOM     35  N   UNL A   1      39.290  30.911  31.605  1.00  0.00    -0.354 N 
ATOM     36  C   UNL A   1      42.428  29.004  33.853  1.00  0.00     0.074 A 
ATOM     37  C   UNL A   1      42.972  27.870  33.137  1.00  0.00     0.031 C 
ATOM     38  C   UNL A   1      37.913  31.229  29.874  1.00  0.00     0.029 A 
ATOM     39  C   UNL A   1      38.251  31.720  31.205  1.00  0.00     0.049 A 
ATOM     40  H   UNL A   1      39.743  31.006  32.473  1.00  0.00     0.167 HD
ATOM     41  C   UNL A   1      42.845  29.403  35.079  1.00  0.00     0.031 A 
ATOM     42  C   UNL A   1      37.632  32.738  31.836  1.00  0.00     0.031 A 
ATOM     43  C   UNL A   1      42.303  30.532  35.793  1.00  0.00     0.049 A 
ATOM     44  C   UNL A   1      38.101  33.152  33.205  1.00  0.00     0.074 A 
ATOM     45  C   UNL A   1      42.696  31.041  37.019  1.00  0.00     0.029 A 
ATOM     46  N   UNL A   1      41.253  31.322  35.352  1.00  0.00    -0.354 N 
ATOM     47  N   UNL A   1      39.068  32.646  33.933  1.00  0.00    -0.248 NA
ATOM     48  C   UNL A   1      37.405  34.285  33.831  1.00  0.00     0.031 C 
ATOM     49  C   UNL A   1      41.844  32.100  37.347  1.00  0.00     0.029 A 
ATOM     50  C   UNL A   1      40.969  32.299  36.292  1.00  0.00     0.049 A 
ATOM     51  H   UNL A   1      40.779  31.206  34.496  1.00  0.00     0.167 HD
ATOM     52  C   UNL A   1      39.121  33.424  35.085  1.00  0.00     0.074 A 
ATOM     53  C   UNL A   1      38.097  34.438  34.952  1.00  0.00     0.031 C 
ATOM     54  C   UNL A   1      39.949  33.309  36.153  1.00  0.00     0.031 A 
BRANCH  41  55
ATOM     55  C   UNL A   1      43.942  28.605  35.739  1.00  0.00    -0.014 A 
ATOM     56  C   UNL A   1      45.296  28.943  35.563  1.00  0.00     0.010 A 
ATOM     57  C   UNL A   1      43.613  27.531  36.589  1.00  0.00     0.010 A 
ATOM     58  C   UNL A   1      46.301  28.197  36.185  1.00  0.00     0.020 A 
ATOM     59  C   UNL A   1      44.614  26.803  37.239  1.00  0.00     0.020 A 
ATOM     60  C   UNL A   1      45.953  27.129  37.019  1.00  0.00     0.054 A 
BRANCH  60  61
ATOM     61  S   UNL A   1      47.278  26.193  37.829  1.00  0.00     0.124 S 
ATOM     62  O   UNL A   1      47.538  27.004  39.015  1.00  0.00    -0.237 OA
ATOM     63  O   UNL A   1      46.649  24.898  38.078  1.00  0.00    -0.237 OA
ATOM     64  O   UNL A   1      48.351  26.179  36.838  1.00  0.00    -0.744 OA
ENDBRANCH  60  61
ENDBRANCH  41  55
BRANCH  42  65
ATOM     65  C   UNL A   1      36.507  33.454  31.169  1.00  0.00    -0.014 A 
ATOM     66  C   UNL A   1      35.470  34.024  31.928  1.00  0.00     0.010 A 
ATOM     67  C   UNL A   1      36.474  33.575  29.768  1.00  0.00     0.010 A 
ATOM     68  C   UNL A   1      34.409  34.682  31.298  1.00  0.00     0.020 A 
ATOM     69  C   UNL A   1      35.432  34.261  29.136  1.00  0.00     0.020 A 
ATOM     70  C   UNL A   1      34.399  34.799  29.905  1.00  0.00     0.054 A 
BRANCH  70  71
ATOM     71  S   UNL A   1      33.037  35.700  29.113  1.00  0.00     0.124 S 
ATOM     72  O   UNL A   1      32.202  36.054  30.255  1.00  0.00    -0.237 OA
ATOM     73  O   UNL A   1      33.731  36.811  28.466  1.00  0.00    -0.237 OA
ATOM     74  O   UNL A   1      32.464  34.716  28.197  1.00  0.00    -0.744 OA
ENDBRANCH  70  71
ENDBRANCH  42  65
BRANCH  54  75
ATOM     75  C   UNL A   1      39.825  34.339  37.247  1.00  0.00    -0.014 A 
ATOM     76  C   UNL A   1      40.358  35.633  37.109  1.00  0.00     0.010 A 
ATOM     77  C   UNL A   1      39.117  34.014  38.421  1.00  0.00     0.010 A 
ATOM     78  C   UNL A   1      40.219  36.570  38.139  1.00  0.00     0.020 A 
ATOM     79  C   UNL A   1      38.947  34.958  39.437  1.00  0.00     0.020 A 
ATOM     80  C   UNL A   1      39.514  36.225  39.296  1.00  0.00     0.054 A 
BRANCH  80  81
ATOM     81  S   UNL A   1      39.316  37.469  40.602  1.00  0.00     0.124 S 
ATOM     82  O   UNL A   1      40.648  38.067  40.657  1.00  0.00    -0.237 OA
ATOM     83  O   UNL A   1      38.263  38.329  40.067  1.00  0.00    -0.237 OA
ATOM     84  O   UNL A   1      38.936  36.685  41.775  1.00  0.00    -0.744 OA
ENDBRANCH  80  81
ENDBRANCH  54  75
ENDBRANCH  28  29
ENDBRANCH  20  23
ENDBRANCH  18  19
ENDBRANCH  17  18
ENDBRANCH   1  17
TORSDOF 17
ENDMDL
MODEL 3
REMARK VINA RESULT:      -9.5      2.649      9.267
REMARK SMILES CCCOc1ccccc1C(=O)NCCCCNC(=O)c1ccc(-c2c3nc(c(-c4ccc(S(=O)(=O)[O-])cc4)c4ccc([nH]4)c(-c4ccc(S(=O)(=O)[O-])cc4)c4nc(c(-c5ccc(S(=O)(=O)[O-])cc5)c5ccc2[nH]5)C=C4)C=C3)cc1
REMARK SMILES IDX 15 1 14 2 13 3 11 4 12 5 10 7 5 8 6 9 7 10 9 11 8 12 4 13
REMARK SMILES IDX 3 14 2 15 1 16 16 17 17 18 18 19 19 20 20 22 21 23 22 24
REMARK SMILES IDX 80 25 23 26 79 27 24 28 25 29 26 30 73 31 27 32 78 33 72 34
REMARK SMILES IDX 74 35 28 36 77 37 71 38 70 39 29 41 59 42 40 43 58 44 41 45
REMARK SMILES IDX 44 46 57 47 75 48 42 49 43 50 56 52 76 53 45 54 30 55 31 56
REMARK SMILES IDX 39 57 32 58 38 59 33 60 34 61 35 62 36 63 37 64 60 65 61 66
REMARK SMILES IDX 69 67 62 68 68 69 63 70 64 71 65 72 66 73 67 74 46 75 47 76
REMARK SMILES IDX 55 77 48 78 54 79 49 80 50 81 51 82 52 83 53 84
REMARK H PARENT 13 6 18 21 74 40 44 51
REMARK Flexibility Score: inf
ROOT
ATOM      1  C   UNL A   1      34.298  24.473  23.967  1.00  0.00     0.023 C 
ENDROOT
BRANCH   1   2
ATOM      2  C   UNL A   1      33.735  25.829  24.380  1.00  0.00     0.116 C 
BRANCH   2   3
ATOM      3  N   UNL A   1      32.922  25.800  25.581  1.00  0.00    -0.352 N 
ATOM      4  C   UNL A   1      31.714  26.401  25.853  1.00  0.00     0.255 C 
ATOM      5  O   UNL A   1      31.227  26.229  26.973  1.00  0.00    -0.269 OA
ATOM      6  H   UNL A   1      33.293  25.266  26.319  1.00  0.00     0.163 HD
BRANCH   4   7
ATOM      7  C   UNL A   1      30.993  27.295  24.900  1.00  0.00     0.081 A 
ATOM      8  C   UNL A   1      31.355  28.603  24.553  1.00  0.00     0.132 A 
ATOM      9  C   UNL A   1      30.522  29.372  23.730  1.00  0.00     0.047 A 
ATOM     10  C   UNL A   1      29.391  28.808  23.142  1.00  0.00     0.004 A 
ATOM     11  C   UNL A   1      29.887  26.721  24.242  1.00  0.00     0.018 A 
ATOM     12  C   UNL A   1      29.097  27.468  23.365  1.00  0.00     0.001 A 
BRANCH   8  13
ATOM     13  O   UNL A   1      32.469  29.220  25.034  1.00  0.00    -0.493 OA
BRANCH  13  14
ATOM     14  C   UNL A   1      32.216  30.215  26.038  1.00  0.00     0.229 C 
BRANCH  14  15
ATOM     15  C   UNL A   1      33.336  30.309  27.080  1.00  0.00     0.038 C 
ATOM     16  C   UNL A   1      34.284  29.120  27.046  1.00  0.00     0.007 C 
ENDBRANCH  14  15
ENDBRANCH  13  14
ENDBRANCH   8  13
ENDBRANCH   4   7
ENDBRANCH   2   3
ENDBRANCH   1   2
BRANCH   1  17
ATOM     17  C   UNL A   1      34.996  23.684  25.084  1.00  0.00     0.023 C 
BRANCH  17  18
ATOM     18  C   UNL A   1      36.396  24.146  25.497  1.00  0.00     0.116 C 
BRANCH  18  19
ATOM     19  N   UNL A   1      37.380  23.077  25.555  1.00  0.00    -0.352 N 
ATOM     20  C   UNL A   1      38.644  23.047  26.094  1.00  0.00     0.251 C 
ATOM     21  H   UNL A   1      37.093  22.233  25.137  1.00  0.00     0.163 HD
ATOM     22  O   UNL A   1      39.338  22.041  25.937  1.00  0.00    -0.269 OA
BRANCH  20  23
ATOM     23  C   UNL A   1      39.203  24.207  26.828  1.00  0.00     0.039 A 
ATOM     24  C   UNL A   1      40.052  25.083  26.143  1.00  0.00     0.014 A 
ATOM     25  C   UNL A   1      38.936  24.427  28.181  1.00  0.00     0.014 A 
ATOM     26  C   UNL A   1      40.564  26.213  26.789  1.00  0.00     0.010 A 
ATOM     27  C   UNL A   1      39.385  25.597  28.803  1.00  0.00     0.010 A 
ATOM     28  C   UNL A   1      40.201  26.507  28.115  1.00  0.00    -0.014 A 
BRANCH  28  29
ATOM     29  C   UNL A   1      40.653  27.766  28.772  1.00  0.00     0.031 A 
ATOM     30  C   UNL A   1      42.037  27.880  29.359  1.00  0.00     0.074 A 
ATOM     31  C   UNL A   1      39.798  28.806  28.883  1.00  0.00     0.049 A 
ATOM     32  N   UNL A   1      42.589  28.893  29.980  1.00  0.00    -0.248 NA
ATOM     33  C   UNL A   1      42.907  26.699  29.249  1.00  0.00     0.031 C 
ATOM     34  C   UNL A   1      38.417  28.820  28.395  1.00  0.00     0.029 A 
ATOM     35  N   UNL A   1      39.963  30.051  29.442  1.00  0.00    -0.354 N 
ATOM     36  C   UNL A   1      43.862  28.468  30.346  1.00  0.00     0.074 A 
ATOM     37  C   UNL A   1      43.981  27.090  29.921  1.00  0.00     0.031 C 
ATOM     38  C   UNL A   1      37.874  30.023  28.645  1.00  0.00     0.029 A 
ATOM     39  C   UNL A   1      38.847  30.852  29.349  1.00  0.00     0.049 A 
ATOM     40  H   UNL A   1      40.801  30.343  29.867  1.00  0.00     0.167 HD
ATOM     41  C   UNL A   1      44.849  29.164  30.961  1.00  0.00     0.031 A 
ATOM     42  C   UNL A   1      38.623  32.108  29.785  1.00  0.00     0.031 A 
ATOM     43  C   UNL A   1      44.732  30.537  31.384  1.00  0.00     0.049 A 
ATOM     44  C   UNL A   1      39.729  32.854  30.482  1.00  0.00     0.074 A 
ATOM     45  C   UNL A   1      45.696  31.339  31.972  1.00  0.00     0.029 A 
ATOM     46  N   UNL A   1      43.586  31.309  31.272  1.00  0.00    -0.354 N 
ATOM     47  N   UNL A   1      40.947  32.454  30.759  1.00  0.00    -0.248 NA
ATOM     48  C   UNL A   1      39.434  34.229  30.912  1.00  0.00     0.031 C 
ATOM     49  C   UNL A   1      45.114  32.576  32.269  1.00  0.00     0.029 A 
ATOM     50  C   UNL A   1      43.811  32.569  31.800  1.00  0.00     0.049 A 
ATOM     51  H   UNL A   1      42.737  31.005  30.875  1.00  0.00     0.167 HD
ATOM     52  C   UNL A   1      41.575  33.541  31.360  1.00  0.00     0.074 A 
ATOM     53  C   UNL A   1      40.606  34.616  31.396  1.00  0.00     0.031 C 
ATOM     54  C   UNL A   1      42.842  33.638  31.832  1.00  0.00     0.031 A 
BRANCH  41  55
ATOM     55  C   UNL A   1      46.151  28.448  31.226  1.00  0.00    -0.014 A 
ATOM     56  C   UNL A   1      47.207  28.490  30.298  1.00  0.00     0.010 A 
ATOM     57  C   UNL A   1      46.339  27.764  32.442  1.00  0.00     0.010 A 
ATOM     58  C   UNL A   1      48.408  27.825  30.559  1.00  0.00     0.020 A 
ATOM     59  C   UNL A   1      47.551  27.126  32.722  1.00  0.00     0.020 A 
ATOM     60  C   UNL A   1      48.572  27.145  31.771  1.00  0.00     0.054 A 
BRANCH  60  61
ATOM     61  S   UNL A   1      50.150  26.309  32.091  1.00  0.00     0.124 S 
ATOM     62  O   UNL A   1      49.912  24.988  31.516  1.00  0.00    -0.237 OA
ATOM     63  O   UNL A   1      51.107  27.145  31.370  1.00  0.00    -0.237 OA
ATOM     64  O   UNL A   1      50.272  26.341  33.546  1.00  0.00    -0.744 OA
ENDBRANCH  60  61
ENDBRANCH  41  55
BRANCH  42  65
ATOM     65  C   UNL A   1      37.297  32.750  29.559  1.00  0.00    -0.014 A 
ATOM     66  C   UNL A   1      36.899  33.136  28.267  1.00  0.00     0.010 A 
ATOM     67  C   UNL A   1      36.421  32.971  30.637  1.00  0.00     0.010 A 
ATOM     68  C   UNL A   1      35.660  33.751  28.061  1.00  0.00     0.020 A 
ATOM     69  C   UNL A   1      35.168  33.556  30.431  1.00  0.00     0.020 A 
ATOM     70  C   UNL A   1      34.800  33.954  29.144  1.00  0.00     0.054 A 
BRANCH  70  71
ATOM     71  S   UNL A   1      33.178  34.709  28.845  1.00  0.00     0.124 S 
ATOM     72  O   UNL A   1      32.595  33.799  27.866  1.00  0.00    -0.237 OA
ATOM     73  O   UNL A   1      32.571  34.686  30.173  1.00  0.00    -0.237 OA
ATOM     74  O   UNL A   1      33.509  36.041  28.343  1.00  0.00    -0.744 OA
ENDBRANCH  70  71
ENDBRANCH  42  65
BRANCH  54  75
ATOM     75  C   UNL A   1      43.282  34.970  32.383  1.00  0.00    -0.014 A 
ATOM     76  C   UNL A   1      43.194  35.269  33.755  1.00  0.00     0.010 A 
ATOM     77  C   UNL A   1      43.840  35.926  31.511  1.00  0.00     0.010 A 
ATOM     78  C   UNL A   1      43.620  36.511  34.237  1.00  0.00     0.020 A 
ATOM     79  C   UNL A   1      44.297  37.154  31.994  1.00  0.00     0.020 A 
ATOM     80  C   UNL A   1      44.168  37.445  33.353  1.00  0.00     0.054 A 
BRANCH  80  81
ATOM     81  S   UNL A   1      44.746  39.035  34.010  1.00  0.00     0.124 S 
ATOM     82  O   UNL A   1      44.345  38.949  35.411  1.00  0.00    -0.237 OA
ATOM     83  O   UNL A   1      46.185  38.978  33.763  1.00  0.00    -0.237 OA
ATOM     84  O   UNL A   1      44.023  40.024  33.214  1.00  0.00    -0.744 OA
ENDBRANCH  80  81
ENDBRANCH  54  75
ENDBRANCH  28  29
ENDBRANCH  20  23
ENDBRANCH  18  19
ENDBRANCH  17  18
ENDBRANCH   1  17
TORSDOF 17
ENDMDL
