MODEL 1
REMARK VINA RESULT:     -12.6      0.000      0.000
REMARK SMILES Cc1ccc(-c2nc(C)c(C(=O)N3CCC(C(=O)NCCCCNC(=O)c4ccc(-c5c6nc(c(-c7ccc(S(=O)(=O)[O-])cc7)c7ccc([nH]7)c(-c7ccc(S(=O)(=O)[O-])cc7)c7nc(c(-c8ccc(S(=O)(=O)[O-])cc8)c8ccc5[nH]8)C=C7)C=C6)cc4)CC3)s2)o1
REMARK SMILES IDX 22 1 21 2 20 3 19 4 17 5 18 6 16 8 11 9 12 10 13 11 14 12
REMARK SMILES IDX 88 13 15 14 87 15 10 16 6 17 7 18 89 19 8 20 9 21 5 22 1 23
REMARK SMILES IDX 2 24 3 25 90 26 4 27 23 28 24 29 25 30 26 32 27 33 28 34
REMARK SMILES IDX 86 35 29 36 85 37 30 38 31 39 32 40 79 41 33 42 84 43 78 44
REMARK SMILES IDX 80 45 34 46 83 47 77 48 76 49 35 51 65 52 46 53 64 54 47 55
REMARK SMILES IDX 50 56 63 57 81 58 48 59 49 60 62 62 82 63 51 64 36 65 37 66
REMARK SMILES IDX 45 67 38 68 44 69 39 70 40 71 41 72 42 73 43 74 66 75 67 76
REMARK SMILES IDX 75 77 68 78 74 79 69 80 70 81 71 82 72 83 73 84 52 85 53 86
REMARK SMILES IDX 61 87 54 88 60 89 55 90 56 91 57 92 58 93 59 94
REMARK H PARENT 19 7 24 31 80 50 50 61
REMARK Flexibility Score: inf
ROOT
ATOM      1  C   UNL A   1      32.239  27.935  26.763  1.00  0.00     0.023 C 
ENDROOT
BRANCH   1   2
ATOM      2  C   UNL A   1      31.438  28.921  25.915  1.00  0.00     0.023 C 
BRANCH   2   3
ATOM      3  C   UNL A   1      32.112  29.329  24.608  1.00  0.00     0.116 C 
BRANCH   3   4
ATOM      4  N   UNL A   1      31.148  29.553  23.542  1.00  0.00    -0.356 N 
ATOM      5  C   UNL A   1      30.754  28.752  22.515  1.00  0.00     0.223 C 
ATOM      6  O   UNL A   1      29.906  29.183  21.731  1.00  0.00    -0.275 OA
ATOM      7  H   UNL A   1      30.705  30.433  23.569  1.00  0.00     0.163 HD
BRANCH   5   8
ATOM      8  C   UNL A   1      31.322  27.353  22.333  1.00  0.00     0.082 C 
ATOM      9  C   UNL A   1      33.149  24.499  24.632  1.00  0.00     0.265 C 
ATOM     10  O   UNL A   1      33.926  25.174  25.309  1.00  0.00    -0.268 OA
ATOM     11  N   UNL A   1      32.584  25.052  23.485  1.00  0.00    -0.338 N 
ATOM     12  C   UNL A   1      33.392  25.920  22.646  1.00  0.00     0.120 C 
ATOM     13  C   UNL A   1      31.175  24.942  23.135  1.00  0.00     0.120 C 
ATOM     14  C   UNL A   1      32.837  27.328  22.572  1.00  0.00     0.035 C 
ATOM     15  C   UNL A   1      30.509  26.313  23.122  1.00  0.00     0.035 C 
BRANCH   9  16
ATOM     16  C   UNL A   1      32.892  23.090  24.900  1.00  0.00     0.115 A 
ATOM     17  C   UNL A   1      32.844  20.667  24.691  1.00  0.00     0.159 A 
ATOM     18  N   UNL A   1      31.831  21.072  25.423  1.00  0.00    -0.237 NA
ATOM     19  S   UNL A   1      33.927  21.896  24.200  1.00  0.00    -0.105 S 
ATOM     20  C   UNL A   1      31.833  22.452  25.535  1.00  0.00     0.062 A 
ATOM     21  C   UNL A   1      30.665  23.043  26.238  1.00  0.00     0.068 C 
BRANCH  17  22
ATOM     22  C   UNL A   1      32.966  19.295  24.288  1.00  0.00     0.162 A 
ATOM     23  C   UNL A   1      34.214  16.044  25.146  1.00  0.00     0.087 C 
ATOM     24  C   UNL A   1      33.577  17.170  24.436  1.00  0.00     0.101 A 
ATOM     25  C   UNL A   1      32.921  17.297  23.234  1.00  0.00     0.046 A 
ATOM     26  O   UNL A   1      33.623  18.371  25.067  1.00  0.00    -0.459 OA
ATOM     27  C   UNL A   1      32.514  18.653  23.145  1.00  0.00     0.054 A 
ENDBRANCH  17  22
ENDBRANCH   9  16
ENDBRANCH   5   8
ENDBRANCH   3   4
ENDBRANCH   2   3
ENDBRANCH   1   2
BRANCH   1  28
ATOM     28  C   UNL A   1      33.564  28.468  27.297  1.00  0.00     0.116 C 
BRANCH  28  29
ATOM     29  N   UNL A   1      33.523  29.885  27.624  1.00  0.00    -0.352 N 
ATOM     30  C   UNL A   1      34.513  30.669  28.167  1.00  0.00     0.251 C 
ATOM     31  H   UNL A   1      32.673  30.343  27.429  1.00  0.00     0.163 HD
ATOM     32  O   UNL A   1      34.279  31.830  28.486  1.00  0.00    -0.269 OA
BRANCH  30  33
ATOM     33  C   UNL A   1      35.849  30.084  28.399  1.00  0.00     0.039 A 
ATOM     34  C   UNL A   1      36.790  30.124  27.369  1.00  0.00     0.014 A 
ATOM     35  C   UNL A   1      36.182  29.545  29.644  1.00  0.00     0.014 A 
ATOM     36  C   UNL A   1      38.094  29.685  27.610  1.00  0.00     0.010 A 
ATOM     37  C   UNL A   1      37.498  29.176  29.903  1.00  0.00     0.010 A 
ATOM     38  C   UNL A   1      38.468  29.244  28.890  1.00  0.00    -0.014 A 
BRANCH  38  39
ATOM     39  C   UNL A   1      39.870  28.859  29.195  1.00  0.00     0.031 A 
ATOM     40  C   UNL A   1      40.803  29.855  29.828  1.00  0.00     0.074 A 
ATOM     41  C   UNL A   1      40.320  27.640  28.832  1.00  0.00     0.049 A 
ATOM     42  N   UNL A   1      42.075  29.729  30.105  1.00  0.00    -0.248 NA
ATOM     43  C   UNL A   1      40.243  31.174  30.170  1.00  0.00     0.031 C 
ATOM     44  C   UNL A   1      39.527  26.603  28.166  1.00  0.00     0.029 A 
ATOM     45  N   UNL A   1      41.562  27.071  28.964  1.00  0.00    -0.354 N 
ATOM     46  C   UNL A   1      42.473  30.955  30.623  1.00  0.00     0.074 A 
ATOM     47  C   UNL A   1      41.318  31.824  30.592  1.00  0.00     0.031 C 
ATOM     48  C   UNL A   1      40.295  25.518  27.971  1.00  0.00     0.029 A 
ATOM     49  C   UNL A   1      41.642  25.792  28.459  1.00  0.00     0.049 A 
ATOM     50  H   UNL A   1      42.325  27.532  29.380  1.00  0.00     0.167 HD
ATOM     51  C   UNL A   1      43.688  31.320  31.097  1.00  0.00     0.031 A 
ATOM     52  C   UNL A   1      42.684  24.942  28.389  1.00  0.00     0.031 A 
ATOM     53  C   UNL A   1      44.824  30.441  31.165  1.00  0.00     0.049 A 
ATOM     54  C   UNL A   1      44.018  25.370  28.940  1.00  0.00     0.074 A 
ATOM     55  C   UNL A   1      46.070  30.691  31.712  1.00  0.00     0.029 A 
ATOM     56  N   UNL A   1      44.856  29.147  30.670  1.00  0.00    -0.354 N 
ATOM     57  N   UNL A   1      44.349  26.505  29.509  1.00  0.00    -0.248 NA
ATOM     58  C   UNL A   1      45.117  24.399  28.848  1.00  0.00     0.031 C 
ATOM     59  C   UNL A   1      46.871  29.565  31.506  1.00  0.00     0.029 A 
ATOM     60  C   UNL A   1      46.108  28.594  30.877  1.00  0.00     0.049 A 
ATOM     61  H   UNL A   1      44.099  28.688  30.237  1.00  0.00     0.167 HD
ATOM     62  C   UNL A   1      45.684  26.369  29.873  1.00  0.00     0.074 A 
ATOM     63  C   UNL A   1      46.096  25.041  29.472  1.00  0.00     0.031 C 
ATOM     64  C   UNL A   1      46.497  27.265  30.484  1.00  0.00     0.031 A 
BRANCH  51  65
ATOM     65  C   UNL A   1      43.860  32.732  31.584  1.00  0.00    -0.014 A 
ATOM     66  C   UNL A   1      44.272  33.758  30.715  1.00  0.00     0.010 A 
ATOM     67  C   UNL A   1      43.528  33.053  32.914  1.00  0.00     0.010 A 
ATOM     68  C   UNL A   1      44.369  35.075  31.171  1.00  0.00     0.020 A 
ATOM     69  C   UNL A   1      43.600  34.372  33.367  1.00  0.00     0.020 A 
ATOM     70  C   UNL A   1      44.030  35.375  32.495  1.00  0.00     0.054 A 
BRANCH  70  71
ATOM     71  S   UNL A   1      44.110  37.101  33.044  1.00  0.00     0.124 S 
ATOM     72  O   UNL A   1      42.981  37.176  33.968  1.00  0.00    -0.237 OA
ATOM     73  O   UNL A   1      45.432  37.179  33.662  1.00  0.00    -0.237 OA
ATOM     74  O   UNL A   1      43.957  37.866  31.809  1.00  0.00    -0.744 OA
ENDBRANCH  70  71
ENDBRANCH  51  65
BRANCH  52  75
ATOM     75  C   UNL A   1      42.519  23.592  27.784  1.00  0.00    -0.014 A 
ATOM     76  C   UNL A   1      41.857  22.571  28.489  1.00  0.00     0.010 A 
ATOM     77  C   UNL A   1      43.053  23.310  26.513  1.00  0.00     0.010 A 
ATOM     78  C   UNL A   1      41.768  21.282  27.954  1.00  0.00     0.020 A 
ATOM     79  C   UNL A   1      42.940  22.030  25.962  1.00  0.00     0.020 A 
ATOM     80  C   UNL A   1      42.316  21.019  26.695  1.00  0.00     0.054 A 
BRANCH  80  81
ATOM     81  S   UNL A   1      42.183  19.343  26.013  1.00  0.00     0.124 S 
ATOM     82  O   UNL A   1      42.742  18.533  27.091  1.00  0.00    -0.237 OA
ATOM     83  O   UNL A   1      40.745  19.201  25.795  1.00  0.00    -0.237 OA
ATOM     84  O   UNL A   1      42.987  19.407  24.794  1.00  0.00    -0.744 OA
ENDBRANCH  80  81
ENDBRANCH  52  75
BRANCH  64  85
ATOM     85  C   UNL A   1      47.900  26.825  30.802  1.00  0.00    -0.014 A 
ATOM     86  C   UNL A   1      48.958  27.063  29.908  1.00  0.00     0.010 A 
ATOM     87  C   UNL A   1      48.170  26.217  32.041  1.00  0.00     0.010 A 
ATOM     88  C   UNL A   1      50.259  26.671  30.237  1.00  0.00     0.020 A 
ATOM     89  C   UNL A   1      49.472  25.847  32.383  1.00  0.00     0.020 A 
ATOM     90  C   UNL A   1      50.506  26.064  31.472  1.00  0.00     0.054 A 
BRANCH  90  91
ATOM     91  S   UNL A   1      52.210  25.606  31.895  1.00  0.00     0.124 S 
ATOM     92  O   UNL A   1      52.079  24.179  32.178  1.00  0.00    -0.237 OA
ATOM     93  O   UNL A   1      52.945  25.940  30.678  1.00  0.00    -0.237 OA
ATOM     94  O   UNL A   1      52.517  26.446  33.050  1.00  0.00    -0.744 OA
ENDBRANCH  90  91
ENDBRANCH  64  85
ENDBRANCH  38  39
ENDBRANCH  30  33
ENDBRANCH  28  29
ENDBRANCH   1  28
TORSDOF 16
ENDMDL
MODEL 2
REMARK VINA RESULT:     -12.4      2.944      3.729
REMARK SMILES Cc1ccc(-c2nc(C)c(C(=O)N3CCC(C(=O)NCCCCNC(=O)c4ccc(-c5c6nc(c(-c7ccc(S(=O)(=O)[O-])cc7)c7ccc([nH]7)c(-c7ccc(S(=O)(=O)[O-])cc7)c7nc(c(-c8ccc(S(=O)(=O)[O-])cc8)c8ccc5[nH]8)C=C7)C=C6)cc4)CC3)s2)o1
REMARK SMILES IDX 22 1 21 2 20 3 19 4 17 5 18 6 16 8 11 9 12 10 13 11 14 12
REMARK SMILES IDX 88 13 15 14 87 15 10 16 6 17 7 18 89 19 8 20 9 21 5 22 1 23
REMARK SMILES IDX 2 24 3 25 90 26 4 27 23 28 24 29 25 30 26 32 27 33 28 34
REMARK SMILES IDX 86 35 29 36 85 37 30 38 31 39 32 40 79 41 33 42 84 43 78 44
REMARK SMILES IDX 80 45 34 46 83 47 77 48 76 49 35 51 65 52 46 53 64 54 47 55
REMARK SMILES IDX 50 56 63 57 81 58 48 59 49 60 62 62 82 63 51 64 36 65 37 66
REMARK SMILES IDX 45 67 38 68 44 69 39 70 40 71 41 72 42 73 43 74 66 75 67 76
REMARK SMILES IDX 75 77 68 78 74 79 69 80 70 81 71 82 72 83 73 84 52 85 53 86
REMARK SMILES IDX 61 87 54 88 60 89 55 90 56 91 57 92 58 93 59 94
REMARK H PARENT 19 7 24 31 80 50 50 61
REMARK Flexibility Score: inf
ROOT
ATOM      1  C   UNL A   1      35.106  32.120  28.058  1.00  0.00     0.023 C 
ENDROOT
BRANCH   1   2
ATOM      2  C   UNL A   1      34.786  30.671  27.695  1.00  0.00     0.023 C 
BRANCH   2   3
ATOM      3  C   UNL A   1      33.409  30.462  27.071  1.00  0.00     0.116 C 
BRANCH   3   4
ATOM      4  N   UNL A   1      33.483  30.286  25.629  1.00  0.00    -0.356 N 
ATOM      5  C   UNL A   1      33.140  29.230  24.842  1.00  0.00     0.223 C 
ATOM      6  O   UNL A   1      33.303  29.332  23.625  1.00  0.00    -0.275 OA
ATOM      7  H   UNL A   1      33.842  31.062  25.140  1.00  0.00     0.163 HD
BRANCH   5   8
ATOM      8  C   UNL A   1      32.552  27.956  25.430  1.00  0.00     0.082 C 
ATOM      9  C   UNL A   1      31.421  24.249  24.111  1.00  0.00     0.265 C 
ATOM     10  O   UNL A   1      30.848  24.516  23.054  1.00  0.00    -0.268 OA
ATOM     11  N   UNL A   1      31.656  25.263  25.038  1.00  0.00    -0.338 N 
ATOM     12  C   UNL A   1      30.649  26.291  25.232  1.00  0.00     0.120 C 
ATOM     13  C   UNL A   1      32.922  25.456  25.731  1.00  0.00     0.120 C 
ATOM     14  C   UNL A   1      31.156  27.670  24.864  1.00  0.00     0.035 C 
ATOM     15  C   UNL A   1      33.552  26.790  25.350  1.00  0.00     0.035 C 
BRANCH   9  16
ATOM     16  C   UNL A   1      31.748  22.885  24.506  1.00  0.00     0.115 A 
ATOM     17  C   UNL A   1      32.430  20.551  24.419  1.00  0.00     0.159 A 
ATOM     18  N   UNL A   1      31.651  20.750  25.457  1.00  0.00    -0.237 NA
ATOM     19  S   UNL A   1      32.817  21.952  23.518  1.00  0.00    -0.105 S 
ATOM     20  C   UNL A   1      31.238  22.070  25.510  1.00  0.00     0.062 A 
ATOM     21  C   UNL A   1      30.251  22.393  26.573  1.00  0.00     0.068 C 
BRANCH  17  22
ATOM     22  C   UNL A   1      32.852  19.230  24.049  1.00  0.00     0.162 A 
ATOM     23  C   UNL A   1      34.988  16.460  24.844  1.00  0.00     0.087 C 
ATOM     24  C   UNL A   1      34.002  17.341  24.186  1.00  0.00     0.101 A 
ATOM     25  C   UNL A   1      33.197  17.219  23.078  1.00  0.00     0.046 A 
ATOM     26  O   UNL A   1      33.812  18.554  24.765  1.00  0.00    -0.459 OA
ATOM     27  C   UNL A   1      32.448  18.421  22.999  1.00  0.00     0.054 A 
ENDBRANCH  17  22
ENDBRANCH   9  16
ENDBRANCH   5   8
ENDBRANCH   3   4
ENDBRANCH   2   3
ENDBRANCH   1   2
BRANCH   1  28
ATOM     28  C   UNL A   1      36.059  32.296  29.234  1.00  0.00     0.116 C 
BRANCH  28  29
ATOM     29  N   UNL A   1      35.747  31.430  30.361  1.00  0.00    -0.352 N 
ATOM     30  C   UNL A   1      36.520  30.442  30.923  1.00  0.00     0.251 C 
ATOM     31  H   UNL A   1      34.865  31.572  30.776  1.00  0.00     0.163 HD
ATOM     32  O   UNL A   1      36.062  29.724  31.806  1.00  0.00    -0.269 OA
BRANCH  30  33
ATOM     33  C   UNL A   1      37.894  30.231  30.424  1.00  0.00     0.039 A 
ATOM     34  C   UNL A   1      38.943  30.167  31.343  1.00  0.00     0.014 A 
ATOM     35  C   UNL A   1      38.134  30.047  29.060  1.00  0.00     0.014 A 
ATOM     36  C   UNL A   1      40.228  29.847  30.900  1.00  0.00     0.010 A 
ATOM     37  C   UNL A   1      39.399  29.658  28.631  1.00  0.00     0.010 A 
ATOM     38  C   UNL A   1      40.458  29.553  29.546  1.00  0.00    -0.014 A 
BRANCH  38  39
ATOM     39  C   UNL A   1      41.796  29.122  29.067  1.00  0.00     0.031 A 
ATOM     40  C   UNL A   1      42.919  30.119  28.973  1.00  0.00     0.074 A 
ATOM     41  C   UNL A   1      41.978  27.853  28.646  1.00  0.00     0.049 A 
ATOM     42  N   UNL A   1      44.132  29.951  28.515  1.00  0.00    -0.248 NA
ATOM     43  C   UNL A   1      42.635  31.492  29.427  1.00  0.00     0.031 C 
ATOM     44  C   UNL A   1      40.954  26.804  28.640  1.00  0.00     0.029 A 
ATOM     45  N   UNL A   1      43.088  27.232  28.130  1.00  0.00    -0.354 N 
ATOM     46  C   UNL A   1      44.744  31.196  28.596  1.00  0.00     0.074 A 
ATOM     47  C   UNL A   1      43.760  32.119  29.116  1.00  0.00     0.031 C 
ATOM     48  C   UNL A   1      41.491  25.666  28.168  1.00  0.00     0.029 A 
ATOM     49  C   UNL A   1      42.882  25.911  27.802  1.00  0.00     0.049 A 
ATOM     50  H   UNL A   1      43.951  27.688  28.007  1.00  0.00     0.167 HD
ATOM     51  C   UNL A   1      46.016  31.537  28.281  1.00  0.00     0.031 A 
ATOM     52  C   UNL A   1      43.716  25.004  27.259  1.00  0.00     0.031 A 
ATOM     53  C   UNL A   1      47.004  30.608  27.804  1.00  0.00     0.049 A 
ATOM     54  C   UNL A   1      45.129  25.408  26.936  1.00  0.00     0.074 A 
ATOM     55  C   UNL A   1      48.344  30.839  27.545  1.00  0.00     0.029 A 
ATOM     56  N   UNL A   1      46.764  29.275  27.512  1.00  0.00    -0.354 N 
ATOM     57  N   UNL A   1      45.714  26.570  27.106  1.00  0.00    -0.248 NA
ATOM     58  C   UNL A   1      45.999  24.375  26.356  1.00  0.00     0.031 C 
ATOM     59  C   UNL A   1      48.903  29.658  27.050  1.00  0.00     0.029 A 
ATOM     60  C   UNL A   1      47.924  28.677  27.051  1.00  0.00     0.049 A 
ATOM     61  H   UNL A   1      45.896  28.820  27.618  1.00  0.00     0.167 HD
ATOM     62  C   UNL A   1      47.028  26.397  26.686  1.00  0.00     0.074 A 
ATOM     63  C   UNL A   1      47.156  25.017  26.266  1.00  0.00     0.031 C 
ATOM     64  C   UNL A   1      48.039  27.299  26.650  1.00  0.00     0.031 A 
BRANCH  51  65
ATOM     65  C   UNL A   1      46.422  32.976  28.442  1.00  0.00    -0.014 A 
ATOM     66  C   UNL A   1      46.899  33.465  29.672  1.00  0.00     0.010 A 
ATOM     67  C   UNL A   1      46.401  33.832  27.326  1.00  0.00     0.010 A 
ATOM     68  C   UNL A   1      47.328  34.789  29.787  1.00  0.00     0.020 A 
ATOM     69  C   UNL A   1      46.852  35.150  27.431  1.00  0.00     0.020 A 
ATOM     70  C   UNL A   1      47.303  35.625  28.664  1.00  0.00     0.054 A 
BRANCH  70  71
ATOM     71  S   UNL A   1      47.920  37.322  28.829  1.00  0.00     0.124 S 
ATOM     72  O   UNL A   1      48.246  37.659  27.445  1.00  0.00    -0.237 OA
ATOM     73  O   UNL A   1      46.770  38.026  29.392  1.00  0.00    -0.237 OA
ATOM     74  O   UNL A   1      49.066  37.190  29.725  1.00  0.00    -0.744 OA
ENDBRANCH  70  71
ENDBRANCH  51  65
BRANCH  52  75
ATOM     75  C   UNL A   1      43.250  23.616  26.990  1.00  0.00    -0.014 A 
ATOM     76  C   UNL A   1      43.051  22.712  28.050  1.00  0.00     0.010 A 
ATOM     77  C   UNL A   1      43.037  23.178  25.670  1.00  0.00     0.010 A 
ATOM     78  C   UNL A   1      42.688  21.387  27.793  1.00  0.00     0.020 A 
ATOM     79  C   UNL A   1      42.645  21.861  25.412  1.00  0.00     0.020 A 
ATOM     80  C   UNL A   1      42.493  20.968  26.474  1.00  0.00     0.054 A 
BRANCH  80  81
ATOM     81  S   UNL A   1      42.013  19.247  26.161  1.00  0.00     0.124 S 
ATOM     82  O   UNL A   1      42.888  18.887  25.050  1.00  0.00    -0.237 OA
ATOM     83  O   UNL A   1      42.309  18.597  27.436  1.00  0.00    -0.237 OA
ATOM     84  O   UNL A   1      40.592  19.344  25.836  1.00  0.00    -0.744 OA
ENDBRANCH  80  81
ENDBRANCH  52  75
BRANCH  64  85
ATOM     85  C   UNL A   1      49.385  26.815  26.187  1.00  0.00    -0.014 A 
ATOM     86  C   UNL A   1      49.845  27.077  24.885  1.00  0.00     0.010 A 
ATOM     87  C   UNL A   1      50.225  26.138  27.090  1.00  0.00     0.010 A 
ATOM     88  C   UNL A   1      51.111  26.642  24.484  1.00  0.00     0.020 A 
ATOM     89  C   UNL A   1      51.501  25.726  26.701  1.00  0.00     0.020 A 
ATOM     90  C   UNL A   1      51.930  25.968  25.396  1.00  0.00     0.054 A 
BRANCH  90  91
ATOM     91  S   UNL A   1      53.588  25.454  24.867  1.00  0.00     0.124 S 
ATOM     92  O   UNL A   1      53.552  24.015  25.112  1.00  0.00    -0.237 OA
ATOM     93  O   UNL A   1      53.616  25.851  23.461  1.00  0.00    -0.237 OA
ATOM     94  O   UNL A   1      54.480  26.215  25.740  1.00  0.00    -0.744 OA
ENDBRANCH  90  91
ENDBRANCH  64  85
ENDBRANCH  38  39
ENDBRANCH  30  33
ENDBRANCH  28  29
ENDBRANCH   1  28
TORSDOF 16
ENDMDL
MODEL 3
REMARK VINA RESULT:     -12.2      4.185      5.343
REMARK SMILES Cc1ccc(-c2nc(C)c(C(=O)N3CCC(C(=O)NCCCCNC(=O)c4ccc(-c5c6nc(c(-c7ccc(S(=O)(=O)[O-])cc7)c7ccc([nH]7)c(-c7ccc(S(=O)(=O)[O-])cc7)c7nc(c(-c8ccc(S(=O)(=O)[O-])cc8)c8ccc5[nH]8)C=C7)C=C6)cc4)CC3)s2)o1
REMARK SMILES IDX 22 1 21 2 20 3 19 4 17 5 18 6 16 8 11 9 12 10 13 11 14 12
REMARK SMILES IDX 88 13 15 14 87 15 10 16 6 17 7 18 89 19 8 20 9 21 5 22 1 23
REMARK SMILES IDX 2 24 3 25 90 26 4 27 23 28 24 29 25 30 26 32 27 33 28 34
REMARK SMILES IDX 86 35 29 36 85 37 30 38 31 39 32 40 79 41 33 42 84 43 78 44
REMARK SMILES IDX 80 45 34 46 83 47 77 48 76 49 35 51 65 52 46 53 64 54 47 55
REMARK SMILES IDX 50 56 63 57 81 58 48 59 49 60 62 62 82 63 51 64 36 65 37 66
REMARK SMILES IDX 45 67 38 68 44 69 39 70 40 71 41 72 42 73 43 74 66 75 67 76
REMARK SMILES IDX 75 77 68 78 74 79 69 80 70 81 71 82 72 83 73 84 52 85 53 86
REMARK SMILES IDX 61 87 54 88 60 89 55 90 56 91 57 92 58 93 59 94
REMARK H PARENT 19 7 24 31 80 50 50 61
REMARK Flexibility Score: inf
ROOT
ATOM      1  C   UNL A   1      31.626  32.211  26.801  1.00  0.00     0.023 C 
ENDROOT
BRANCH   1   2
ATOM      2  C   UNL A   1      31.669  30.715  26.501  1.00  0.00     0.023 C 
BRANCH   2   3
ATOM      3  C   UNL A   1      33.023  30.201  26.022  1.00  0.00     0.116 C 
BRANCH   3   4
ATOM      4  N   UNL A   1      32.971  29.716  24.652  1.00  0.00    -0.356 N 
ATOM      5  C   UNL A   1      33.010  28.450  24.154  1.00  0.00     0.223 C 
ATOM      6  O   UNL A   1      32.949  28.301  22.932  1.00  0.00    -0.275 OA
ATOM      7  H   UNL A   1      32.896  30.422  23.970  1.00  0.00     0.163 HD
BRANCH   5   8
ATOM      8  C   UNL A   1      33.106  27.237  25.067  1.00  0.00     0.082 C 
ATOM      9  C   UNL A   1      31.939  23.313  25.029  1.00  0.00     0.265 C 
ATOM     10  O   UNL A   1      30.800  23.388  24.563  1.00  0.00    -0.268 OA
ATOM     11  N   UNL A   1      32.554  24.462  25.521  1.00  0.00    -0.338 N 
ATOM     12  C   UNL A   1      31.756  25.439  26.241  1.00  0.00     0.120 C 
ATOM     13  C   UNL A   1      33.932  24.836  25.234  1.00  0.00     0.120 C 
ATOM     14  C   UNL A   1      31.720  26.782  25.541  1.00  0.00     0.035 C 
ATOM     15  C   UNL A   1      33.989  26.140  24.449  1.00  0.00     0.035 C 
BRANCH   9  16
ATOM     16  C   UNL A   1      32.629  22.044  25.217  1.00  0.00     0.115 A 
ATOM     17  C   UNL A   1      33.249  19.698  25.039  1.00  0.00     0.159 A 
ATOM     18  N   UNL A   1      33.652  20.180  26.192  1.00  0.00    -0.237 NA
ATOM     19  S   UNL A   1      32.526  20.835  23.986  1.00  0.00    -0.105 S 
ATOM     20  C   UNL A   1      33.290  21.510  26.317  1.00  0.00     0.062 A 
ATOM     21  C   UNL A   1      33.583  22.136  27.633  1.00  0.00     0.068 C 
BRANCH  17  22
ATOM     22  C   UNL A   1      33.355  18.297  24.741  1.00  0.00     0.162 A 
ATOM     23  C   UNL A   1      32.480  14.969  25.751  1.00  0.00     0.087 C 
ATOM     24  C   UNL A   1      33.046  16.122  25.022  1.00  0.00     0.101 A 
ATOM     25  C   UNL A   1      33.811  16.256  23.887  1.00  0.00     0.046 A 
ATOM     26  O   UNL A   1      32.783  17.344  25.551  1.00  0.00    -0.459 OA
ATOM     27  C   UNL A   1      33.996  17.650  23.697  1.00  0.00     0.054 A 
ENDBRANCH  17  22
ENDBRANCH   9  16
ENDBRANCH   5   8
ENDBRANCH   3   4
ENDBRANCH   2   3
ENDBRANCH   1   2
BRANCH   1  28
ATOM     28  C   UNL A   1      32.948  32.819  27.254  1.00  0.00     0.116 C 
BRANCH  28  29
ATOM     29  N   UNL A   1      32.798  34.132  27.863  1.00  0.00    -0.352 N 
ATOM     30  C   UNL A   1      33.497  34.674  28.916  1.00  0.00     0.251 C 
ATOM     31  H   UNL A   1      32.104  34.709  27.468  1.00  0.00     0.163 HD
ATOM     32  O   UNL A   1      33.170  35.760  29.383  1.00  0.00    -0.269 OA
BRANCH  30  33
ATOM     33  C   UNL A   1      34.619  33.914  29.503  1.00  0.00     0.039 A 
ATOM     34  C   UNL A   1      35.923  34.240  29.127  1.00  0.00     0.014 A 
ATOM     35  C   UNL A   1      34.382  32.920  30.456  1.00  0.00     0.014 A 
ATOM     36  C   UNL A   1      36.999  33.615  29.761  1.00  0.00     0.010 A 
ATOM     37  C   UNL A   1      35.454  32.352  31.137  1.00  0.00     0.010 A 
ATOM     38  C   UNL A   1      36.773  32.695  30.798  1.00  0.00    -0.014 A 
BRANCH  38  39
ATOM     39  C   UNL A   1      37.900  32.086  31.549  1.00  0.00     0.031 A 
ATOM     40  C   UNL A   1      38.277  32.619  32.904  1.00  0.00     0.074 A 
ATOM     41  C   UNL A   1      38.629  31.104  30.978  1.00  0.00     0.049 A 
ATOM     42  N   UNL A   1      39.271  32.267  33.679  1.00  0.00    -0.248 NA
ATOM     43  C   UNL A   1      37.449  33.709  33.448  1.00  0.00     0.031 C 
ATOM     44  C   UNL A   1      38.395  30.534  29.648  1.00  0.00     0.029 A 
ATOM     45  N   UNL A   1      39.725  30.419  31.441  1.00  0.00    -0.354 N 
ATOM     46  C   UNL A   1      39.205  33.108  34.783  1.00  0.00     0.074 A 
ATOM     47  C   UNL A   1      38.097  34.010  34.565  1.00  0.00     0.031 C 
ATOM     48  C   UNL A   1      39.303  29.571  29.414  1.00  0.00     0.029 A 
ATOM     49  C   UNL A   1      40.207  29.481  30.556  1.00  0.00     0.049 A 
ATOM     50  H   UNL A   1      40.129  30.583  32.323  1.00  0.00     0.167 HD
ATOM     51  C   UNL A   1      39.988  33.117  35.888  1.00  0.00     0.031 A 
ATOM     52  C   UNL A   1      41.262  28.649  30.650  1.00  0.00     0.031 A 
ATOM     53  C   UNL A   1      41.064  32.191  36.121  1.00  0.00     0.049 A 
ATOM     54  C   UNL A   1      42.104  28.671  31.898  1.00  0.00     0.074 A 
ATOM     55  C   UNL A   1      41.854  32.063  37.250  1.00  0.00     0.029 A 
ATOM     56  N   UNL A   1      41.501  31.240  35.214  1.00  0.00    -0.354 N 
ATOM     57  N   UNL A   1      41.968  29.414  32.971  1.00  0.00    -0.248 NA
ATOM     58  C   UNL A   1      43.235  27.735  31.952  1.00  0.00     0.031 C 
ATOM     59  C   UNL A   1      42.802  31.065  37.007  1.00  0.00     0.029 A 
ATOM     60  C   UNL A   1      42.567  30.536  35.748  1.00  0.00     0.049 A 
ATOM     61  H   UNL A   1      41.110  31.085  34.323  1.00  0.00     0.167 HD
ATOM     62  C   UNL A   1      42.976  29.010  33.839  1.00  0.00     0.074 A 
ATOM     63  C   UNL A   1      43.705  27.951  33.174  1.00  0.00     0.031 C 
ATOM     64  C   UNL A   1      43.273  29.475  35.078  1.00  0.00     0.031 A 
BRANCH  51  65
ATOM     65  C   UNL A   1      39.716  34.159  36.937  1.00  0.00    -0.014 A 
ATOM     66  C   UNL A   1      39.052  33.832  38.134  1.00  0.00     0.010 A 
ATOM     67  C   UNL A   1      40.203  35.468  36.760  1.00  0.00     0.010 A 
ATOM     68  C   UNL A   1      38.861  34.800  39.123  1.00  0.00     0.020 A 
ATOM     69  C   UNL A   1      40.035  36.432  37.756  1.00  0.00     0.020 A 
ATOM     70  C   UNL A   1      39.355  36.094  38.929  1.00  0.00     0.054 A 
BRANCH  70  71
ATOM     71  S   UNL A   1      39.143  37.314  40.254  1.00  0.00     0.124 S 
ATOM     72  O   UNL A   1      40.523  37.722  40.511  1.00  0.00    -0.237 OA
ATOM     73  O   UNL A   1      38.297  38.325  39.626  1.00  0.00    -0.237 OA
ATOM     74  O   UNL A   1      38.508  36.554  41.328  1.00  0.00    -0.744 OA
ENDBRANCH  70  71
ENDBRANCH  51  65
BRANCH  52  75
ATOM     75  C   UNL A   1      41.587  27.713  29.540  1.00  0.00    -0.014 A 
ATOM     76  C   UNL A   1      42.534  28.068  28.562  1.00  0.00     0.010 A 
ATOM     77  C   UNL A   1      40.927  26.476  29.433  1.00  0.00     0.010 A 
ATOM     78  C   UNL A   1      42.785  27.224  27.477  1.00  0.00     0.020 A 
ATOM     79  C   UNL A   1      41.197  25.615  28.365  1.00  0.00     0.020 A 
ATOM     80  C   UNL A   1      42.109  26.004  27.382  1.00  0.00     0.054 A 
BRANCH  80  81
ATOM     81  S   UNL A   1      42.454  24.917  25.971  1.00  0.00     0.124 S 
ATOM     82  O   UNL A   1      41.437  23.882  26.132  1.00  0.00    -0.237 OA
ATOM     83  O   UNL A   1      42.274  25.810  24.829  1.00  0.00    -0.237 OA
ATOM     84  O   UNL A   1      43.831  24.486  26.203  1.00  0.00    -0.744 OA
ENDBRANCH  80  81
ENDBRANCH  52  75
BRANCH  64  85
ATOM     85  C   UNL A   1      44.403  28.811  35.816  1.00  0.00    -0.014 A 
ATOM     86  C   UNL A   1      44.179  27.692  36.636  1.00  0.00     0.010 A 
ATOM     87  C   UNL A   1      45.716  29.281  35.637  1.00  0.00     0.010 A 
ATOM     88  C   UNL A   1      45.248  27.073  37.290  1.00  0.00     0.020 A 
ATOM     89  C   UNL A   1      46.789  28.650  36.267  1.00  0.00     0.020 A 
ATOM     90  C   UNL A   1      46.547  27.558  37.102  1.00  0.00     0.054 A 
BRANCH  90  91
ATOM     91  S   UNL A   1      47.923  26.710  37.925  1.00  0.00     0.124 S 
ATOM     92  O   UNL A   1      47.652  25.311  37.606  1.00  0.00    -0.237 OA
ATOM     93  O   UNL A   1      49.095  27.288  37.272  1.00  0.00    -0.237 OA
ATOM     94  O   UNL A   1      47.760  27.072  39.331  1.00  0.00    -0.744 OA
ENDBRANCH  90  91
ENDBRANCH  64  85
ENDBRANCH  38  39
ENDBRANCH  30  33
ENDBRANCH  28  29
ENDBRANCH   1  28
TORSDOF 16
ENDMDL
