MODEL 1
REMARK VINA RESULT:     -11.3      0.000      0.000
REMARK SMILES C[C@H](NC(=O)N1CC[C@H](C(=O)NCCCCNC(=O)c2ccc(-c3c4nc(c(-c5ccc(S(=O)(=O)[O-])cc5)c5ccc([nH]5)c(-c5ccc(S(=O)(=O)[O-])cc5)c5nc(c(-c6ccc(S(=O)(=O)[O-])cc6)c6ccc3[nH]6)C=C5)C=C4)cc2)[C@H]1C)c1ccsc1
REMARK SMILES IDX 14 1 13 2 12 3 10 4 11 5 9 7 6 8 7 9 80 10 8 11 81 12 4 13
REMARK SMILES IDX 3 14 5 16 2 17 1 18 82 19 83 20 86 21 84 22 85 23 15 24
REMARK SMILES IDX 16 25 17 26 18 27 19 29 20 30 21 31 79 32 22 33 78 34 23 35
REMARK SMILES IDX 24 36 25 37 72 38 26 39 77 40 71 41 73 42 27 43 76 44 70 45
REMARK SMILES IDX 69 46 28 48 58 49 39 50 57 51 40 52 43 53 56 54 74 55 41 56
REMARK SMILES IDX 42 57 55 59 75 60 44 61 29 62 30 63 38 64 31 65 37 66 32 67
REMARK SMILES IDX 33 68 34 69 35 70 36 71 59 72 60 73 68 74 61 75 67 76 62 77
REMARK SMILES IDX 63 78 64 79 65 80 66 81 45 82 46 83 54 84 47 85 53 86 48 87
REMARK SMILES IDX 49 88 50 89 51 90 52 91
REMARK H PARENT 12 6 3 15 17 28 73 47 43 58
REMARK Flexibility Score: inf
ROOT
ATOM      1  C   UNL A   1      38.332  23.536  26.215  1.00  0.00     0.023 C 
ENDROOT
BRANCH   1   2
ATOM      2  C   UNL A   1      37.165  22.838  25.523  1.00  0.00     0.116 C 
BRANCH   2   3
ATOM      3  N   UNL A   1      36.271  22.212  26.482  1.00  0.00    -0.356 N 
ATOM      4  C   UNL A   1      34.934  21.943  26.409  1.00  0.00     0.225 C 
ATOM      5  O   UNL A   1      34.393  21.428  27.385  1.00  0.00    -0.275 OA
ATOM      6  H   UNL A   1      36.698  21.937  27.324  1.00  0.00     0.163 HD
BRANCH   4   7
ATOM      7  C   UNL A   1      34.181  22.250  25.130  1.00  0.00     0.102 C 
ATOM      8  N   UNL A   1      32.120  23.394  25.564  1.00  0.00    -0.321 N 
ATOM      9  C   UNL A   1      31.862  21.955  25.595  1.00  0.00     0.122 C 
ATOM     10  C   UNL A   1      33.515  23.647  25.150  1.00  0.00     0.096 C 
ATOM     11  C   UNL A   1      33.022  21.287  24.896  1.00  0.00     0.037 C 
ATOM     12  C   UNL A   1      33.679  24.186  23.722  1.00  0.00     0.032 C 
BRANCH   8  13
ATOM     13  C   UNL A   1      31.335  24.116  26.414  1.00  0.00     0.318 C 
ATOM     14  N   UNL A   1      31.198  25.445  26.400  1.00  0.00    -0.331 N 
ATOM     15  H   UNL A   1      31.125  25.808  27.312  1.00  0.00     0.165 HD
ATOM     16  O   UNL A   1      30.659  23.564  27.294  1.00  0.00    -0.249 OA
BRANCH  14  17
ATOM     17  C   UNL A   1      31.128  26.494  25.403  1.00  0.00     0.112 C 
ATOM     18  C   UNL A   1      29.830  26.598  24.625  1.00  0.00     0.036 C 
BRANCH  17  19
ATOM     19  C   UNL A   1      31.816  27.765  25.857  1.00  0.00    -0.015 A 
ATOM     20  C   UNL A   1      31.464  29.073  25.354  1.00  0.00     0.017 A 
ATOM     21  C   UNL A   1      32.886  27.892  26.724  1.00  0.00     0.070 A 
ATOM     22  C   UNL A   1      32.232  30.090  25.878  1.00  0.00     0.065 A 
ATOM     23  S   UNL A   1      33.384  29.507  26.989  1.00  0.00    -0.152 S 
ENDBRANCH  17  19
ENDBRANCH  14  17
ENDBRANCH   8  13
ENDBRANCH   4   7
ENDBRANCH   2   3
ENDBRANCH   1   2
BRANCH   1  24
ATOM     24  C   UNL A   1      39.462  22.606  26.654  1.00  0.00     0.023 C 
BRANCH  24  25
ATOM     25  C   UNL A   1      40.764  23.303  27.035  1.00  0.00     0.116 C 
BRANCH  25  26
ATOM     26  N   UNL A   1      41.329  24.091  25.950  1.00  0.00    -0.352 N 
ATOM     27  C   UNL A   1      41.667  25.424  25.939  1.00  0.00     0.251 C 
ATOM     28  H   UNL A   1      41.489  23.603  25.109  1.00  0.00     0.163 HD
ATOM     29  O   UNL A   1      42.014  25.961  24.896  1.00  0.00    -0.269 OA
BRANCH  27  30
ATOM     30  C   UNL A   1      41.572  26.204  27.191  1.00  0.00     0.039 A 
ATOM     31  C   UNL A   1      42.571  27.135  27.484  1.00  0.00     0.014 A 
ATOM     32  C   UNL A   1      40.483  26.042  28.051  1.00  0.00     0.014 A 
ATOM     33  C   UNL A   1      42.440  27.956  28.607  1.00  0.00     0.010 A 
ATOM     34  C   UNL A   1      40.318  26.909  29.128  1.00  0.00     0.010 A 
ATOM     35  C   UNL A   1      41.294  27.876  29.416  1.00  0.00    -0.014 A 
BRANCH  35  36
ATOM     36  C   UNL A   1      41.097  28.792  30.568  1.00  0.00     0.031 A 
ATOM     37  C   UNL A   1      41.962  28.657  31.793  1.00  0.00     0.074 A 
ATOM     38  C   UNL A   1      40.103  29.702  30.538  1.00  0.00     0.049 A 
ATOM     39  N   UNL A   1      41.896  29.314  32.923  1.00  0.00    -0.248 NA
ATOM     40  C   UNL A   1      43.022  27.637  31.752  1.00  0.00     0.031 C 
ATOM     41  C   UNL A   1      39.172  29.907  29.424  1.00  0.00     0.029 A 
ATOM     42  N   UNL A   1      39.703  30.623  31.474  1.00  0.00    -0.354 N 
ATOM     43  C   UNL A   1      42.893  28.778  33.730  1.00  0.00     0.074 A 
ATOM     44  C   UNL A   1      43.515  27.709  32.980  1.00  0.00     0.031 C 
ATOM     45  C   UNL A   1      38.330  30.907  29.731  1.00  0.00     0.029 A 
ATOM     46  C   UNL A   1      38.630  31.386  31.077  1.00  0.00     0.049 A 
ATOM     47  H   UNL A   1      40.143  30.726  32.348  1.00  0.00     0.167 HD
ATOM     48  C   UNL A   1      43.274  29.157  34.973  1.00  0.00     0.031 A 
ATOM     49  C   UNL A   1      37.959  32.359  31.725  1.00  0.00     0.031 A 
ATOM     50  C   UNL A   1      42.664  30.229  35.712  1.00  0.00     0.049 A 
ATOM     51  C   UNL A   1      38.391  32.748  33.113  1.00  0.00     0.074 A 
ATOM     52  C   UNL A   1      43.008  30.717  36.960  1.00  0.00     0.029 A 
ATOM     53  N   UNL A   1      41.588  30.984  35.269  1.00  0.00    -0.354 N 
ATOM     54  N   UNL A   1      39.373  32.265  33.836  1.00  0.00    -0.248 NA
ATOM     55  C   UNL A   1      37.632  33.822  33.768  1.00  0.00     0.031 C 
ATOM     56  C   UNL A   1      42.111  31.737  37.293  1.00  0.00     0.029 A 
ATOM     57  C   UNL A   1      41.245  31.922  36.227  1.00  0.00     0.049 A 
ATOM     58  H   UNL A   1      41.136  30.869  34.403  1.00  0.00     0.167 HD
ATOM     59  C   UNL A   1      39.369  32.999  35.018  1.00  0.00     0.074 A 
ATOM     60  C   UNL A   1      38.296  33.966  34.906  1.00  0.00     0.031 C 
ATOM     61  C   UNL A   1      40.180  32.884  36.097  1.00  0.00     0.031 A 
BRANCH  48  62
ATOM     62  C   UNL A   1      44.413  28.406  35.611  1.00  0.00    -0.014 A 
ATOM     63  C   UNL A   1      45.744  28.820  35.426  1.00  0.00     0.010 A 
ATOM     64  C   UNL A   1      44.148  27.309  36.450  1.00  0.00     0.010 A 
ATOM     65  C   UNL A   1      46.793  28.128  36.037  1.00  0.00     0.020 A 
ATOM     66  C   UNL A   1      45.191  26.631  37.087  1.00  0.00     0.020 A 
ATOM     67  C   UNL A   1      46.509  27.037  36.864  1.00  0.00     0.054 A 
BRANCH  67  68
ATOM     68  S   UNL A   1      47.889  26.181  37.675  1.00  0.00     0.124 S 
ATOM     69  O   UNL A   1      47.389  24.810  37.748  1.00  0.00    -0.237 OA
ATOM     70  O   UNL A   1      48.992  26.399  36.743  1.00  0.00    -0.237 OA
ATOM     71  O   UNL A   1      48.015  26.867  38.958  1.00  0.00    -0.744 OA
ENDBRANCH  67  68
ENDBRANCH  48  62
BRANCH  49  72
ATOM     72  C   UNL A   1      36.811  33.044  31.069  1.00  0.00    -0.014 A 
ATOM     73  C   UNL A   1      35.496  32.819  31.516  1.00  0.00     0.010 A 
ATOM     74  C   UNL A   1      37.024  33.912  29.983  1.00  0.00     0.010 A 
ATOM     75  C   UNL A   1      34.415  33.425  30.869  1.00  0.00     0.020 A 
ATOM     76  C   UNL A   1      35.946  34.543  29.353  1.00  0.00     0.020 A 
ATOM     77  C   UNL A   1      34.647  34.281  29.791  1.00  0.00     0.054 A 
BRANCH  77  78
ATOM     78  S   UNL A   1      33.230  35.078  28.984  1.00  0.00     0.124 S 
ATOM     79  O   UNL A   1      32.800  34.050  28.042  1.00  0.00    -0.237 OA
ATOM     80  O   UNL A   1      32.328  35.330  30.105  1.00  0.00    -0.237 OA
ATOM     81  O   UNL A   1      33.811  36.277  28.382  1.00  0.00    -0.744 OA
ENDBRANCH  77  78
ENDBRANCH  49  72
BRANCH  61  82
ATOM     82  C   UNL A   1      39.972  33.855  37.229  1.00  0.00    -0.014 A 
ATOM     83  C   UNL A   1      40.717  35.043  37.319  1.00  0.00     0.010 A 
ATOM     84  C   UNL A   1      38.973  33.597  38.185  1.00  0.00     0.010 A 
ATOM     85  C   UNL A   1      40.488  35.941  38.364  1.00  0.00     0.020 A 
ATOM     86  C   UNL A   1      38.722  34.506  39.215  1.00  0.00     0.020 A 
ATOM     87  C   UNL A   1      39.492  35.668  39.306  1.00  0.00     0.054 A 
BRANCH  87  88
ATOM     88  S   UNL A   1      39.182  36.871  40.627  1.00  0.00     0.124 S 
ATOM     89  O   UNL A   1      40.519  37.407  40.868  1.00  0.00    -0.237 OA
ATOM     90  O   UNL A   1      38.238  37.795  40.003  1.00  0.00    -0.237 OA
ATOM     91  O   UNL A   1      38.631  36.063  41.711  1.00  0.00    -0.744 OA
ENDBRANCH  87  88
ENDBRANCH  61  82
ENDBRANCH  35  36
ENDBRANCH  27  30
ENDBRANCH  25  26
ENDBRANCH  24  25
ENDBRANCH   1  24
TORSDOF 17
ENDMDL
MODEL 2
REMARK VINA RESULT:     -11.2      2.344      8.940
REMARK SMILES C[C@H](NC(=O)N1CC[C@H](C(=O)NCCCCNC(=O)c2ccc(-c3c4nc(c(-c5ccc(S(=O)(=O)[O-])cc5)c5ccc([nH]5)c(-c5ccc(S(=O)(=O)[O-])cc5)c5nc(c(-c6ccc(S(=O)(=O)[O-])cc6)c6ccc3[nH]6)C=C5)C=C4)cc2)[C@H]1C)c1ccsc1
REMARK SMILES IDX 14 1 13 2 12 3 10 4 11 5 9 7 6 8 7 9 80 10 8 11 81 12 4 13
REMARK SMILES IDX 3 14 5 16 2 17 1 18 82 19 83 20 86 21 84 22 85 23 15 24
REMARK SMILES IDX 16 25 17 26 18 27 19 29 20 30 21 31 79 32 22 33 78 34 23 35
REMARK SMILES IDX 24 36 25 37 72 38 26 39 77 40 71 41 73 42 27 43 76 44 70 45
REMARK SMILES IDX 69 46 28 48 58 49 39 50 57 51 40 52 43 53 56 54 74 55 41 56
REMARK SMILES IDX 42 57 55 59 75 60 44 61 29 62 30 63 38 64 31 65 37 66 32 67
REMARK SMILES IDX 33 68 34 69 35 70 36 71 59 72 60 73 68 74 61 75 67 76 62 77
REMARK SMILES IDX 63 78 64 79 65 80 66 81 45 82 46 83 54 84 47 85 53 86 48 87
REMARK SMILES IDX 49 88 50 89 51 90 52 91
REMARK H PARENT 12 6 3 15 17 28 73 47 43 58
REMARK Flexibility Score: inf
ROOT
ATOM      1  C   UNL A   1      31.998  31.239  26.127  1.00  0.00     0.023 C 
ENDROOT
BRANCH   1   2
ATOM      2  C   UNL A   1      33.048  30.357  26.796  1.00  0.00     0.116 C 
BRANCH   2   3
ATOM      3  N   UNL A   1      32.439  29.340  27.634  1.00  0.00    -0.356 N 
ATOM      4  C   UNL A   1      31.806  28.175  27.305  1.00  0.00     0.225 C 
ATOM      5  O   UNL A   1      31.339  27.493  28.215  1.00  0.00    -0.275 OA
ATOM      6  H   UNL A   1      32.490  29.518  28.601  1.00  0.00     0.163 HD
BRANCH   4   7
ATOM      7  C   UNL A   1      31.732  27.752  25.852  1.00  0.00     0.102 C 
ATOM      8  N   UNL A   1      31.744  25.367  25.618  1.00  0.00    -0.321 N 
ATOM      9  C   UNL A   1      33.129  25.836  25.609  1.00  0.00     0.122 C 
ATOM     10  C   UNL A   1      30.822  26.520  25.634  1.00  0.00     0.096 C 
ATOM     11  C   UNL A   1      33.088  27.315  25.307  1.00  0.00     0.037 C 
ATOM     12  C   UNL A   1      30.098  26.789  24.307  1.00  0.00     0.032 C 
BRANCH   8  13
ATOM     13  C   UNL A   1      31.582  24.132  26.174  1.00  0.00     0.318 C 
ATOM     14  N   UNL A   1      31.478  22.986  25.496  1.00  0.00    -0.331 N 
ATOM     15  H   UNL A   1      30.833  22.374  25.920  1.00  0.00     0.165 HD
ATOM     16  O   UNL A   1      31.522  23.981  27.403  1.00  0.00    -0.249 OA
BRANCH  14  17
ATOM     17  C   UNL A   1      32.061  22.401  24.305  1.00  0.00     0.112 C 
ATOM     18  C   UNL A   1      31.615  22.988  22.979  1.00  0.00     0.036 C 
BRANCH  17  19
ATOM     19  C   UNL A   1      33.521  22.043  24.496  1.00  0.00    -0.015 A 
ATOM     20  C   UNL A   1      34.601  22.801  23.905  1.00  0.00     0.017 A 
ATOM     21  C   UNL A   1      34.052  20.955  25.166  1.00  0.00     0.070 A 
ATOM     22  C   UNL A   1      35.849  22.288  24.182  1.00  0.00     0.065 A 
ATOM     23  S   UNL A   1      35.762  20.897  25.161  1.00  0.00    -0.152 S 
ENDBRANCH  17  19
ENDBRANCH  14  17
ENDBRANCH   8  13
ENDBRANCH   4   7
ENDBRANCH   2   3
ENDBRANCH   1   2
BRANCH   1  24
ATOM     24  C   UNL A   1      31.671  32.526  26.883  1.00  0.00     0.023 C 
BRANCH  24  25
ATOM     25  C   UNL A   1      32.851  33.177  27.598  1.00  0.00     0.116 C 
BRANCH  25  26
ATOM     26  N   UNL A   1      32.614  34.571  27.938  1.00  0.00    -0.352 N 
ATOM     27  C   UNL A   1      33.219  35.336  28.908  1.00  0.00     0.251 C 
ATOM     28  H   UNL A   1      31.926  35.029  27.402  1.00  0.00     0.163 HD
ATOM     29  O   UNL A   1      32.808  36.464  29.146  1.00  0.00    -0.269 OA
BRANCH  27  30
ATOM     30  C   UNL A   1      34.344  34.768  29.680  1.00  0.00     0.039 A 
ATOM     31  C   UNL A   1      34.105  34.290  30.970  1.00  0.00     0.014 A 
ATOM     32  C   UNL A   1      35.619  34.674  29.116  1.00  0.00     0.014 A 
ATOM     33  C   UNL A   1      35.132  33.653  31.670  1.00  0.00     0.010 A 
ATOM     34  C   UNL A   1      36.620  33.975  29.786  1.00  0.00     0.010 A 
ATOM     35  C   UNL A   1      36.386  33.456  31.069  1.00  0.00    -0.014 A 
BRANCH  35  36
ATOM     36  C   UNL A   1      37.468  32.711  31.764  1.00  0.00     0.031 A 
ATOM     37  C   UNL A   1      37.995  33.208  33.083  1.00  0.00     0.074 A 
ATOM     38  C   UNL A   1      38.016  31.627  31.180  1.00  0.00     0.049 A 
ATOM     39  N   UNL A   1      38.979  32.738  33.806  1.00  0.00    -0.248 NA
ATOM     40  C   UNL A   1      37.349  34.402  33.652  1.00  0.00     0.031 C 
ATOM     41  C   UNL A   1      37.618  31.066  29.885  1.00  0.00     0.029 A 
ATOM     42  N   UNL A   1      39.032  30.803  31.596  1.00  0.00    -0.354 N 
ATOM     43  C   UNL A   1      39.079  33.583  34.904  1.00  0.00     0.074 A 
ATOM     44  C   UNL A   1      38.090  34.624  34.728  1.00  0.00     0.031 C 
ATOM     45  C   UNL A   1      38.363  29.978  29.628  1.00  0.00     0.029 A 
ATOM     46  C   UNL A   1      39.318  29.787  30.715  1.00  0.00     0.049 A 
ATOM     47  H   UNL A   1      39.511  30.929  32.447  1.00  0.00     0.167 HD
ATOM     48  C   UNL A   1      39.902  33.489  35.975  1.00  0.00     0.031 A 
ATOM     49  C   UNL A   1      40.249  28.814  30.772  1.00  0.00     0.031 A 
ATOM     50  C   UNL A   1      40.875  32.445  36.156  1.00  0.00     0.049 A 
ATOM     51  C   UNL A   1      41.162  28.742  31.966  1.00  0.00     0.074 A 
ATOM     52  C   UNL A   1      41.726  32.239  37.228  1.00  0.00     0.029 A 
ATOM     53  N   UNL A   1      41.125  31.430  35.246  1.00  0.00    -0.354 N 
ATOM     54  N   UNL A   1      41.202  29.520  33.021  1.00  0.00    -0.248 NA
ATOM     55  C   UNL A   1      42.150  27.654  31.981  1.00  0.00     0.031 C 
ATOM     56  C   UNL A   1      42.522  31.125  36.946  1.00  0.00     0.029 A 
ATOM     57  C   UNL A   1      42.128  30.604  35.724  1.00  0.00     0.049 A 
ATOM     58  H   UNL A   1      40.659  31.313  34.386  1.00  0.00     0.167 HD
ATOM     59  C   UNL A   1      42.196  28.995  33.840  1.00  0.00     0.074 A 
ATOM     60  C   UNL A   1      42.722  27.827  33.164  1.00  0.00     0.031 C 
ATOM     61  C   UNL A   1      42.634  29.440  35.043  1.00  0.00     0.031 A 
BRANCH  48  62
ATOM     62  C   UNL A   1      39.779  34.544  37.043  1.00  0.00    -0.014 A 
ATOM     63  C   UNL A   1      40.441  35.779  36.917  1.00  0.00     0.010 A 
ATOM     64  C   UNL A   1      38.951  34.322  38.158  1.00  0.00     0.010 A 
ATOM     65  C   UNL A   1      40.305  36.759  37.904  1.00  0.00     0.020 A 
ATOM     66  C   UNL A   1      38.789  35.309  39.134  1.00  0.00     0.020 A 
ATOM     67  C   UNL A   1      39.480  36.517  39.007  1.00  0.00     0.054 A 
BRANCH  67  68
ATOM     68  S   UNL A   1      39.295  37.822  40.254  1.00  0.00     0.124 S 
ATOM     69  O   UNL A   1      40.626  38.424  40.257  1.00  0.00    -0.237 OA
ATOM     70  O   UNL A   1      38.232  38.652  39.692  1.00  0.00    -0.237 OA
ATOM     71  O   UNL A   1      38.937  37.093  41.468  1.00  0.00    -0.744 OA
ENDBRANCH  67  68
ENDBRANCH  48  62
BRANCH  49  72
ATOM     72  C   UNL A   1      40.360  27.817  29.671  1.00  0.00    -0.014 A 
ATOM     73  C   UNL A   1      41.330  27.973  28.664  1.00  0.00     0.010 A 
ATOM     74  C   UNL A   1      39.488  26.715  29.615  1.00  0.00     0.010 A 
ATOM     75  C   UNL A   1      41.404  27.064  27.605  1.00  0.00     0.020 A 
ATOM     76  C   UNL A   1      39.578  25.788  28.571  1.00  0.00     0.020 A 
ATOM     77  C   UNL A   1      40.526  25.979  27.564  1.00  0.00     0.054 A 
BRANCH  77  78
ATOM     78  S   UNL A   1      40.658  24.796  26.194  1.00  0.00     0.124 S 
ATOM     79  O   UNL A   1      41.594  23.814  26.731  1.00  0.00    -0.237 OA
ATOM     80  O   UNL A   1      39.280  24.339  26.036  1.00  0.00    -0.237 OA
ATOM     81  O   UNL A   1      41.166  25.609  25.090  1.00  0.00    -0.744 OA
ENDBRANCH  77  78
ENDBRANCH  49  72
BRANCH  61  82
ATOM     82  C   UNL A   1      43.705  28.637  35.732  1.00  0.00    -0.014 A 
ATOM     83  C   UNL A   1      43.382  27.584  36.605  1.00  0.00     0.010 A 
ATOM     84  C   UNL A   1      45.058  28.907  35.454  1.00  0.00     0.010 A 
ATOM     85  C   UNL A   1      44.394  26.836  37.213  1.00  0.00     0.020 A 
ATOM     86  C   UNL A   1      46.071  28.143  36.037  1.00  0.00     0.020 A 
ATOM     87  C   UNL A   1      45.732  27.120  36.926  1.00  0.00     0.054 A 
BRANCH  87  88
ATOM     88  S   UNL A   1      47.026  26.106  37.690  1.00  0.00     0.124 S 
ATOM     89  O   UNL A   1      46.498  24.756  37.512  1.00  0.00    -0.237 OA
ATOM     90  O   UNL A   1      48.203  26.431  36.889  1.00  0.00    -0.237 OA
ATOM     91  O   UNL A   1      47.069  26.580  39.071  1.00  0.00    -0.744 OA
ENDBRANCH  87  88
ENDBRANCH  61  82
ENDBRANCH  35  36
ENDBRANCH  27  30
ENDBRANCH  25  26
ENDBRANCH  24  25
ENDBRANCH   1  24
TORSDOF 17
ENDMDL
MODEL 3
REMARK VINA RESULT:     -11.1      3.224      9.520
REMARK SMILES C[C@H](NC(=O)N1CC[C@H](C(=O)NCCCCNC(=O)c2ccc(-c3c4nc(c(-c5ccc(S(=O)(=O)[O-])cc5)c5ccc([nH]5)c(-c5ccc(S(=O)(=O)[O-])cc5)c5nc(c(-c6ccc(S(=O)(=O)[O-])cc6)c6ccc3[nH]6)C=C5)C=C4)cc2)[C@H]1C)c1ccsc1
REMARK SMILES IDX 14 1 13 2 12 3 10 4 11 5 9 7 6 8 7 9 80 10 8 11 81 12 4 13
REMARK SMILES IDX 3 14 5 16 2 17 1 18 82 19 83 20 86 21 84 22 85 23 15 24
REMARK SMILES IDX 16 25 17 26 18 27 19 29 20 30 21 31 79 32 22 33 78 34 23 35
REMARK SMILES IDX 24 36 25 37 72 38 26 39 77 40 71 41 73 42 27 43 76 44 70 45
REMARK SMILES IDX 69 46 28 48 58 49 39 50 57 51 40 52 43 53 56 54 74 55 41 56
REMARK SMILES IDX 42 57 55 59 75 60 44 61 29 62 30 63 38 64 31 65 37 66 32 67
REMARK SMILES IDX 33 68 34 69 35 70 36 71 59 72 60 73 68 74 61 75 67 76 62 77
REMARK SMILES IDX 63 78 64 79 65 80 66 81 45 82 46 83 54 84 47 85 53 86 48 87
REMARK SMILES IDX 49 88 50 89 51 90 52 91
REMARK H PARENT 12 6 3 15 17 28 73 47 43 58
REMARK Flexibility Score: inf
ROOT
ATOM      1  C   UNL A   1      33.007  29.123  23.879  1.00  0.00     0.023 C 
ENDROOT
BRANCH   1   2
ATOM      2  C   UNL A   1      32.019  28.473  22.916  1.00  0.00     0.116 C 
BRANCH   2   3
ATOM      3  N   UNL A   1      32.680  27.539  22.021  1.00  0.00    -0.356 N 
ATOM      4  C   UNL A   1      32.927  26.203  22.151  1.00  0.00     0.225 C 
ATOM      5  O   UNL A   1      33.543  25.637  21.250  1.00  0.00    -0.275 OA
ATOM      6  H   UNL A   1      33.003  27.935  21.179  1.00  0.00     0.163 HD
BRANCH   4   7
ATOM      7  C   UNL A   1      32.407  25.464  23.369  1.00  0.00     0.102 C 
ATOM      8  N   UNL A   1      33.725  23.524  23.861  1.00  0.00    -0.321 N 
ATOM      9  C   UNL A   1      32.662  23.134  22.936  1.00  0.00     0.122 C 
ATOM     10  C   UNL A   1      33.544  24.930  24.273  1.00  0.00     0.096 C 
ATOM     11  C   UNL A   1      31.612  24.219  22.994  1.00  0.00     0.037 C 
ATOM     12  C   UNL A   1      33.035  25.125  25.709  1.00  0.00     0.032 C 
BRANCH   8  13
ATOM     13  C   UNL A   1      34.882  22.820  23.703  1.00  0.00     0.318 C 
ATOM     14  N   UNL A   1      35.398  21.969  24.595  1.00  0.00    -0.331 N 
ATOM     15  H   UNL A   1      36.381  22.024  24.617  1.00  0.00     0.165 HD
ATOM     16  O   UNL A   1      35.563  22.921  22.673  1.00  0.00    -0.249 OA
BRANCH  14  17
ATOM     17  C   UNL A   1      34.899  20.987  25.536  1.00  0.00     0.112 C 
ATOM     18  C   UNL A   1      34.307  21.528  26.824  1.00  0.00     0.036 C 
BRANCH  17  19
ATOM     19  C   UNL A   1      34.215  19.824  24.846  1.00  0.00    -0.015 A 
ATOM     20  C   UNL A   1      34.885  18.575  24.560  1.00  0.00     0.017 A 
ATOM     21  C   UNL A   1      32.933  19.773  24.331  1.00  0.00     0.070 A 
ATOM     22  C   UNL A   1      34.089  17.662  23.903  1.00  0.00     0.065 A 
ATOM     23  S   UNL A   1      32.524  18.271  23.621  1.00  0.00    -0.152 S 
ENDBRANCH  17  19
ENDBRANCH  14  17
ENDBRANCH   8  13
ENDBRANCH   4   7
ENDBRANCH   2   3
ENDBRANCH   1   2
BRANCH   1  24
ATOM     24  C   UNL A   1      32.973  28.566  25.302  1.00  0.00     0.023 C 
BRANCH  24  25
ATOM     25  C   UNL A   1      34.063  29.090  26.231  1.00  0.00     0.116 C 
BRANCH  25  26
ATOM     26  N   UNL A   1      33.768  30.408  26.771  1.00  0.00    -0.352 N 
ATOM     27  C   UNL A   1      34.434  31.106  27.751  1.00  0.00     0.251 C 
ATOM     28  H   UNL A   1      32.984  30.861  26.383  1.00  0.00     0.163 HD
ATOM     29  O   UNL A   1      33.974  32.157  28.178  1.00  0.00    -0.269 OA
BRANCH  27  30
ATOM     30  C   UNL A   1      35.689  30.556  28.305  1.00  0.00     0.039 A 
ATOM     31  C   UNL A   1      36.906  30.961  27.754  1.00  0.00     0.014 A 
ATOM     32  C   UNL A   1      35.663  29.673  29.388  1.00  0.00     0.014 A 
ATOM     33  C   UNL A   1      38.102  30.535  28.335  1.00  0.00     0.010 A 
ATOM     34  C   UNL A   1      36.854  29.308  30.010  1.00  0.00     0.010 A 
ATOM     35  C   UNL A   1      38.086  29.736  29.490  1.00  0.00    -0.014 A 
BRANCH  35  36
ATOM     36  C   UNL A   1      39.344  29.337  30.171  1.00  0.00     0.031 A 
ATOM     37  C   UNL A   1      39.806  30.080  31.395  1.00  0.00     0.074 A 
ATOM     38  C   UNL A   1      40.101  28.349  29.652  1.00  0.00     0.049 A 
ATOM     39  N   UNL A   1      40.908  29.928  32.084  1.00  0.00    -0.248 NA
ATOM     40  C   UNL A   1      38.927  31.150  31.896  1.00  0.00     0.031 C 
ATOM     41  C   UNL A   1      39.782  27.575  28.449  1.00  0.00     0.029 A 
ATOM     42  N   UNL A   1      41.301  27.828  30.069  1.00  0.00    -0.354 N 
ATOM     43  C   UNL A   1      40.862  30.887  33.089  1.00  0.00     0.074 A 
ATOM     44  C   UNL A   1      39.649  31.651  32.889  1.00  0.00     0.031 C 
ATOM     45  C   UNL A   1      40.747  26.664  28.241  1.00  0.00     0.029 A 
ATOM     46  C   UNL A   1      41.773  26.814  29.269  1.00  0.00     0.049 A 
ATOM     47  H   UNL A   1      41.779  28.151  30.867  1.00  0.00     0.167 HD
ATOM     48  C   UNL A   1      41.736  31.100  34.100  1.00  0.00     0.031 A 
ATOM     49  C   UNL A   1      42.907  26.090  29.348  1.00  0.00     0.031 A 
ATOM     50  C   UNL A   1      42.934  30.331  34.306  1.00  0.00     0.049 A 
ATOM     51  C   UNL A   1      43.870  26.358  30.473  1.00  0.00     0.074 A 
ATOM     52  C   UNL A   1      43.861  30.441  35.328  1.00  0.00     0.029 A 
ATOM     53  N   UNL A   1      43.369  29.306  33.479  1.00  0.00    -0.354 N 
ATOM     54  N   UNL A   1      43.780  27.234  31.444  1.00  0.00    -0.248 NA
ATOM     55  C   UNL A   1      45.084  25.531  30.518  1.00  0.00     0.031 C 
ATOM     56  C   UNL A   1      44.881  29.513  35.094  1.00  0.00     0.029 A 
ATOM     57  C   UNL A   1      44.559  28.787  33.959  1.00  0.00     0.049 A 
ATOM     58  H   UNL A   1      42.901  28.994  32.672  1.00  0.00     0.167 HD
ATOM     59  C   UNL A   1      44.908  27.041  32.234  1.00  0.00     0.074 A 
ATOM     60  C   UNL A   1      45.658  25.957  31.634  1.00  0.00     0.031 C 
ATOM     61  C   UNL A   1      45.289  27.701  33.354  1.00  0.00     0.031 A 
BRANCH  48  62
ATOM     62  C   UNL A   1      41.423  32.208  35.070  1.00  0.00    -0.014 A 
ATOM     63  C   UNL A   1      42.033  33.470  34.946  1.00  0.00     0.010 A 
ATOM     64  C   UNL A   1      40.469  32.006  36.084  1.00  0.00     0.010 A 
ATOM     65  C   UNL A   1      41.722  34.498  35.840  1.00  0.00     0.020 A 
ATOM     66  C   UNL A   1      40.133  33.040  36.963  1.00  0.00     0.020 A 
ATOM     67  C   UNL A   1      40.774  34.276  36.843  1.00  0.00     0.054 A 
BRANCH  67  68
ATOM     68  S   UNL A   1      40.363  35.641  37.965  1.00  0.00     0.124 S 
ATOM     69  O   UNL A   1      41.669  35.963  38.536  1.00  0.00    -0.237 OA
ATOM     70  O   UNL A   1      39.809  36.644  37.060  1.00  0.00    -0.237 OA
ATOM     71  O   UNL A   1      39.405  35.049  38.896  1.00  0.00    -0.744 OA
ENDBRANCH  67  68
ENDBRANCH  48  62
BRANCH  49  72
ATOM     72  C   UNL A   1      43.194  25.032  28.340  1.00  0.00    -0.014 A 
ATOM     73  C   UNL A   1      44.010  25.308  27.229  1.00  0.00     0.010 A 
ATOM     74  C   UNL A   1      42.640  23.746  28.478  1.00  0.00     0.010 A 
ATOM     75  C   UNL A   1      44.240  24.329  26.258  1.00  0.00     0.020 A 
ATOM     76  C   UNL A   1      42.893  22.755  27.524  1.00  0.00     0.020 A 
ATOM     77  C   UNL A   1      43.678  23.060  26.411  1.00  0.00     0.054 A 
BRANCH  77  78
ATOM     78  S   UNL A   1      44.013  21.796  25.152  1.00  0.00     0.124 S 
ATOM     79  O   UNL A   1      43.053  20.756  25.504  1.00  0.00    -0.237 OA
ATOM     80  O   UNL A   1      43.747  22.511  23.907  1.00  0.00    -0.237 OA
ATOM     81  O   UNL A   1      45.417  21.455  25.377  1.00  0.00    -0.744 OA
ENDBRANCH  77  78
ENDBRANCH  49  72
BRANCH  61  82
ATOM     82  C   UNL A   1      46.551  27.243  34.035  1.00  0.00    -0.014 A 
ATOM     83  C   UNL A   1      47.797  27.816  33.728  1.00  0.00     0.010 A 
ATOM     84  C   UNL A   1      46.477  26.260  35.040  1.00  0.00     0.010 A 
ATOM     85  C   UNL A   1      48.951  27.392  34.392  1.00  0.00     0.020 A 
ATOM     86  C   UNL A   1      47.624  25.855  35.725  1.00  0.00     0.020 A 
ATOM     87  C   UNL A   1      48.858  26.414  35.386  1.00  0.00     0.054 A 
BRANCH  87  88
ATOM     88  S   UNL A   1      50.362  25.914  36.266  1.00  0.00     0.124 S 
ATOM     89  O   UNL A   1      49.869  25.723  37.627  1.00  0.00    -0.237 OA
ATOM     90  O   UNL A   1      50.754  24.694  35.563  1.00  0.00    -0.237 OA
ATOM     91  O   UNL A   1      51.265  27.047  36.083  1.00  0.00    -0.744 OA
ENDBRANCH  87  88
ENDBRANCH  61  82
ENDBRANCH  35  36
ENDBRANCH  27  30
ENDBRANCH  25  26
ENDBRANCH  24  25
ENDBRANCH   1  24
TORSDOF 17
ENDMDL
