MODEL 1
REMARK VINA RESULT:      -8.8      0.000      0.000
REMARK SMILES CC(C)(C)c1ccc(C(=O)N/C(=C/c2ccc(O)cc2)C(=O)NCCCCNC(=O)c2ccc(-c3c4nc(c(-c5ccc(S(=O)(=O)[O-])cc5)c5ccc([nH]5)c(-c5ccc(S(=O)(=O)[O-])cc5)c5nc(c(-c6ccc(S(=O)(=O)[O-])cc6)c6ccc3[nH]6)C=C5)C=C4)cc2)cc1
REMARK SMILES IDX 25 1 24 2 23 3 21 4 22 5 12 7 13 8 11 9 9 10 10 11 8 13 5 14
REMARK SMILES IDX 6 15 92 16 7 17 91 18 2 19 1 20 3 21 4 22 14 23 15 24 20 25
REMARK SMILES IDX 16 26 19 27 17 28 18 29 26 31 27 32 28 33 29 34 30 36 31 37
REMARK SMILES IDX 32 38 90 39 33 40 89 41 34 42 35 43 36 44 83 45 37 46 88 47
REMARK SMILES IDX 82 48 84 49 38 50 87 51 81 52 80 53 39 55 69 56 50 57 68 58
REMARK SMILES IDX 51 59 54 60 67 61 85 62 52 63 53 64 66 66 86 67 55 68 40 69
REMARK SMILES IDX 41 70 49 71 42 72 48 73 43 74 44 75 45 76 46 77 47 78 70 79
REMARK SMILES IDX 71 80 79 81 72 82 78 83 73 84 74 85 75 86 76 87 77 88 56 89
REMARK SMILES IDX 57 90 65 91 58 92 64 93 59 94 60 95 61 96 62 97 63 98
REMARK H PARENT 23 6 11 12 18 30 28 35 84 54 54 65
REMARK Flexibility Score: inf
ROOT
ATOM      1  C   UNL A   1      44.758  26.383  26.085  1.00  0.00     0.023 C 
ENDROOT
BRANCH   1   2
ATOM      2  C   UNL A   1      46.123  26.856  26.577  1.00  0.00     0.116 C 
BRANCH   2   3
ATOM      3  N   UNL A   1      46.622  26.141  27.725  1.00  0.00    -0.351 N 
ATOM      4  C   UNL A   1      46.946  26.707  28.924  1.00  0.00     0.267 C 
ATOM      5  O   UNL A   1      48.081  26.475  29.354  1.00  0.00    -0.268 OA
ATOM      6  H   UNL A   1      46.740  25.167  27.636  1.00  0.00     0.163 HD
BRANCH   4   7
ATOM      7  C   UNL A   1      45.949  27.455  29.820  1.00  0.00     0.107 C 
ATOM      8  C   UNL A   1      45.381  28.676  29.700  1.00  0.00     0.040 C 
BRANCH   7   9
ATOM      9  N   UNL A   1      45.597  26.794  31.003  1.00  0.00    -0.317 N 
ATOM     10  C   UNL A   1      45.054  25.544  31.231  1.00  0.00     0.255 C 
ATOM     11  O   UNL A   1      45.056  25.092  32.376  1.00  0.00    -0.269 OA
ATOM     12  H   UNL A   1      45.767  27.315  31.821  1.00  0.00     0.170 HD
BRANCH  10  13
ATOM     13  C   UNL A   1      44.350  24.790  30.161  1.00  0.00     0.040 A 
ATOM     14  C   UNL A   1      42.857  23.342  28.237  1.00  0.00    -0.043 A 
ATOM     15  C   UNL A   1      42.501  24.654  28.606  1.00  0.00     0.005 A 
ATOM     16  C   UNL A   1      44.028  22.808  28.800  1.00  0.00     0.005 A 
ATOM     17  C   UNL A   1      43.240  25.373  29.551  1.00  0.00     0.014 A 
ATOM     18  C   UNL A   1      44.781  23.533  29.732  1.00  0.00     0.014 A 
BRANCH  14  19
ATOM     19  C   UNL A   1      41.936  22.516  27.319  1.00  0.00    -0.013 C 
ATOM     20  C   UNL A   1      42.216  22.936  25.860  1.00  0.00     0.016 C 
ATOM     21  C   UNL A   1      40.431  22.737  27.589  1.00  0.00     0.016 C 
ATOM     22  C   UNL A   1      42.205  21.003  27.472  1.00  0.00     0.016 C 
ENDBRANCH  14  19
ENDBRANCH  10  13
ENDBRANCH   7   9
BRANCH   8  23
ATOM     23  C   UNL A   1      45.346  29.645  28.607  1.00  0.00    -0.023 A 
ATOM     24  C   UNL A   1      46.513  30.103  27.986  1.00  0.00     0.012 A 
ATOM     25  C   UNL A   1      44.098  30.125  28.179  1.00  0.00     0.012 A 
ATOM     26  C   UNL A   1      46.418  30.944  26.875  1.00  0.00     0.047 A 
ATOM     27  C   UNL A   1      44.006  30.970  27.071  1.00  0.00     0.047 A 
ATOM     28  C   UNL A   1      45.168  31.346  26.410  1.00  0.00     0.115 A 
BRANCH  28  29
ATOM     29  O   UNL A   1      45.135  32.106  25.281  1.00  0.00    -0.508 OA
ATOM     30  H   UNL A   1      45.922  32.502  24.960  1.00  0.00     0.293 HD
ENDBRANCH  28  29
ENDBRANCH   8  23
ENDBRANCH   4   7
ENDBRANCH   2   3
ENDBRANCH   1   2
BRANCH   1  31
ATOM     31  C   UNL A   1      43.919  27.424  25.353  1.00  0.00     0.023 C 
BRANCH  31  32
ATOM     32  C   UNL A   1      42.541  27.721  25.939  1.00  0.00     0.116 C 
BRANCH  32  33
ATOM     33  N   UNL A   1      41.568  26.642  25.814  1.00  0.00    -0.352 N 
ATOM     34  C   UNL A   1      40.422  26.429  26.550  1.00  0.00     0.251 C 
ATOM     35  H   UNL A   1      41.753  25.978  25.111  1.00  0.00     0.163 HD
ATOM     36  O   UNL A   1      39.656  25.515  26.262  1.00  0.00    -0.269 OA
BRANCH  34  37
ATOM     37  C   UNL A   1      40.139  27.306  27.704  1.00  0.00     0.039 A 
ATOM     38  C   UNL A   1      39.552  26.762  28.849  1.00  0.00     0.014 A 
ATOM     39  C   UNL A   1      40.549  28.641  27.681  1.00  0.00     0.014 A 
ATOM     40  C   UNL A   1      39.474  27.533  30.012  1.00  0.00     0.010 A 
ATOM     41  C   UNL A   1      40.540  29.379  28.860  1.00  0.00     0.010 A 
ATOM     42  C   UNL A   1      40.023  28.826  30.042  1.00  0.00    -0.014 A 
BRANCH  42  43
ATOM     43  C   UNL A   1      40.112  29.603  31.306  1.00  0.00     0.031 A 
ATOM     44  C   UNL A   1      41.223  29.333  32.283  1.00  0.00     0.074 A 
ATOM     45  C   UNL A   1      39.137  30.483  31.615  1.00  0.00     0.049 A 
ATOM     46  N   UNL A   1      41.419  29.847  33.470  1.00  0.00    -0.248 NA
ATOM     47  C   UNL A   1      42.225  28.330  31.888  1.00  0.00     0.031 C 
ATOM     48  C   UNL A   1      37.974  30.791  30.777  1.00  0.00     0.029 A 
ATOM     49  N   UNL A   1      38.963  31.275  32.724  1.00  0.00    -0.354 N 
ATOM     50  C   UNL A   1      42.553  29.217  33.971  1.00  0.00     0.074 A 
ATOM     51  C   UNL A   1      42.971  28.249  32.980  1.00  0.00     0.031 C 
ATOM     52  C   UNL A   1      37.226  31.724  31.388  1.00  0.00     0.029 A 
ATOM     53  C   UNL A   1      37.831  32.054  32.674  1.00  0.00     0.049 A 
ATOM     54  H   UNL A   1      39.590  31.284  33.482  1.00  0.00     0.167 HD
ATOM     55  C   UNL A   1      43.199  29.438  35.140  1.00  0.00     0.031 A 
ATOM     56  C   UNL A   1      37.332  32.934  33.564  1.00  0.00     0.031 A 
ATOM     57  C   UNL A   1      42.789  30.413  36.115  1.00  0.00     0.049 A 
ATOM     58  C   UNL A   1      38.078  33.180  34.846  1.00  0.00     0.074 A 
ATOM     59  C   UNL A   1      43.406  30.753  37.306  1.00  0.00     0.029 A 
ATOM     60  N   UNL A   1      41.657  31.207  36.011  1.00  0.00    -0.354 N 
ATOM     61  N   UNL A   1      39.187  32.620  35.271  1.00  0.00    -0.248 NA
ATOM     62  C   UNL A   1      37.516  34.180  35.763  1.00  0.00     0.031 C 
ATOM     63  C   UNL A   1      42.627  31.727  37.939  1.00  0.00     0.029 A 
ATOM     64  C   UNL A   1      41.550  32.027  37.120  1.00  0.00     0.049 A 
ATOM     65  H   UNL A   1      41.023  31.190  35.257  1.00  0.00     0.167 HD
ATOM     66  C   UNL A   1      39.468  33.223  36.493  1.00  0.00     0.074 A 
ATOM     67  C   UNL A   1      38.422  34.195  36.732  1.00  0.00     0.031 C 
ATOM     68  C   UNL A   1      40.503  32.992  37.339  1.00  0.00     0.031 A 
BRANCH  55  69
ATOM     69  C   UNL A   1      44.421  28.605  35.422  1.00  0.00    -0.014 A 
ATOM     70  C   UNL A   1      45.695  29.024  35.000  1.00  0.00     0.010 A 
ATOM     71  C   UNL A   1      44.298  27.399  36.136  1.00  0.00     0.010 A 
ATOM     72  C   UNL A   1      46.817  28.226  35.239  1.00  0.00     0.020 A 
ATOM     73  C   UNL A   1      45.422  26.613  36.402  1.00  0.00     0.020 A 
ATOM     74  C   UNL A   1      46.672  27.021  35.933  1.00  0.00     0.054 A 
BRANCH  74  75
ATOM     75  S   UNL A   1      48.146  26.008  36.233  1.00  0.00     0.124 S 
ATOM     76  O   UNL A   1      48.058  25.026  35.156  1.00  0.00    -0.237 OA
ATOM     77  O   UNL A   1      49.232  26.977  36.114  1.00  0.00    -0.237 OA
ATOM     78  O   UNL A   1      47.934  25.479  37.578  1.00  0.00    -0.744 OA
ENDBRANCH  74  75
ENDBRANCH  55  69
BRANCH  56  79
ATOM     79  C   UNL A   1      36.077  33.674  33.258  1.00  0.00    -0.014 A 
ATOM     80  C   UNL A   1      36.129  34.961  32.696  1.00  0.00     0.010 A 
ATOM     81  C   UNL A   1      34.823  33.088  33.510  1.00  0.00     0.010 A 
ATOM     82  C   UNL A   1      34.952  35.658  32.406  1.00  0.00     0.020 A 
ATOM     83  C   UNL A   1      33.643  33.772  33.198  1.00  0.00     0.020 A 
ATOM     84  C   UNL A   1      33.715  35.058  32.659  1.00  0.00     0.054 A 
BRANCH  84  85
ATOM     85  S   UNL A   1      32.199  35.956  32.223  1.00  0.00     0.124 S 
ATOM     86  O   UNL A   1      32.299  37.143  33.066  1.00  0.00    -0.237 OA
ATOM     87  O   UNL A   1      32.366  36.180  30.789  1.00  0.00    -0.237 OA
ATOM     88  O   UNL A   1      31.136  35.020  32.580  1.00  0.00    -0.744 OA
ENDBRANCH  84  85
ENDBRANCH  56  79
BRANCH  68  89
ATOM     89  C   UNL A   1      40.574  33.828  38.586  1.00  0.00    -0.014 A 
ATOM     90  C   UNL A   1      41.251  35.060  38.598  1.00  0.00     0.010 A 
ATOM     91  C   UNL A   1      39.900  33.401  39.744  1.00  0.00     0.010 A 
ATOM     92  C   UNL A   1      41.273  35.840  39.758  1.00  0.00     0.020 A 
ATOM     93  C   UNL A   1      39.898  34.191  40.897  1.00  0.00     0.020 A 
ATOM     94  C   UNL A   1      40.595  35.400  40.900  1.00  0.00     0.054 A 
BRANCH  94  95
ATOM     95  S   UNL A   1      40.592  36.454  42.375  1.00  0.00     0.124 S 
ATOM     96  O   UNL A   1      41.606  35.813  43.209  1.00  0.00    -0.237 OA
ATOM     97  O   UNL A   1      40.957  37.763  41.837  1.00  0.00    -0.237 OA
ATOM     98  O   UNL A   1      39.221  36.352  42.871  1.00  0.00    -0.744 OA
ENDBRANCH  94  95
ENDBRANCH  68  89
ENDBRANCH  42  43
ENDBRANCH  34  37
ENDBRANCH  32  33
ENDBRANCH  31  32
ENDBRANCH   1  31
TORSDOF 19
ENDMDL
MODEL 2
REMARK VINA RESULT:      -8.8      6.769     13.051
REMARK SMILES CC(C)(C)c1ccc(C(=O)N/C(=C/c2ccc(O)cc2)C(=O)NCCCCNC(=O)c2ccc(-c3c4nc(c(-c5ccc(S(=O)(=O)[O-])cc5)c5ccc([nH]5)c(-c5ccc(S(=O)(=O)[O-])cc5)c5nc(c(-c6ccc(S(=O)(=O)[O-])cc6)c6ccc3[nH]6)C=C5)C=C4)cc2)cc1
REMARK SMILES IDX 25 1 24 2 23 3 21 4 22 5 12 7 13 8 11 9 9 10 10 11 8 13 5 14
REMARK SMILES IDX 6 15 92 16 7 17 91 18 2 19 1 20 3 21 4 22 14 23 15 24 20 25
REMARK SMILES IDX 16 26 19 27 17 28 18 29 26 31 27 32 28 33 29 34 30 36 31 37
REMARK SMILES IDX 32 38 90 39 33 40 89 41 34 42 35 43 36 44 83 45 37 46 88 47
REMARK SMILES IDX 82 48 84 49 38 50 87 51 81 52 80 53 39 55 69 56 50 57 68 58
REMARK SMILES IDX 51 59 54 60 67 61 85 62 52 63 53 64 66 66 86 67 55 68 40 69
REMARK SMILES IDX 41 70 49 71 42 72 48 73 43 74 44 75 45 76 46 77 47 78 70 79
REMARK SMILES IDX 71 80 79 81 72 82 78 83 73 84 74 85 75 86 76 87 77 88 56 89
REMARK SMILES IDX 57 90 65 91 58 92 64 93 59 94 60 95 61 96 62 97 63 98
REMARK H PARENT 23 6 11 12 18 30 28 35 84 54 54 65
REMARK Flexibility Score: inf
ROOT
ATOM      1  C   UNL A   1      39.052  23.221  26.342  1.00  0.00     0.023 C 
ENDROOT
BRANCH   1   2
ATOM      2  C   UNL A   1      37.646  23.801  26.232  1.00  0.00     0.116 C 
BRANCH   2   3
ATOM      3  N   UNL A   1      37.234  24.112  24.886  1.00  0.00    -0.351 N 
ATOM      4  C   UNL A   1      36.129  23.606  24.265  1.00  0.00     0.267 C 
ATOM      5  O   UNL A   1      36.312  23.061  23.172  1.00  0.00    -0.268 OA
ATOM      6  H   UNL A   1      37.795  24.738  24.373  1.00  0.00     0.163 HD
BRANCH   4   7
ATOM      7  C   UNL A   1      34.690  23.822  24.758  1.00  0.00     0.107 C 
ATOM      8  C   UNL A   1      33.596  24.312  24.132  1.00  0.00     0.040 C 
BRANCH   7   9
ATOM      9  N   UNL A   1      34.467  23.513  26.104  1.00  0.00    -0.317 N 
ATOM     10  C   UNL A   1      34.471  22.310  26.784  1.00  0.00     0.255 C 
ATOM     11  O   UNL A   1      34.482  22.320  28.016  1.00  0.00    -0.269 OA
ATOM     12  H   UNL A   1      34.272  24.294  26.670  1.00  0.00     0.170 HD
BRANCH  10  13
ATOM     13  C   UNL A   1      34.327  21.010  26.076  1.00  0.00     0.040 A 
ATOM     14  C   UNL A   1      34.036  18.451  24.898  1.00  0.00    -0.043 A 
ATOM     15  C   UNL A   1      32.969  19.072  25.576  1.00  0.00     0.005 A 
ATOM     16  C   UNL A   1      35.225  19.184  24.757  1.00  0.00     0.005 A 
ATOM     17  C   UNL A   1      33.109  20.338  26.155  1.00  0.00     0.014 A 
ATOM     18  C   UNL A   1      35.363  20.460  25.318  1.00  0.00     0.014 A 
BRANCH  14  19
ATOM     19  C   UNL A   1      33.906  16.994  24.414  1.00  0.00    -0.013 C 
ATOM     20  C   UNL A   1      34.056  16.986  22.878  1.00  0.00     0.016 C 
ATOM     21  C   UNL A   1      32.545  16.346  24.753  1.00  0.00     0.016 C 
ATOM     22  C   UNL A   1      34.999  16.099  25.036  1.00  0.00     0.016 C 
ENDBRANCH  14  19
ENDBRANCH  10  13
ENDBRANCH   7   9
BRANCH   8  23
ATOM     23  C   UNL A   1      33.319  24.633  22.735  1.00  0.00    -0.023 A 
ATOM     24  C   UNL A   1      33.301  23.651  21.739  1.00  0.00     0.012 A 
ATOM     25  C   UNL A   1      33.067  25.972  22.393  1.00  0.00     0.012 A 
ATOM     26  C   UNL A   1      32.923  23.993  20.438  1.00  0.00     0.047 A 
ATOM     27  C   UNL A   1      32.694  26.312  21.090  1.00  0.00     0.047 A 
ATOM     28  C   UNL A   1      32.595  25.311  20.133  1.00  0.00     0.115 A 
BRANCH  28  29
ATOM     29  O   UNL A   1      32.164  25.571  18.868  1.00  0.00    -0.508 OA
ATOM     30  H   UNL A   1      32.251  26.433  18.511  1.00  0.00     0.293 HD
ENDBRANCH  28  29
ENDBRANCH   8  23
ENDBRANCH   4   7
ENDBRANCH   2   3
ENDBRANCH   1   2
BRANCH   1  31
ATOM     31  C   UNL A   1      39.189  21.742  26.001  1.00  0.00     0.023 C 
BRANCH  31  32
ATOM     32  C   UNL A   1      40.186  20.941  26.836  1.00  0.00     0.116 C 
BRANCH  32  33
ATOM     33  N   UNL A   1      40.920  19.912  26.109  1.00  0.00    -0.352 N 
ATOM     34  C   UNL A   1      42.235  19.922  25.696  1.00  0.00     0.251 C 
ATOM     35  H   UNL A   1      40.408  19.101  25.883  1.00  0.00     0.163 HD
ATOM     36  O   UNL A   1      42.731  18.933  25.166  1.00  0.00    -0.269 OA
BRANCH  34  37
ATOM     37  C   UNL A   1      43.034  21.150  25.884  1.00  0.00     0.039 A 
ATOM     38  C   UNL A   1      43.083  22.098  24.860  1.00  0.00     0.014 A 
ATOM     39  C   UNL A   1      43.648  21.400  27.114  1.00  0.00     0.014 A 
ATOM     40  C   UNL A   1      43.660  23.346  25.107  1.00  0.00     0.010 A 
ATOM     41  C   UNL A   1      44.151  22.668  27.381  1.00  0.00     0.010 A 
ATOM     42  C   UNL A   1      44.144  23.661  26.388  1.00  0.00    -0.014 A 
BRANCH  42  43
ATOM     43  C   UNL A   1      44.601  25.033  26.731  1.00  0.00     0.031 A 
ATOM     44  C   UNL A   1      43.624  26.048  27.256  1.00  0.00     0.074 A 
ATOM     45  C   UNL A   1      45.878  25.389  26.477  1.00  0.00     0.049 A 
ATOM     46  N   UNL A   1      43.818  27.312  27.531  1.00  0.00    -0.248 NA
ATOM     47  C   UNL A   1      42.242  25.590  27.470  1.00  0.00     0.031 C 
ATOM     48  C   UNL A   1      46.908  24.513  25.912  1.00  0.00     0.029 A 
ATOM     49  N   UNL A   1      46.525  26.588  26.651  1.00  0.00    -0.354 N 
ATOM     50  C   UNL A   1      42.581  27.805  27.930  1.00  0.00     0.074 A 
ATOM     51  C   UNL A   1      41.635  26.716  27.814  1.00  0.00     0.031 C 
ATOM     52  C   UNL A   1      48.062  25.195  25.814  1.00  0.00     0.029 A 
ATOM     53  C   UNL A   1      47.847  26.563  26.272  1.00  0.00     0.049 A 
ATOM     54  H   UNL A   1      46.085  27.390  27.014  1.00  0.00     0.167 HD
ATOM     55  C   UNL A   1      42.264  29.045  28.371  1.00  0.00     0.031 A 
ATOM     56  C   UNL A   1      48.783  27.532  26.288  1.00  0.00     0.031 A 
ATOM     57  C   UNL A   1      43.210  30.120  28.499  1.00  0.00     0.049 A 
ATOM     58  C   UNL A   1      48.414  28.897  26.803  1.00  0.00     0.074 A 
ATOM     59  C   UNL A   1      43.002  31.398  28.988  1.00  0.00     0.029 A 
ATOM     60  N   UNL A   1      44.547  30.043  28.139  1.00  0.00    -0.354 N 
ATOM     61  N   UNL A   1      47.251  29.323  27.238  1.00  0.00    -0.248 NA
ATOM     62  C   UNL A   1      49.481  29.905  26.840  1.00  0.00     0.031 C 
ATOM     63  C   UNL A   1      44.205  32.105  28.889  1.00  0.00     0.029 A 
ATOM     64  C   UNL A   1      45.173  31.253  28.382  1.00  0.00     0.049 A 
ATOM     65  H   UNL A   1      44.986  29.245  27.765  1.00  0.00     0.167 HD
ATOM     66  C   UNL A   1      47.456  30.643  27.627  1.00  0.00     0.074 A 
ATOM     67  C   UNL A   1      48.853  30.939  27.386  1.00  0.00     0.031 C 
ATOM     68  C   UNL A   1      46.567  31.528  28.140  1.00  0.00     0.031 A 
BRANCH  55  69
ATOM     69  C   UNL A   1      40.828  29.299  28.747  1.00  0.00    -0.014 A 
ATOM     70  C   UNL A   1      40.430  29.338  30.095  1.00  0.00     0.010 A 
ATOM     71  C   UNL A   1      39.869  29.520  27.743  1.00  0.00     0.010 A 
ATOM     72  C   UNL A   1      39.089  29.542  30.431  1.00  0.00     0.020 A 
ATOM     73  C   UNL A   1      38.531  29.752  28.076  1.00  0.00     0.020 A 
ATOM     74  C   UNL A   1      38.146  29.741  29.418  1.00  0.00     0.054 A 
BRANCH  74  75
ATOM     75  S   UNL A   1      36.414  30.007  29.883  1.00  0.00     0.124 S 
ATOM     76  O   UNL A   1      36.346  31.464  29.963  1.00  0.00    -0.237 OA
ATOM     77  O   UNL A   1      35.686  29.405  28.769  1.00  0.00    -0.237 OA
ATOM     78  O   UNL A   1      36.286  29.306  31.158  1.00  0.00    -0.744 OA
ENDBRANCH  74  75
ENDBRANCH  55  69
BRANCH  56  79
ATOM     79  C   UNL A   1      50.169  27.238  25.832  1.00  0.00    -0.014 A 
ATOM     80  C   UNL A   1      50.551  27.501  24.506  1.00  0.00     0.010 A 
ATOM     81  C   UNL A   1      51.120  26.712  26.726  1.00  0.00     0.010 A 
ATOM     82  C   UNL A   1      51.853  27.227  24.074  1.00  0.00     0.020 A 
ATOM     83  C   UNL A   1      52.429  26.461  26.305  1.00  0.00     0.020 A 
ATOM     84  C   UNL A   1      52.785  26.709  24.977  1.00  0.00     0.054 A 
BRANCH  84  85
ATOM     85  S   UNL A   1      54.484  26.414  24.413  1.00  0.00     0.124 S 
ATOM     86  O   UNL A   1      54.339  26.497  22.963  1.00  0.00    -0.237 OA
ATOM     87  O   UNL A   1      55.220  27.510  25.040  1.00  0.00    -0.237 OA
ATOM     88  O   UNL A   1      54.791  25.086  24.938  1.00  0.00    -0.744 OA
ENDBRANCH  84  85
ENDBRANCH  56  79
BRANCH  68  89
ATOM     89  C   UNL A   1      47.083  32.891  28.508  1.00  0.00    -0.014 A 
ATOM     90  C   UNL A   1      47.009  33.966  27.604  1.00  0.00     0.010 A 
ATOM     91  C   UNL A   1      47.590  33.112  29.801  1.00  0.00     0.010 A 
ATOM     92  C   UNL A   1      47.458  35.234  27.980  1.00  0.00     0.020 A 
ATOM     93  C   UNL A   1      48.018  34.385  30.188  1.00  0.00     0.020 A 
ATOM     94  C   UNL A   1      47.960  35.436  29.271  1.00  0.00     0.054 A 
BRANCH  94  95
ATOM     95  S   UNL A   1      48.487  37.101  29.754  1.00  0.00     0.124 S 
ATOM     96  O   UNL A   1      47.360  37.553  30.566  1.00  0.00    -0.237 OA
ATOM     97  O   UNL A   1      49.727  36.847  30.487  1.00  0.00    -0.237 OA
ATOM     98  O   UNL A   1      48.656  37.795  28.479  1.00  0.00    -0.744 OA
ENDBRANCH  94  95
ENDBRANCH  68  89
ENDBRANCH  42  43
ENDBRANCH  34  37
ENDBRANCH  32  33
ENDBRANCH  31  32
ENDBRANCH   1  31
TORSDOF 19
ENDMDL
MODEL 3
REMARK VINA RESULT:      -8.7      3.129      7.602
REMARK SMILES CC(C)(C)c1ccc(C(=O)N/C(=C/c2ccc(O)cc2)C(=O)NCCCCNC(=O)c2ccc(-c3c4nc(c(-c5ccc(S(=O)(=O)[O-])cc5)c5ccc([nH]5)c(-c5ccc(S(=O)(=O)[O-])cc5)c5nc(c(-c6ccc(S(=O)(=O)[O-])cc6)c6ccc3[nH]6)C=C5)C=C4)cc2)cc1
REMARK SMILES IDX 25 1 24 2 23 3 21 4 22 5 12 7 13 8 11 9 9 10 10 11 8 13 5 14
REMARK SMILES IDX 6 15 92 16 7 17 91 18 2 19 1 20 3 21 4 22 14 23 15 24 20 25
REMARK SMILES IDX 16 26 19 27 17 28 18 29 26 31 27 32 28 33 29 34 30 36 31 37
REMARK SMILES IDX 32 38 90 39 33 40 89 41 34 42 35 43 36 44 83 45 37 46 88 47
REMARK SMILES IDX 82 48 84 49 38 50 87 51 81 52 80 53 39 55 69 56 50 57 68 58
REMARK SMILES IDX 51 59 54 60 67 61 85 62 52 63 53 64 66 66 86 67 55 68 40 69
REMARK SMILES IDX 41 70 49 71 42 72 48 73 43 74 44 75 45 76 46 77 47 78 70 79
REMARK SMILES IDX 71 80 79 81 72 82 78 83 73 84 74 85 75 86 76 87 77 88 56 89
REMARK SMILES IDX 57 90 65 91 58 92 64 93 59 94 60 95 61 96 62 97 63 98
REMARK H PARENT 23 6 11 12 18 30 28 35 84 54 54 65
REMARK Flexibility Score: inf
ROOT
ATOM      1  C   UNL A   1      35.903  30.239  28.590  1.00  0.00     0.023 C 
ENDROOT
BRANCH   1   2
ATOM      2  C   UNL A   1      37.360  30.571  28.896  1.00  0.00     0.116 C 
BRANCH   2   3
ATOM      3  N   UNL A   1      38.303  30.048  27.940  1.00  0.00    -0.351 N 
ATOM      4  C   UNL A   1      39.315  29.179  28.229  1.00  0.00     0.267 C 
ATOM      5  O   UNL A   1      40.450  29.520  27.881  1.00  0.00    -0.268 OA
ATOM      6  H   UNL A   1      38.211  30.342  27.004  1.00  0.00     0.163 HD
BRANCH   4   7
ATOM      7  C   UNL A   1      39.103  27.768  28.796  1.00  0.00     0.107 C 
ATOM      8  C   UNL A   1      39.158  27.297  30.063  1.00  0.00     0.040 C 
BRANCH   7   9
ATOM      9  N   UNL A   1      38.865  26.771  27.843  1.00  0.00    -0.317 N 
ATOM     10  C   UNL A   1      39.644  25.720  27.399  1.00  0.00     0.255 C 
ATOM     11  O   UNL A   1      39.122  24.833  26.723  1.00  0.00    -0.269 OA
ATOM     12  H   UNL A   1      37.982  26.829  27.411  1.00  0.00     0.170 HD
BRANCH  10  13
ATOM     13  C   UNL A   1      41.117  25.699  27.599  1.00  0.00     0.040 A 
ATOM     14  C   UNL A   1      43.894  25.714  28.159  1.00  0.00    -0.043 A 
ATOM     15  C   UNL A   1      43.029  24.782  28.764  1.00  0.00     0.005 A 
ATOM     16  C   UNL A   1      43.341  26.583  27.204  1.00  0.00     0.005 A 
ATOM     17  C   UNL A   1      41.658  24.769  28.486  1.00  0.00     0.014 A 
ATOM     18  C   UNL A   1      41.973  26.560  26.908  1.00  0.00     0.014 A 
BRANCH  14  19
ATOM     19  C   UNL A   1      45.365  25.812  28.605  1.00  0.00    -0.013 C 
ATOM     20  C   UNL A   1      46.109  26.716  27.599  1.00  0.00     0.016 C 
ATOM     21  C   UNL A   1      46.096  24.451  28.639  1.00  0.00     0.016 C 
ATOM     22  C   UNL A   1      45.482  26.423  30.018  1.00  0.00     0.016 C 
ENDBRANCH  14  19
ENDBRANCH  10  13
ENDBRANCH   7   9
BRANCH   8  23
ATOM     23  C   UNL A   1      39.243  27.961  31.360  1.00  0.00    -0.023 A 
ATOM     24  C   UNL A   1      40.453  28.079  32.054  1.00  0.00     0.012 A 
ATOM     25  C   UNL A   1      38.069  28.490  31.919  1.00  0.00     0.012 A 
ATOM     26  C   UNL A   1      40.500  28.818  33.238  1.00  0.00     0.047 A 
ATOM     27  C   UNL A   1      38.118  29.225  33.107  1.00  0.00     0.047 A 
ATOM     28  C   UNL A   1      39.341  29.408  33.738  1.00  0.00     0.115 A 
BRANCH  28  29
ATOM     29  O   UNL A   1      39.463  30.176  34.854  1.00  0.00    -0.508 OA
ATOM     30  H   UNL A   1      38.863  30.067  35.566  1.00  0.00     0.293 HD
ENDBRANCH  28  29
ENDBRANCH   8  23
ENDBRANCH   4   7
ENDBRANCH   2   3
ENDBRANCH   1   2
BRANCH   1  31
ATOM     31  C   UNL A   1      35.191  31.189  27.634  1.00  0.00     0.023 C 
BRANCH  31  32
ATOM     32  C   UNL A   1      35.331  32.681  27.929  1.00  0.00     0.116 C 
BRANCH  32  33
ATOM     33  N   UNL A   1      34.109  33.344  28.371  1.00  0.00    -0.352 N 
ATOM     34  C   UNL A   1      33.832  33.907  29.598  1.00  0.00     0.251 C 
ATOM     35  H   UNL A   1      33.387  33.397  27.704  1.00  0.00     0.163 HD
ATOM     36  O   UNL A   1      32.779  34.509  29.785  1.00  0.00    -0.269 OA
BRANCH  34  37
ATOM     37  C   UNL A   1      34.813  33.759  30.691  1.00  0.00     0.039 A 
ATOM     38  C   UNL A   1      35.007  32.503  31.271  1.00  0.00     0.014 A 
ATOM     39  C   UNL A   1      35.607  34.845  31.067  1.00  0.00     0.014 A 
ATOM     40  C   UNL A   1      36.073  32.312  32.154  1.00  0.00     0.010 A 
ATOM     41  C   UNL A   1      36.712  34.633  31.885  1.00  0.00     0.010 A 
ATOM     42  C   UNL A   1      36.969  33.362  32.420  1.00  0.00    -0.014 A 
BRANCH  42  43
ATOM     43  C   UNL A   1      38.207  33.144  33.213  1.00  0.00     0.031 A 
ATOM     44  C   UNL A   1      39.486  32.750  32.527  1.00  0.00     0.074 A 
ATOM     45  C   UNL A   1      38.152  33.210  34.560  1.00  0.00     0.049 A 
ATOM     46  N   UNL A   1      40.641  32.438  33.055  1.00  0.00    -0.248 NA
ATOM     47  C   UNL A   1      39.452  32.663  31.059  1.00  0.00     0.031 C 
ATOM     48  C   UNL A   1      36.957  33.525  35.347  1.00  0.00     0.029 A 
ATOM     49  N   UNL A   1      39.126  33.004  35.507  1.00  0.00    -0.354 N 
ATOM     50  C   UNL A   1      41.464  32.099  31.987  1.00  0.00     0.074 A 
ATOM     51  C   UNL A   1      40.662  32.197  30.787  1.00  0.00     0.031 C 
ATOM     52  C   UNL A   1      37.275  33.520  36.653  1.00  0.00     0.029 A 
ATOM     53  C   UNL A   1      38.683  33.166  36.799  1.00  0.00     0.049 A 
ATOM     54  H   UNL A   1      40.054  32.765  35.282  1.00  0.00     0.167 HD
ATOM     55  C   UNL A   1      42.774  31.757  32.001  1.00  0.00     0.031 A 
ATOM     56  C   UNL A   1      39.334  33.042  37.971  1.00  0.00     0.031 A 
ATOM     57  C   UNL A   1      43.572  31.677  33.195  1.00  0.00     0.049 A 
ATOM     58  C   UNL A   1      40.794  32.682  37.962  1.00  0.00     0.074 A 
ATOM     59  C   UNL A   1      44.922  31.393  33.312  1.00  0.00     0.029 A 
ATOM     60  N   UNL A   1      43.095  31.883  34.481  1.00  0.00    -0.354 N 
ATOM     61  N   UNL A   1      41.572  32.430  36.935  1.00  0.00    -0.248 NA
ATOM     62  C   UNL A   1      41.468  32.600  39.265  1.00  0.00     0.031 C 
ATOM     63  C   UNL A   1      45.252  31.392  34.671  1.00  0.00     0.029 A 
ATOM     64  C   UNL A   1      44.119  31.721  35.397  1.00  0.00     0.049 A 
ATOM     65  H   UNL A   1      42.164  32.112  34.707  1.00  0.00     0.167 HD
ATOM     66  C   UNL A   1      42.833  32.188  37.468  1.00  0.00     0.074 A 
ATOM     67  C   UNL A   1      42.717  32.334  38.904  1.00  0.00     0.031 C 
ATOM     68  C   UNL A   1      43.985  31.875  36.824  1.00  0.00     0.031 A 
BRANCH  55  69
ATOM     69  C   UNL A   1      43.421  31.446  30.678  1.00  0.00    -0.014 A 
ATOM     70  C   UNL A   1      44.038  32.456  29.919  1.00  0.00     0.010 A 
ATOM     71  C   UNL A   1      43.431  30.124  30.196  1.00  0.00     0.010 A 
ATOM     72  C   UNL A   1      44.607  32.161  28.678  1.00  0.00     0.020 A 
ATOM     73  C   UNL A   1      44.024  29.820  28.968  1.00  0.00     0.020 A 
ATOM     74  C   UNL A   1      44.590  30.845  28.206  1.00  0.00     0.054 A 
BRANCH  74  75
ATOM     75  S   UNL A   1      45.339  30.489  26.593  1.00  0.00     0.124 S 
ATOM     76  O   UNL A   1      45.221  31.778  25.917  1.00  0.00    -0.237 OA
ATOM     77  O   UNL A   1      46.697  30.088  26.951  1.00  0.00    -0.237 OA
ATOM     78  O   UNL A   1      44.501  29.422  26.051  1.00  0.00    -0.744 OA
ENDBRANCH  74  75
ENDBRANCH  55  69
BRANCH  56  79
ATOM     79  C   UNL A   1      38.618  33.291  39.253  1.00  0.00    -0.014 A 
ATOM     80  C   UNL A   1      37.815  32.289  39.824  1.00  0.00     0.010 A 
ATOM     81  C   UNL A   1      38.749  34.524  39.917  1.00  0.00     0.010 A 
ATOM     82  C   UNL A   1      37.142  32.519  41.028  1.00  0.00     0.020 A 
ATOM     83  C   UNL A   1      38.098  34.748  41.134  1.00  0.00     0.020 A 
ATOM     84  C   UNL A   1      37.289  33.748  41.677  1.00  0.00     0.054 A 
BRANCH  84  85
ATOM     85  S   UNL A   1      36.452  34.006  43.267  1.00  0.00     0.124 S 
ATOM     86  O   UNL A   1      36.881  32.838  44.027  1.00  0.00    -0.237 OA
ATOM     87  O   UNL A   1      37.001  35.287  43.708  1.00  0.00    -0.237 OA
ATOM     88  O   UNL A   1      35.037  34.035  42.905  1.00  0.00    -0.744 OA
ENDBRANCH  84  85
ENDBRANCH  56  79
BRANCH  68  89
ATOM     89  C   UNL A   1      45.220  31.703  37.663  1.00  0.00    -0.014 A 
ATOM     90  C   UNL A   1      46.047  32.797  37.973  1.00  0.00     0.010 A 
ATOM     91  C   UNL A   1      45.521  30.438  38.199  1.00  0.00     0.010 A 
ATOM     92  C   UNL A   1      47.170  32.622  38.786  1.00  0.00     0.020 A 
ATOM     93  C   UNL A   1      46.629  30.265  39.033  1.00  0.00     0.020 A 
ATOM     94  C   UNL A   1      47.453  31.357  39.312  1.00  0.00     0.054 A 
BRANCH  94  95
ATOM     95  S   UNL A   1      48.884  31.166  40.409  1.00  0.00     0.124 S 
ATOM     96  O   UNL A   1      49.285  32.553  40.630  1.00  0.00    -0.237 OA
ATOM     97  O   UNL A   1      48.313  30.484  41.569  1.00  0.00    -0.237 OA
ATOM     98  O   UNL A   1      49.819  30.364  39.622  1.00  0.00    -0.744 OA
ENDBRANCH  94  95
ENDBRANCH  68  89
ENDBRANCH  42  43
ENDBRANCH  34  37
ENDBRANCH  32  33
ENDBRANCH  31  32
ENDBRANCH   1  31
TORSDOF 19
ENDMDL
