MODEL 1
REMARK VINA RESULT:      -9.6      0.000      0.000
REMARK SMILES [NH3+]C[C@@H](Cc1ccc(Br)cc1)C(=O)NCCCCNC(=O)c1ccc(-c2c3nc(c(-c4ccc(S(=O)(=O)[O-])cc4)c4ccc([nH]4)c(-c4ccc(S(=O)(=O)[O-])cc4)c4nc(c(-c5ccc(S(=O)(=O)[O-])cc5)c5ccc2[nH]5)C=C4)C=C3)cc1
REMARK SMILES IDX 17 1 16 2 15 3 14 4 12 5 13 6 3 8 2 9 1 10 4 14 5 15 6 16
REMARK SMILES IDX 11 17 7 18 10 19 8 20 9 21 18 22 19 23 20 24 21 26 22 27
REMARK SMILES IDX 23 28 81 29 24 30 80 31 25 32 26 33 27 34 74 35 28 36 79 37
REMARK SMILES IDX 73 38 75 39 29 40 78 41 72 42 71 43 30 45 60 46 41 47 59 48
REMARK SMILES IDX 42 49 45 50 58 51 76 52 43 53 44 54 57 56 77 57 46 58 31 59
REMARK SMILES IDX 32 60 40 61 33 62 39 63 34 64 35 65 36 66 37 67 38 68 61 69
REMARK SMILES IDX 62 70 70 71 63 72 69 73 64 74 65 75 66 76 67 77 68 78 47 79
REMARK SMILES IDX 48 80 56 81 49 82 55 83 50 84 51 85 52 86 53 87 54 88
REMARK H PARENT 14 7 1 11 1 12 1 13 19 25 75 44 45 55
REMARK Flexibility Score: inf
ROOT
ATOM      1  C   UNL A   1      34.061  28.118  25.717  1.00  0.00     0.023 C 
ENDROOT
BRANCH   1   2
ATOM      2  C   UNL A   1      32.957  27.564  24.814  1.00  0.00     0.023 C 
BRANCH   2   3
ATOM      3  C   UNL A   1      33.331  26.299  24.052  1.00  0.00     0.116 C 
BRANCH   3   4
ATOM      4  N   UNL A   1      32.191  25.575  23.530  1.00  0.00    -0.356 N 
ATOM      5  C   UNL A   1      31.472  24.553  24.064  1.00  0.00     0.229 C 
ATOM      6  O   UNL A   1      30.386  24.300  23.532  1.00  0.00    -0.275 OA
ATOM      7  H   UNL A   1      31.887  25.873  22.642  1.00  0.00     0.163 HD
BRANCH   5   8
ATOM      8  C   UNL A   1      31.928  23.720  25.266  1.00  0.00     0.137 C 
BRANCH   8   9
ATOM      9  C   UNL A   1      30.864  23.597  26.367  1.00  0.00     0.272 C 
BRANCH   9  10
ATOM     10  N   UNL A   1      30.049  22.382  26.272  1.00  0.00    -0.357 N 
ATOM     11  H   UNL A   1      30.614  21.573  26.531  1.00  0.00     0.344 HD
ATOM     12  H   UNL A   1      29.715  22.270  25.315  1.00  0.00     0.344 HD
ATOM     13  H   UNL A   1      29.252  22.456  26.904  1.00  0.00     0.344 HD
ENDBRANCH   9  10
ENDBRANCH   8   9
BRANCH   8  14
ATOM     14  C   UNL A   1      32.721  22.454  24.884  1.00  0.00     0.055 C 
BRANCH  14  15
ATOM     15  C   UNL A   1      34.194  22.405  25.204  1.00  0.00    -0.047 A 
ATOM     16  C   UNL A   1      34.790  23.432  25.951  1.00  0.00     0.005 A 
ATOM     17  C   UNL A   1      34.994  21.339  24.765  1.00  0.00     0.005 A 
ATOM     18  C   UNL A   1      36.166  23.433  26.193  1.00  0.00     0.016 A 
ATOM     19  C   UNL A   1      36.367  21.329  25.022  1.00  0.00     0.016 A 
ATOM     20  C   UNL A   1      36.950  22.385  25.719  1.00  0.00     0.017 A 
ATOM     21  Br  UNL A   1      38.816  22.401  26.011  1.00  0.00    -0.051 Br
ENDBRANCH  14  15
ENDBRANCH   8  14
ENDBRANCH   5   8
ENDBRANCH   3   4
ENDBRANCH   2   3
ENDBRANCH   1   2
BRANCH   1  22
ATOM     22  C   UNL A   1      33.691  28.324  27.187  1.00  0.00     0.116 C 
BRANCH  22  23
ATOM     23  N   UNL A   1      33.575  29.719  27.584  1.00  0.00    -0.352 N 
ATOM     24  C   UNL A   1      34.532  30.526  28.154  1.00  0.00     0.251 C 
ATOM     25  H   UNL A   1      32.698  30.139  27.424  1.00  0.00     0.163 HD
ATOM     26  O   UNL A   1      34.244  31.663  28.520  1.00  0.00    -0.269 OA
BRANCH  24  27
ATOM     27  C   UNL A   1      35.898  30.000  28.364  1.00  0.00     0.039 A 
ATOM     28  C   UNL A   1      36.819  30.078  27.317  1.00  0.00     0.014 A 
ATOM     29  C   UNL A   1      36.281  29.469  29.599  1.00  0.00     0.014 A 
ATOM     30  C   UNL A   1      38.142  29.686  27.530  1.00  0.00     0.010 A 
ATOM     31  C   UNL A   1      37.616  29.148  29.831  1.00  0.00     0.010 A 
ATOM     32  C   UNL A   1      38.560  29.251  28.798  1.00  0.00    -0.014 A 
BRANCH  32  33
ATOM     33  C   UNL A   1      39.980  28.899  29.057  1.00  0.00     0.031 A 
ATOM     34  C   UNL A   1      40.904  29.900  29.697  1.00  0.00     0.074 A 
ATOM     35  C   UNL A   1      40.451  27.697  28.671  1.00  0.00     0.049 A 
ATOM     36  N   UNL A   1      42.171  29.776  29.999  1.00  0.00    -0.248 NA
ATOM     37  C   UNL A   1      40.339  31.222  30.011  1.00  0.00     0.031 C 
ATOM     38  C   UNL A   1      39.673  26.658  27.991  1.00  0.00     0.029 A 
ATOM     39  N   UNL A   1      41.701  27.143  28.795  1.00  0.00    -0.354 N 
ATOM     40  C   UNL A   1      42.558  31.006  30.519  1.00  0.00     0.074 A 
ATOM     41  C   UNL A   1      41.405  31.877  30.444  1.00  0.00     0.031 C 
ATOM     42  C   UNL A   1      40.451  25.580  27.798  1.00  0.00     0.029 A 
ATOM     43  C   UNL A   1      41.788  25.859  28.309  1.00  0.00     0.049 A 
ATOM     44  H   UNL A   1      42.465  27.621  29.194  1.00  0.00     0.167 HD
ATOM     45  C   UNL A   1      43.758  31.375  31.030  1.00  0.00     0.031 A 
ATOM     46  C   UNL A   1      42.824  24.998  28.293  1.00  0.00     0.031 A 
ATOM     47  C   UNL A   1      44.897  30.501  31.123  1.00  0.00     0.049 A 
ATOM     48  C   UNL A   1      44.137  25.417  28.897  1.00  0.00     0.074 A 
ATOM     49  C   UNL A   1      46.136  30.757  31.682  1.00  0.00     0.029 A 
ATOM     50  N   UNL A   1      44.934  29.200  30.645  1.00  0.00    -0.354 N 
ATOM     51  N   UNL A   1      44.462  26.561  29.451  1.00  0.00    -0.248 NA
ATOM     52  C   UNL A   1      45.214  24.418  28.896  1.00  0.00     0.031 C 
ATOM     53  C   UNL A   1      46.937  29.622  31.508  1.00  0.00     0.029 A 
ATOM     54  C   UNL A   1      46.178  28.643  30.888  1.00  0.00     0.049 A 
ATOM     55  H   UNL A   1      44.186  28.740  30.201  1.00  0.00     0.167 HD
ATOM     56  C   UNL A   1      45.768  26.406  29.900  1.00  0.00     0.074 A 
ATOM     57  C   UNL A   1      46.170  25.056  29.557  1.00  0.00     0.031 C 
ATOM     58  C   UNL A   1      46.561  27.297  30.546  1.00  0.00     0.031 A 
BRANCH  45  59
ATOM     59  C   UNL A   1      43.892  32.793  31.521  1.00  0.00    -0.014 A 
ATOM     60  C   UNL A   1      44.351  33.816  30.671  1.00  0.00     0.010 A 
ATOM     61  C   UNL A   1      43.546  33.109  32.846  1.00  0.00     0.010 A 
ATOM     62  C   UNL A   1      44.516  35.117  31.154  1.00  0.00     0.020 A 
ATOM     63  C   UNL A   1      43.681  34.415  33.325  1.00  0.00     0.020 A 
ATOM     64  C   UNL A   1      44.188  35.406  32.482  1.00  0.00     0.054 A 
BRANCH  64  65
ATOM     65  S   UNL A   1      44.414  37.101  33.087  1.00  0.00     0.124 S 
ATOM     66  O   UNL A   1      43.699  37.063  34.360  1.00  0.00    -0.237 OA
ATOM     67  O   UNL A   1      45.866  37.218  33.186  1.00  0.00    -0.237 OA
ATOM     68  O   UNL A   1      43.796  37.924  32.050  1.00  0.00    -0.744 OA
ENDBRANCH  64  65
ENDBRANCH  45  59
BRANCH  46  69
ATOM     69  C   UNL A   1      42.645  23.630  27.736  1.00  0.00    -0.014 A 
ATOM     70  C   UNL A   1      42.286  22.564  28.579  1.00  0.00     0.010 A 
ATOM     71  C   UNL A   1      42.817  23.386  26.361  1.00  0.00     0.010 A 
ATOM     72  C   UNL A   1      42.120  21.275  28.064  1.00  0.00     0.020 A 
ATOM     73  C   UNL A   1      42.628  22.104  25.838  1.00  0.00     0.020 A 
ATOM     74  C   UNL A   1      42.291  21.053  26.695  1.00  0.00     0.054 A 
BRANCH  74  75
ATOM     75  S   UNL A   1      42.017  19.384  26.039  1.00  0.00     0.124 S 
ATOM     76  O   UNL A   1      40.573  19.373  25.829  1.00  0.00    -0.237 OA
ATOM     77  O   UNL A   1      42.833  19.381  24.828  1.00  0.00    -0.237 OA
ATOM     78  O   UNL A   1      42.502  18.514  27.108  1.00  0.00    -0.744 OA
ENDBRANCH  74  75
ENDBRANCH  46  69
BRANCH  58  79
ATOM     79  C   UNL A   1      47.924  26.824  30.974  1.00  0.00    -0.014 A 
ATOM     80  C   UNL A   1      48.121  26.153  32.193  1.00  0.00     0.010 A 
ATOM     81  C   UNL A   1      49.021  27.025  30.116  1.00  0.00     0.010 A 
ATOM     82  C   UNL A   1      49.399  25.729  32.566  1.00  0.00     0.020 A 
ATOM     83  C   UNL A   1      50.296  26.579  30.473  1.00  0.00     0.020 A 
ATOM     84  C   UNL A   1      50.480  25.949  31.706  1.00  0.00     0.054 A 
BRANCH  84  85
ATOM     85  S   UNL A   1      52.126  25.368  32.198  1.00  0.00     0.124 S 
ATOM     86  O   UNL A   1      51.904  23.934  32.362  1.00  0.00    -0.237 OA
ATOM     87  O   UNL A   1      52.956  25.749  31.058  1.00  0.00    -0.237 OA
ATOM     88  O   UNL A   1      52.398  26.103  33.430  1.00  0.00    -0.744 OA
ENDBRANCH  84  85
ENDBRANCH  58  79
ENDBRANCH  32  33
ENDBRANCH  24  27
ENDBRANCH  22  23
ENDBRANCH   1  22
TORSDOF 18
ENDMDL
MODEL 2
REMARK VINA RESULT:      -9.5      3.175      9.147
REMARK SMILES [NH3+]C[C@@H](Cc1ccc(Br)cc1)C(=O)NCCCCNC(=O)c1ccc(-c2c3nc(c(-c4ccc(S(=O)(=O)[O-])cc4)c4ccc([nH]4)c(-c4ccc(S(=O)(=O)[O-])cc4)c4nc(c(-c5ccc(S(=O)(=O)[O-])cc5)c5ccc2[nH]5)C=C4)C=C3)cc1
REMARK SMILES IDX 17 1 16 2 15 3 14 4 12 5 13 6 3 8 2 9 1 10 4 14 5 15 6 16
REMARK SMILES IDX 11 17 7 18 10 19 8 20 9 21 18 22 19 23 20 24 21 26 22 27
REMARK SMILES IDX 23 28 81 29 24 30 80 31 25 32 26 33 27 34 74 35 28 36 79 37
REMARK SMILES IDX 73 38 75 39 29 40 78 41 72 42 71 43 30 45 60 46 41 47 59 48
REMARK SMILES IDX 42 49 45 50 58 51 76 52 43 53 44 54 57 56 77 57 46 58 31 59
REMARK SMILES IDX 32 60 40 61 33 62 39 63 34 64 35 65 36 66 37 67 38 68 61 69
REMARK SMILES IDX 62 70 70 71 63 72 69 73 64 74 65 75 66 76 67 77 68 78 47 79
REMARK SMILES IDX 48 80 56 81 49 82 55 83 50 84 51 85 52 86 53 87 54 88
REMARK H PARENT 14 7 1 11 1 12 1 13 19 25 75 44 45 55
REMARK Flexibility Score: inf
ROOT
ATOM      1  C   UNL A   1      35.080  23.417  26.239  1.00  0.00     0.023 C 
ENDROOT
BRANCH   1   2
ATOM      2  C   UNL A   1      34.668  21.969  26.510  1.00  0.00     0.023 C 
BRANCH   2   3
ATOM      3  C   UNL A   1      33.250  21.618  26.077  1.00  0.00     0.116 C 
BRANCH   3   4
ATOM      4  N   UNL A   1      32.224  22.213  26.908  1.00  0.00    -0.356 N 
ATOM      5  C   UNL A   1      31.307  23.176  26.628  1.00  0.00     0.229 C 
ATOM      6  O   UNL A   1      30.376  23.308  27.430  1.00  0.00    -0.275 OA
ATOM      7  H   UNL A   1      32.185  21.862  27.827  1.00  0.00     0.163 HD
BRANCH   5   8
ATOM      8  C   UNL A   1      31.366  24.083  25.395  1.00  0.00     0.137 C 
BRANCH   8   9
ATOM      9  C   UNL A   1      30.936  23.385  24.097  1.00  0.00     0.272 C 
BRANCH   9  10
ATOM     10  N   UNL A   1      30.694  24.303  22.981  1.00  0.00    -0.357 N 
ATOM     11  H   UNL A   1      29.853  24.015  22.480  1.00  0.00     0.344 HD
ATOM     12  H   UNL A   1      31.491  24.284  22.345  1.00  0.00     0.344 HD
ATOM     13  H   UNL A   1      30.568  25.250  23.338  1.00  0.00     0.344 HD
ENDBRANCH   9  10
ENDBRANCH   8   9
BRANCH   8  14
ATOM     14  C   UNL A   1      30.852  25.515  25.649  1.00  0.00     0.055 C 
BRANCH  14  15
ATOM     15  C   UNL A   1      31.831  26.553  26.139  1.00  0.00    -0.047 A 
ATOM     16  C   UNL A   1      31.419  27.539  27.050  1.00  0.00     0.005 A 
ATOM     17  C   UNL A   1      33.162  26.556  25.699  1.00  0.00     0.005 A 
ATOM     18  C   UNL A   1      32.298  28.546  27.455  1.00  0.00     0.016 A 
ATOM     19  C   UNL A   1      34.048  27.552  26.118  1.00  0.00     0.016 A 
ATOM     20  C   UNL A   1      33.606  28.553  26.980  1.00  0.00     0.017 A 
ATOM     21  Br  UNL A   1      34.785  29.936  27.497  1.00  0.00    -0.051 Br
ENDBRANCH  14  15
ENDBRANCH   8  14
ENDBRANCH   5   8
ENDBRANCH   3   4
ENDBRANCH   2   3
ENDBRANCH   1   2
BRANCH   1  22
ATOM     22  C   UNL A   1      36.580  23.680  26.110  1.00  0.00     0.116 C 
BRANCH  22  23
ATOM     23  N   UNL A   1      37.395  22.477  26.033  1.00  0.00    -0.352 N 
ATOM     24  C   UNL A   1      38.750  22.349  26.234  1.00  0.00     0.251 C 
ATOM     25  H   UNL A   1      36.914  21.647  25.809  1.00  0.00     0.163 HD
ATOM     26  O   UNL A   1      39.305  21.271  26.037  1.00  0.00    -0.269 OA
BRANCH  24  27
ATOM     27  C   UNL A   1      39.540  23.530  26.644  1.00  0.00     0.039 A 
ATOM     28  C   UNL A   1      39.746  24.557  25.719  1.00  0.00     0.014 A 
ATOM     29  C   UNL A   1      40.041  23.643  27.944  1.00  0.00     0.014 A 
ATOM     30  C   UNL A   1      40.396  25.726  26.120  1.00  0.00     0.010 A 
ATOM     31  C   UNL A   1      40.623  24.837  28.359  1.00  0.00     0.010 A 
ATOM     32  C   UNL A   1      40.809  25.891  27.452  1.00  0.00    -0.014 A 
BRANCH  32  33
ATOM     33  C   UNL A   1      41.437  27.157  27.908  1.00  0.00     0.031 A 
ATOM     34  C   UNL A   1      42.926  27.349  27.791  1.00  0.00     0.074 A 
ATOM     35  C   UNL A   1      40.676  28.114  28.474  1.00  0.00     0.049 A 
ATOM     36  N   UNL A   1      43.653  28.381  28.135  1.00  0.00    -0.248 NA
ATOM     37  C   UNL A   1      43.701  26.225  27.243  1.00  0.00     0.031 C 
ATOM     38  C   UNL A   1      39.230  28.028  28.696  1.00  0.00     0.029 A 
ATOM     39  N   UNL A   1      41.012  29.351  28.967  1.00  0.00    -0.354 N 
ATOM     40  C   UNL A   1      44.969  28.024  27.865  1.00  0.00     0.074 A 
ATOM     41  C   UNL A   1      44.944  26.663  27.376  1.00  0.00     0.031 C 
ATOM     42  C   UNL A   1      38.799  29.179  29.241  1.00  0.00     0.029 A 
ATOM     43  C   UNL A   1      39.938  30.070  29.435  1.00  0.00     0.049 A 
ATOM     44  H   UNL A   1      41.936  29.691  28.983  1.00  0.00     0.167 HD
ATOM     45  C   UNL A   1      46.096  28.766  27.993  1.00  0.00     0.031 A 
ATOM     46  C   UNL A   1      39.874  31.314  29.949  1.00  0.00     0.031 A 
ATOM     47  C   UNL A   1      46.116  30.126  28.460  1.00  0.00     0.049 A 
ATOM     48  C   UNL A   1      41.133  32.132  30.049  1.00  0.00     0.074 A 
ATOM     49  C   UNL A   1      47.195  30.986  28.566  1.00  0.00     0.029 A 
ATOM     50  N   UNL A   1      45.002  30.827  28.898  1.00  0.00    -0.354 N 
ATOM     51  N   UNL A   1      42.359  31.802  29.719  1.00  0.00    -0.248 NA
ATOM     52  C   UNL A   1      40.993  33.499  30.569  1.00  0.00     0.031 C 
ATOM     53  C   UNL A   1      46.740  32.195  29.104  1.00  0.00     0.029 A 
ATOM     54  C   UNL A   1      45.369  32.105  29.284  1.00  0.00     0.049 A 
ATOM     55  H   UNL A   1      44.086  30.470  28.928  1.00  0.00     0.167 HD
ATOM     56  C   UNL A   1      43.130  32.934  29.954  1.00  0.00     0.074 A 
ATOM     57  C   UNL A   1      42.231  33.958  30.449  1.00  0.00     0.031 C 
ATOM     58  C   UNL A   1      44.462  33.114  29.768  1.00  0.00     0.031 A 
BRANCH  45  59
ATOM     59  C   UNL A   1      47.400  28.108  27.627  1.00  0.00    -0.014 A 
ATOM     60  C   UNL A   1      48.123  27.351  28.568  1.00  0.00     0.010 A 
ATOM     61  C   UNL A   1      47.906  28.239  26.322  1.00  0.00     0.010 A 
ATOM     62  C   UNL A   1      49.354  26.786  28.227  1.00  0.00     0.020 A 
ATOM     63  C   UNL A   1      49.124  27.652  25.968  1.00  0.00     0.020 A 
ATOM     64  C   UNL A   1      49.852  26.948  26.930  1.00  0.00     0.054 A 
BRANCH  64  65
ATOM     65  S   UNL A   1      51.455  26.209  26.512  1.00  0.00     0.124 S 
ATOM     66  O   UNL A   1      52.378  27.048  27.272  1.00  0.00    -0.237 OA
ATOM     67  O   UNL A   1      51.313  24.837  26.993  1.00  0.00    -0.237 OA
ATOM     68  O   UNL A   1      51.534  26.351  25.061  1.00  0.00    -0.744 OA
ENDBRANCH  64  65
ENDBRANCH  45  59
BRANCH  46  69
ATOM     69  C   UNL A   1      38.560  31.886  30.351  1.00  0.00    -0.014 A 
ATOM     70  C   UNL A   1      38.097  31.735  31.670  1.00  0.00     0.010 A 
ATOM     71  C   UNL A   1      37.772  32.594  29.427  1.00  0.00     0.010 A 
ATOM     72  C   UNL A   1      36.863  32.265  32.055  1.00  0.00     0.020 A 
ATOM     73  C   UNL A   1      36.548  33.148  29.814  1.00  0.00     0.020 A 
ATOM     74  C   UNL A   1      36.095  32.970  31.123  1.00  0.00     0.054 A 
BRANCH  74  75
ATOM     75  S   UNL A   1      34.521  33.697  31.658  1.00  0.00     0.124 S 
ATOM     76  O   UNL A   1      33.840  33.915  30.385  1.00  0.00    -0.237 OA
ATOM     77  O   UNL A   1      33.959  32.649  32.506  1.00  0.00    -0.237 OA
ATOM     78  O   UNL A   1      34.928  34.909  32.366  1.00  0.00    -0.744 OA
ENDBRANCH  74  75
ENDBRANCH  46  69
BRANCH  58  79
ATOM     79  C   UNL A   1      45.019  34.484  30.049  1.00  0.00    -0.014 A 
ATOM     80  C   UNL A   1      45.516  34.830  31.317  1.00  0.00     0.010 A 
ATOM     81  C   UNL A   1      45.078  35.428  29.007  1.00  0.00     0.010 A 
ATOM     82  C   UNL A   1      46.023  36.111  31.550  1.00  0.00     0.020 A 
ATOM     83  C   UNL A   1      45.609  36.701  29.229  1.00  0.00     0.020 A 
ATOM     84  C   UNL A   1      46.062  37.040  30.506  1.00  0.00     0.054 A 
BRANCH  84  85
ATOM     85  S   UNL A   1      46.748  38.689  30.823  1.00  0.00     0.124 S 
ATOM     86  O   UNL A   1      46.883  38.685  32.277  1.00  0.00    -0.237 OA
ATOM     87  O   UNL A   1      48.002  38.666  30.076  1.00  0.00    -0.237 OA
ATOM     88  O   UNL A   1      45.732  39.594  30.293  1.00  0.00    -0.744 OA
ENDBRANCH  84  85
ENDBRANCH  58  79
ENDBRANCH  32  33
ENDBRANCH  24  27
ENDBRANCH  22  23
ENDBRANCH   1  22
TORSDOF 18
ENDMDL
MODEL 3
REMARK VINA RESULT:      -9.4      4.904      6.547
REMARK SMILES [NH3+]C[C@@H](Cc1ccc(Br)cc1)C(=O)NCCCCNC(=O)c1ccc(-c2c3nc(c(-c4ccc(S(=O)(=O)[O-])cc4)c4ccc([nH]4)c(-c4ccc(S(=O)(=O)[O-])cc4)c4nc(c(-c5ccc(S(=O)(=O)[O-])cc5)c5ccc2[nH]5)C=C4)C=C3)cc1
REMARK SMILES IDX 17 1 16 2 15 3 14 4 12 5 13 6 3 8 2 9 1 10 4 14 5 15 6 16
REMARK SMILES IDX 11 17 7 18 10 19 8 20 9 21 18 22 19 23 20 24 21 26 22 27
REMARK SMILES IDX 23 28 81 29 24 30 80 31 25 32 26 33 27 34 74 35 28 36 79 37
REMARK SMILES IDX 73 38 75 39 29 40 78 41 72 42 71 43 30 45 60 46 41 47 59 48
REMARK SMILES IDX 42 49 45 50 58 51 76 52 43 53 44 54 57 56 77 57 46 58 31 59
REMARK SMILES IDX 32 60 40 61 33 62 39 63 34 64 35 65 36 66 37 67 38 68 61 69
REMARK SMILES IDX 62 70 70 71 63 72 69 73 64 74 65 75 66 76 67 77 68 78 47 79
REMARK SMILES IDX 48 80 56 81 49 82 55 83 50 84 51 85 52 86 53 87 54 88
REMARK H PARENT 14 7 1 11 1 12 1 13 19 25 75 44 45 55
REMARK Flexibility Score: inf
ROOT
ATOM      1  C   UNL A   1      32.002  31.339  26.890  1.00  0.00     0.023 C 
ENDROOT
BRANCH   1   2
ATOM      2  C   UNL A   1      32.407  30.111  26.072  1.00  0.00     0.023 C 
BRANCH   2   3
ATOM      3  C   UNL A   1      33.110  29.020  26.868  1.00  0.00     0.116 C 
BRANCH   3   4
ATOM      4  N   UNL A   1      32.256  27.899  27.199  1.00  0.00    -0.356 N 
ATOM      5  C   UNL A   1      31.676  26.963  26.402  1.00  0.00     0.229 C 
ATOM      6  O   UNL A   1      31.218  25.961  26.962  1.00  0.00    -0.275 OA
ATOM      7  H   UNL A   1      32.063  27.798  28.159  1.00  0.00     0.163 HD
BRANCH   5   8
ATOM      8  C   UNL A   1      31.567  27.082  24.879  1.00  0.00     0.137 C 
BRANCH   8   9
ATOM      9  C   UNL A   1      32.656  26.307  24.122  1.00  0.00     0.272 C 
BRANCH   9  10
ATOM     10  N   UNL A   1      32.790  24.909  24.541  1.00  0.00    -0.357 N 
ATOM     11  H   UNL A   1      33.760  24.613  24.431  1.00  0.00     0.344 HD
ATOM     12  H   UNL A   1      32.188  24.322  23.963  1.00  0.00     0.344 HD
ATOM     13  H   UNL A   1      32.515  24.818  25.519  1.00  0.00     0.344 HD
ENDBRANCH   9  10
ENDBRANCH   8   9
BRANCH   8  14
ATOM     14  C   UNL A   1      30.121  27.001  24.348  1.00  0.00     0.055 C 
BRANCH  14  15
ATOM     15  C   UNL A   1      29.625  28.099  23.441  1.00  0.00    -0.047 A 
ATOM     16  C   UNL A   1      30.535  28.972  22.824  1.00  0.00     0.005 A 
ATOM     17  C   UNL A   1      28.255  28.270  23.196  1.00  0.00     0.005 A 
ATOM     18  C   UNL A   1      30.082  30.035  22.040  1.00  0.00     0.016 A 
ATOM     19  C   UNL A   1      27.802  29.322  22.396  1.00  0.00     0.016 A 
ATOM     20  C   UNL A   1      28.717  30.211  21.836  1.00  0.00     0.017 A 
ATOM     21  Br  UNL A   1      28.100  31.670  20.807  1.00  0.00    -0.051 Br
ENDBRANCH  14  15
ENDBRANCH   8  14
ENDBRANCH   5   8
ENDBRANCH   3   4
ENDBRANCH   2   3
ENDBRANCH   1   2
BRANCH   1  22
ATOM     22  C   UNL A   1      33.146  32.179  27.459  1.00  0.00     0.116 C 
BRANCH  22  23
ATOM     23  N   UNL A   1      32.797  33.568  27.721  1.00  0.00    -0.352 N 
ATOM     24  C   UNL A   1      33.359  34.432  28.632  1.00  0.00     0.251 C 
ATOM     25  H   UNL A   1      32.064  33.936  27.175  1.00  0.00     0.163 HD
ATOM     26  O   UNL A   1      32.883  35.552  28.796  1.00  0.00    -0.269 OA
BRANCH  24  27
ATOM     27  C   UNL A   1      34.512  33.986  29.444  1.00  0.00     0.039 A 
ATOM     28  C   UNL A   1      34.283  33.135  30.528  1.00  0.00     0.014 A 
ATOM     29  C   UNL A   1      35.814  34.372  29.115  1.00  0.00     0.014 A 
ATOM     30  C   UNL A   1      35.367  32.616  31.239  1.00  0.00     0.010 A 
ATOM     31  C   UNL A   1      36.894  33.798  29.780  1.00  0.00     0.010 A 
ATOM     32  C   UNL A   1      36.683  32.916  30.850  1.00  0.00    -0.014 A 
BRANCH  32  33
ATOM     33  C   UNL A   1      37.845  32.316  31.554  1.00  0.00     0.031 A 
ATOM     34  C   UNL A   1      38.266  32.837  32.902  1.00  0.00     0.074 A 
ATOM     35  C   UNL A   1      38.554  31.336  30.958  1.00  0.00     0.049 A 
ATOM     36  N   UNL A   1      39.251  32.442  33.667  1.00  0.00    -0.248 NA
ATOM     37  C   UNL A   1      37.496  33.966  33.450  1.00  0.00     0.031 C 
ATOM     38  C   UNL A   1      38.283  30.781  29.630  1.00  0.00     0.029 A 
ATOM     39  N   UNL A   1      39.648  30.631  31.394  1.00  0.00    -0.354 N 
ATOM     40  C   UNL A   1      39.233  33.285  34.772  1.00  0.00     0.074 A 
ATOM     41  C   UNL A   1      38.172  34.243  34.555  1.00  0.00     0.031 C 
ATOM     42  C   UNL A   1      39.160  29.794  29.378  1.00  0.00     0.029 A 
ATOM     43  C   UNL A   1      40.073  29.667  30.510  1.00  0.00     0.049 A 
ATOM     44  H   UNL A   1      40.089  30.801  32.259  1.00  0.00     0.167 HD
ATOM     45  C   UNL A   1      40.016  33.256  35.879  1.00  0.00     0.031 A 
ATOM     46  C   UNL A   1      41.074  28.771  30.606  1.00  0.00     0.031 A 
ATOM     47  C   UNL A   1      41.058  32.290  36.103  1.00  0.00     0.049 A 
ATOM     48  C   UNL A   1      41.907  28.733  31.858  1.00  0.00     0.074 A 
ATOM     49  C   UNL A   1      41.864  32.134  37.216  1.00  0.00     0.029 A 
ATOM     50  N   UNL A   1      41.437  31.312  35.195  1.00  0.00    -0.354 N 
ATOM     51  N   UNL A   1      41.827  29.493  32.925  1.00  0.00    -0.248 NA
ATOM     52  C   UNL A   1      42.950  27.701  31.928  1.00  0.00     0.031 C 
ATOM     53  C   UNL A   1      42.757  31.085  36.966  1.00  0.00     0.029 A 
ATOM     54  C   UNL A   1      42.471  30.556  35.718  1.00  0.00     0.049 A 
ATOM     55  H   UNL A   1      41.029  31.176  34.309  1.00  0.00     0.167 HD
ATOM     56  C   UNL A   1      42.782  29.004  33.809  1.00  0.00     0.074 A 
ATOM     57  C   UNL A   1      43.424  27.882  33.152  1.00  0.00     0.031 C 
ATOM     58  C   UNL A   1      43.095  29.439  35.055  1.00  0.00     0.031 A 
BRANCH  45  59
ATOM     59  C   UNL A   1      39.772  34.311  36.925  1.00  0.00    -0.014 A 
ATOM     60  C   UNL A   1      40.308  35.606  36.792  1.00  0.00     0.010 A 
ATOM     61  C   UNL A   1      38.987  34.009  38.051  1.00  0.00     0.010 A 
ATOM     62  C   UNL A   1      40.113  36.560  37.794  1.00  0.00     0.020 A 
ATOM     63  C   UNL A   1      38.764  34.969  39.043  1.00  0.00     0.020 A 
ATOM     64  C   UNL A   1      39.349  36.232  38.918  1.00  0.00     0.054 A 
BRANCH  64  65
ATOM     65  S   UNL A   1      39.112  37.486  40.207  1.00  0.00     0.124 S 
ATOM     66  O   UNL A   1      38.172  38.402  39.565  1.00  0.00    -0.237 OA
ATOM     67  O   UNL A   1      38.570  36.708  41.319  1.00  0.00    -0.237 OA
ATOM     68  O   UNL A   1      40.454  38.020  40.422  1.00  0.00    -0.744 OA
ENDBRANCH  64  65
ENDBRANCH  45  59
BRANCH  46  69
ATOM     69  C   UNL A   1      41.304  27.793  29.508  1.00  0.00    -0.014 A 
ATOM     70  C   UNL A   1      42.438  27.909  28.684  1.00  0.00     0.010 A 
ATOM     71  C   UNL A   1      40.404  26.735  29.289  1.00  0.00     0.010 A 
ATOM     72  C   UNL A   1      42.659  26.997  27.649  1.00  0.00     0.020 A 
ATOM     73  C   UNL A   1      40.635  25.806  28.269  1.00  0.00     0.020 A 
ATOM     74  C   UNL A   1      41.755  25.950  27.448  1.00  0.00     0.054 A 
BRANCH  74  75
ATOM     75  S   UNL A   1      42.090  24.745  26.132  1.00  0.00     0.124 S 
ATOM     76  O   UNL A   1      43.461  24.342  26.432  1.00  0.00    -0.237 OA
ATOM     77  O   UNL A   1      41.067  23.730  26.363  1.00  0.00    -0.237 OA
ATOM     78  O   UNL A   1      41.919  25.523  24.907  1.00  0.00    -0.744 OA
ENDBRANCH  74  75
ENDBRANCH  46  69
BRANCH  58  79
ATOM     79  C   UNL A   1      44.140  28.666  35.814  1.00  0.00    -0.014 A 
ATOM     80  C   UNL A   1      45.503  29.001  35.737  1.00  0.00     0.010 A 
ATOM     81  C   UNL A   1      43.740  27.606  36.648  1.00  0.00     0.010 A 
ATOM     82  C   UNL A   1      46.452  28.263  36.448  1.00  0.00     0.020 A 
ATOM     83  C   UNL A   1      44.682  26.883  37.382  1.00  0.00     0.020 A 
ATOM     84  C   UNL A   1      46.036  27.205  37.263  1.00  0.00     0.054 A 
BRANCH  84  85
ATOM     85  S   UNL A   1      47.281  26.275  38.199  1.00  0.00     0.124 S 
ATOM     86  O   UNL A   1      48.208  25.868  37.146  1.00  0.00    -0.237 OA
ATOM     87  O   UNL A   1      47.793  27.273  39.134  1.00  0.00    -0.237 OA
ATOM     88  O   UNL A   1      46.517  25.192  38.811  1.00  0.00    -0.744 OA
ENDBRANCH  84  85
ENDBRANCH  58  79
ENDBRANCH  32  33
ENDBRANCH  24  27
ENDBRANCH  22  23
ENDBRANCH   1  22
TORSDOF 18
ENDMDL
