MODEL 1
REMARK VINA RESULT:     -11.1      0.000      0.000
REMARK SMILES COc1cc(/C=C2\SC(=S)N(CC(=O)NCCCCNC(=O)c3ccc(-c4c5nc(c(-c6ccc(S(=O)(=O)[O-])cc6)c6ccc([nH]6)c(-c6ccc(S(=O)(=O)[O-])cc6)c6nc(c(-c7ccc(S(=O)(=O)[O-])cc7)c7ccc4[nH]7)C=C6)C=C5)cc3)C2=O)cc2c1OCO2
REMARK SMILES IDX 17 1 16 2 15 3 13 4 14 5 12 7 11 8 6 9 7 10 8 11 83 12 9 13
REMARK SMILES IDX 84 14 10 15 5 16 3 17 4 18 87 19 86 20 88 21 85 22 90 23
REMARK SMILES IDX 89 24 2 25 1 26 18 27 19 28 20 29 21 30 22 32 23 33 24 34
REMARK SMILES IDX 82 35 25 36 81 37 26 38 27 39 28 40 75 41 29 42 80 43 74 44
REMARK SMILES IDX 76 45 30 46 79 47 73 48 72 49 31 51 61 52 42 53 60 54 43 55
REMARK SMILES IDX 46 56 59 57 77 58 44 59 45 60 58 62 78 63 47 64 32 65 33 66
REMARK SMILES IDX 41 67 34 68 40 69 35 70 36 71 37 72 38 73 39 74 62 75 63 76
REMARK SMILES IDX 71 77 64 78 70 79 65 80 66 81 67 82 68 83 69 84 48 85 49 86
REMARK SMILES IDX 57 87 50 88 56 89 51 90 52 91 53 92 54 93 55 94
REMARK H PARENT 15 6 20 31 76 50 46 61
REMARK Flexibility Score: inf
ROOT
ATOM      1  C   UNL A   1      37.381  20.581  24.722  1.00  0.00     0.023 C 
ENDROOT
BRANCH   1   2
ATOM      2  C   UNL A   1      35.913  20.254  24.981  1.00  0.00     0.116 C 
BRANCH   2   3
ATOM      3  N   UNL A   1      35.400  20.920  26.157  1.00  0.00    -0.355 N 
ATOM      4  C   UNL A   1      34.186  21.501  26.380  1.00  0.00     0.240 C 
ATOM      5  O   UNL A   1      33.890  21.754  27.551  1.00  0.00    -0.273 OA
ATOM      6  H   UNL A   1      36.025  20.961  26.916  1.00  0.00     0.163 HD
BRANCH   4   7
ATOM      7  C   UNL A   1      33.145  21.660  25.266  1.00  0.00     0.227 C 
BRANCH   7   8
ATOM      8  N   UNL A   1      32.875  23.040  24.866  1.00  0.00    -0.283 N 
ATOM      9  C   UNL A   1      30.407  25.688  24.853  1.00  0.00     0.029 C 
ATOM     10  C   UNL A   1      31.514  24.954  24.670  1.00  0.00     0.081 C 
ATOM     11  S   UNL A   1      32.967  25.410  23.875  1.00  0.00    -0.054 SA
ATOM     12  C   UNL A   1      31.626  23.560  25.172  1.00  0.00     0.266 C 
ATOM     13  C   UNL A   1      33.682  23.817  24.065  1.00  0.00     0.148 C 
ATOM     14  O   UNL A   1      30.722  22.969  25.735  1.00  0.00    -0.268 OA
ATOM     15  S   UNL A   1      35.116  23.409  23.314  1.00  0.00    -0.052 S 
BRANCH   9  16
ATOM     16  C   UNL A   1      30.215  27.066  24.384  1.00  0.00    -0.017 A 
ATOM     17  C   UNL A   1      30.804  29.436  24.559  1.00  0.00     0.165 A 
ATOM     18  C   UNL A   1      30.937  28.111  24.994  1.00  0.00     0.058 A 
ATOM     19  C   UNL A   1      29.969  29.679  23.482  1.00  0.00     0.207 A 
ATOM     20  C   UNL A   1      29.252  28.658  22.898  1.00  0.00     0.170 A 
ATOM     21  O   UNL A   1      29.754  30.863  22.845  1.00  0.00    -0.450 OA
ATOM     22  C   UNL A   1      29.331  27.354  23.337  1.00  0.00     0.059 A 
ATOM     23  O   UNL A   1      28.501  29.074  21.842  1.00  0.00    -0.453 OA
ATOM     24  C   UNL A   1      28.906  30.453  21.758  1.00  0.00     0.468 C 
BRANCH  17  25
ATOM     25  O   UNL A   1      31.578  30.350  25.212  1.00  0.00    -0.493 OA
ATOM     26  C   UNL A   1      32.620  29.798  26.010  1.00  0.00     0.278 C 
ENDBRANCH  17  25
ENDBRANCH   9  16
ENDBRANCH   7   8
ENDBRANCH   4   7
ENDBRANCH   2   3
ENDBRANCH   1   2
BRANCH   1  27
ATOM     27  C   UNL A   1      38.365  19.561  25.298  1.00  0.00     0.023 C 
BRANCH  27  28
ATOM     28  C   UNL A   1      39.505  20.148  26.123  1.00  0.00     0.116 C 
BRANCH  28  29
ATOM     29  N   UNL A   1      40.689  19.302  26.148  1.00  0.00    -0.352 N 
ATOM     30  C   UNL A   1      42.007  19.672  26.273  1.00  0.00     0.251 C 
ATOM     31  H   UNL A   1      40.524  18.335  26.063  1.00  0.00     0.163 HD
ATOM     32  O   UNL A   1      42.896  18.836  26.142  1.00  0.00    -0.269 OA
BRANCH  30  33
ATOM     33  C   UNL A   1      42.346  21.087  26.532  1.00  0.00     0.039 A 
ATOM     34  C   UNL A   1      42.616  21.490  27.842  1.00  0.00     0.014 A 
ATOM     35  C   UNL A   1      42.431  22.004  25.481  1.00  0.00     0.014 A 
ATOM     36  C   UNL A   1      43.039  22.798  28.087  1.00  0.00     0.010 A 
ATOM     37  C   UNL A   1      42.929  23.282  25.718  1.00  0.00     0.010 A 
ATOM     38  C   UNL A   1      43.237  23.694  27.024  1.00  0.00    -0.014 A 
BRANCH  38  39
ATOM     39  C   UNL A   1      43.782  25.056  27.256  1.00  0.00     0.031 A 
ATOM     40  C   UNL A   1      45.242  25.341  27.032  1.00  0.00     0.074 A 
ATOM     41  C   UNL A   1      42.976  26.022  27.740  1.00  0.00     0.049 A 
ATOM     42  N   UNL A   1      45.903  26.454  27.220  1.00  0.00    -0.248 NA
ATOM     43  C   UNL A   1      46.072  24.221  26.564  1.00  0.00     0.031 C 
ATOM     44  C   UNL A   1      41.555  25.858  28.055  1.00  0.00     0.029 A 
ATOM     45  N   UNL A   1      43.239  27.330  28.062  1.00  0.00    -0.354 N 
ATOM     46  C   UNL A   1      47.227  26.165  26.910  1.00  0.00     0.074 A 
ATOM     47  C   UNL A   1      47.283  24.757  26.582  1.00  0.00     0.031 C 
ATOM     48  C   UNL A   1      41.068  27.024  28.505  1.00  0.00     0.029 A 
ATOM     49  C   UNL A   1      42.147  28.007  28.552  1.00  0.00     0.049 A 
ATOM     50  H   UNL A   1      44.126  27.743  27.954  1.00  0.00     0.167 HD
ATOM     51  C   UNL A   1      48.297  26.996  26.884  1.00  0.00     0.031 A 
ATOM     52  C   UNL A   1      42.024  29.271  29.000  1.00  0.00     0.031 A 
ATOM     53  C   UNL A   1      48.237  28.395  27.224  1.00  0.00     0.049 A 
ATOM     54  C   UNL A   1      43.219  30.180  28.968  1.00  0.00     0.074 A 
ATOM     55  C   UNL A   1      49.248  29.338  27.171  1.00  0.00     0.029 A 
ATOM     56  N   UNL A   1      47.107  29.047  27.697  1.00  0.00    -0.354 N 
ATOM     57  N   UNL A   1      44.446  29.913  28.587  1.00  0.00    -0.248 NA
ATOM     58  C   UNL A   1      43.012  31.565  29.410  1.00  0.00     0.031 C 
ATOM     59  C   UNL A   1      48.748  30.544  27.674  1.00  0.00     0.029 A 
ATOM     60  C   UNL A   1      47.404  30.372  27.972  1.00  0.00     0.049 A 
ATOM     61  H   UNL A   1      46.224  28.630  27.818  1.00  0.00     0.167 HD
ATOM     62  C   UNL A   1      45.155  31.101  28.727  1.00  0.00     0.074 A 
ATOM     63  C   UNL A   1      44.213  32.092  29.209  1.00  0.00     0.031 C 
ATOM     64  C   UNL A   1      46.464  31.348  28.471  1.00  0.00     0.031 A 
BRANCH  51  65
ATOM     65  C   UNL A   1      49.626  26.396  26.500  1.00  0.00    -0.014 A 
ATOM     66  C   UNL A   1      50.466  25.800  27.461  1.00  0.00     0.010 A 
ATOM     67  C   UNL A   1      50.050  26.437  25.159  1.00  0.00     0.010 A 
ATOM     68  C   UNL A   1      51.732  25.330  27.103  1.00  0.00     0.020 A 
ATOM     69  C   UNL A   1      51.301  25.934  24.790  1.00  0.00     0.020 A 
ATOM     70  C   UNL A   1      52.147  25.411  25.770  1.00  0.00     0.054 A 
BRANCH  70  71
ATOM     71  S   UNL A   1      53.808  24.824  25.338  1.00  0.00     0.124 S 
ATOM     72  O   UNL A   1      53.560  23.414  25.044  1.00  0.00    -0.237 OA
ATOM     73  O   UNL A   1      54.151  25.654  24.186  1.00  0.00    -0.237 OA
ATOM     74  O   UNL A   1      54.591  25.080  26.544  1.00  0.00    -0.744 OA
ENDBRANCH  70  71
ENDBRANCH  51  65
BRANCH  52  75
ATOM     75  C   UNL A   1      40.702  29.737  29.503  1.00  0.00    -0.014 A 
ATOM     76  C   UNL A   1      39.687  30.118  28.610  1.00  0.00     0.010 A 
ATOM     77  C   UNL A   1      40.431  29.727  30.884  1.00  0.00     0.010 A 
ATOM     78  C   UNL A   1      38.420  30.469  29.087  1.00  0.00     0.020 A 
ATOM     79  C   UNL A   1      39.158  30.051  31.363  1.00  0.00     0.020 A 
ATOM     80  C   UNL A   1      38.160  30.420  30.460  1.00  0.00     0.054 A 
BRANCH  80  81
ATOM     81  S   UNL A   1      36.480  30.775  31.045  1.00  0.00     0.124 S 
ATOM     82  O   UNL A   1      36.337  29.836  32.153  1.00  0.00    -0.237 OA
ATOM     83  O   UNL A   1      36.567  32.184  31.416  1.00  0.00    -0.237 OA
ATOM     84  O   UNL A   1      35.645  30.497  29.877  1.00  0.00    -0.744 OA
ENDBRANCH  80  81
ENDBRANCH  52  75
BRANCH  64  85
ATOM     85  C   UNL A   1      46.963  32.754  28.692  1.00  0.00    -0.014 A 
ATOM     86  C   UNL A   1      46.903  33.720  27.672  1.00  0.00     0.010 A 
ATOM     87  C   UNL A   1      47.446  33.126  29.960  1.00  0.00     0.010 A 
ATOM     88  C   UNL A   1      47.347  35.025  27.908  1.00  0.00     0.020 A 
ATOM     89  C   UNL A   1      47.860  34.437  30.209  1.00  0.00     0.020 A 
ATOM     90  C   UNL A   1      47.821  35.375  29.176  1.00  0.00     0.054 A 
BRANCH  90  91
ATOM     91  S   UNL A   1      48.350  37.086  29.468  1.00  0.00     0.124 S 
ATOM     92  O   UNL A   1      47.119  37.831  29.220  1.00  0.00    -0.237 OA
ATOM     93  O   UNL A   1      48.793  37.051  30.859  1.00  0.00    -0.237 OA
ATOM     94  O   UNL A   1      49.413  37.293  28.486  1.00  0.00    -0.744 OA
ENDBRANCH  90  91
ENDBRANCH  64  85
ENDBRANCH  38  39
ENDBRANCH  30  33
ENDBRANCH  28  29
ENDBRANCH  27  28
ENDBRANCH   1  27
TORSDOF 17
ENDMDL
MODEL 2
REMARK VINA RESULT:     -10.9      0.507      7.995
REMARK SMILES COc1cc(/C=C2\SC(=S)N(CC(=O)NCCCCNC(=O)c3ccc(-c4c5nc(c(-c6ccc(S(=O)(=O)[O-])cc6)c6ccc([nH]6)c(-c6ccc(S(=O)(=O)[O-])cc6)c6nc(c(-c7ccc(S(=O)(=O)[O-])cc7)c7ccc4[nH]7)C=C6)C=C5)cc3)C2=O)cc2c1OCO2
REMARK SMILES IDX 17 1 16 2 15 3 13 4 14 5 12 7 11 8 6 9 7 10 8 11 83 12 9 13
REMARK SMILES IDX 84 14 10 15 5 16 3 17 4 18 87 19 86 20 88 21 85 22 90 23
REMARK SMILES IDX 89 24 2 25 1 26 18 27 19 28 20 29 21 30 22 32 23 33 24 34
REMARK SMILES IDX 82 35 25 36 81 37 26 38 27 39 28 40 75 41 29 42 80 43 74 44
REMARK SMILES IDX 76 45 30 46 79 47 73 48 72 49 31 51 61 52 42 53 60 54 43 55
REMARK SMILES IDX 46 56 59 57 77 58 44 59 45 60 58 62 78 63 47 64 32 65 33 66
REMARK SMILES IDX 41 67 34 68 40 69 35 70 36 71 37 72 38 73 39 74 62 75 63 76
REMARK SMILES IDX 71 77 64 78 70 79 65 80 66 81 67 82 68 83 69 84 48 85 49 86
REMARK SMILES IDX 57 87 50 88 56 89 51 90 52 91 53 92 54 93 55 94
REMARK H PARENT 15 6 20 31 76 50 46 61
REMARK Flexibility Score: inf
ROOT
ATOM      1  C   UNL A   1      37.562  21.537  25.286  1.00  0.00     0.023 C 
ENDROOT
BRANCH   1   2
ATOM      2  C   UNL A   1      36.182  20.887  25.322  1.00  0.00     0.116 C 
BRANCH   2   3
ATOM      3  N   UNL A   1      35.406  21.307  26.469  1.00  0.00    -0.355 N 
ATOM      4  C   UNL A   1      34.088  21.639  26.565  1.00  0.00     0.240 C 
ATOM      5  O   UNL A   1      33.601  21.692  27.698  1.00  0.00    -0.273 OA
ATOM      6  H   UNL A   1      35.910  21.360  27.313  1.00  0.00     0.163 HD
BRANCH   4   7
ATOM      7  C   UNL A   1      33.187  21.753  25.329  1.00  0.00     0.227 C 
BRANCH   7   8
ATOM      8  N   UNL A   1      32.893  23.120  24.903  1.00  0.00    -0.283 N 
ATOM      9  C   UNL A   1      30.401  25.745  24.895  1.00  0.00     0.029 C 
ATOM     10  C   UNL A   1      31.509  25.018  24.699  1.00  0.00     0.081 C 
ATOM     11  S   UNL A   1      32.936  25.466  23.854  1.00  0.00    -0.054 SA
ATOM     12  C   UNL A   1      31.648  23.637  25.231  1.00  0.00     0.266 C 
ATOM     13  C   UNL A   1      33.670  23.885  24.063  1.00  0.00     0.148 C 
ATOM     14  O   UNL A   1      30.765  23.051  25.833  1.00  0.00    -0.268 OA
ATOM     15  S   UNL A   1      35.087  23.470  23.282  1.00  0.00    -0.052 S 
BRANCH   9  16
ATOM     16  C   UNL A   1      30.184  27.110  24.398  1.00  0.00    -0.017 A 
ATOM     17  C   UNL A   1      30.775  29.485  24.479  1.00  0.00     0.165 A 
ATOM     18  C   UNL A   1      30.932  28.172  24.944  1.00  0.00     0.058 A 
ATOM     19  C   UNL A   1      29.888  29.698  23.438  1.00  0.00     0.207 A 
ATOM     20  C   UNL A   1      29.145  28.660  22.918  1.00  0.00     0.170 A 
ATOM     21  O   UNL A   1      29.640  30.863  22.780  1.00  0.00    -0.450 OA
ATOM     22  C   UNL A   1      29.249  27.369  23.389  1.00  0.00     0.059 A 
ATOM     23  O   UNL A   1      28.342  29.047  21.889  1.00  0.00    -0.453 OA
ATOM     24  C   UNL A   1      28.740  30.422  21.747  1.00  0.00     0.468 C 
BRANCH  17  25
ATOM     25  O   UNL A   1      31.579  30.416  25.068  1.00  0.00    -0.493 OA
ATOM     26  C   UNL A   1      31.964  30.122  26.406  1.00  0.00     0.278 C 
ENDBRANCH  17  25
ENDBRANCH   9  16
ENDBRANCH   7   8
ENDBRANCH   4   7
ENDBRANCH   2   3
ENDBRANCH   1   2
BRANCH   1  27
ATOM     27  C   UNL A   1      38.715  20.556  25.064  1.00  0.00     0.023 C 
BRANCH  27  28
ATOM     28  C   UNL A   1      39.446  20.113  26.327  1.00  0.00     0.116 C 
BRANCH  28  29
ATOM     29  N   UNL A   1      40.611  19.285  26.053  1.00  0.00    -0.352 N 
ATOM     30  C   UNL A   1      41.933  19.657  25.981  1.00  0.00     0.251 C 
ATOM     31  H   UNL A   1      40.428  18.329  25.897  1.00  0.00     0.163 HD
ATOM     32  O   UNL A   1      42.779  18.851  25.607  1.00  0.00    -0.269 OA
BRANCH  30  33
ATOM     33  C   UNL A   1      42.320  21.042  26.323  1.00  0.00     0.039 A 
ATOM     34  C   UNL A   1      42.645  21.347  27.647  1.00  0.00     0.014 A 
ATOM     35  C   UNL A   1      42.395  22.027  25.334  1.00  0.00     0.014 A 
ATOM     36  C   UNL A   1      43.112  22.624  27.965  1.00  0.00     0.010 A 
ATOM     37  C   UNL A   1      42.937  23.271  25.639  1.00  0.00     0.010 A 
ATOM     38  C   UNL A   1      43.300  23.584  26.958  1.00  0.00    -0.014 A 
BRANCH  38  39
ATOM     39  C   UNL A   1      43.891  24.913  27.263  1.00  0.00     0.031 A 
ATOM     40  C   UNL A   1      43.032  26.021  27.808  1.00  0.00     0.074 A 
ATOM     41  C   UNL A   1      45.187  25.147  26.978  1.00  0.00     0.049 A 
ATOM     42  N   UNL A   1      43.361  27.254  28.095  1.00  0.00    -0.248 NA
ATOM     43  C   UNL A   1      41.612  25.710  28.033  1.00  0.00     0.031 C 
ATOM     44  C   UNL A   1      46.113  24.174  26.392  1.00  0.00     0.029 A 
ATOM     45  N   UNL A   1      45.949  26.278  27.133  1.00  0.00    -0.354 N 
ATOM     46  C   UNL A   1      42.189  27.871  28.517  1.00  0.00     0.074 A 
ATOM     47  C   UNL A   1      41.131  26.891  28.390  1.00  0.00     0.031 C 
ATOM     48  C   UNL A   1      47.320  24.744  26.256  1.00  0.00     0.029 A 
ATOM     49  C   UNL A   1      47.247  26.131  26.704  1.00  0.00     0.049 A 
ATOM     50  H   UNL A   1      45.598  27.115  27.514  1.00  0.00     0.167 HD
ATOM     51  C   UNL A   1      42.009  29.129  28.985  1.00  0.00     0.031 A 
ATOM     52  C   UNL A   1      48.265  27.013  26.662  1.00  0.00     0.031 A 
ATOM     53  C   UNL A   1      43.065  30.104  29.097  1.00  0.00     0.049 A 
ATOM     54  C   UNL A   1      48.050  28.406  27.181  1.00  0.00     0.074 A 
ATOM     55  C   UNL A   1      43.001  31.385  29.615  1.00  0.00     0.029 A 
ATOM     56  N   UNL A   1      44.371  29.910  28.670  1.00  0.00    -0.354 N 
ATOM     57  N   UNL A   1      46.954  28.945  27.661  1.00  0.00    -0.248 NA
ATOM     58  C   UNL A   1      49.211  29.305  27.169  1.00  0.00     0.031 C 
ATOM     59  C   UNL A   1      44.251  31.989  29.440  1.00  0.00     0.029 A 
ATOM     60  C   UNL A   1      45.114  31.060  28.880  1.00  0.00     0.049 A 
ATOM     61  H   UNL A   1      44.717  29.077  28.276  1.00  0.00     0.167 HD
ATOM     62  C   UNL A   1      47.296  30.243  28.024  1.00  0.00     0.074 A 
ATOM     63  C   UNL A   1      48.707  30.400  27.726  1.00  0.00     0.031 C 
ATOM     64  C   UNL A   1      46.514  31.213  28.562  1.00  0.00     0.031 A 
BRANCH  51  65
ATOM     65  C   UNL A   1      40.608  29.524  29.379  1.00  0.00    -0.014 A 
ATOM     66  C   UNL A   1      39.598  29.703  28.414  1.00  0.00     0.010 A 
ATOM     67  C   UNL A   1      40.296  29.730  30.735  1.00  0.00     0.010 A 
ATOM     68  C   UNL A   1      38.330  30.156  28.789  1.00  0.00     0.020 A 
ATOM     69  C   UNL A   1      39.018  30.148  31.119  1.00  0.00     0.020 A 
ATOM     70  C   UNL A   1      38.052  30.387  30.139  1.00  0.00     0.054 A 
BRANCH  70  71
ATOM     71  S   UNL A   1      36.409  31.006  30.596  1.00  0.00     0.124 S 
ATOM     72  O   UNL A   1      35.949  29.976  31.525  1.00  0.00    -0.237 OA
ATOM     73  O   UNL A   1      36.711  32.302  31.196  1.00  0.00    -0.237 OA
ATOM     74  O   UNL A   1      35.693  31.062  29.323  1.00  0.00    -0.744 OA
ENDBRANCH  70  71
ENDBRANCH  51  65
BRANCH  52  75
ATOM     75  C   UNL A   1      49.580  26.578  26.116  1.00  0.00    -0.014 A 
ATOM     76  C   UNL A   1      49.966  26.924  24.811  1.00  0.00     0.010 A 
ATOM     77  C   UNL A   1      50.484  25.876  26.934  1.00  0.00     0.010 A 
ATOM     78  C   UNL A   1      51.237  26.587  24.336  1.00  0.00     0.020 A 
ATOM     79  C   UNL A   1      51.766  25.561  26.474  1.00  0.00     0.020 A 
ATOM     80  C   UNL A   1      52.135  25.919  25.176  1.00  0.00     0.054 A 
BRANCH  80  81
ATOM     81  S   UNL A   1      53.815  25.590  24.576  1.00  0.00     0.124 S 
ATOM     82  O   UNL A   1      54.619  26.465  25.423  1.00  0.00    -0.237 OA
ATOM     83  O   UNL A   1      53.962  24.159  24.823  1.00  0.00    -0.237 OA
ATOM     84  O   UNL A   1      53.754  25.967  23.165  1.00  0.00    -0.744 OA
ENDBRANCH  80  81
ENDBRANCH  52  75
BRANCH  64  85
ATOM     85  C   UNL A   1      47.167  32.534  28.883  1.00  0.00    -0.014 A 
ATOM     86  C   UNL A   1      47.195  33.583  27.947  1.00  0.00     0.010 A 
ATOM     87  C   UNL A   1      47.710  32.744  30.164  1.00  0.00     0.010 A 
ATOM     88  C   UNL A   1      47.782  34.809  28.278  1.00  0.00     0.020 A 
ATOM     89  C   UNL A   1      48.269  33.977  30.508  1.00  0.00     0.020 A 
ATOM     90  C   UNL A   1      48.314  34.998  29.557  1.00  0.00     0.054 A 
BRANCH  90  91
ATOM     91  S   UNL A   1      49.031  36.611  29.974  1.00  0.00     0.124 S 
ATOM     92  O   UNL A   1      47.904  37.512  29.752  1.00  0.00    -0.237 OA
ATOM     93  O   UNL A   1      49.429  36.434  31.368  1.00  0.00    -0.237 OA
ATOM     94  O   UNL A   1      50.138  36.754  29.029  1.00  0.00    -0.744 OA
ENDBRANCH  90  91
ENDBRANCH  64  85
ENDBRANCH  38  39
ENDBRANCH  30  33
ENDBRANCH  28  29
ENDBRANCH  27  28
ENDBRANCH   1  27
TORSDOF 17
ENDMDL
MODEL 3
REMARK VINA RESULT:     -10.7      5.804      8.720
REMARK SMILES COc1cc(/C=C2\SC(=S)N(CC(=O)NCCCCNC(=O)c3ccc(-c4c5nc(c(-c6ccc(S(=O)(=O)[O-])cc6)c6ccc([nH]6)c(-c6ccc(S(=O)(=O)[O-])cc6)c6nc(c(-c7ccc(S(=O)(=O)[O-])cc7)c7ccc4[nH]7)C=C6)C=C5)cc3)C2=O)cc2c1OCO2
REMARK SMILES IDX 17 1 16 2 15 3 13 4 14 5 12 7 11 8 6 9 7 10 8 11 83 12 9 13
REMARK SMILES IDX 84 14 10 15 5 16 3 17 4 18 87 19 86 20 88 21 85 22 90 23
REMARK SMILES IDX 89 24 2 25 1 26 18 27 19 28 20 29 21 30 22 32 23 33 24 34
REMARK SMILES IDX 82 35 25 36 81 37 26 38 27 39 28 40 75 41 29 42 80 43 74 44
REMARK SMILES IDX 76 45 30 46 79 47 73 48 72 49 31 51 61 52 42 53 60 54 43 55
REMARK SMILES IDX 46 56 59 57 77 58 44 59 45 60 58 62 78 63 47 64 32 65 33 66
REMARK SMILES IDX 41 67 34 68 40 69 35 70 36 71 37 72 38 73 39 74 62 75 63 76
REMARK SMILES IDX 71 77 64 78 70 79 65 80 66 81 67 82 68 83 69 84 48 85 49 86
REMARK SMILES IDX 57 87 50 88 56 89 51 90 52 91 53 92 54 93 55 94
REMARK H PARENT 15 6 20 31 76 50 46 61
REMARK Flexibility Score: inf
ROOT
ATOM      1  C   UNL A   1      43.448  23.081  28.473  1.00  0.00     0.023 C 
ENDROOT
BRANCH   1   2
ATOM      2  C   UNL A   1      41.924  22.997  28.467  1.00  0.00     0.116 C 
BRANCH   2   3
ATOM      3  N   UNL A   1      41.449  21.632  28.399  1.00  0.00    -0.355 N 
ATOM      4  C   UNL A   1      40.853  20.959  27.374  1.00  0.00     0.240 C 
ATOM      5  O   UNL A   1      40.795  19.729  27.467  1.00  0.00    -0.273 OA
ATOM      6  H   UNL A   1      41.577  21.108  29.222  1.00  0.00     0.163 HD
BRANCH   4   7
ATOM      7  C   UNL A   1      40.445  21.658  26.072  1.00  0.00     0.227 C 
BRANCH   7   8
ATOM      8  N   UNL A   1      39.005  21.701  25.820  1.00  0.00    -0.283 N 
ATOM      9  C   UNL A   1      36.023  23.741  26.040  1.00  0.00     0.029 C 
ATOM     10  C   UNL A   1      36.888  22.736  25.841  1.00  0.00     0.081 C 
ATOM     11  S   UNL A   1      36.559  21.159  25.243  1.00  0.00    -0.054 SA
ATOM     12  C   UNL A   1      38.338  22.876  26.131  1.00  0.00     0.266 C 
ATOM     13  C   UNL A   1      38.219  20.628  25.461  1.00  0.00     0.148 C 
ATOM     14  O   UNL A   1      38.839  23.880  26.609  1.00  0.00    -0.268 OA
ATOM     15  S   UNL A   1      38.657  19.029  25.267  1.00  0.00    -0.052 S 
BRANCH   9  16
ATOM     16  C   UNL A   1      34.579  23.680  25.786  1.00  0.00    -0.017 A 
ATOM     17  C   UNL A   1      32.745  23.432  24.181  1.00  0.00     0.165 A 
ATOM     18  C   UNL A   1      34.115  23.522  24.465  1.00  0.00     0.058 A 
ATOM     19  C   UNL A   1      31.864  23.463  25.247  1.00  0.00     0.207 A 
ATOM     20  C   UNL A   1      32.319  23.635  26.537  1.00  0.00     0.170 A 
ATOM     21  O   UNL A   1      30.512  23.310  25.216  1.00  0.00    -0.450 OA
ATOM     22  C   UNL A   1      33.658  23.772  26.836  1.00  0.00     0.059 A 
ATOM     23  O   UNL A   1      31.317  23.621  27.459  1.00  0.00    -0.453 OA
ATOM     24  C   UNL A   1      30.190  23.315  26.618  1.00  0.00     0.468 C 
BRANCH  17  25
ATOM     25  O   UNL A   1      32.428  23.250  22.867  1.00  0.00    -0.493 OA
ATOM     26  C   UNL A   1      33.485  23.510  21.949  1.00  0.00     0.278 C 
ENDBRANCH  17  25
ENDBRANCH   9  16
ENDBRANCH   7   8
ENDBRANCH   4   7
ENDBRANCH   2   3
ENDBRANCH   1   2
BRANCH   1  27
ATOM     27  C   UNL A   1      44.081  23.140  27.081  1.00  0.00     0.023 C 
BRANCH  27  28
ATOM     28  C   UNL A   1      44.243  24.540  26.498  1.00  0.00     0.116 C 
BRANCH  28  29
ATOM     29  N   UNL A   1      43.182  24.899  25.568  1.00  0.00    -0.352 N 
ATOM     30  C   UNL A   1      42.114  25.741  25.767  1.00  0.00     0.251 C 
ATOM     31  H   UNL A   1      43.237  24.482  24.677  1.00  0.00     0.163 HD
ATOM     32  O   UNL A   1      41.235  25.830  24.915  1.00  0.00    -0.269 OA
BRANCH  30  33
ATOM     33  C   UNL A   1      42.015  26.509  27.026  1.00  0.00     0.039 A 
ATOM     34  C   UNL A   1      42.769  27.677  27.167  1.00  0.00     0.014 A 
ATOM     35  C   UNL A   1      41.156  26.097  28.048  1.00  0.00     0.014 A 
ATOM     36  C   UNL A   1      42.608  28.468  28.306  1.00  0.00     0.010 A 
ATOM     37  C   UNL A   1      40.938  26.927  29.143  1.00  0.00     0.010 A 
ATOM     38  C   UNL A   1      41.662  28.121  29.285  1.00  0.00    -0.014 A 
BRANCH  38  39
ATOM     39  C   UNL A   1      41.405  29.002  30.454  1.00  0.00     0.031 A 
ATOM     40  C   UNL A   1      42.240  28.879  31.698  1.00  0.00     0.074 A 
ATOM     41  C   UNL A   1      40.370  29.865  30.422  1.00  0.00     0.049 A 
ATOM     42  N   UNL A   1      42.138  29.531  32.828  1.00  0.00    -0.248 NA
ATOM     43  C   UNL A   1      43.311  27.871  31.681  1.00  0.00     0.031 C 
ATOM     44  C   UNL A   1      39.448  30.039  29.297  1.00  0.00     0.029 A 
ATOM     45  N   UNL A   1      39.912  30.749  31.367  1.00  0.00    -0.354 N 
ATOM     46  C   UNL A   1      43.118  29.002  33.660  1.00  0.00     0.074 A 
ATOM     47  C   UNL A   1      43.761  27.935  32.925  1.00  0.00     0.031 C 
ATOM     48  C   UNL A   1      38.549  30.985  29.609  1.00  0.00     0.029 A 
ATOM     49  C   UNL A   1      38.801  31.456  30.967  1.00  0.00     0.049 A 
ATOM     50  H   UNL A   1      40.338  30.866  32.246  1.00  0.00     0.167 HD
ATOM     51  C   UNL A   1      43.463  29.380  34.915  1.00  0.00     0.031 A 
ATOM     52  C   UNL A   1      38.059  32.371  31.620  1.00  0.00     0.031 A 
ATOM     53  C   UNL A   1      42.810  30.436  35.646  1.00  0.00     0.049 A 
ATOM     54  C   UNL A   1      38.453  32.777  33.012  1.00  0.00     0.074 A 
ATOM     55  C   UNL A   1      43.123  30.937  36.897  1.00  0.00     0.029 A 
ATOM     56  N   UNL A   1      41.701  31.140  35.199  1.00  0.00    -0.354 N 
ATOM     57  N   UNL A   1      39.440  32.328  33.751  1.00  0.00    -0.248 NA
ATOM     58  C   UNL A   1      37.645  33.824  33.651  1.00  0.00     0.031 C 
ATOM     59  C   UNL A   1      42.164  31.898  37.234  1.00  0.00     0.029 A 
ATOM     60  C   UNL A   1      41.296  32.048  36.163  1.00  0.00     0.049 A 
ATOM     61  H   UNL A   1      41.267  31.014  34.325  1.00  0.00     0.167 HD
ATOM     62  C   UNL A   1      39.383  33.050  34.939  1.00  0.00     0.074 A 
ATOM     63  C   UNL A   1      38.276  33.977  34.809  1.00  0.00     0.031 C 
ATOM     64  C   UNL A   1      40.180  32.955  36.033  1.00  0.00     0.031 A 
BRANCH  51  65
ATOM     65  C   UNL A   1      44.583  28.618  35.579  1.00  0.00    -0.014 A 
ATOM     66  C   UNL A   1      45.933  28.944  35.341  1.00  0.00     0.010 A 
ATOM     67  C   UNL A   1      44.284  27.551  36.445  1.00  0.00     0.010 A 
ATOM     68  C   UNL A   1      46.957  28.170  35.893  1.00  0.00     0.020 A 
ATOM     69  C   UNL A   1      45.307  26.798  37.029  1.00  0.00     0.020 A 
ATOM     70  C   UNL A   1      46.637  27.094  36.725  1.00  0.00     0.054 A 
BRANCH  70  71
ATOM     71  S   UNL A   1      47.985  26.087  37.402  1.00  0.00     0.124 S 
ATOM     72  O   UNL A   1      49.163  26.752  36.849  1.00  0.00    -0.237 OA
ATOM     73  O   UNL A   1      47.801  26.234  38.844  1.00  0.00    -0.237 OA
ATOM     74  O   UNL A   1      47.719  24.751  36.875  1.00  0.00    -0.744 OA
ENDBRANCH  70  71
ENDBRANCH  51  65
BRANCH  52  75
ATOM     75  C   UNL A   1      36.876  32.965  30.939  1.00  0.00    -0.014 A 
ATOM     76  C   UNL A   1      35.572  32.640  31.347  1.00  0.00     0.010 A 
ATOM     77  C   UNL A   1      37.057  33.923  29.923  1.00  0.00     0.010 A 
ATOM     78  C   UNL A   1      34.470  33.269  30.761  1.00  0.00     0.020 A 
ATOM     79  C   UNL A   1      35.959  34.575  29.354  1.00  0.00     0.020 A 
ATOM     80  C   UNL A   1      34.671  34.243  29.777  1.00  0.00     0.054 A 
BRANCH  80  81
ATOM     81  S   UNL A   1      33.231  35.123  29.111  1.00  0.00     0.124 S 
ATOM     82  O   UNL A   1      33.847  36.292  28.492  1.00  0.00    -0.237 OA
ATOM     83  O   UNL A   1      32.663  34.143  28.189  1.00  0.00    -0.237 OA
ATOM     84  O   UNL A   1      32.418  35.396  30.295  1.00  0.00    -0.744 OA
ENDBRANCH  80  81
ENDBRANCH  52  75
BRANCH  64  85
ATOM     85  C   UNL A   1      39.899  33.893  37.180  1.00  0.00    -0.014 A 
ATOM     86  C   UNL A   1      39.996  35.287  37.027  1.00  0.00     0.010 A 
ATOM     87  C   UNL A   1      39.477  33.368  38.416  1.00  0.00     0.010 A 
ATOM     88  C   UNL A   1      39.706  36.138  38.098  1.00  0.00     0.020 A 
ATOM     89  C   UNL A   1      39.154  34.215  39.479  1.00  0.00     0.020 A 
ATOM     90  C   UNL A   1      39.285  35.595  39.317  1.00  0.00     0.054 A 
BRANCH  90  91
ATOM     91  S   UNL A   1      38.872  36.723  40.677  1.00  0.00     0.124 S 
ATOM     92  O   UNL A   1      38.328  37.875  39.963  1.00  0.00    -0.237 OA
ATOM     93  O   UNL A   1      37.905  35.949  41.451  1.00  0.00    -0.237 OA
ATOM     94  O   UNL A   1      40.155  36.950  41.341  1.00  0.00    -0.744 OA
ENDBRANCH  90  91
ENDBRANCH  64  85
ENDBRANCH  38  39
ENDBRANCH  30  33
ENDBRANCH  28  29
ENDBRANCH  27  28
ENDBRANCH   1  27
TORSDOF 17
ENDMDL
