MODEL 1
REMARK VINA RESULT:     -10.4      0.000      0.000
REMARK SMILES CCc1ccc(CNC(=O)CCC(=O)NCCCCNC(=O)c2ccc(-c3c4nc(c(-c5ccc(S(=O)(=O)[O-])cc5)c5ccc([nH]5)c(-c5ccc(S(=O)(=O)[O-])cc5)c5nc(c(-c6ccc(S(=O)(=O)[O-])cc6)c6ccc3[nH]6)C=C5)C=C4)cc2)cc1
REMARK SMILES IDX 16 1 15 2 13 3 14 4 12 6 11 7 9 8 8 9 10 11 7 12 6 13 3 14
REMARK SMILES IDX 4 15 84 16 5 17 83 18 2 19 1 20 17 21 18 22 19 23 20 24
REMARK SMILES IDX 21 25 22 27 23 28 24 29 82 30 25 31 81 32 26 33 27 34 28 35
REMARK SMILES IDX 75 36 29 37 80 38 74 39 76 40 30 41 79 42 73 43 72 44 31 46
REMARK SMILES IDX 61 47 42 48 60 49 43 50 46 51 59 52 77 53 44 54 45 55 58 57
REMARK SMILES IDX 78 58 47 59 32 60 33 61 41 62 34 63 40 64 35 65 36 66 37 67
REMARK SMILES IDX 38 68 39 69 62 70 63 71 71 72 64 73 70 74 65 75 66 76 67 77
REMARK SMILES IDX 68 78 69 79 48 80 49 81 57 82 50 83 56 84 51 85 52 86 53 87
REMARK SMILES IDX 54 88 55 89
REMARK H PARENT 15 5 8 10 20 26 76 45 46 56
REMARK Flexibility Score: inf
ROOT
ATOM      1  C   UNL A   1      34.049  22.462  23.560  1.00  0.00     0.116 C 
ENDROOT
BRANCH   1   2
ATOM      2  N   UNL A   1      33.645  21.247  24.241  1.00  0.00    -0.356 N 
ATOM      3  C   UNL A   1      32.589  21.050  25.082  1.00  0.00     0.220 C 
ATOM      4  O   UNL A   1      32.060  19.938  25.147  1.00  0.00    -0.275 OA
ATOM      5  H   UNL A   1      34.209  20.457  24.073  1.00  0.00     0.163 HD
BRANCH   3   6
ATOM      6  C   UNL A   1      32.146  22.145  26.014  1.00  0.00     0.110 C 
BRANCH   6   7
ATOM      7  C   UNL A   1      30.886  22.799  25.451  1.00  0.00     0.110 C 
BRANCH   7   8
ATOM      8  C   UNL A   1      30.226  23.663  26.500  1.00  0.00     0.220 C 
ATOM      9  N   UNL A   1      29.958  24.979  26.276  1.00  0.00    -0.352 N 
ATOM     10  H   UNL A   1      29.339  25.386  26.923  1.00  0.00     0.163 HD
ATOM     11  O   UNL A   1      29.868  23.157  27.567  1.00  0.00    -0.275 OA
BRANCH   9  12
ATOM     12  C   UNL A   1      30.432  25.887  25.243  1.00  0.00     0.151 C 
BRANCH  12  13
ATOM     13  C   UNL A   1      31.031  27.177  25.764  1.00  0.00    -0.029 A 
ATOM     14  C   UNL A   1      32.264  29.591  26.636  1.00  0.00    -0.048 A 
ATOM     15  C   UNL A   1      31.812  29.452  25.323  1.00  0.00     0.004 A 
ATOM     16  C   UNL A   1      32.089  28.513  27.516  1.00  0.00     0.004 A 
ATOM     17  C   UNL A   1      31.234  28.256  24.894  1.00  0.00     0.006 A 
ATOM     18  C   UNL A   1      31.467  27.325  27.089  1.00  0.00     0.006 A 
BRANCH  14  19
ATOM     19  C   UNL A   1      32.960  30.863  27.057  1.00  0.00     0.032 C 
ATOM     20  C   UNL A   1      34.381  30.625  27.551  1.00  0.00     0.009 C 
ENDBRANCH  14  19
ENDBRANCH  12  13
ENDBRANCH   9  12
ENDBRANCH   7   8
ENDBRANCH   6   7
ENDBRANCH   3   6
ENDBRANCH   1   2
BRANCH   1  21
ATOM     21  C   UNL A   1      35.509  22.893  23.703  1.00  0.00     0.023 C 
BRANCH  21  22
ATOM     22  C   UNL A   1      35.837  24.016  24.692  1.00  0.00     0.023 C 
BRANCH  22  23
ATOM     23  C   UNL A   1      36.301  23.604  26.085  1.00  0.00     0.116 C 
BRANCH  23  24
ATOM     24  N   UNL A   1      37.442  22.706  26.038  1.00  0.00    -0.352 N 
ATOM     25  C   UNL A   1      38.779  22.934  26.255  1.00  0.00     0.251 C 
ATOM     26  H   UNL A   1      37.218  21.775  25.812  1.00  0.00     0.163 HD
ATOM     27  O   UNL A   1      39.583  22.066  25.917  1.00  0.00    -0.269 OA
BRANCH  25  28
ATOM     28  C   UNL A   1      39.282  24.181  26.884  1.00  0.00     0.039 A 
ATOM     29  C   UNL A   1      38.941  24.437  28.220  1.00  0.00     0.014 A 
ATOM     30  C   UNL A   1      39.986  25.149  26.163  1.00  0.00     0.014 A 
ATOM     31  C   UNL A   1      39.335  25.631  28.837  1.00  0.00     0.010 A 
ATOM     32  C   UNL A   1      40.426  26.317  26.796  1.00  0.00     0.010 A 
ATOM     33  C   UNL A   1      40.101  26.576  28.138  1.00  0.00    -0.014 A 
BRANCH  33  34
ATOM     34  C   UNL A   1      40.575  27.829  28.789  1.00  0.00     0.031 A 
ATOM     35  C   UNL A   1      41.934  27.888  29.439  1.00  0.00     0.074 A 
ATOM     36  C   UNL A   1      39.753  28.896  28.863  1.00  0.00     0.049 A 
ATOM     37  N   UNL A   1      42.469  28.851  30.148  1.00  0.00    -0.248 NA
ATOM     38  C   UNL A   1      42.795  26.704  29.292  1.00  0.00     0.031 C 
ATOM     39  C   UNL A   1      38.402  28.964  28.302  1.00  0.00     0.029 A 
ATOM     40  N   UNL A   1      39.923  30.121  29.463  1.00  0.00    -0.354 N 
ATOM     41  C   UNL A   1      43.711  28.378  30.559  1.00  0.00     0.074 A 
ATOM     42  C   UNL A   1      43.842  27.034  30.038  1.00  0.00     0.031 C 
ATOM     43  C   UNL A   1      37.868  30.164  28.583  1.00  0.00     0.029 A 
ATOM     44  C   UNL A   1      38.816  30.936  29.379  1.00  0.00     0.049 A 
ATOM     45  H   UNL A   1      40.758  30.390  29.910  1.00  0.00     0.167 HD
ATOM     46  C   UNL A   1      44.658  29.007  31.298  1.00  0.00     0.031 A 
ATOM     47  C   UNL A   1      38.579  32.154  29.903  1.00  0.00     0.031 A 
ATOM     48  C   UNL A   1      44.540  30.355  31.791  1.00  0.00     0.049 A 
ATOM     49  C   UNL A   1      39.649  32.831  30.717  1.00  0.00     0.074 A 
ATOM     50  C   UNL A   1      45.482  31.103  32.477  1.00  0.00     0.029 A 
ATOM     51  N   UNL A   1      43.416  31.155  31.657  1.00  0.00    -0.354 N 
ATOM     52  N   UNL A   1      40.845  32.394  31.030  1.00  0.00    -0.248 NA
ATOM     53  C   UNL A   1      39.340  34.170  31.239  1.00  0.00     0.031 C 
ATOM     54  C   UNL A   1      44.907  32.335  32.807  1.00  0.00     0.029 A 
ATOM     55  C   UNL A   1      43.628  32.376  32.276  1.00  0.00     0.049 A 
ATOM     56  H   UNL A   1      42.590  30.894  31.191  1.00  0.00     0.167 HD
ATOM     57  C   UNL A   1      41.438  33.413  31.768  1.00  0.00     0.074 A 
ATOM     58  C   UNL A   1      40.477  34.494  31.838  1.00  0.00     0.031 C 
ATOM     59  C   UNL A   1      42.667  33.446  32.339  1.00  0.00     0.031 A 
BRANCH  46  60
ATOM     60  C   UNL A   1      45.912  28.244  31.640  1.00  0.00    -0.014 A 
ATOM     61  C   UNL A   1      47.050  28.298  30.817  1.00  0.00     0.010 A 
ATOM     62  C   UNL A   1      45.975  27.522  32.848  1.00  0.00     0.010 A 
ATOM     63  C   UNL A   1      48.218  27.621  31.180  1.00  0.00     0.020 A 
ATOM     64  C   UNL A   1      47.149  26.864  33.226  1.00  0.00     0.020 A 
ATOM     65  C   UNL A   1      48.260  26.907  32.381  1.00  0.00     0.054 A 
BRANCH  65  66
ATOM     66  S   UNL A   1      49.800  26.070  32.850  1.00  0.00     0.124 S 
ATOM     67  O   UNL A   1      49.795  26.228  34.306  1.00  0.00    -0.237 OA
ATOM     68  O   UNL A   1      49.579  24.704  32.371  1.00  0.00    -0.237 OA
ATOM     69  O   UNL A   1      50.832  26.814  32.147  1.00  0.00    -0.744 OA
ENDBRANCH  65  66
ENDBRANCH  46  60
BRANCH  47  70
ATOM     70  C   UNL A   1      37.257  32.809  29.696  1.00  0.00    -0.014 A 
ATOM     71  C   UNL A   1      37.018  33.604  28.562  1.00  0.00     0.010 A 
ATOM     72  C   UNL A   1      36.229  32.645  30.643  1.00  0.00     0.010 A 
ATOM     73  C   UNL A   1      35.787  34.245  28.392  1.00  0.00     0.020 A 
ATOM     74  C   UNL A   1      34.988  33.260  30.462  1.00  0.00     0.020 A 
ATOM     75  C   UNL A   1      34.780  34.069  29.344  1.00  0.00     0.054 A 
BRANCH  75  76
ATOM     76  S   UNL A   1      33.177  34.880  29.088  1.00  0.00     0.124 S 
ATOM     77  O   UNL A   1      33.578  36.203  28.622  1.00  0.00    -0.237 OA
ATOM     78  O   UNL A   1      32.544  34.022  28.090  1.00  0.00    -0.237 OA
ATOM     79  O   UNL A   1      32.560  34.841  30.412  1.00  0.00    -0.744 OA
ENDBRANCH  75  76
ENDBRANCH  47  70
BRANCH  59  80
ATOM     80  C   UNL A   1      43.060  34.704  33.068  1.00  0.00    -0.014 A 
ATOM     81  C   UNL A   1      42.937  34.804  34.465  1.00  0.00     0.010 A 
ATOM     82  C   UNL A   1      43.615  35.779  32.349  1.00  0.00     0.010 A 
ATOM     83  C   UNL A   1      43.335  35.969  35.126  1.00  0.00     0.020 A 
ATOM     84  C   UNL A   1      44.040  36.934  33.011  1.00  0.00     0.020 A 
ATOM     85  C   UNL A   1      43.884  37.027  34.395  1.00  0.00     0.054 A 
BRANCH  85  86
ATOM     86  S   UNL A   1      44.439  38.509  35.283  1.00  0.00     0.124 S 
ATOM     87  O   UNL A   1      43.783  39.575  34.532  1.00  0.00    -0.237 OA
ATOM     88  O   UNL A   1      43.927  38.285  36.633  1.00  0.00    -0.237 OA
ATOM     89  O   UNL A   1      45.894  38.463  35.159  1.00  0.00    -0.744 OA
ENDBRANCH  85  86
ENDBRANCH  59  80
ENDBRANCH  33  34
ENDBRANCH  25  28
ENDBRANCH  23  24
ENDBRANCH  22  23
ENDBRANCH  21  22
ENDBRANCH   1  21
TORSDOF 19
ENDMDL
MODEL 2
REMARK VINA RESULT:      -9.9      2.737      8.454
REMARK SMILES CCc1ccc(CNC(=O)CCC(=O)NCCCCNC(=O)c2ccc(-c3c4nc(c(-c5ccc(S(=O)(=O)[O-])cc5)c5ccc([nH]5)c(-c5ccc(S(=O)(=O)[O-])cc5)c5nc(c(-c6ccc(S(=O)(=O)[O-])cc6)c6ccc3[nH]6)C=C5)C=C4)cc2)cc1
REMARK SMILES IDX 16 1 15 2 13 3 14 4 12 6 11 7 9 8 8 9 10 11 7 12 6 13 3 14
REMARK SMILES IDX 4 15 84 16 5 17 83 18 2 19 1 20 17 21 18 22 19 23 20 24
REMARK SMILES IDX 21 25 22 27 23 28 24 29 82 30 25 31 81 32 26 33 27 34 28 35
REMARK SMILES IDX 75 36 29 37 80 38 74 39 76 40 30 41 79 42 73 43 72 44 31 46
REMARK SMILES IDX 61 47 42 48 60 49 43 50 46 51 59 52 77 53 44 54 45 55 58 57
REMARK SMILES IDX 78 58 47 59 32 60 33 61 41 62 34 63 40 64 35 65 36 66 37 67
REMARK SMILES IDX 38 68 39 69 62 70 63 71 71 72 64 73 70 74 65 75 66 76 67 77
REMARK SMILES IDX 68 78 69 79 48 80 49 81 57 82 50 83 56 84 51 85 52 86 53 87
REMARK SMILES IDX 54 88 55 89
REMARK H PARENT 15 5 8 10 20 26 76 45 46 56
REMARK Flexibility Score: inf
ROOT
ATOM      1  C   UNL A   1      34.131  22.439  23.695  1.00  0.00     0.116 C 
ENDROOT
BRANCH   1   2
ATOM      2  N   UNL A   1      33.703  21.206  24.327  1.00  0.00    -0.356 N 
ATOM      3  C   UNL A   1      32.628  20.992  25.140  1.00  0.00     0.220 C 
ATOM      4  O   UNL A   1      32.089  19.883  25.158  1.00  0.00    -0.275 OA
ATOM      5  H   UNL A   1      34.263  20.417  24.144  1.00  0.00     0.163 HD
BRANCH   3   6
ATOM      6  C   UNL A   1      32.177  22.059  26.100  1.00  0.00     0.110 C 
BRANCH   6   7
ATOM      7  C   UNL A   1      30.771  22.514  25.712  1.00  0.00     0.110 C 
BRANCH   7   8
ATOM      8  C   UNL A   1      30.266  23.554  26.686  1.00  0.00     0.220 C 
ATOM      9  N   UNL A   1      30.348  24.886  26.412  1.00  0.00    -0.352 N 
ATOM     10  H   UNL A   1      29.801  25.457  26.998  1.00  0.00     0.163 HD
ATOM     11  O   UNL A   1      29.717  23.194  27.730  1.00  0.00    -0.275 OA
BRANCH   9  12
ATOM     12  C   UNL A   1      31.107  25.608  25.403  1.00  0.00     0.151 C 
BRANCH  12  13
ATOM     13  C   UNL A   1      32.012  26.693  25.951  1.00  0.00    -0.029 A 
ATOM     14  C   UNL A   1      33.604  28.832  26.947  1.00  0.00    -0.048 A 
ATOM     15  C   UNL A   1      32.329  28.591  27.460  1.00  0.00     0.004 A 
ATOM     16  C   UNL A   1      34.083  27.990  25.934  1.00  0.00     0.004 A 
ATOM     17  C   UNL A   1      31.542  27.557  26.948  1.00  0.00     0.006 A 
ATOM     18  C   UNL A   1      33.301  26.923  25.451  1.00  0.00     0.006 A 
BRANCH  14  19
ATOM     19  C   UNL A   1      34.406  30.006  27.457  1.00  0.00     0.032 C 
ATOM     20  C   UNL A   1      35.631  29.583  28.258  1.00  0.00     0.009 C 
ENDBRANCH  14  19
ENDBRANCH  12  13
ENDBRANCH   9  12
ENDBRANCH   7   8
ENDBRANCH   6   7
ENDBRANCH   3   6
ENDBRANCH   1   2
BRANCH   1  21
ATOM     21  C   UNL A   1      35.632  22.723  23.658  1.00  0.00     0.023 C 
BRANCH  21  22
ATOM     22  C   UNL A   1      36.201  23.732  24.662  1.00  0.00     0.023 C 
BRANCH  22  23
ATOM     23  C   UNL A   1      36.523  23.217  26.060  1.00  0.00     0.116 C 
BRANCH  23  24
ATOM     24  N   UNL A   1      37.512  22.153  26.036  1.00  0.00    -0.352 N 
ATOM     25  C   UNL A   1      38.875  22.183  26.206  1.00  0.00     0.251 C 
ATOM     26  H   UNL A   1      37.142  21.256  25.870  1.00  0.00     0.163 HD
ATOM     27  O   UNL A   1      39.525  21.185  25.898  1.00  0.00    -0.269 OA
BRANCH  25  28
ATOM     28  C   UNL A   1      39.582  23.370  26.750  1.00  0.00     0.039 A 
ATOM     29  C   UNL A   1      39.519  24.571  26.029  1.00  0.00     0.014 A 
ATOM     30  C   UNL A   1      40.391  23.300  27.888  1.00  0.00     0.014 A 
ATOM     31  C   UNL A   1      40.224  25.700  26.466  1.00  0.00     0.010 A 
ATOM     32  C   UNL A   1      41.052  24.443  28.353  1.00  0.00     0.010 A 
ATOM     33  C   UNL A   1      40.982  25.654  27.645  1.00  0.00    -0.014 A 
BRANCH  33  34
ATOM     34  C   UNL A   1      41.699  26.856  28.156  1.00  0.00     0.031 A 
ATOM     35  C   UNL A   1      40.932  28.016  28.736  1.00  0.00     0.074 A 
ATOM     36  C   UNL A   1      43.040  26.938  28.030  1.00  0.00     0.049 A 
ATOM     37  N   UNL A   1      41.374  29.186  29.125  1.00  0.00    -0.248 NA
ATOM     38  C   UNL A   1      39.477  27.850  28.878  1.00  0.00     0.031 C 
ATOM     39  C   UNL A   1      43.902  25.899  27.461  1.00  0.00     0.029 A 
ATOM     40  N   UNL A   1      43.911  27.951  28.350  1.00  0.00    -0.354 N 
ATOM     41  C   UNL A   1      40.253  29.906  29.524  1.00  0.00     0.074 A 
ATOM     42  C   UNL A   1      39.106  29.048  29.311  1.00  0.00     0.031 C 
ATOM     43  C   UNL A   1      45.175  26.328  27.472  1.00  0.00     0.029 A 
ATOM     44  C   UNL A   1      45.218  27.685  28.008  1.00  0.00     0.049 A 
ATOM     45  H   UNL A   1      43.628  28.788  28.784  1.00  0.00     0.167 HD
ATOM     46  C   UNL A   1      40.183  31.163  30.028  1.00  0.00     0.031 A 
ATOM     47  C   UNL A   1      46.323  28.451  28.090  1.00  0.00     0.031 A 
ATOM     48  C   UNL A   1      41.328  32.004  30.268  1.00  0.00     0.049 A 
ATOM     49  C   UNL A   1      46.219  29.842  28.656  1.00  0.00     0.074 A 
ATOM     50  C   UNL A   1      41.361  33.260  30.852  1.00  0.00     0.029 A 
ATOM     51  N   UNL A   1      42.634  31.684  29.936  1.00  0.00    -0.354 N 
ATOM     52  N   UNL A   1      45.158  30.473  29.097  1.00  0.00    -0.248 NA
ATOM     53  C   UNL A   1      47.464  30.619  28.745  1.00  0.00     0.031 C 
ATOM     54  C   UNL A   1      42.680  33.722  30.822  1.00  0.00     0.029 A 
ATOM     55  C   UNL A   1      43.477  32.731  30.272  1.00  0.00     0.049 A 
ATOM     56  H   UNL A   1      42.920  30.838  29.523  1.00  0.00     0.167 HD
ATOM     57  C   UNL A   1      45.611  31.714  29.533  1.00  0.00     0.074 A 
ATOM     58  C   UNL A   1      47.043  31.736  29.322  1.00  0.00     0.031 C 
ATOM     59  C   UNL A   1      44.901  32.743  30.059  1.00  0.00     0.031 A 
BRANCH  46  60
ATOM     60  C   UNL A   1      38.822  31.725  30.345  1.00  0.00    -0.014 A 
ATOM     61  C   UNL A   1      38.294  31.677  31.647  1.00  0.00     0.010 A 
ATOM     62  C   UNL A   1      38.091  32.381  29.336  1.00  0.00     0.010 A 
ATOM     63  C   UNL A   1      37.050  32.248  31.928  1.00  0.00     0.020 A 
ATOM     64  C   UNL A   1      36.858  32.975  29.618  1.00  0.00     0.020 A 
ATOM     65  C   UNL A   1      36.338  32.893  30.911  1.00  0.00     0.054 A 
BRANCH  65  66
ATOM     66  S   UNL A   1      34.744  33.662  31.309  1.00  0.00     0.124 S 
ATOM     67  O   UNL A   1      34.208  33.945  29.977  1.00  0.00    -0.237 OA
ATOM     68  O   UNL A   1      34.054  32.601  32.046  1.00  0.00    -0.237 OA
ATOM     69  O   UNL A   1      35.104  34.829  32.096  1.00  0.00    -0.744 OA
ENDBRANCH  65  66
ENDBRANCH  46  60
BRANCH  47  70
ATOM     70  C   UNL A   1      47.630  27.930  27.600  1.00  0.00    -0.014 A 
ATOM     71  C   UNL A   1      48.162  28.361  26.373  1.00  0.00     0.010 A 
ATOM     72  C   UNL A   1      48.347  26.988  28.362  1.00  0.00     0.010 A 
ATOM     73  C   UNL A   1      49.372  27.840  25.903  1.00  0.00     0.020 A 
ATOM     74  C   UNL A   1      49.570  26.488  27.910  1.00  0.00     0.020 A 
ATOM     75  C   UNL A   1      50.068  26.906  26.675  1.00  0.00     0.054 A 
BRANCH  75  76
ATOM     76  S   UNL A   1      51.653  26.269  26.065  1.00  0.00     0.124 S 
ATOM     77  O   UNL A   1      51.449  26.282  24.620  1.00  0.00    -0.237 OA
ATOM     78  O   UNL A   1      52.607  27.249  26.578  1.00  0.00    -0.237 OA
ATOM     79  O   UNL A   1      51.745  24.944  26.674  1.00  0.00    -0.744 OA
ENDBRANCH  75  76
ENDBRANCH  47  70
BRANCH  59  80
ATOM     80  C   UNL A   1      45.665  33.973  30.472  1.00  0.00    -0.014 A 
ATOM     81  C   UNL A   1      46.054  34.173  31.808  1.00  0.00     0.010 A 
ATOM     82  C   UNL A   1      46.047  34.914  29.498  1.00  0.00     0.010 A 
ATOM     83  C   UNL A   1      46.788  35.307  32.167  1.00  0.00     0.020 A 
ATOM     84  C   UNL A   1      46.804  36.034  29.849  1.00  0.00     0.020 A 
ATOM     85  C   UNL A   1      47.158  36.231  31.185  1.00  0.00     0.054 A 
BRANCH  85  86
ATOM     86  S   UNL A   1      48.153  37.670  31.668  1.00  0.00     0.124 S 
ATOM     87  O   UNL A   1      48.770  37.209  32.908  1.00  0.00    -0.237 OA
ATOM     88  O   UNL A   1      49.061  37.828  30.534  1.00  0.00    -0.237 OA
ATOM     89  O   UNL A   1      47.166  38.737  31.822  1.00  0.00    -0.744 OA
ENDBRANCH  85  86
ENDBRANCH  59  80
ENDBRANCH  33  34
ENDBRANCH  25  28
ENDBRANCH  23  24
ENDBRANCH  22  23
ENDBRANCH  21  22
ENDBRANCH   1  21
TORSDOF 19
ENDMDL
MODEL 3
REMARK VINA RESULT:      -9.9      2.619      9.161
REMARK SMILES CCc1ccc(CNC(=O)CCC(=O)NCCCCNC(=O)c2ccc(-c3c4nc(c(-c5ccc(S(=O)(=O)[O-])cc5)c5ccc([nH]5)c(-c5ccc(S(=O)(=O)[O-])cc5)c5nc(c(-c6ccc(S(=O)(=O)[O-])cc6)c6ccc3[nH]6)C=C5)C=C4)cc2)cc1
REMARK SMILES IDX 16 1 15 2 13 3 14 4 12 6 11 7 9 8 8 9 10 11 7 12 6 13 3 14
REMARK SMILES IDX 4 15 84 16 5 17 83 18 2 19 1 20 17 21 18 22 19 23 20 24
REMARK SMILES IDX 21 25 22 27 23 28 24 29 82 30 25 31 81 32 26 33 27 34 28 35
REMARK SMILES IDX 75 36 29 37 80 38 74 39 76 40 30 41 79 42 73 43 72 44 31 46
REMARK SMILES IDX 61 47 42 48 60 49 43 50 46 51 59 52 77 53 44 54 45 55 58 57
REMARK SMILES IDX 78 58 47 59 32 60 33 61 41 62 34 63 40 64 35 65 36 66 37 67
REMARK SMILES IDX 38 68 39 69 62 70 63 71 71 72 64 73 70 74 65 75 66 76 67 77
REMARK SMILES IDX 68 78 69 79 48 80 49 81 57 82 50 83 56 84 51 85 52 86 53 87
REMARK SMILES IDX 54 88 55 89
REMARK H PARENT 15 5 8 10 20 26 76 45 46 56
REMARK Flexibility Score: inf
ROOT
ATOM      1  C   UNL A   1      32.039  25.483  26.372  1.00  0.00     0.116 C 
ENDROOT
BRANCH   1   2
ATOM      2  N   UNL A   1      30.868  24.729  26.773  1.00  0.00    -0.356 N 
ATOM      3  C   UNL A   1      30.685  23.376  26.783  1.00  0.00     0.220 C 
ATOM      4  O   UNL A   1      29.920  22.871  27.607  1.00  0.00    -0.275 OA
ATOM      5  H   UNL A   1      30.101  25.264  27.079  1.00  0.00     0.163 HD
BRANCH   3   6
ATOM      6  C   UNL A   1      31.317  22.516  25.722  1.00  0.00     0.110 C 
BRANCH   6   7
ATOM      7  C   UNL A   1      32.471  21.729  26.341  1.00  0.00     0.110 C 
BRANCH   7   8
ATOM      8  C   UNL A   1      32.821  20.540  25.477  1.00  0.00     0.220 C 
ATOM      9  N   UNL A   1      34.017  20.455  24.832  1.00  0.00    -0.352 N 
ATOM     10  H   UNL A   1      34.231  19.559  24.486  1.00  0.00     0.163 HD
ATOM     11  O   UNL A   1      32.032  19.595  25.393  1.00  0.00    -0.275 OA
BRANCH   9  12
ATOM     12  C   UNL A   1      35.034  21.462  24.569  1.00  0.00     0.151 C 
BRANCH  12  13
ATOM     13  C   UNL A   1      34.528  22.692  23.843  1.00  0.00    -0.029 A 
ATOM     14  C   UNL A   1      33.528  25.057  22.614  1.00  0.00    -0.048 A 
ATOM     15  C   UNL A   1      34.468  25.128  23.643  1.00  0.00     0.004 A 
ATOM     16  C   UNL A   1      33.095  23.790  22.197  1.00  0.00     0.004 A 
ATOM     17  C   UNL A   1      34.933  23.966  24.261  1.00  0.00     0.006 A 
ATOM     18  C   UNL A   1      33.599  22.620  22.795  1.00  0.00     0.006 A 
BRANCH  14  19
ATOM     19  C   UNL A   1      32.976  26.329  22.015  1.00  0.00     0.032 C 
ATOM     20  C   UNL A   1      31.961  26.071  20.910  1.00  0.00     0.009 C 
ENDBRANCH  14  19
ENDBRANCH  12  13
ENDBRANCH   9  12
ENDBRANCH   7   8
ENDBRANCH   6   7
ENDBRANCH   3   6
ENDBRANCH   1   2
BRANCH   1  21
ATOM     21  C   UNL A   1      31.809  26.747  25.544  1.00  0.00     0.023 C 
BRANCH  21  22
ATOM     22  C   UNL A   1      32.944  27.773  25.461  1.00  0.00     0.023 C 
BRANCH  22  23
ATOM     23  C   UNL A   1      33.687  28.096  26.752  1.00  0.00     0.116 C 
BRANCH  23  24
ATOM     24  N   UNL A   1      33.565  29.496  27.118  1.00  0.00    -0.352 N 
ATOM     25  C   UNL A   1      34.398  30.317  27.837  1.00  0.00     0.251 C 
ATOM     26  H   UNL A   1      32.743  29.932  26.794  1.00  0.00     0.163 HD
ATOM     27  O   UNL A   1      33.961  31.401  28.223  1.00  0.00    -0.269 OA
BRANCH  25  28
ATOM     28  C   UNL A   1      35.799  29.945  28.158  1.00  0.00     0.039 A 
ATOM     29  C   UNL A   1      36.106  29.582  29.476  1.00  0.00     0.014 A 
ATOM     30  C   UNL A   1      36.832  30.049  27.222  1.00  0.00     0.014 A 
ATOM     31  C   UNL A   1      37.426  29.287  29.843  1.00  0.00     0.010 A 
ATOM     32  C   UNL A   1      38.141  29.702  27.576  1.00  0.00     0.010 A 
ATOM     33  C   UNL A   1      38.455  29.324  28.891  1.00  0.00    -0.014 A 
BRANCH  33  34
ATOM     34  C   UNL A   1      39.856  28.965  29.246  1.00  0.00     0.031 A 
ATOM     35  C   UNL A   1      40.780  29.991  29.852  1.00  0.00     0.074 A 
ATOM     36  C   UNL A   1      40.326  27.735  28.955  1.00  0.00     0.049 A 
ATOM     37  N   UNL A   1      42.058  29.895  30.121  1.00  0.00    -0.248 NA
ATOM     38  C   UNL A   1      40.197  31.303  30.176  1.00  0.00     0.031 C 
ATOM     39  C   UNL A   1      39.548  26.655  28.343  1.00  0.00     0.029 A 
ATOM     40  N   UNL A   1      41.578  27.190  29.113  1.00  0.00    -0.354 N 
ATOM     41  C   UNL A   1      42.440  31.139  30.613  1.00  0.00     0.074 A 
ATOM     42  C   UNL A   1      41.262  31.981  30.586  1.00  0.00     0.031 C 
ATOM     43  C   UNL A   1      40.338  25.581  28.178  1.00  0.00     0.029 A 
ATOM     44  C   UNL A   1      41.687  25.905  28.631  1.00  0.00     0.049 A 
ATOM     45  H   UNL A   1      42.326  27.673  29.532  1.00  0.00     0.167 HD
ATOM     46  C   UNL A   1      43.657  31.542  31.053  1.00  0.00     0.031 A 
ATOM     47  C   UNL A   1      42.754  25.088  28.538  1.00  0.00     0.031 A 
ATOM     48  C   UNL A   1      44.821  30.695  31.108  1.00  0.00     0.049 A 
ATOM     49  C   UNL A   1      44.093  25.559  29.037  1.00  0.00     0.074 A 
ATOM     50  C   UNL A   1      46.076  30.993  31.615  1.00  0.00     0.029 A 
ATOM     51  N   UNL A   1      44.880  29.393  30.639  1.00  0.00    -0.354 N 
ATOM     52  N   UNL A   1      44.413  26.715  29.568  1.00  0.00    -0.248 NA
ATOM     53  C   UNL A   1      45.213  24.612  28.933  1.00  0.00     0.031 C 
ATOM     54  C   UNL A   1      46.908  29.890  31.401  1.00  0.00     0.029 A 
ATOM     55  C   UNL A   1      46.157  28.884  30.814  1.00  0.00     0.049 A 
ATOM     56  H   UNL A   1      44.126  28.902  30.240  1.00  0.00     0.167 HD
ATOM     57  C   UNL A   1      45.766  26.625  29.879  1.00  0.00     0.074 A 
ATOM     58  C   UNL A   1      46.198  25.297  29.496  1.00  0.00     0.031 C 
ATOM     59  C   UNL A   1      46.577  27.561  30.431  1.00  0.00     0.031 A 
BRANCH  46  60
ATOM     60  C   UNL A   1      43.811  32.973  31.501  1.00  0.00    -0.014 A 
ATOM     61  C   UNL A   1      44.274  33.969  30.624  1.00  0.00     0.010 A 
ATOM     62  C   UNL A   1      43.410  33.339  32.801  1.00  0.00     0.010 A 
ATOM     63  C   UNL A   1      44.362  35.298  31.046  1.00  0.00     0.020 A 
ATOM     64  C   UNL A   1      43.473  34.671  33.219  1.00  0.00     0.020 A 
ATOM     65  C   UNL A   1      43.962  35.641  32.342  1.00  0.00     0.054 A 
BRANCH  65  66
ATOM     66  S   UNL A   1      44.047  37.380  32.854  1.00  0.00     0.124 S 
ATOM     67  O   UNL A   1      43.852  38.076  31.581  1.00  0.00    -0.237 OA
ATOM     68  O   UNL A   1      42.934  37.488  33.800  1.00  0.00    -0.237 OA
ATOM     69  O   UNL A   1      45.371  37.510  33.437  1.00  0.00    -0.744 OA
ENDBRANCH  65  66
ENDBRANCH  46  60
BRANCH  47  70
ATOM     70  C   UNL A   1      42.607  23.739  27.923  1.00  0.00    -0.014 A 
ATOM     71  C   UNL A   1      42.245  22.628  28.704  1.00  0.00     0.010 A 
ATOM     72  C   UNL A   1      42.839  23.559  26.546  1.00  0.00     0.010 A 
ATOM     73  C   UNL A   1      42.144  21.358  28.127  1.00  0.00     0.020 A 
ATOM     74  C   UNL A   1      42.710  22.298  25.960  1.00  0.00     0.020 A 
ATOM     75  C   UNL A   1      42.379  21.201  26.758  1.00  0.00     0.054 A 
BRANCH  75  76
ATOM     76  S   UNL A   1      42.207  19.552  26.021  1.00  0.00     0.124 S 
ATOM     77  O   UNL A   1      40.791  19.522  25.672  1.00  0.00    -0.237 OA
ATOM     78  O   UNL A   1      43.136  19.610  24.896  1.00  0.00    -0.237 OA
ATOM     79  O   UNL A   1      42.606  18.654  27.102  1.00  0.00    -0.744 OA
ENDBRANCH  75  76
ENDBRANCH  47  70
BRANCH  59  80
ATOM     80  C   UNL A   1      48.011  27.177  30.682  1.00  0.00    -0.014 A 
ATOM     81  C   UNL A   1      48.958  27.182  29.643  1.00  0.00     0.010 A 
ATOM     82  C   UNL A   1      48.427  26.864  31.989  1.00  0.00     0.010 A 
ATOM     83  C   UNL A   1      50.291  26.852  29.902  1.00  0.00     0.020 A 
ATOM     84  C   UNL A   1      49.765  26.560  32.255  1.00  0.00     0.020 A 
ATOM     85  C   UNL A   1      50.686  26.542  31.207  1.00  0.00     0.054 A 
BRANCH  85  86
ATOM     86  S   UNL A   1      52.432  26.164  31.526  1.00  0.00     0.124 S 
ATOM     87  O   UNL A   1      52.385  24.733  31.811  1.00  0.00    -0.237 OA
ATOM     88  O   UNL A   1      53.076  26.533  30.267  1.00  0.00    -0.237 OA
ATOM     89  O   UNL A   1      52.769  27.016  32.664  1.00  0.00    -0.744 OA
ENDBRANCH  85  86
ENDBRANCH  59  80
ENDBRANCH  33  34
ENDBRANCH  25  28
ENDBRANCH  23  24
ENDBRANCH  22  23
ENDBRANCH  21  22
ENDBRANCH   1  21
TORSDOF 19
ENDMDL
