MODEL 1
REMARK VINA RESULT:     -12.6      0.000      0.000
REMARK SMILES O=C(NCCCCNC(=O)[C@H]1CCCC[C@H]1C(=O)N1CCN(S(=O)(=O)c2ccc(F)cc2)CC1)c1ccc(-c2c3nc(c(-c4ccc(S(=O)(=O)[O-])cc4)c4ccc([nH]4)c(-c4ccc(S(=O)(=O)[O-])cc4)c4nc(c(-c5ccc(S(=O)(=O)[O-])cc5)c5ccc2[nH]5)C=C4)C=C3)cc1
REMARK SMILES IDX 5 1 4 2 3 3 1 4 2 5 35 7 36 8 94 9 37 10 93 11 38 12 39 13
REMARK SMILES IDX 40 14 87 15 41 16 92 17 86 18 88 19 42 20 91 21 85 22 84 23
REMARK SMILES IDX 43 25 73 26 54 27 72 28 55 29 58 30 71 31 89 32 56 33 57 34
REMARK SMILES IDX 70 36 90 37 59 38 44 39 45 40 53 41 46 42 52 43 47 44 48 45
REMARK SMILES IDX 49 46 50 47 51 48 74 49 75 50 83 51 76 52 82 53 77 54 78 55
REMARK SMILES IDX 79 56 80 57 81 58 60 59 61 60 69 61 62 62 68 63 63 64 64 65
REMARK SMILES IDX 65 66 66 67 67 68 6 69 7 70 8 71 9 72 10 74 11 75 12 76
REMARK SMILES IDX 16 77 13 78 15 79 14 80 17 81 18 82 19 83 20 84 34 85 21 86
REMARK SMILES IDX 33 87 22 88 23 89 24 90 25 91 26 92 27 93 32 94 28 95 31 96
REMARK SMILES IDX 29 97 30 98
REMARK H PARENT 3 6 88 24 58 35 8 73
REMARK Flexibility Score: inf
ROOT
ATOM      1  C   UNL A   1      40.033  22.341  27.100  1.00  0.00     0.023 C 
ENDROOT
BRANCH   1   2
ATOM      2  C   UNL A   1      41.376  23.059  27.126  1.00  0.00     0.116 C 
BRANCH   2   3
ATOM      3  N   UNL A   1      41.562  23.987  26.015  1.00  0.00    -0.352 N 
ATOM      4  O   UNL A   1      41.657  26.014  25.009  1.00  0.00    -0.269 OA
ATOM      5  C   UNL A   1      41.609  25.363  26.046  1.00  0.00     0.251 C 
ATOM      6  H   UNL A   1      41.668  23.576  25.128  1.00  0.00     0.163 HD
BRANCH   5   7
ATOM      7  C   UNL A   1      41.559  26.030  27.359  1.00  0.00     0.039 A 
ATOM      8  C   UNL A   1      40.413  25.909  28.147  1.00  0.00     0.014 A 
ATOM      9  C   UNL A   1      42.605  26.873  27.737  1.00  0.00     0.014 A 
ATOM     10  C   UNL A   1      40.231  26.777  29.213  1.00  0.00     0.010 A 
ATOM     11  C   UNL A   1      42.458  27.674  28.870  1.00  0.00     0.010 A 
ATOM     12  C   UNL A   1      41.250  27.671  29.586  1.00  0.00    -0.014 A 
BRANCH  12  13
ATOM     13  C   UNL A   1      41.036  28.573  30.745  1.00  0.00     0.031 A 
ATOM     14  C   UNL A   1      41.930  28.518  31.955  1.00  0.00     0.074 A 
ATOM     15  C   UNL A   1      40.039  29.475  30.681  1.00  0.00     0.049 A 
ATOM     16  N   UNL A   1      41.889  29.248  33.041  1.00  0.00    -0.248 NA
ATOM     17  C   UNL A   1      43.004  27.512  31.953  1.00  0.00     0.031 C 
ATOM     18  C   UNL A   1      39.114  29.629  29.553  1.00  0.00     0.029 A 
ATOM     19  N   UNL A   1      39.648  30.446  31.564  1.00  0.00    -0.354 N 
ATOM     20  C   UNL A   1      42.903  28.770  33.865  1.00  0.00     0.074 A 
ATOM     21  C   UNL A   1      43.533  27.675  33.158  1.00  0.00     0.031 C 
ATOM     22  C   UNL A   1      38.306  30.671  29.788  1.00  0.00     0.029 A 
ATOM     23  C   UNL A   1      38.602  31.210  31.108  1.00  0.00     0.049 A 
ATOM     24  H   UNL A   1      40.077  30.583  32.440  1.00  0.00     0.167 HD
ATOM     25  C   UNL A   1      43.271  29.204  35.096  1.00  0.00     0.031 A 
ATOM     26  C   UNL A   1      37.939  32.225  31.691  1.00  0.00     0.031 A 
ATOM     27  C   UNL A   1      42.638  30.296  35.789  1.00  0.00     0.049 A 
ATOM     28  C   UNL A   1      38.347  32.667  33.064  1.00  0.00     0.074 A 
ATOM     29  C   UNL A   1      42.958  30.833  37.025  1.00  0.00     0.029 A 
ATOM     30  N   UNL A   1      41.551  31.015  35.313  1.00  0.00    -0.354 N 
ATOM     31  N   UNL A   1      39.322  32.214  33.817  1.00  0.00    -0.248 NA
ATOM     32  C   UNL A   1      37.569  33.757  33.664  1.00  0.00     0.031 C 
ATOM     33  C   UNL A   1      42.031  31.840  37.318  1.00  0.00     0.029 A 
ATOM     34  C   UNL A   1      41.171  31.973  36.239  1.00  0.00     0.049 A 
ATOM     35  H   UNL A   1      41.112  30.865  34.444  1.00  0.00     0.167 HD
ATOM     36  C   UNL A   1      39.288  32.982  34.975  1.00  0.00     0.074 A 
ATOM     37  C   UNL A   1      38.207  33.934  34.813  1.00  0.00     0.031 C 
ATOM     38  C   UNL A   1      40.086  32.908  36.068  1.00  0.00     0.031 A 
BRANCH  25  39
ATOM     39  C   UNL A   1      44.386  28.461  35.792  1.00  0.00    -0.014 A 
ATOM     40  C   UNL A   1      44.127  27.374  36.646  1.00  0.00     0.010 A 
ATOM     41  C   UNL A   1      45.720  28.849  35.570  1.00  0.00     0.010 A 
ATOM     42  C   UNL A   1      45.175  26.728  37.308  1.00  0.00     0.020 A 
ATOM     43  C   UNL A   1      46.774  28.188  36.208  1.00  0.00     0.020 A 
ATOM     44  C   UNL A   1      46.492  27.146  37.094  1.00  0.00     0.054 A 
BRANCH  44  45
ATOM     45  S   UNL A   1      47.833  26.304  37.979  1.00  0.00     0.124 S 
ATOM     46  O   UNL A   1      47.678  26.836  39.331  1.00  0.00    -0.237 OA
ATOM     47  O   UNL A   1      47.489  24.893  37.818  1.00  0.00    -0.237 OA
ATOM     48  O   UNL A   1      49.038  26.732  37.274  1.00  0.00    -0.744 OA
ENDBRANCH  44  45
ENDBRANCH  25  39
BRANCH  26  49
ATOM     49  C   UNL A   1      36.824  32.882  30.959  1.00  0.00    -0.014 A 
ATOM     50  C   UNL A   1      37.093  33.870  29.996  1.00  0.00     0.010 A 
ATOM     51  C   UNL A   1      35.495  32.476  31.176  1.00  0.00     0.010 A 
ATOM     52  C   UNL A   1      36.050  34.442  29.263  1.00  0.00     0.020 A 
ATOM     53  C   UNL A   1      34.453  33.025  30.426  1.00  0.00     0.020 A 
ATOM     54  C   UNL A   1      34.737  34.010  29.479  1.00  0.00     0.054 A 
BRANCH  54  55
ATOM     55  S   UNL A   1      33.409  34.712  28.462  1.00  0.00     0.124 S 
ATOM     56  O   UNL A   1      32.635  35.459  29.448  1.00  0.00    -0.237 OA
ATOM     57  O   UNL A   1      34.146  35.518  27.491  1.00  0.00    -0.237 OA
ATOM     58  O   UNL A   1      32.746  33.534  27.905  1.00  0.00    -0.744 OA
ENDBRANCH  54  55
ENDBRANCH  26  49
BRANCH  38  59
ATOM     59  C   UNL A   1      39.842  33.912  37.163  1.00  0.00    -0.014 A 
ATOM     60  C   UNL A   1      39.074  33.589  38.296  1.00  0.00     0.010 A 
ATOM     61  C   UNL A   1      40.415  35.192  37.064  1.00  0.00     0.010 A 
ATOM     62  C   UNL A   1      38.854  34.542  39.293  1.00  0.00     0.020 A 
ATOM     63  C   UNL A   1      40.221  36.139  38.072  1.00  0.00     0.020 A 
ATOM     64  C   UNL A   1      39.427  35.812  39.174  1.00  0.00     0.054 A 
BRANCH  64  65
ATOM     65  S   UNL A   1      39.154  37.024  40.495  1.00  0.00     0.124 S 
ATOM     66  O   UNL A   1      40.517  37.440  40.813  1.00  0.00    -0.237 OA
ATOM     67  O   UNL A   1      38.326  38.034  39.837  1.00  0.00    -0.237 OA
ATOM     68  O   UNL A   1      38.476  36.255  41.536  1.00  0.00    -0.744 OA
ENDBRANCH  64  65
ENDBRANCH  38  59
ENDBRANCH  12  13
ENDBRANCH   5   7
ENDBRANCH   2   3
ENDBRANCH   1   2
BRANCH   1  69
ATOM     69  C   UNL A   1      38.933  23.077  26.348  1.00  0.00     0.023 C 
BRANCH  69  70
ATOM     70  C   UNL A   1      37.896  22.171  25.707  1.00  0.00     0.116 C 
BRANCH  70  71
ATOM     71  N   UNL A   1      36.648  22.156  26.425  1.00  0.00    -0.356 N 
ATOM     72  C   UNL A   1      35.437  21.661  26.100  1.00  0.00     0.223 C 
ATOM     73  H   UNL A   1      36.686  22.586  27.310  1.00  0.00     0.163 HD
ATOM     74  O   UNL A   1      34.594  21.694  27.007  1.00  0.00    -0.275 OA
BRANCH  72  75
ATOM     75  C   UNL A   1      35.018  21.134  24.724  1.00  0.00     0.091 C 
ATOM     76  C   UNL A   1      34.516  19.686  24.895  1.00  0.00     0.014 C 
ATOM     77  C   UNL A   1      34.162  21.893  23.699  1.00  0.00     0.091 C 
ATOM     78  C   UNL A   1      33.062  19.605  25.323  1.00  0.00     0.001 C 
ATOM     79  C   UNL A   1      32.635  21.731  23.878  1.00  0.00     0.014 C 
ATOM     80  C   UNL A   1      32.135  20.375  24.388  1.00  0.00     0.001 C 
BRANCH  77  81
ATOM     81  C   UNL A   1      34.415  23.336  23.186  1.00  0.00     0.226 C 
ATOM     82  O   UNL A   1      35.340  23.482  22.373  1.00  0.00    -0.275 OA
ATOM     83  N   UNL A   1      33.580  24.399  23.433  1.00  0.00    -0.340 N 
ATOM     84  C   UNL A   1      33.548  25.517  22.473  1.00  0.00     0.136 C 
ATOM     85  C   UNL A   1      33.115  24.815  24.748  1.00  0.00     0.136 C 
ATOM     86  C   UNL A   1      32.146  26.149  22.369  1.00  0.00     0.124 C 
ATOM     87  C   UNL A   1      31.667  25.300  24.651  1.00  0.00     0.124 C 
ATOM     88  N   UNL A   1      31.520  26.452  23.708  1.00  0.00    -0.194 NA
BRANCH  88  89
ATOM     89  S   UNL A   1      31.844  28.015  24.310  1.00  0.00     0.243 S 
ATOM     90  O   UNL A   1      31.845  27.937  25.760  1.00  0.00    -0.207 OA
ATOM     91  O   UNL A   1      32.985  28.530  23.594  1.00  0.00    -0.207 OA
BRANCH  89  92
ATOM     92  C   UNL A   1      30.412  28.957  23.818  1.00  0.00     0.082 A 
ATOM     93  C   UNL A   1      29.385  28.324  23.104  1.00  0.00     0.025 A 
ATOM     94  C   UNL A   1      30.298  30.305  24.178  1.00  0.00     0.025 A 
ATOM     95  C   UNL A   1      28.284  29.062  22.671  1.00  0.00     0.040 A 
ATOM     96  C   UNL A   1      29.174  31.030  23.771  1.00  0.00     0.040 A 
ATOM     97  C   UNL A   1      28.188  30.408  23.009  1.00  0.00     0.123 A 
ATOM     98  F   UNL A   1      27.124  31.109  22.598  1.00  0.00    -0.207 F 
ENDBRANCH  89  92
ENDBRANCH  88  89
ENDBRANCH  77  81
ENDBRANCH  72  75
ENDBRANCH  70  71
ENDBRANCH  69  70
ENDBRANCH   1  69
TORSDOF 17
ENDMDL
MODEL 2
REMARK VINA RESULT:     -12.6      6.131     11.893
REMARK SMILES O=C(NCCCCNC(=O)[C@H]1CCCC[C@H]1C(=O)N1CCN(S(=O)(=O)c2ccc(F)cc2)CC1)c1ccc(-c2c3nc(c(-c4ccc(S(=O)(=O)[O-])cc4)c4ccc([nH]4)c(-c4ccc(S(=O)(=O)[O-])cc4)c4nc(c(-c5ccc(S(=O)(=O)[O-])cc5)c5ccc2[nH]5)C=C4)C=C3)cc1
REMARK SMILES IDX 5 1 4 2 3 3 1 4 2 5 35 7 36 8 94 9 37 10 93 11 38 12 39 13
REMARK SMILES IDX 40 14 87 15 41 16 92 17 86 18 88 19 42 20 91 21 85 22 84 23
REMARK SMILES IDX 43 25 73 26 54 27 72 28 55 29 58 30 71 31 89 32 56 33 57 34
REMARK SMILES IDX 70 36 90 37 59 38 44 39 45 40 53 41 46 42 52 43 47 44 48 45
REMARK SMILES IDX 49 46 50 47 51 48 74 49 75 50 83 51 76 52 82 53 77 54 78 55
REMARK SMILES IDX 79 56 80 57 81 58 60 59 61 60 69 61 62 62 68 63 63 64 64 65
REMARK SMILES IDX 65 66 66 67 67 68 6 69 7 70 8 71 9 72 10 74 11 75 12 76
REMARK SMILES IDX 16 77 13 78 15 79 14 80 17 81 18 82 19 83 20 84 34 85 21 86
REMARK SMILES IDX 33 87 22 88 23 89 24 90 25 91 26 92 27 93 32 94 28 95 31 96
REMARK SMILES IDX 29 97 30 98
REMARK H PARENT 3 6 88 24 58 35 8 73
REMARK Flexibility Score: inf
ROOT
ATOM      1  C   UNL A   1      35.060  31.047  27.970  1.00  0.00     0.023 C 
ENDROOT
BRANCH   1   2
ATOM      2  C   UNL A   1      35.968  30.069  28.705  1.00  0.00     0.116 C 
BRANCH   2   3
ATOM      3  N   UNL A   1      35.785  30.079  30.152  1.00  0.00    -0.352 N 
ATOM      4  O   UNL A   1      36.416  29.864  32.316  1.00  0.00    -0.269 OA
ATOM      5  C   UNL A   1      36.738  29.951  31.138  1.00  0.00     0.251 C 
ATOM      6  H   UNL A   1      34.859  30.193  30.466  1.00  0.00     0.163 HD
BRANCH   5   7
ATOM      7  C   UNL A   1      38.152  29.882  30.730  1.00  0.00     0.039 A 
ATOM      8  C   UNL A   1      38.513  30.266  29.437  1.00  0.00     0.014 A 
ATOM      9  C   UNL A   1      39.086  29.316  31.599  1.00  0.00     0.014 A 
ATOM     10  C   UNL A   1      39.760  29.905  28.949  1.00  0.00     0.010 A 
ATOM     11  C   UNL A   1      40.374  29.047  31.132  1.00  0.00     0.010 A 
ATOM     12  C   UNL A   1      40.704  29.290  29.789  1.00  0.00    -0.014 A 
BRANCH  12  13
ATOM     13  C   UNL A   1      42.039  28.936  29.245  1.00  0.00     0.031 A 
ATOM     14  C   UNL A   1      43.186  29.909  29.293  1.00  0.00     0.074 A 
ATOM     15  C   UNL A   1      42.217  27.703  28.734  1.00  0.00     0.049 A 
ATOM     16  N   UNL A   1      44.418  29.748  28.878  1.00  0.00    -0.248 NA
ATOM     17  C   UNL A   1      42.921  31.236  29.872  1.00  0.00     0.031 C 
ATOM     18  C   UNL A   1      41.180  26.671  28.645  1.00  0.00     0.029 A 
ATOM     19  N   UNL A   1      43.332  27.098  28.216  1.00  0.00    -0.354 N 
ATOM     20  C   UNL A   1      45.064  30.957  29.111  1.00  0.00     0.074 A 
ATOM     21  C   UNL A   1      44.082  31.849  29.691  1.00  0.00     0.031 C 
ATOM     22  C   UNL A   1      41.722  25.545  28.163  1.00  0.00     0.029 A 
ATOM     23  C   UNL A   1      43.119  25.795  27.838  1.00  0.00     0.049 A 
ATOM     24  H   UNL A   1      44.200  27.554  28.125  1.00  0.00     0.167 HD
ATOM     25  C   UNL A   1      46.355  31.292  28.863  1.00  0.00     0.031 A 
ATOM     26  C   UNL A   1      43.951  24.900  27.277  1.00  0.00     0.031 A 
ATOM     27  C   UNL A   1      47.324  30.395  28.288  1.00  0.00     0.049 A 
ATOM     28  C   UNL A   1      45.366  25.302  26.987  1.00  0.00     0.074 A 
ATOM     29  C   UNL A   1      48.664  30.627  28.027  1.00  0.00     0.029 A 
ATOM     30  N   UNL A   1      47.058  29.097  27.876  1.00  0.00    -0.354 N 
ATOM     31  N   UNL A   1      45.962  26.445  27.234  1.00  0.00    -0.248 NA
ATOM     32  C   UNL A   1      46.220  24.296  26.346  1.00  0.00     0.031 C 
ATOM     33  C   UNL A   1      49.194  29.488  27.409  1.00  0.00     0.029 A 
ATOM     34  C   UNL A   1      48.200  28.524  27.341  1.00  0.00     0.049 A 
ATOM     35  H   UNL A   1      46.185  28.648  27.952  1.00  0.00     0.167 HD
ATOM     36  C   UNL A   1      47.271  26.287  26.798  1.00  0.00     0.074 A 
ATOM     37  C   UNL A   1      47.380  24.935  26.285  1.00  0.00     0.031 C 
ATOM     38  C   UNL A   1      48.291  27.180  26.826  1.00  0.00     0.031 A 
BRANCH  25  39
ATOM     39  C   UNL A   1      46.780  32.707  29.172  1.00  0.00    -0.014 A 
ATOM     40  C   UNL A   1      46.563  33.757  28.263  1.00  0.00     0.010 A 
ATOM     41  C   UNL A   1      47.394  32.991  30.407  1.00  0.00     0.010 A 
ATOM     42  C   UNL A   1      47.001  35.052  28.559  1.00  0.00     0.020 A 
ATOM     43  C   UNL A   1      47.808  34.289  30.719  1.00  0.00     0.020 A 
ATOM     44  C   UNL A   1      47.632  35.307  29.780  1.00  0.00     0.054 A 
BRANCH  44  45
ATOM     45  S   UNL A   1      48.208  36.992  30.132  1.00  0.00     0.124 S 
ATOM     46  O   UNL A   1      49.656  36.843  30.008  1.00  0.00    -0.237 OA
ATOM     47  O   UNL A   1      47.567  37.778  29.081  1.00  0.00    -0.237 OA
ATOM     48  O   UNL A   1      47.721  37.250  31.485  1.00  0.00    -0.744 OA
ENDBRANCH  44  45
ENDBRANCH  25  39
BRANCH  26  49
ATOM     49  C   UNL A   1      43.449  23.536  26.964  1.00  0.00    -0.014 A 
ATOM     50  C   UNL A   1      43.518  23.036  25.653  1.00  0.00     0.010 A 
ATOM     51  C   UNL A   1      42.957  22.708  27.991  1.00  0.00     0.010 A 
ATOM     52  C   UNL A   1      43.103  21.732  25.372  1.00  0.00     0.020 A 
ATOM     53  C   UNL A   1      42.570  21.395  27.719  1.00  0.00     0.020 A 
ATOM     54  C   UNL A   1      42.638  20.918  26.409  1.00  0.00     0.054 A 
BRANCH  54  55
ATOM     55  S   UNL A   1      42.178  19.203  26.035  1.00  0.00     0.124 S 
ATOM     56  O   UNL A   1      42.953  18.939  24.827  1.00  0.00    -0.237 OA
ATOM     57  O   UNL A   1      42.610  18.491  27.235  1.00  0.00    -0.237 OA
ATOM     58  O   UNL A   1      40.730  19.271  25.848  1.00  0.00    -0.744 OA
ENDBRANCH  54  55
ENDBRANCH  26  49
BRANCH  38  59
ATOM     59  C   UNL A   1      49.628  26.706  26.320  1.00  0.00    -0.014 A 
ATOM     60  C   UNL A   1      50.054  26.981  25.009  1.00  0.00     0.010 A 
ATOM     61  C   UNL A   1      50.481  25.999  27.186  1.00  0.00     0.010 A 
ATOM     62  C   UNL A   1      51.296  26.522  24.561  1.00  0.00     0.020 A 
ATOM     63  C   UNL A   1      51.735  25.564  26.751  1.00  0.00     0.020 A 
ATOM     64  C   UNL A   1      52.127  25.814  25.435  1.00  0.00     0.054 A 
BRANCH  64  65
ATOM     65  S   UNL A   1      53.747  25.255  24.842  1.00  0.00     0.124 S 
ATOM     66  O   UNL A   1      53.592  23.804  24.854  1.00  0.00    -0.237 OA
ATOM     67  O   UNL A   1      53.832  25.866  23.516  1.00  0.00    -0.237 OA
ATOM     68  O   UNL A   1      54.682  25.792  25.828  1.00  0.00    -0.744 OA
ENDBRANCH  64  65
ENDBRANCH  38  59
ENDBRANCH  12  13
ENDBRANCH   5   7
ENDBRANCH   2   3
ENDBRANCH   1   2
BRANCH   1  69
ATOM     69  C   UNL A   1      33.924  30.398  27.193  1.00  0.00     0.023 C 
BRANCH  69  70
ATOM     70  C   UNL A   1      34.286  29.077  26.536  1.00  0.00     0.116 C 
BRANCH  70  71
ATOM     71  N   UNL A   1      34.117  29.100  25.106  1.00  0.00    -0.356 N 
ATOM     72  C   UNL A   1      33.009  29.132  24.339  1.00  0.00     0.223 C 
ATOM     73  H   UNL A   1      34.961  29.090  24.599  1.00  0.00     0.163 HD
ATOM     74  O   UNL A   1      33.213  29.280  23.126  1.00  0.00    -0.275 OA
BRANCH  72  75
ATOM     75  C   UNL A   1      31.569  28.941  24.825  1.00  0.00     0.091 C 
ATOM     76  C   UNL A   1      30.639  29.760  23.909  1.00  0.00     0.014 C 
ATOM     77  C   UNL A   1      30.923  27.600  25.205  1.00  0.00     0.091 C 
ATOM     78  C   UNL A   1      30.261  29.027  22.635  1.00  0.00     0.001 C 
ATOM     79  C   UNL A   1      30.295  26.823  24.025  1.00  0.00     0.014 C 
ATOM     80  C   UNL A   1      29.653  27.655  22.909  1.00  0.00     0.001 C 
BRANCH  77  81
ATOM     81  C   UNL A   1      31.507  26.550  26.188  1.00  0.00     0.226 C 
ATOM     82  O   UNL A   1      31.351  26.776  27.398  1.00  0.00    -0.275 OA
ATOM     83  N   UNL A   1      32.007  25.329  25.805  1.00  0.00    -0.340 N 
ATOM     84  C   UNL A   1      31.972  24.212  26.765  1.00  0.00     0.136 C 
ATOM     85  C   UNL A   1      33.024  25.121  24.785  1.00  0.00     0.136 C 
ATOM     86  C   UNL A   1      31.757  22.855  26.066  1.00  0.00     0.124 C 
ATOM     87  C   UNL A   1      32.710  23.845  23.999  1.00  0.00     0.124 C 
ATOM     88  N   UNL A   1      32.665  22.637  24.881  1.00  0.00    -0.194 NA
BRANCH  88  89
ATOM     89  S   UNL A   1      34.143  21.867  25.245  1.00  0.00     0.243 S 
ATOM     90  O   UNL A   1      35.172  22.475  24.421  1.00  0.00    -0.207 OA
ATOM     91  O   UNL A   1      34.271  21.828  26.682  1.00  0.00    -0.207 OA
BRANCH  89  92
ATOM     92  C   UNL A   1      33.899  20.198  24.667  1.00  0.00     0.082 A 
ATOM     93  C   UNL A   1      32.674  19.846  24.081  1.00  0.00     0.025 A 
ATOM     94  C   UNL A   1      34.935  19.262  24.760  1.00  0.00     0.025 A 
ATOM     95  C   UNL A   1      32.455  18.533  23.670  1.00  0.00     0.040 A 
ATOM     96  C   UNL A   1      34.719  17.955  24.313  1.00  0.00     0.040 A 
ATOM     97  C   UNL A   1      33.479  17.599  23.788  1.00  0.00     0.123 A 
ATOM     98  F   UNL A   1      33.265  16.340  23.384  1.00  0.00    -0.207 F 
ENDBRANCH  89  92
ENDBRANCH  88  89
ENDBRANCH  77  81
ENDBRANCH  72  75
ENDBRANCH  70  71
ENDBRANCH  69  70
ENDBRANCH   1  69
TORSDOF 17
ENDMDL
MODEL 3
REMARK VINA RESULT:     -12.5      1.832      8.158
REMARK SMILES O=C(NCCCCNC(=O)[C@H]1CCCC[C@H]1C(=O)N1CCN(S(=O)(=O)c2ccc(F)cc2)CC1)c1ccc(-c2c3nc(c(-c4ccc(S(=O)(=O)[O-])cc4)c4ccc([nH]4)c(-c4ccc(S(=O)(=O)[O-])cc4)c4nc(c(-c5ccc(S(=O)(=O)[O-])cc5)c5ccc2[nH]5)C=C4)C=C3)cc1
REMARK SMILES IDX 5 1 4 2 3 3 1 4 2 5 35 7 36 8 94 9 37 10 93 11 38 12 39 13
REMARK SMILES IDX 40 14 87 15 41 16 92 17 86 18 88 19 42 20 91 21 85 22 84 23
REMARK SMILES IDX 43 25 73 26 54 27 72 28 55 29 58 30 71 31 89 32 56 33 57 34
REMARK SMILES IDX 70 36 90 37 59 38 44 39 45 40 53 41 46 42 52 43 47 44 48 45
REMARK SMILES IDX 49 46 50 47 51 48 74 49 75 50 83 51 76 52 82 53 77 54 78 55
REMARK SMILES IDX 79 56 80 57 81 58 60 59 61 60 69 61 62 62 68 63 63 64 64 65
REMARK SMILES IDX 65 66 66 67 67 68 6 69 7 70 8 71 9 72 10 74 11 75 12 76
REMARK SMILES IDX 16 77 13 78 15 79 14 80 17 81 18 82 19 83 20 84 34 85 21 86
REMARK SMILES IDX 33 87 22 88 23 89 24 90 25 91 26 92 27 93 32 94 28 95 31 96
REMARK SMILES IDX 29 97 30 98
REMARK H PARENT 3 6 88 24 58 35 8 73
REMARK Flexibility Score: inf
ROOT
ATOM      1  C   UNL A   1      39.660  22.126  26.813  1.00  0.00     0.023 C 
ENDROOT
BRANCH   1   2
ATOM      2  C   UNL A   1      39.938  23.573  27.197  1.00  0.00     0.116 C 
BRANCH   2   3
ATOM      3  N   UNL A   1      40.502  24.366  26.109  1.00  0.00    -0.352 N 
ATOM      4  O   UNL A   1      41.307  26.236  25.117  1.00  0.00    -0.269 OA
ATOM      5  C   UNL A   1      40.966  25.662  26.144  1.00  0.00     0.251 C 
ATOM      6  H   UNL A   1      40.560  23.916  25.237  1.00  0.00     0.163 HD
BRANCH   5   7
ATOM      7  C   UNL A   1      41.001  26.352  27.446  1.00  0.00     0.039 A 
ATOM      8  C   UNL A   1      39.912  26.237  28.312  1.00  0.00     0.014 A 
ATOM      9  C   UNL A   1      42.063  27.209  27.736  1.00  0.00     0.014 A 
ATOM     10  C   UNL A   1      39.797  27.123  29.374  1.00  0.00     0.010 A 
ATOM     11  C   UNL A   1      41.988  28.028  28.864  1.00  0.00     0.010 A 
ATOM     12  C   UNL A   1      40.831  28.030  29.660  1.00  0.00    -0.014 A 
BRANCH  12  13
ATOM     13  C   UNL A   1      40.690  28.951  30.816  1.00  0.00     0.031 A 
ATOM     14  C   UNL A   1      39.614  30.003  30.851  1.00  0.00     0.074 A 
ATOM     15  C   UNL A   1      41.530  28.805  31.858  1.00  0.00     0.049 A 
ATOM     16  N   UNL A   1      39.345  30.871  31.793  1.00  0.00    -0.248 NA
ATOM     17  C   UNL A   1      38.729  30.099  29.680  1.00  0.00     0.031 C 
ATOM     18  C   UNL A   1      42.606  27.813  31.941  1.00  0.00     0.029 A 
ATOM     19  N   UNL A   1      41.599  29.469  33.055  1.00  0.00    -0.354 N 
ATOM     20  C   UNL A   1      38.288  31.640  31.317  1.00  0.00     0.074 A 
ATOM     21  C   UNL A   1      37.974  31.143  29.995  1.00  0.00     0.031 C 
ATOM     22  C   UNL A   1      43.185  27.893  33.145  1.00  0.00     0.029 A 
ATOM     23  C   UNL A   1      42.578  28.988  33.890  1.00  0.00     0.049 A 
ATOM     24  H   UNL A   1      41.004  30.217  33.292  1.00  0.00     0.167 HD
ATOM     25  C   UNL A   1      37.642  32.665  31.927  1.00  0.00     0.031 A 
ATOM     26  C   UNL A   1      42.958  29.390  35.115  1.00  0.00     0.031 A 
ATOM     27  C   UNL A   1      37.962  33.150  33.246  1.00  0.00     0.049 A 
ATOM     28  C   UNL A   1      42.246  30.543  35.757  1.00  0.00     0.074 A 
ATOM     29  C   UNL A   1      37.346  34.160  33.964  1.00  0.00     0.029 A 
ATOM     30  N   UNL A   1      38.991  32.666  34.041  1.00  0.00    -0.354 N 
ATOM     31  N   UNL A   1      41.236  31.243  35.297  1.00  0.00    -0.248 NA
ATOM     32  C   UNL A   1      42.724  30.959  37.080  1.00  0.00     0.031 C 
ATOM     33  C   UNL A   1      38.037  34.322  35.172  1.00  0.00     0.029 A 
ATOM     34  C   UNL A   1      39.044  33.372  35.232  1.00  0.00     0.049 A 
ATOM     35  H   UNL A   1      39.596  31.929  33.795  1.00  0.00     0.167 HD
ATOM     36  C   UNL A   1      40.941  32.170  36.289  1.00  0.00     0.074 A 
ATOM     37  C   UNL A   1      41.872  31.931  37.375  1.00  0.00     0.031 C 
ATOM     38  C   UNL A   1      39.982  33.128  36.300  1.00  0.00     0.031 A 
BRANCH  25  39
ATOM     39  C   UNL A   1      36.551  33.362  31.151  1.00  0.00    -0.014 A 
ATOM     40  C   UNL A   1      36.794  33.934  29.889  1.00  0.00     0.010 A 
ATOM     41  C   UNL A   1      35.252  33.428  31.690  1.00  0.00     0.010 A 
ATOM     42  C   UNL A   1      35.774  34.607  29.209  1.00  0.00     0.020 A 
ATOM     43  C   UNL A   1      34.223  34.075  31.000  1.00  0.00     0.020 A 
ATOM     44  C   UNL A   1      34.498  34.683  29.774  1.00  0.00     0.054 A 
BRANCH  44  45
ATOM     45  S   UNL A   1      33.197  35.578  28.879  1.00  0.00     0.124 S 
ATOM     46  O   UNL A   1      33.977  36.530  28.092  1.00  0.00    -0.237 OA
ATOM     47  O   UNL A   1      32.545  34.518  28.114  1.00  0.00    -0.237 OA
ATOM     48  O   UNL A   1      32.385  36.164  29.942  1.00  0.00    -0.744 OA
ENDBRANCH  44  45
ENDBRANCH  25  39
BRANCH  26  49
ATOM     49  C   UNL A   1      44.069  28.679  35.802  1.00  0.00    -0.014 A 
ATOM     50  C   UNL A   1      43.801  27.575  36.628  1.00  0.00     0.010 A 
ATOM     51  C   UNL A   1      45.404  29.065  35.580  1.00  0.00     0.010 A 
ATOM     52  C   UNL A   1      44.850  26.868  37.223  1.00  0.00     0.020 A 
ATOM     53  C   UNL A   1      46.455  28.344  36.150  1.00  0.00     0.020 A 
ATOM     54  C   UNL A   1      46.171  27.254  36.974  1.00  0.00     0.054 A 
BRANCH  54  55
ATOM     55  S   UNL A   1      47.518  26.276  37.694  1.00  0.00     0.124 S 
ATOM     56  O   UNL A   1      48.523  27.298  37.964  1.00  0.00    -0.237 OA
ATOM     57  O   UNL A   1      46.884  25.683  38.869  1.00  0.00    -0.237 OA
ATOM     58  O   UNL A   1      47.856  25.328  36.634  1.00  0.00    -0.744 OA
ENDBRANCH  54  55
ENDBRANCH  26  49
BRANCH  38  59
ATOM     59  C   UNL A   1      39.867  33.966  37.545  1.00  0.00    -0.014 A 
ATOM     60  C   UNL A   1      40.704  35.074  37.763  1.00  0.00     0.010 A 
ATOM     61  C   UNL A   1      38.882  33.652  38.498  1.00  0.00     0.010 A 
ATOM     62  C   UNL A   1      40.584  35.830  38.932  1.00  0.00     0.020 A 
ATOM     63  C   UNL A   1      38.739  34.422  39.655  1.00  0.00     0.020 A 
ATOM     64  C   UNL A   1      39.602  35.497  39.871  1.00  0.00     0.054 A 
BRANCH  64  65
ATOM     65  S   UNL A   1      39.443  36.511  41.367  1.00  0.00     0.124 S 
ATOM     66  O   UNL A   1      38.545  35.703  42.188  1.00  0.00    -0.237 OA
ATOM     67  O   UNL A   1      40.822  36.598  41.844  1.00  0.00    -0.237 OA
ATOM     68  O   UNL A   1      38.880  37.767  40.876  1.00  0.00    -0.744 OA
ENDBRANCH  64  65
ENDBRANCH  38  59
ENDBRANCH  12  13
ENDBRANCH   5   7
ENDBRANCH   2   3
ENDBRANCH   1   2
BRANCH   1  69
ATOM     69  C   UNL A   1      38.507  21.938  25.837  1.00  0.00     0.023 C 
BRANCH  69  70
ATOM     70  C   UNL A   1      37.436  23.013  25.916  1.00  0.00     0.116 C 
BRANCH  70  71
ATOM     71  N   UNL A   1      36.238  22.559  26.572  1.00  0.00    -0.356 N 
ATOM     72  C   UNL A   1      35.231  21.769  26.148  1.00  0.00     0.223 C 
ATOM     73  H   UNL A   1      36.134  22.885  27.496  1.00  0.00     0.163 HD
ATOM     74  O   UNL A   1      34.402  21.460  27.015  1.00  0.00    -0.275 OA
BRANCH  72  75
ATOM     75  C   UNL A   1      35.005  21.292  24.710  1.00  0.00     0.091 C 
ATOM     76  C   UNL A   1      35.802  19.988  24.504  1.00  0.00     0.014 C 
ATOM     77  C   UNL A   1      33.648  21.223  23.992  1.00  0.00     0.091 C 
ATOM     78  C   UNL A   1      35.061  18.754  24.986  1.00  0.00     0.001 C 
ATOM     79  C   UNL A   1      32.858  19.915  24.219  1.00  0.00     0.014 C 
ATOM     80  C   UNL A   1      33.674  18.626  24.364  1.00  0.00     0.001 C 
BRANCH  77  81
ATOM     81  C   UNL A   1      32.612  22.375  23.885  1.00  0.00     0.226 C 
ATOM     82  O   UNL A   1      31.458  22.055  23.561  1.00  0.00    -0.275 OA
ATOM     83  N   UNL A   1      32.849  23.664  24.295  1.00  0.00    -0.340 N 
ATOM     84  C   UNL A   1      31.708  24.499  24.713  1.00  0.00     0.136 C 
ATOM     85  C   UNL A   1      33.983  24.481  23.889  1.00  0.00     0.136 C 
ATOM     86  C   UNL A   1      32.091  25.479  25.840  1.00  0.00     0.124 C 
ATOM     87  C   UNL A   1      34.445  25.340  25.069  1.00  0.00     0.124 C 
ATOM     88  N   UNL A   1      33.362  26.244  25.567  1.00  0.00    -0.194 NA
BRANCH  88  89
ATOM     89  S   UNL A   1      33.142  27.733  24.764  1.00  0.00     0.243 S 
ATOM     90  O   UNL A   1      34.131  27.814  23.706  1.00  0.00    -0.207 OA
ATOM     91  O   UNL A   1      31.735  27.868  24.477  1.00  0.00    -0.207 OA
BRANCH  89  92
ATOM     92  C   UNL A   1      33.571  28.942  26.003  1.00  0.00     0.082 A 
ATOM     93  C   UNL A   1      34.774  28.804  26.711  1.00  0.00     0.025 A 
ATOM     94  C   UNL A   1      32.734  30.040  26.235  1.00  0.00     0.025 A 
ATOM     95  C   UNL A   1      35.095  29.715  27.716  1.00  0.00     0.040 A 
ATOM     96  C   UNL A   1      33.082  30.970  27.219  1.00  0.00     0.040 A 
ATOM     97  C   UNL A   1      34.248  30.791  27.960  1.00  0.00     0.123 A 
ATOM     98  F   UNL A   1      34.566  31.668  28.920  1.00  0.00    -0.207 F 
ENDBRANCH  89  92
ENDBRANCH  88  89
ENDBRANCH  77  81
ENDBRANCH  72  75
ENDBRANCH  70  71
ENDBRANCH  69  70
ENDBRANCH   1  69
TORSDOF 17
ENDMDL
