MODEL 1
REMARK VINA RESULT:     -12.1      0.000      0.000
REMARK SMILES CC(C)CN(C)c1cc2c(cc1Cl)C=C(C(=O)NCCCCNC(=O)c1ccc(-c3c4nc(c(-c5ccc(S(=O)(=O)[O-])cc5)c5ccc([nH]5)c(-c5ccc(S(=O)(=O)[O-])cc5)c5nc(c(-c6ccc(S(=O)(=O)[O-])cc6)c6ccc3[nH]6)C=C5)C=C4)cc1)[C@@H](C(F)(F)F)O2
REMARK SMILES IDX 20 1 19 2 18 3 16 4 17 5 15 7 7 8 8 9 12 10 9 11 11 12 13 13
REMARK SMILES IDX 10 14 91 15 14 16 86 17 5 18 6 19 4 20 2 21 1 22 3 23 87 24
REMARK SMILES IDX 88 25 89 26 90 27 21 28 22 29 23 30 24 31 25 33 26 34 27 35
REMARK SMILES IDX 85 36 28 37 84 38 29 39 30 40 31 41 78 42 32 43 83 44 77 45
REMARK SMILES IDX 79 46 33 47 82 48 76 49 75 50 34 52 64 53 45 54 63 55 46 56
REMARK SMILES IDX 49 57 62 58 80 59 47 60 48 61 61 63 81 64 50 65 35 66 36 67
REMARK SMILES IDX 44 68 37 69 43 70 38 71 39 72 40 73 41 74 42 75 65 76 66 77
REMARK SMILES IDX 74 78 67 79 73 80 68 81 69 82 70 83 71 84 72 85 51 86 52 87
REMARK SMILES IDX 60 88 53 89 59 90 54 91 55 92 56 93 57 94 58 95
REMARK H PARENT 18 6 23 32 79 51 49 62
REMARK Flexibility Score: inf
ROOT
ATOM      1  C   UNL A   1      37.913  22.047  25.969  1.00  0.00     0.023 C 
ENDROOT
BRANCH   1   2
ATOM      2  C   UNL A   1      37.348  21.219  24.819  1.00  0.00     0.116 C 
BRANCH   2   3
ATOM      3  N   UNL A   1      36.044  20.667  25.135  1.00  0.00    -0.352 N 
ATOM      4  C   UNL A   1      34.759  21.086  25.064  1.00  0.00     0.251 C 
ATOM      5  O   UNL A   1      33.910  20.251  25.392  1.00  0.00    -0.270 OA
ATOM      6  H   UNL A   1      36.112  19.752  25.493  1.00  0.00     0.163 HD
BRANCH   4   7
ATOM      7  C   UNL A   1      34.321  22.445  24.640  1.00  0.00     0.067 C 
ATOM      8  C   UNL A   1      32.922  27.289  24.496  1.00  0.00     0.059 A 
ATOM      9  C   UNL A   1      33.683  26.460  23.655  1.00  0.00     0.074 A 
ATOM     10  C   UNL A   1      32.463  26.738  25.715  1.00  0.00     0.065 A 
ATOM     11  C   UNL A   1      33.961  25.144  24.018  1.00  0.00     0.130 A 
ATOM     12  C   UNL A   1      32.825  25.445  26.116  1.00  0.00     0.034 A 
ATOM     13  Cl  UNL A   1      31.386  27.603  26.762  1.00  0.00    -0.082 Cl
ATOM     14  C   UNL A   1      33.577  24.644  25.264  1.00  0.00     0.019 A 
ATOM     15  O   UNL A   1      34.604  24.354  23.100  1.00  0.00    -0.475 OA
ATOM     16  C   UNL A   1      33.977  23.290  25.630  1.00  0.00     0.025 C 
ATOM     17  C   UNL A   1      34.264  22.936  23.219  1.00  0.00     0.314 C 
BRANCH   8  18
ATOM     18  N   UNL A   1      32.626  28.605  24.109  1.00  0.00    -0.373 N 
ATOM     19  C   UNL A   1      32.635  29.582  25.195  1.00  0.00     0.143 C 
BRANCH  18  20
ATOM     20  C   UNL A   1      31.576  28.770  23.085  1.00  0.00     0.119 C 
BRANCH  20  21
ATOM     21  C   UNL A   1      30.171  28.907  23.705  1.00  0.00     0.002 C 
ATOM     22  C   UNL A   1      29.400  30.089  23.112  1.00  0.00     0.009 C 
ATOM     23  C   UNL A   1      29.355  27.626  23.501  1.00  0.00     0.009 C 
ENDBRANCH  20  21
ENDBRANCH  18  20
ENDBRANCH   8  18
BRANCH  17  24
ATOM     24  C   UNL A   1      32.897  22.651  22.552  1.00  0.00     0.429 C 
ATOM     25  F   UNL A   1      32.917  23.033  21.251  1.00  0.00    -0.167 F 
ATOM     26  F   UNL A   1      32.581  21.333  22.563  1.00  0.00    -0.167 F 
ATOM     27  F   UNL A   1      31.865  23.296  23.142  1.00  0.00    -0.167 F 
ENDBRANCH  17  24
ENDBRANCH   4   7
ENDBRANCH   2   3
ENDBRANCH   1   2
BRANCH   1  28
ATOM     28  C   UNL A   1      37.704  23.554  25.824  1.00  0.00     0.023 C 
BRANCH  28  29
ATOM     29  C   UNL A   1      38.577  24.427  26.723  1.00  0.00     0.116 C 
BRANCH  29  30
ATOM     30  N   UNL A   1      39.842  24.835  26.123  1.00  0.00    -0.352 N 
ATOM     31  C   UNL A   1      40.598  25.943  26.442  1.00  0.00     0.251 C 
ATOM     32  H   UNL A   1      40.197  24.253  25.410  1.00  0.00     0.163 HD
ATOM     33  O   UNL A   1      41.635  26.203  25.846  1.00  0.00    -0.269 OA
BRANCH  31  34
ATOM     34  C   UNL A   1      40.074  26.840  27.489  1.00  0.00     0.039 A 
ATOM     35  C   UNL A   1      40.329  28.211  27.408  1.00  0.00     0.014 A 
ATOM     36  C   UNL A   1      39.521  26.273  28.637  1.00  0.00     0.014 A 
ATOM     37  C   UNL A   1      40.200  28.988  28.552  1.00  0.00     0.010 A 
ATOM     38  C   UNL A   1      39.334  27.071  29.765  1.00  0.00     0.010 A 
ATOM     39  C   UNL A   1      39.743  28.415  29.751  1.00  0.00    -0.014 A 
BRANCH  39  40
ATOM     40  C   UNL A   1      39.785  29.201  31.007  1.00  0.00     0.031 A 
ATOM     41  C   UNL A   1      40.949  29.048  31.952  1.00  0.00     0.074 A 
ATOM     42  C   UNL A   1      38.821  30.102  31.266  1.00  0.00     0.049 A 
ATOM     43  N   UNL A   1      41.141  29.610  33.117  1.00  0.00    -0.248 NA
ATOM     44  C   UNL A   1      42.041  28.151  31.534  1.00  0.00     0.031 C 
ATOM     45  C   UNL A   1      37.684  30.387  30.392  1.00  0.00     0.029 A 
ATOM     46  N   UNL A   1      38.658  30.958  32.324  1.00  0.00    -0.354 N 
ATOM     47  C   UNL A   1      42.359  29.123  33.579  1.00  0.00     0.074 A 
ATOM     48  C   UNL A   1      42.856  28.205  32.578  1.00  0.00     0.031 C 
ATOM     49  C   UNL A   1      36.965  31.386  30.926  1.00  0.00     0.029 A 
ATOM     50  C   UNL A   1      37.550  31.761  32.212  1.00  0.00     0.049 A 
ATOM     51  H   UNL A   1      39.276  30.995  33.090  1.00  0.00     0.167 HD
ATOM     52  C   UNL A   1      43.006  29.420  34.730  1.00  0.00     0.031 A 
ATOM     53  C   UNL A   1      37.044  32.683  33.054  1.00  0.00     0.031 A 
ATOM     54  C   UNL A   1      42.511  30.342  35.716  1.00  0.00     0.049 A 
ATOM     55  C   UNL A   1      37.737  32.948  34.357  1.00  0.00     0.074 A 
ATOM     56  C   UNL A   1      43.079  30.686  36.930  1.00  0.00     0.029 A 
ATOM     57  N   UNL A   1      41.340  31.075  35.598  1.00  0.00    -0.354 N 
ATOM     58  N   UNL A   1      38.851  32.426  34.809  1.00  0.00    -0.248 NA
ATOM     59  C   UNL A   1      37.101  33.905  35.272  1.00  0.00     0.031 C 
ATOM     60  C   UNL A   1      42.232  31.598  37.563  1.00  0.00     0.029 A 
ATOM     61  C   UNL A   1      41.162  31.860  36.722  1.00  0.00     0.049 A 
ATOM     62  H   UNL A   1      40.728  31.042  34.828  1.00  0.00     0.167 HD
ATOM     63  C   UNL A   1      39.051  32.989  36.063  1.00  0.00     0.074 A 
ATOM     64  C   UNL A   1      37.951  33.903  36.293  1.00  0.00     0.031 C 
ATOM     65  C   UNL A   1      40.056  32.759  36.942  1.00  0.00     0.031 A 
BRANCH  52  66
ATOM     66  C   UNL A   1      44.314  28.730  35.003  1.00  0.00    -0.014 A 
ATOM     67  C   UNL A   1      45.515  29.306  34.548  1.00  0.00     0.010 A 
ATOM     68  C   UNL A   1      44.353  27.479  35.642  1.00  0.00     0.010 A 
ATOM     69  C   UNL A   1      46.732  28.641  34.721  1.00  0.00     0.020 A 
ATOM     70  C   UNL A   1      45.571  26.820  35.835  1.00  0.00     0.020 A 
ATOM     71  C   UNL A   1      46.752  27.399  35.360  1.00  0.00     0.054 A 
BRANCH  71  72
ATOM     72  S   UNL A   1      48.340  26.556  35.608  1.00  0.00     0.124 S 
ATOM     73  O   UNL A   1      49.059  26.887  34.383  1.00  0.00    -0.237 OA
ATOM     74  O   UNL A   1      48.849  27.177  36.829  1.00  0.00    -0.237 OA
ATOM     75  O   UNL A   1      47.956  25.153  35.753  1.00  0.00    -0.744 OA
ENDBRANCH  71  72
ENDBRANCH  52  66
BRANCH  53  76
ATOM     76  C   UNL A   1      35.807  33.403  32.653  1.00  0.00    -0.014 A 
ATOM     77  C   UNL A   1      35.885  34.513  31.790  1.00  0.00     0.010 A 
ATOM     78  C   UNL A   1      34.576  33.078  33.246  1.00  0.00     0.010 A 
ATOM     79  C   UNL A   1      34.772  35.329  31.586  1.00  0.00     0.020 A 
ATOM     80  C   UNL A   1      33.453  33.881  33.025  1.00  0.00     0.020 A 
ATOM     81  C   UNL A   1      33.569  35.021  32.225  1.00  0.00     0.054 A 
BRANCH  81  82
ATOM     82  S   UNL A   1      32.160  36.147  32.029  1.00  0.00     0.124 S 
ATOM     83  O   UNL A   1      31.053  35.324  32.510  1.00  0.00    -0.237 OA
ATOM     84  O   UNL A   1      32.525  37.273  32.885  1.00  0.00    -0.237 OA
ATOM     85  O   UNL A   1      32.152  36.434  30.597  1.00  0.00    -0.744 OA
ENDBRANCH  81  82
ENDBRANCH  53  76
BRANCH  65  86
ATOM     86  C   UNL A   1      40.034  33.489  38.256  1.00  0.00    -0.014 A 
ATOM     87  C   UNL A   1      39.282  32.974  39.327  1.00  0.00     0.010 A 
ATOM     88  C   UNL A   1      40.616  34.764  38.370  1.00  0.00     0.010 A 
ATOM     89  C   UNL A   1      39.073  33.739  40.476  1.00  0.00     0.020 A 
ATOM     90  C   UNL A   1      40.423  35.525  39.526  1.00  0.00     0.020 A 
ATOM     91  C   UNL A   1      39.628  35.019  40.559  1.00  0.00     0.054 A 
BRANCH  91  92
ATOM     92  S   UNL A   1      39.289  36.028  42.028  1.00  0.00     0.124 S 
ATOM     93  O   UNL A   1      40.425  35.710  42.887  1.00  0.00    -0.237 OA
ATOM     94  O   UNL A   1      39.267  37.385  41.489  1.00  0.00    -0.237 OA
ATOM     95  O   UNL A   1      37.995  35.529  42.492  1.00  0.00    -0.744 OA
ENDBRANCH  91  92
ENDBRANCH  65  86
ENDBRANCH  39  40
ENDBRANCH  31  34
ENDBRANCH  29  30
ENDBRANCH  28  29
ENDBRANCH   1  28
TORSDOF 18
ENDMDL
MODEL 2
REMARK VINA RESULT:     -11.6      3.022      3.957
REMARK SMILES CC(C)CN(C)c1cc2c(cc1Cl)C=C(C(=O)NCCCCNC(=O)c1ccc(-c3c4nc(c(-c5ccc(S(=O)(=O)[O-])cc5)c5ccc([nH]5)c(-c5ccc(S(=O)(=O)[O-])cc5)c5nc(c(-c6ccc(S(=O)(=O)[O-])cc6)c6ccc3[nH]6)C=C5)C=C4)cc1)[C@@H](C(F)(F)F)O2
REMARK SMILES IDX 20 1 19 2 18 3 16 4 17 5 15 7 7 8 8 9 12 10 9 11 11 12 13 13
REMARK SMILES IDX 10 14 91 15 14 16 86 17 5 18 6 19 4 20 2 21 1 22 3 23 87 24
REMARK SMILES IDX 88 25 89 26 90 27 21 28 22 29 23 30 24 31 25 33 26 34 27 35
REMARK SMILES IDX 85 36 28 37 84 38 29 39 30 40 31 41 78 42 32 43 83 44 77 45
REMARK SMILES IDX 79 46 33 47 82 48 76 49 75 50 34 52 64 53 45 54 63 55 46 56
REMARK SMILES IDX 49 57 62 58 80 59 47 60 48 61 61 63 81 64 50 65 35 66 36 67
REMARK SMILES IDX 44 68 37 69 43 70 38 71 39 72 40 73 41 74 42 75 65 76 66 77
REMARK SMILES IDX 74 78 67 79 73 80 68 81 69 82 70 83 71 84 72 85 51 86 52 87
REMARK SMILES IDX 60 88 53 89 59 90 54 91 55 92 56 93 57 94 58 95
REMARK H PARENT 18 6 23 32 79 51 49 62
REMARK Flexibility Score: inf
ROOT
ATOM      1  C   UNL A   1      35.988  20.846  25.411  1.00  0.00     0.023 C 
ENDROOT
BRANCH   1   2
ATOM      2  C   UNL A   1      35.626  19.611  24.593  1.00  0.00     0.116 C 
BRANCH   2   3
ATOM      3  N   UNL A   1      34.313  19.096  24.937  1.00  0.00    -0.352 N 
ATOM      4  C   UNL A   1      33.090  19.619  25.186  1.00  0.00     0.251 C 
ATOM      5  O   UNL A   1      32.193  18.795  25.390  1.00  0.00    -0.270 OA
ATOM      6  H   UNL A   1      34.313  18.114  25.005  1.00  0.00     0.163 HD
BRANCH   4   7
ATOM      7  C   UNL A   1      32.773  21.073  25.237  1.00  0.00     0.067 C 
ATOM      8  C   UNL A   1      31.842  25.899  24.101  1.00  0.00     0.059 A 
ATOM      9  C   UNL A   1      31.336  24.998  25.053  1.00  0.00     0.074 A 
ATOM     10  C   UNL A   1      32.781  25.404  23.167  1.00  0.00     0.065 A 
ATOM     11  C   UNL A   1      31.758  23.670  25.066  1.00  0.00     0.130 A 
ATOM     12  C   UNL A   1      33.129  24.048  23.128  1.00  0.00     0.034 A 
ATOM     13  Cl  UNL A   1      33.596  26.448  22.048  1.00  0.00    -0.082 Cl
ATOM     14  C   UNL A   1      32.615  23.177  24.082  1.00  0.00     0.019 A 
ATOM     15  O   UNL A   1      31.317  22.875  26.093  1.00  0.00    -0.475 OA
ATOM     16  C   UNL A   1      32.949  21.757  24.089  1.00  0.00     0.025 C 
ATOM     17  C   UNL A   1      32.258  21.810  26.443  1.00  0.00     0.314 C 
BRANCH   8  18
ATOM     18  N   UNL A   1      31.430  27.241  24.113  1.00  0.00    -0.373 N 
ATOM     19  C   UNL A   1      30.358  27.562  23.174  1.00  0.00     0.143 C 
BRANCH  18  20
ATOM     20  C   UNL A   1      32.491  28.255  24.271  1.00  0.00     0.119 C 
BRANCH  20  21
ATOM     21  C   UNL A   1      32.709  28.648  25.746  1.00  0.00     0.002 C 
ATOM     22  C   UNL A   1      31.489  28.316  26.610  1.00  0.00     0.009 C 
ATOM     23  C   UNL A   1      33.938  27.941  26.326  1.00  0.00     0.009 C 
ENDBRANCH  20  21
ENDBRANCH  18  20
ENDBRANCH   8  18
BRANCH  17  24
ATOM     24  C   UNL A   1      33.401  22.368  27.325  1.00  0.00     0.429 C 
ATOM     25  F   UNL A   1      32.892  23.063  28.373  1.00  0.00    -0.167 F 
ATOM     26  F   UNL A   1      34.174  21.387  27.851  1.00  0.00    -0.167 F 
ATOM     27  F   UNL A   1      34.236  23.199  26.662  1.00  0.00    -0.167 F 
ENDBRANCH  17  24
ENDBRANCH   4   7
ENDBRANCH   2   3
ENDBRANCH   1   2
BRANCH   1  28
ATOM     28  C   UNL A   1      36.500  22.025  24.582  1.00  0.00     0.023 C 
BRANCH  28  29
ATOM     29  C   UNL A   1      37.502  22.936  25.287  1.00  0.00     0.116 C 
BRANCH  29  30
ATOM     30  N   UNL A   1      38.829  22.354  25.461  1.00  0.00    -0.352 N 
ATOM     31  C   UNL A   1      39.901  22.907  26.128  1.00  0.00     0.251 C 
ATOM     32  H   UNL A   1      38.974  21.467  25.057  1.00  0.00     0.163 HD
ATOM     33  O   UNL A   1      40.983  22.338  26.183  1.00  0.00    -0.269 OA
BRANCH  31  34
ATOM     34  C   UNL A   1      39.712  24.246  26.719  1.00  0.00     0.039 A 
ATOM     35  C   UNL A   1      40.323  25.351  26.122  1.00  0.00     0.014 A 
ATOM     36  C   UNL A   1      39.108  24.341  27.972  1.00  0.00     0.014 A 
ATOM     37  C   UNL A   1      40.488  26.512  26.866  1.00  0.00     0.010 A 
ATOM     38  C   UNL A   1      39.222  25.531  28.691  1.00  0.00     0.010 A 
ATOM     39  C   UNL A   1      39.977  26.595  28.173  1.00  0.00    -0.014 A 
BRANCH  39  40
ATOM     40  C   UNL A   1      40.318  27.760  29.024  1.00  0.00     0.031 A 
ATOM     41  C   UNL A   1      41.677  27.849  29.669  1.00  0.00     0.074 A 
ATOM     42  C   UNL A   1      39.439  28.769  29.162  1.00  0.00     0.049 A 
ATOM     43  N   UNL A   1      42.142  28.761  30.483  1.00  0.00    -0.248 NA
ATOM     44  C   UNL A   1      42.640  26.780  29.357  1.00  0.00     0.031 C 
ATOM     45  C   UNL A   1      38.122  28.825  28.528  1.00  0.00     0.029 A 
ATOM     46  N   UNL A   1      39.532  29.947  29.856  1.00  0.00    -0.354 N 
ATOM     47  C   UNL A   1      43.438  28.369  30.795  1.00  0.00     0.074 A 
ATOM     48  C   UNL A   1      43.684  27.125  30.098  1.00  0.00     0.031 C 
ATOM     49  C   UNL A   1      37.548  30.001  28.825  1.00  0.00     0.029 A 
ATOM     50  C   UNL A   1      38.424  30.748  29.724  1.00  0.00     0.049 A 
ATOM     51  H   UNL A   1      40.316  30.196  30.396  1.00  0.00     0.167 HD
ATOM     52  C   UNL A   1      44.343  28.991  31.586  1.00  0.00     0.031 A 
ATOM     53  C   UNL A   1      38.131  31.941  30.278  1.00  0.00     0.031 A 
ATOM     54  C   UNL A   1      44.096  30.232  32.268  1.00  0.00     0.049 A 
ATOM     55  C   UNL A   1      39.118  32.582  31.208  1.00  0.00     0.074 A 
ATOM     56  C   UNL A   1      44.939  30.927  33.117  1.00  0.00     0.029 A 
ATOM     57  N   UNL A   1      42.927  30.971  32.170  1.00  0.00    -0.354 N 
ATOM     58  N   UNL A   1      40.311  32.161  31.547  1.00  0.00    -0.248 NA
ATOM     59  C   UNL A   1      38.716  33.844  31.844  1.00  0.00     0.031 C 
ATOM     60  C   UNL A   1      44.264  32.066  33.563  1.00  0.00     0.029 A 
ATOM     61  C   UNL A   1      43.021  32.106  32.953  1.00  0.00     0.049 A 
ATOM     62  H   UNL A   1      42.146  30.724  31.623  1.00  0.00     0.167 HD
ATOM     63  C   UNL A   1      40.806  33.103  32.440  1.00  0.00     0.074 A 
ATOM     64  C   UNL A   1      39.789  34.126  32.577  1.00  0.00     0.031 C 
ATOM     65  C   UNL A   1      41.996  33.112  33.087  1.00  0.00     0.031 A 
BRANCH  52  66
ATOM     66  C   UNL A   1      45.683  28.335  31.777  1.00  0.00    -0.014 A 
ATOM     67  C   UNL A   1      45.874  27.437  32.844  1.00  0.00     0.010 A 
ATOM     68  C   UNL A   1      46.773  28.661  30.951  1.00  0.00     0.010 A 
ATOM     69  C   UNL A   1      47.133  26.880  33.086  1.00  0.00     0.020 A 
ATOM     70  C   UNL A   1      48.029  28.089  31.179  1.00  0.00     0.020 A 
ATOM     71  C   UNL A   1      48.204  27.213  32.254  1.00  0.00     0.054 A 
BRANCH  71  72
ATOM     72  S   UNL A   1      49.828  26.461  32.557  1.00  0.00     0.124 S 
ATOM     73  O   UNL A   1      49.485  25.314  33.391  1.00  0.00    -0.237 OA
ATOM     74  O   UNL A   1      50.296  26.146  31.209  1.00  0.00    -0.237 OA
ATOM     75  O   UNL A   1      50.571  27.527  33.227  1.00  0.00    -0.744 OA
ENDBRANCH  71  72
ENDBRANCH  52  66
BRANCH  53  76
ATOM     76  C   UNL A   1      36.829  32.574  29.943  1.00  0.00    -0.014 A 
ATOM     77  C   UNL A   1      36.677  33.277  28.732  1.00  0.00     0.010 A 
ATOM     78  C   UNL A   1      35.794  32.607  30.891  1.00  0.00     0.010 A 
ATOM     79  C   UNL A   1      35.545  34.061  28.508  1.00  0.00     0.020 A 
ATOM     80  C   UNL A   1      34.647  33.372  30.659  1.00  0.00     0.020 A 
ATOM     81  C   UNL A   1      34.548  34.123  29.483  1.00  0.00     0.054 A 
BRANCH  81  82
ATOM     82  S   UNL A   1      33.130  35.223  29.220  1.00  0.00     0.124 S 
ATOM     83  O   UNL A   1      33.785  36.451  28.776  1.00  0.00    -0.237 OA
ATOM     84  O   UNL A   1      32.359  34.517  28.200  1.00  0.00    -0.237 OA
ATOM     85  O   UNL A   1      32.503  35.288  30.537  1.00  0.00    -0.744 OA
ENDBRANCH  81  82
ENDBRANCH  53  76
BRANCH  65  86
ATOM     86  C   UNL A   1      42.287  34.249  34.026  1.00  0.00    -0.014 A 
ATOM     87  C   UNL A   1      42.807  35.453  33.521  1.00  0.00     0.010 A 
ATOM     88  C   UNL A   1      42.207  34.059  35.417  1.00  0.00     0.010 A 
ATOM     89  C   UNL A   1      43.285  36.436  34.391  1.00  0.00     0.020 A 
ATOM     90  C   UNL A   1      42.668  35.047  36.291  1.00  0.00     0.020 A 
ATOM     91  C   UNL A   1      43.231  36.218  35.771  1.00  0.00     0.054 A 
BRANCH  91  92
ATOM     92  S   UNL A   1      43.920  37.472  36.885  1.00  0.00     0.124 S 
ATOM     93  O   UNL A   1      42.817  37.696  37.814  1.00  0.00    -0.237 OA
ATOM     94  O   UNL A   1      45.089  36.799  37.445  1.00  0.00    -0.237 OA
ATOM     95  O   UNL A   1      44.224  38.590  35.993  1.00  0.00    -0.744 OA
ENDBRANCH  91  92
ENDBRANCH  65  86
ENDBRANCH  39  40
ENDBRANCH  31  34
ENDBRANCH  29  30
ENDBRANCH  28  29
ENDBRANCH   1  28
TORSDOF 18
ENDMDL
MODEL 3
REMARK VINA RESULT:     -11.3      5.281      8.005
REMARK SMILES CC(C)CN(C)c1cc2c(cc1Cl)C=C(C(=O)NCCCCNC(=O)c1ccc(-c3c4nc(c(-c5ccc(S(=O)(=O)[O-])cc5)c5ccc([nH]5)c(-c5ccc(S(=O)(=O)[O-])cc5)c5nc(c(-c6ccc(S(=O)(=O)[O-])cc6)c6ccc3[nH]6)C=C5)C=C4)cc1)[C@@H](C(F)(F)F)O2
REMARK SMILES IDX 20 1 19 2 18 3 16 4 17 5 15 7 7 8 8 9 12 10 9 11 11 12 13 13
REMARK SMILES IDX 10 14 91 15 14 16 86 17 5 18 6 19 4 20 2 21 1 22 3 23 87 24
REMARK SMILES IDX 88 25 89 26 90 27 21 28 22 29 23 30 24 31 25 33 26 34 27 35
REMARK SMILES IDX 85 36 28 37 84 38 29 39 30 40 31 41 78 42 32 43 83 44 77 45
REMARK SMILES IDX 79 46 33 47 82 48 76 49 75 50 34 52 64 53 45 54 63 55 46 56
REMARK SMILES IDX 49 57 62 58 80 59 47 60 48 61 61 63 81 64 50 65 35 66 36 67
REMARK SMILES IDX 44 68 37 69 43 70 38 71 39 72 40 73 41 74 42 75 65 76 66 77
REMARK SMILES IDX 74 78 67 79 73 80 68 81 69 82 70 83 71 84 72 85 51 86 52 87
REMARK SMILES IDX 60 88 53 89 59 90 54 91 55 92 56 93 57 94 58 95
REMARK H PARENT 18 6 23 32 79 51 49 62
REMARK Flexibility Score: inf
ROOT
ATOM      1  C   UNL A   1      41.137  20.495  27.776  1.00  0.00     0.023 C 
ENDROOT
BRANCH   1   2
ATOM      2  C   UNL A   1      42.189  19.392  27.707  1.00  0.00     0.116 C 
BRANCH   2   3
ATOM      3  N   UNL A   1      42.562  19.082  26.339  1.00  0.00    -0.352 N 
ATOM      4  C   UNL A   1      43.345  19.640  25.387  1.00  0.00     0.251 C 
ATOM      5  O   UNL A   1      43.440  18.999  24.336  1.00  0.00    -0.270 OA
ATOM      6  H   UNL A   1      42.137  18.252  26.024  1.00  0.00     0.163 HD
BRANCH   4   7
ATOM      7  C   UNL A   1      44.065  20.937  25.519  1.00  0.00     0.067 C 
ATOM      8  C   UNL A   1      45.279  25.795  26.130  1.00  0.00     0.059 A 
ATOM      9  C   UNL A   1      45.870  24.578  26.512  1.00  0.00     0.074 A 
ATOM     10  C   UNL A   1      44.023  25.738  25.483  1.00  0.00     0.065 A 
ATOM     11  C   UNL A   1      45.232  23.368  26.249  1.00  0.00     0.130 A 
ATOM     12  C   UNL A   1      43.346  24.524  25.307  1.00  0.00     0.034 A 
ATOM     13  Cl  UNL A   1      43.268  27.151  24.824  1.00  0.00    -0.082 Cl
ATOM     14  C   UNL A   1      43.953  23.333  25.691  1.00  0.00     0.019 A 
ATOM     15  O   UNL A   1      45.917  22.215  26.539  1.00  0.00    -0.475 OA
ATOM     16  C   UNL A   1      43.295  22.043  25.526  1.00  0.00     0.025 C 
ATOM     17  C   UNL A   1      45.554  21.095  25.669  1.00  0.00     0.314 C 
BRANCH   8  18
ATOM     18  N   UNL A   1      45.942  27.008  26.376  1.00  0.00    -0.373 N 
ATOM     19  C   UNL A   1      45.807  28.006  25.317  1.00  0.00     0.143 C 
BRANCH  18  20
ATOM     20  C   UNL A   1      47.262  26.917  27.030  1.00  0.00     0.119 C 
BRANCH  20  21
ATOM     21  C   UNL A   1      48.415  27.282  26.073  1.00  0.00     0.002 C 
ATOM     22  C   UNL A   1      49.291  28.402  26.639  1.00  0.00     0.009 C 
ATOM     23  C   UNL A   1      49.292  26.060  25.783  1.00  0.00     0.009 C 
ENDBRANCH  20  21
ENDBRANCH  18  20
ENDBRANCH   8  18
BRANCH  17  24
ATOM     24  C   UNL A   1      46.274  21.215  24.304  1.00  0.00     0.429 C 
ATOM     25  F   UNL A   1      46.870  22.428  24.190  1.00  0.00    -0.167 F 
ATOM     26  F   UNL A   1      47.249  20.288  24.150  1.00  0.00    -0.167 F 
ATOM     27  F   UNL A   1      45.444  21.077  23.245  1.00  0.00    -0.167 F 
ENDBRANCH  17  24
ENDBRANCH   4   7
ENDBRANCH   2   3
ENDBRANCH   1   2
BRANCH   1  28
ATOM     28  C   UNL A   1      40.157  20.507  26.604  1.00  0.00     0.023 C 
BRANCH  28  29
ATOM     29  C   UNL A   1      40.088  21.816  25.820  1.00  0.00     0.116 C 
BRANCH  29  30
ATOM     30  N   UNL A   1      38.735  22.307  25.582  1.00  0.00    -0.352 N 
ATOM     31  C   UNL A   1      38.205  23.516  25.980  1.00  0.00     0.251 C 
ATOM     32  H   UNL A   1      38.134  21.708  25.081  1.00  0.00     0.163 HD
ATOM     33  O   UNL A   1      37.039  23.809  25.749  1.00  0.00    -0.269 OA
BRANCH  31  34
ATOM     34  C   UNL A   1      39.080  24.417  26.752  1.00  0.00     0.039 A 
ATOM     35  C   UNL A   1      38.939  24.487  28.140  1.00  0.00     0.014 A 
ATOM     36  C   UNL A   1      39.878  25.327  26.059  1.00  0.00     0.014 A 
ATOM     37  C   UNL A   1      39.453  25.587  28.814  1.00  0.00     0.010 A 
ATOM     38  C   UNL A   1      40.444  26.397  26.751  1.00  0.00     0.010 A 
ATOM     39  C   UNL A   1      40.172  26.573  28.118  1.00  0.00    -0.014 A 
BRANCH  39  40
ATOM     40  C   UNL A   1      40.553  27.830  28.805  1.00  0.00     0.031 A 
ATOM     41  C   UNL A   1      41.967  28.025  29.288  1.00  0.00     0.074 A 
ATOM     42  C   UNL A   1      39.655  28.823  28.933  1.00  0.00     0.049 A 
ATOM     43  N   UNL A   1      42.478  29.030  29.950  1.00  0.00    -0.248 NA
ATOM     44  C   UNL A   1      42.934  26.956  28.984  1.00  0.00     0.031 C 
ATOM     45  C   UNL A   1      38.278  28.775  28.442  1.00  0.00     0.029 A 
ATOM     46  N   UNL A   1      39.773  30.069  29.490  1.00  0.00    -0.354 N 
ATOM     47  C   UNL A   1      43.814  28.709  30.159  1.00  0.00     0.074 A 
ATOM     48  C   UNL A   1      44.035  27.406  29.570  1.00  0.00     0.031 C 
ATOM     49  C   UNL A   1      37.692  29.958  28.677  1.00  0.00     0.029 A 
ATOM     50  C   UNL A   1      38.627  30.820  29.397  1.00  0.00     0.049 A 
ATOM     51  H   UNL A   1      40.599  30.396  29.914  1.00  0.00     0.167 HD
ATOM     52  C   UNL A   1      44.771  29.437  30.781  1.00  0.00     0.031 A 
ATOM     53  C   UNL A   1      38.346  32.056  29.854  1.00  0.00     0.031 A 
ATOM     54  C   UNL A   1      44.548  30.735  31.356  1.00  0.00     0.049 A 
ATOM     55  C   UNL A   1      39.398  32.819  30.603  1.00  0.00     0.074 A 
ATOM     56  C   UNL A   1      45.447  31.539  32.035  1.00  0.00     0.029 A 
ATOM     57  N   UNL A   1      43.347  31.426  31.310  1.00  0.00    -0.354 N 
ATOM     58  N   UNL A   1      40.636  32.470  30.853  1.00  0.00    -0.248 NA
ATOM     59  C   UNL A   1      39.016  34.129  31.147  1.00  0.00     0.031 C 
ATOM     60  C   UNL A   1      44.778  32.699  32.433  1.00  0.00     0.029 A 
ATOM     61  C   UNL A   1      43.477  32.640  31.959  1.00  0.00     0.049 A 
ATOM     62  H   UNL A   1      42.524  31.101  30.878  1.00  0.00     0.167 HD
ATOM     63  C   UNL A   1      41.184  33.515  31.587  1.00  0.00     0.074 A 
ATOM     64  C   UNL A   1      40.146  34.516  31.728  1.00  0.00     0.031 C 
ATOM     65  C   UNL A   1      42.433  33.625  32.099  1.00  0.00     0.031 A 
BRANCH  52  66
ATOM     66  C   UNL A   1      46.149  28.843  30.894  1.00  0.00    -0.014 A 
ATOM     67  C   UNL A   1      46.464  28.014  31.986  1.00  0.00     0.010 A 
ATOM     68  C   UNL A   1      47.153  29.162  29.963  1.00  0.00     0.010 A 
ATOM     69  C   UNL A   1      47.760  27.518  32.151  1.00  0.00     0.020 A 
ATOM     70  C   UNL A   1      48.446  28.651  30.114  1.00  0.00     0.020 A 
ATOM     71  C   UNL A   1      48.745  27.843  31.215  1.00  0.00     0.054 A 
BRANCH  71  72
ATOM     72  S   UNL A   1      50.418  27.170  31.420  1.00  0.00     0.124 S 
ATOM     73  O   UNL A   1      50.908  27.910  32.577  1.00  0.00    -0.237 OA
ATOM     74  O   UNL A   1      50.170  25.746  31.637  1.00  0.00    -0.237 OA
ATOM     75  O   UNL A   1      51.066  27.489  30.149  1.00  0.00    -0.744 OA
ENDBRANCH  71  72
ENDBRANCH  52  66
BRANCH  53  76
ATOM     76  C   UNL A   1      36.993  32.614  29.599  1.00  0.00    -0.014 A 
ATOM     77  C   UNL A   1      36.743  33.349  28.424  1.00  0.00     0.010 A 
ATOM     78  C   UNL A   1      36.000  32.542  30.589  1.00  0.00     0.010 A 
ATOM     79  C   UNL A   1      35.554  34.064  28.277  1.00  0.00     0.020 A 
ATOM     80  C   UNL A   1      34.797  33.238  30.434  1.00  0.00     0.020 A 
ATOM     81  C   UNL A   1      34.598  34.023  29.295  1.00  0.00     0.054 A 
BRANCH  81  82
ATOM     82  S   UNL A   1      33.102  35.037  29.133  1.00  0.00     0.124 S 
ATOM     83  O   UNL A   1      32.350  34.298  28.122  1.00  0.00    -0.237 OA
ATOM     84  O   UNL A   1      32.543  35.004  30.482  1.00  0.00    -0.237 OA
ATOM     85  O   UNL A   1      33.618  36.335  28.708  1.00  0.00    -0.744 OA
ENDBRANCH  81  82
ENDBRANCH  53  76
BRANCH  65  86
ATOM     86  C   UNL A   1      42.775  34.862  32.881  1.00  0.00    -0.014 A 
ATOM     87  C   UNL A   1      43.390  35.948  32.233  1.00  0.00     0.010 A 
ATOM     88  C   UNL A   1      42.644  34.876  34.281  1.00  0.00     0.010 A 
ATOM     89  C   UNL A   1      43.909  37.011  32.974  1.00  0.00     0.020 A 
ATOM     90  C   UNL A   1      43.148  35.947  35.025  1.00  0.00     0.020 A 
ATOM     91  C   UNL A   1      43.803  36.993  34.368  1.00  0.00     0.054 A 
BRANCH  91  92
ATOM     92  S   UNL A   1      44.545  38.346  35.321  1.00  0.00     0.124 S 
ATOM     93  O   UNL A   1      44.079  38.060  36.674  1.00  0.00    -0.237 OA
ATOM     94  O   UNL A   1      45.976  38.154  35.093  1.00  0.00    -0.237 OA
ATOM     95  O   UNL A   1      43.981  39.547  34.705  1.00  0.00    -0.744 OA
ENDBRANCH  91  92
ENDBRANCH  65  86
ENDBRANCH  39  40
ENDBRANCH  31  34
ENDBRANCH  29  30
ENDBRANCH  28  29
ENDBRANCH   1  28
TORSDOF 18
ENDMDL
