MODEL 1
REMARK VINA RESULT:      -8.1      0.000      0.000
REMARK SMILES COc1ccc(-c2cccc(C(=O)NCC(=O)NCCCCNC(=O)c3ccc(-c4c5nc(c(-c6ccc(S(=O)(=O)[O-])cc6)c6ccc([nH]6)c(-c6ccc(S(=O)(=O)[O-])cc6)c6nc(c(-c7ccc(S(=O)(=O)[O-])cc7)c7ccc4[nH]7)C=C6)C=C5)cc3)c2)cc1
REMARK SMILES IDX 20 1 19 2 18 3 16 4 17 5 15 7 14 8 12 9 13 10 11 12 7 13
REMARK SMILES IDX 8 14 86 15 9 16 10 17 6 18 3 19 4 20 88 21 5 22 87 23 2 24
REMARK SMILES IDX 1 25 21 26 22 27 23 28 24 29 25 31 26 32 27 33 85 34 28 35
REMARK SMILES IDX 84 36 29 37 30 38 31 39 78 40 32 41 83 42 77 43 79 44 33 45
REMARK SMILES IDX 82 46 76 47 75 48 34 50 64 51 45 52 63 53 46 54 49 55 62 56
REMARK SMILES IDX 80 57 47 58 48 59 61 61 81 62 50 63 35 64 36 65 44 66 37 67
REMARK SMILES IDX 43 68 38 69 39 70 40 71 41 72 42 73 65 74 66 75 74 76 67 77
REMARK SMILES IDX 73 78 68 79 69 80 70 81 71 82 72 83 51 84 52 85 60 86 53 87
REMARK SMILES IDX 59 88 54 89 55 90 56 91 57 92 58 93
REMARK H PARENT 18 6 14 11 23 30 79 49 49 60
REMARK Flexibility Score: inf
ROOT
ATOM      1  C   UNL A   1      36.785  33.706  29.394  1.00  0.00     0.023 C 
ENDROOT
BRANCH   1   2
ATOM      2  C   UNL A   1      36.757  33.014  30.752  1.00  0.00     0.116 C 
BRANCH   2   3
ATOM      3  N   UNL A   1      37.524  33.737  31.739  1.00  0.00    -0.355 N 
ATOM      4  C   UNL A   1      37.590  33.586  33.088  1.00  0.00     0.239 C 
ATOM      5  O   UNL A   1      38.396  34.304  33.690  1.00  0.00    -0.273 OA
ATOM      6  H   UNL A   1      38.090  34.455  31.377  1.00  0.00     0.163 HD
BRANCH   4   7
ATOM      7  C   UNL A   1      36.877  32.452  33.843  1.00  0.00     0.216 C 
BRANCH   7   8
ATOM      8  N   UNL A   1      37.078  31.057  33.464  1.00  0.00    -0.343 N 
ATOM      9  C   UNL A   1      38.017  30.080  33.677  1.00  0.00     0.251 C 
ATOM     10  O   UNL A   1      37.708  28.947  33.297  1.00  0.00    -0.269 OA
ATOM     11  H   UNL A   1      36.338  30.727  32.904  1.00  0.00     0.164 HD
BRANCH   9  12
ATOM     12  C   UNL A   1      39.394  30.286  34.226  1.00  0.00     0.040 A 
ATOM     13  C   UNL A   1      41.743  29.654  34.564  1.00  0.00    -0.018 A 
ATOM     14  C   UNL A   1      41.830  30.578  35.612  1.00  0.00     0.009 A 
ATOM     15  C   UNL A   1      40.529  29.569  33.852  1.00  0.00     0.022 A 
ATOM     16  C   UNL A   1      40.730  31.362  35.961  1.00  0.00     0.001 A 
ATOM     17  C   UNL A   1      39.519  31.203  35.283  1.00  0.00     0.014 A 
BRANCH  13  18
ATOM     18  C   UNL A   1      42.829  28.696  34.271  1.00  0.00    -0.018 A 
ATOM     19  C   UNL A   1      44.844  26.738  33.936  1.00  0.00     0.118 A 
ATOM     20  C   UNL A   1      45.071  27.856  34.736  1.00  0.00     0.047 A 
ATOM     21  C   UNL A   1      43.611  26.590  33.303  1.00  0.00     0.047 A 
ATOM     22  C   UNL A   1      44.080  28.827  34.894  1.00  0.00     0.012 A 
ATOM     23  C   UNL A   1      42.619  27.565  33.464  1.00  0.00     0.012 A 
BRANCH  19  24
ATOM     24  O   UNL A   1      45.867  25.834  33.889  1.00  0.00    -0.497 OA
ATOM     25  C   UNL A   1      45.486  24.494  33.607  1.00  0.00     0.278 C 
ENDBRANCH  19  24
ENDBRANCH  13  18
ENDBRANCH   9  12
ENDBRANCH   7   8
ENDBRANCH   4   7
ENDBRANCH   2   3
ENDBRANCH   1   2
BRANCH   1  26
ATOM     26  C   UNL A   1      35.574  33.385  28.513  1.00  0.00     0.023 C 
BRANCH  26  27
ATOM     27  C   UNL A   1      34.492  32.540  29.180  1.00  0.00     0.116 C 
BRANCH  27  28
ATOM     28  N   UNL A   1      33.909  31.557  28.282  1.00  0.00    -0.352 N 
ATOM     29  C   UNL A   1      34.480  30.428  27.743  1.00  0.00     0.251 C 
ATOM     30  H   UNL A   1      32.974  31.722  28.023  1.00  0.00     0.163 HD
ATOM     31  O   UNL A   1      33.877  29.794  26.885  1.00  0.00    -0.269 OA
BRANCH  29  32
ATOM     32  C   UNL A   1      35.832  30.001  28.174  1.00  0.00     0.039 A 
ATOM     33  C   UNL A   1      36.881  30.085  27.257  1.00  0.00     0.014 A 
ATOM     34  C   UNL A   1      36.069  29.521  29.465  1.00  0.00     0.014 A 
ATOM     35  C   UNL A   1      38.175  29.739  27.651  1.00  0.00     0.010 A 
ATOM     36  C   UNL A   1      37.374  29.253  29.881  1.00  0.00     0.010 A 
ATOM     37  C   UNL A   1      38.441  29.355  28.979  1.00  0.00    -0.014 A 
BRANCH  37  38
ATOM     38  C   UNL A   1      39.837  29.085  29.416  1.00  0.00     0.031 A 
ATOM     39  C   UNL A   1      40.510  27.777  29.090  1.00  0.00     0.074 A 
ATOM     40  C   UNL A   1      40.498  30.025  30.121  1.00  0.00     0.049 A 
ATOM     41  N   UNL A   1      41.740  27.402  29.339  1.00  0.00    -0.248 NA
ATOM     42  C   UNL A   1      39.697  26.750  28.418  1.00  0.00     0.031 C 
ATOM     43  C   UNL A   1      39.939  31.311  30.549  1.00  0.00     0.029 A 
ATOM     44  N   UNL A   1      41.789  30.057  30.587  1.00  0.00    -0.354 N 
ATOM     45  C   UNL A   1      41.849  26.104  28.853  1.00  0.00     0.074 A 
ATOM     46  C   UNL A   1      40.543  25.732  28.351  1.00  0.00     0.031 C 
ATOM     47  C   UNL A   1      40.895  32.024  31.165  1.00  0.00     0.029 A 
ATOM     48  C   UNL A   1      42.122  31.237  31.211  1.00  0.00     0.049 A 
ATOM     49  H   UNL A   1      42.417  29.306  30.483  1.00  0.00     0.167 HD
ATOM     50  C   UNL A   1      42.941  25.303  28.802  1.00  0.00     0.031 A 
ATOM     51  C   UNL A   1      43.285  31.644  31.754  1.00  0.00     0.031 A 
ATOM     52  C   UNL A   1      44.239  25.674  29.302  1.00  0.00     0.049 A 
ATOM     53  C   UNL A   1      44.479  30.731  31.690  1.00  0.00     0.074 A 
ATOM     54  C   UNL A   1      45.418  24.949  29.259  1.00  0.00     0.029 A 
ATOM     55  N   UNL A   1      44.532  26.870  29.940  1.00  0.00    -0.354 N 
ATOM     56  N   UNL A   1      44.578  29.536  31.157  1.00  0.00    -0.248 NA
ATOM     57  C   UNL A   1      45.725  31.232  32.285  1.00  0.00     0.031 C 
ATOM     58  C   UNL A   1      46.409  25.682  29.920  1.00  0.00     0.029 A 
ATOM     59  C   UNL A   1      45.866  26.895  30.315  1.00  0.00     0.049 A 
ATOM     60  H   UNL A   1      43.887  27.597  30.102  1.00  0.00     0.167 HD
ATOM     61  C   UNL A   1      45.905  29.155  31.330  1.00  0.00     0.074 A 
ATOM     62  C   UNL A   1      46.573  30.260  31.986  1.00  0.00     0.031 C 
ATOM     63  C   UNL A   1      46.516  27.994  30.981  1.00  0.00     0.031 A 
BRANCH  50  64
ATOM     64  C   UNL A   1      42.782  23.941  28.171  1.00  0.00    -0.014 A 
ATOM     65  C   UNL A   1      42.397  22.828  28.940  1.00  0.00     0.010 A 
ATOM     66  C   UNL A   1      42.955  23.785  26.783  1.00  0.00     0.010 A 
ATOM     67  C   UNL A   1      42.217  21.578  28.340  1.00  0.00     0.020 A 
ATOM     68  C   UNL A   1      42.748  22.543  26.174  1.00  0.00     0.020 A 
ATOM     69  C   UNL A   1      42.391  21.444  26.960  1.00  0.00     0.054 A 
BRANCH  69  70
ATOM     70  S   UNL A   1      42.106  19.821  26.203  1.00  0.00     0.124 S 
ATOM     71  O   UNL A   1      43.014  19.856  25.060  1.00  0.00    -0.237 OA
ATOM     72  O   UNL A   1      42.481  18.900  27.274  1.00  0.00    -0.237 OA
ATOM     73  O   UNL A   1      40.684  19.838  25.869  1.00  0.00    -0.744 OA
ENDBRANCH  69  70
ENDBRANCH  50  64
BRANCH  51  74
ATOM     74  C   UNL A   1      43.390  32.988  32.389  1.00  0.00    -0.014 A 
ATOM     75  C   UNL A   1      43.677  34.128  31.616  1.00  0.00     0.010 A 
ATOM     76  C   UNL A   1      43.223  33.133  33.778  1.00  0.00     0.010 A 
ATOM     77  C   UNL A   1      43.834  35.377  32.224  1.00  0.00     0.020 A 
ATOM     78  C   UNL A   1      43.344  34.384  34.385  1.00  0.00     0.020 A 
ATOM     79  C   UNL A   1      43.668  35.497  33.607  1.00  0.00     0.054 A 
BRANCH  79  80
ATOM     80  S   UNL A   1      43.856  37.131  34.374  1.00  0.00     0.124 S 
ATOM     81  O   UNL A   1      43.934  36.792  35.791  1.00  0.00    -0.237 OA
ATOM     82  O   UNL A   1      45.092  37.622  33.770  1.00  0.00    -0.237 OA
ATOM     83  O   UNL A   1      42.646  37.841  33.964  1.00  0.00    -0.744 OA
ENDBRANCH  79  80
ENDBRANCH  51  74
BRANCH  63  84
ATOM     84  C   UNL A   1      47.990  27.882  31.279  1.00  0.00    -0.014 A 
ATOM     85  C   UNL A   1      48.453  27.430  32.528  1.00  0.00     0.010 A 
ATOM     86  C   UNL A   1      48.926  28.242  30.292  1.00  0.00     0.010 A 
ATOM     87  C   UNL A   1      49.822  27.409  32.809  1.00  0.00     0.020 A 
ATOM     88  C   UNL A   1      50.297  28.186  30.556  1.00  0.00     0.020 A 
ATOM     89  C   UNL A   1      50.734  27.796  31.824  1.00  0.00     0.054 A 
BRANCH  89  90
ATOM     90  S   UNL A   1      52.505  27.775  32.216  1.00  0.00     0.124 S 
ATOM     91  O   UNL A   1      52.656  26.475  32.865  1.00  0.00    -0.237 OA
ATOM     92  O   UNL A   1      53.126  27.896  30.899  1.00  0.00    -0.237 OA
ATOM     93  O   UNL A   1      52.680  28.932  33.090  1.00  0.00    -0.744 OA
ENDBRANCH  89  90
ENDBRANCH  63  84
ENDBRANCH  37  38
ENDBRANCH  29  32
ENDBRANCH  27  28
ENDBRANCH  26  27
ENDBRANCH   1  26
TORSDOF 18
ENDMDL
MODEL 2
REMARK VINA RESULT:      -8.0      1.481      8.386
REMARK SMILES COc1ccc(-c2cccc(C(=O)NCC(=O)NCCCCNC(=O)c3ccc(-c4c5nc(c(-c6ccc(S(=O)(=O)[O-])cc6)c6ccc([nH]6)c(-c6ccc(S(=O)(=O)[O-])cc6)c6nc(c(-c7ccc(S(=O)(=O)[O-])cc7)c7ccc4[nH]7)C=C6)C=C5)cc3)c2)cc1
REMARK SMILES IDX 20 1 19 2 18 3 16 4 17 5 15 7 14 8 12 9 13 10 11 12 7 13
REMARK SMILES IDX 8 14 86 15 9 16 10 17 6 18 3 19 4 20 88 21 5 22 87 23 2 24
REMARK SMILES IDX 1 25 21 26 22 27 23 28 24 29 25 31 26 32 27 33 85 34 28 35
REMARK SMILES IDX 84 36 29 37 30 38 31 39 78 40 32 41 83 42 77 43 79 44 33 45
REMARK SMILES IDX 82 46 76 47 75 48 34 50 64 51 45 52 63 53 46 54 49 55 62 56
REMARK SMILES IDX 80 57 47 58 48 59 61 61 81 62 50 63 35 64 36 65 44 66 37 67
REMARK SMILES IDX 43 68 38 69 39 70 40 71 41 72 42 73 65 74 66 75 74 76 67 77
REMARK SMILES IDX 73 78 68 79 69 80 70 81 71 82 72 83 51 84 52 85 60 86 53 87
REMARK SMILES IDX 59 88 54 89 55 90 56 91 57 92 58 93
REMARK H PARENT 18 6 14 11 23 30 79 49 49 60
REMARK Flexibility Score: inf
ROOT
ATOM      1  C   UNL A   1      34.491  35.358  28.925  1.00  0.00     0.023 C 
ENDROOT
BRANCH   1   2
ATOM      2  C   UNL A   1      33.692  35.157  30.208  1.00  0.00     0.116 C 
BRANCH   2   3
ATOM      3  N   UNL A   1      33.922  33.853  30.784  1.00  0.00    -0.355 N 
ATOM      4  C   UNL A   1      34.314  33.499  32.036  1.00  0.00     0.239 C 
ATOM      5  O   UNL A   1      34.362  32.289  32.283  1.00  0.00    -0.273 OA
ATOM      6  H   UNL A   1      33.770  33.099  30.171  1.00  0.00     0.163 HD
BRANCH   4   7
ATOM      7  C   UNL A   1      34.493  34.512  33.179  1.00  0.00     0.216 C 
BRANCH   7   8
ATOM      8  N   UNL A   1      34.901  34.075  34.510  1.00  0.00    -0.343 N 
ATOM      9  C   UNL A   1      36.074  33.798  35.164  1.00  0.00     0.251 C 
ATOM     10  O   UNL A   1      35.978  33.610  36.380  1.00  0.00    -0.269 OA
ATOM     11  H   UNL A   1      34.122  33.944  35.099  1.00  0.00     0.164 HD
BRANCH   9  12
ATOM     12  C   UNL A   1      37.415  33.609  34.527  1.00  0.00     0.040 A 
ATOM     13  C   UNL A   1      39.397  32.288  33.926  1.00  0.00    -0.018 A 
ATOM     14  C   UNL A   1      40.081  33.472  33.626  1.00  0.00     0.009 A 
ATOM     15  C   UNL A   1      38.047  32.383  34.320  1.00  0.00     0.022 A 
ATOM     16  C   UNL A   1      39.450  34.710  33.754  1.00  0.00     0.001 A 
ATOM     17  C   UNL A   1      38.134  34.775  34.216  1.00  0.00     0.014 A 
BRANCH  13  18
ATOM     18  C   UNL A   1      40.075  30.976  33.959  1.00  0.00    -0.018 A 
ATOM     19  C   UNL A   1      41.475  28.524  33.784  1.00  0.00     0.118 A 
ATOM     20  C   UNL A   1      40.230  28.671  33.178  1.00  0.00     0.047 A 
ATOM     21  C   UNL A   1      42.030  29.598  34.476  1.00  0.00     0.047 A 
ATOM     22  C   UNL A   1      39.534  29.878  33.272  1.00  0.00     0.012 A 
ATOM     23  C   UNL A   1      41.331  30.809  34.568  1.00  0.00     0.012 A 
BRANCH  19  24
ATOM     24  O   UNL A   1      42.081  27.315  33.589  1.00  0.00    -0.497 OA
ATOM     25  C   UNL A   1      42.891  26.858  34.665  1.00  0.00     0.278 C 
ENDBRANCH  19  24
ENDBRANCH  13  18
ENDBRANCH   9  12
ENDBRANCH   7   8
ENDBRANCH   4   7
ENDBRANCH   2   3
ENDBRANCH   1   2
BRANCH   1  26
ATOM     26  C   UNL A   1      34.198  34.314  27.844  1.00  0.00     0.023 C 
BRANCH  26  27
ATOM     27  C   UNL A   1      34.908  32.975  28.025  1.00  0.00     0.116 C 
BRANCH  27  28
ATOM     28  N   UNL A   1      34.031  31.836  27.814  1.00  0.00    -0.352 N 
ATOM     29  C   UNL A   1      34.340  30.496  27.786  1.00  0.00     0.251 C 
ATOM     30  H   UNL A   1      33.082  32.054  27.672  1.00  0.00     0.163 HD
ATOM     31  O   UNL A   1      33.486  29.685  27.448  1.00  0.00    -0.269 OA
BRANCH  29  32
ATOM     32  C   UNL A   1      35.707  30.042  28.130  1.00  0.00     0.039 A 
ATOM     33  C   UNL A   1      36.680  30.040  27.129  1.00  0.00     0.014 A 
ATOM     34  C   UNL A   1      36.033  29.619  29.422  1.00  0.00     0.014 A 
ATOM     35  C   UNL A   1      37.990  29.666  27.437  1.00  0.00     0.010 A 
ATOM     36  C   UNL A   1      37.357  29.324  29.746  1.00  0.00     0.010 A 
ATOM     37  C   UNL A   1      38.350  29.340  28.757  1.00  0.00    -0.014 A 
BRANCH  37  38
ATOM     38  C   UNL A   1      39.767  29.040  29.096  1.00  0.00     0.031 A 
ATOM     39  C   UNL A   1      40.622  30.052  29.813  1.00  0.00     0.074 A 
ATOM     40  C   UNL A   1      40.288  27.847  28.744  1.00  0.00     0.049 A 
ATOM     41  N   UNL A   1      41.854  29.932  30.240  1.00  0.00    -0.248 NA
ATOM     42  C   UNL A   1      40.029  31.375  30.068  1.00  0.00     0.031 C 
ATOM     43  C   UNL A   1      39.582  26.802  27.997  1.00  0.00     0.029 A 
ATOM     44  N   UNL A   1      41.525  27.301  28.982  1.00  0.00    -0.354 N 
ATOM     45  C   UNL A   1      42.181  31.155  30.815  1.00  0.00     0.074 A 
ATOM     46  C   UNL A   1      41.040  32.025  30.625  1.00  0.00     0.031 C 
ATOM     47  C   UNL A   1      40.376  25.726  27.886  1.00  0.00     0.029 A 
ATOM     48  C   UNL A   1      41.659  26.013  28.518  1.00  0.00     0.049 A 
ATOM     49  H   UNL A   1      42.248  27.786  29.443  1.00  0.00     0.167 HD
ATOM     50  C   UNL A   1      43.314  31.515  31.464  1.00  0.00     0.031 A 
ATOM     51  C   UNL A   1      42.695  25.155  28.598  1.00  0.00     0.031 A 
ATOM     52  C   UNL A   1      44.449  30.648  31.650  1.00  0.00     0.049 A 
ATOM     53  C   UNL A   1      43.943  25.585  29.318  1.00  0.00     0.074 A 
ATOM     54  C   UNL A   1      45.627  30.905  32.331  1.00  0.00     0.029 A 
ATOM     55  N   UNL A   1      44.551  29.357  31.153  1.00  0.00    -0.354 N 
ATOM     56  N   UNL A   1      44.202  26.722  29.920  1.00  0.00    -0.248 NA
ATOM     57  C   UNL A   1      45.035  24.603  29.386  1.00  0.00     0.031 C 
ATOM     58  C   UNL A   1      46.463  29.792  32.197  1.00  0.00     0.029 A 
ATOM     59  C   UNL A   1      45.781  28.814  31.491  1.00  0.00     0.049 A 
ATOM     60  H   UNL A   1      43.853  28.893  30.636  1.00  0.00     0.167 HD
ATOM     61  C   UNL A   1      45.475  26.582  30.461  1.00  0.00     0.074 A 
ATOM     62  C   UNL A   1      45.917  25.240  30.142  1.00  0.00     0.031 C 
ATOM     63  C   UNL A   1      46.215  27.482  31.156  1.00  0.00     0.031 A 
BRANCH  50  64
ATOM     64  C   UNL A   1      43.382  32.910  32.034  1.00  0.00    -0.014 A 
ATOM     65  C   UNL A   1      43.731  33.127  33.379  1.00  0.00     0.010 A 
ATOM     66  C   UNL A   1      43.159  34.022  31.200  1.00  0.00     0.010 A 
ATOM     67  C   UNL A   1      43.828  34.426  33.887  1.00  0.00     0.020 A 
ATOM     68  C   UNL A   1      43.282  35.323  31.697  1.00  0.00     0.020 A 
ATOM     69  C   UNL A   1      43.605  35.516  33.042  1.00  0.00     0.054 A 
BRANCH  69  70
ATOM     70  S   UNL A   1      43.782  37.189  33.720  1.00  0.00     0.124 S 
ATOM     71  O   UNL A   1      44.245  37.939  32.555  1.00  0.00    -0.237 OA
ATOM     72  O   UNL A   1      42.425  37.497  34.166  1.00  0.00    -0.237 OA
ATOM     73  O   UNL A   1      44.765  37.029  34.788  1.00  0.00    -0.744 OA
ENDBRANCH  69  70
ENDBRANCH  50  64
BRANCH  51  74
ATOM     74  C   UNL A   1      42.592  23.795  27.998  1.00  0.00    -0.014 A 
ATOM     75  C   UNL A   1      43.117  23.531  26.720  1.00  0.00     0.010 A 
ATOM     76  C   UNL A   1      41.948  22.758  28.697  1.00  0.00     0.010 A 
ATOM     77  C   UNL A   1      42.965  22.269  26.137  1.00  0.00     0.020 A 
ATOM     78  C   UNL A   1      41.825  21.486  28.133  1.00  0.00     0.020 A 
ATOM     79  C   UNL A   1      42.317  21.254  26.848  1.00  0.00     0.054 A 
BRANCH  79  80
ATOM     80  S   UNL A   1      42.149  19.618  26.081  1.00  0.00     0.124 S 
ATOM     81  O   UNL A   1      42.609  18.736  27.148  1.00  0.00    -0.237 OA
ATOM     82  O   UNL A   1      40.721  19.558  25.780  1.00  0.00    -0.237 OA
ATOM     83  O   UNL A   1      43.022  19.697  24.912  1.00  0.00    -0.744 OA
ENDBRANCH  79  80
ENDBRANCH  51  74
BRANCH  63  84
ATOM     84  C   UNL A   1      47.567  27.025  31.641  1.00  0.00    -0.014 A 
ATOM     85  C   UNL A   1      48.739  27.293  30.909  1.00  0.00     0.010 A 
ATOM     86  C   UNL A   1      47.665  26.310  32.849  1.00  0.00     0.010 A 
ATOM     87  C   UNL A   1      49.971  26.792  31.338  1.00  0.00     0.020 A 
ATOM     88  C   UNL A   1      48.901  25.839  33.301  1.00  0.00     0.020 A 
ATOM     89  C   UNL A   1      50.042  26.061  32.527  1.00  0.00     0.054 A 
BRANCH  89  90
ATOM     90  S   UNL A   1      51.649  25.408  33.056  1.00  0.00     0.124 S 
ATOM     91  O   UNL A   1      51.386  25.045  34.445  1.00  0.00    -0.237 OA
ATOM     92  O   UNL A   1      51.856  24.287  32.141  1.00  0.00    -0.237 OA
ATOM     93  O   UNL A   1      52.560  26.534  32.868  1.00  0.00    -0.744 OA
ENDBRANCH  89  90
ENDBRANCH  63  84
ENDBRANCH  37  38
ENDBRANCH  29  32
ENDBRANCH  27  28
ENDBRANCH  26  27
ENDBRANCH   1  26
TORSDOF 18
ENDMDL
MODEL 3
REMARK VINA RESULT:      -8.0      1.975      8.843
REMARK SMILES COc1ccc(-c2cccc(C(=O)NCC(=O)NCCCCNC(=O)c3ccc(-c4c5nc(c(-c6ccc(S(=O)(=O)[O-])cc6)c6ccc([nH]6)c(-c6ccc(S(=O)(=O)[O-])cc6)c6nc(c(-c7ccc(S(=O)(=O)[O-])cc7)c7ccc4[nH]7)C=C6)C=C5)cc3)c2)cc1
REMARK SMILES IDX 20 1 19 2 18 3 16 4 17 5 15 7 14 8 12 9 13 10 11 12 7 13
REMARK SMILES IDX 8 14 86 15 9 16 10 17 6 18 3 19 4 20 88 21 5 22 87 23 2 24
REMARK SMILES IDX 1 25 21 26 22 27 23 28 24 29 25 31 26 32 27 33 85 34 28 35
REMARK SMILES IDX 84 36 29 37 30 38 31 39 78 40 32 41 83 42 77 43 79 44 33 45
REMARK SMILES IDX 82 46 76 47 75 48 34 50 64 51 45 52 63 53 46 54 49 55 62 56
REMARK SMILES IDX 80 57 47 58 48 59 61 61 81 62 50 63 35 64 36 65 44 66 37 67
REMARK SMILES IDX 43 68 38 69 39 70 40 71 41 72 42 73 65 74 66 75 74 76 67 77
REMARK SMILES IDX 73 78 68 79 69 80 70 81 71 82 72 83 51 84 52 85 60 86 53 87
REMARK SMILES IDX 59 88 54 89 55 90 56 91 57 92 58 93
REMARK H PARENT 18 6 14 11 23 30 79 49 49 60
REMARK Flexibility Score: inf
ROOT
ATOM      1  C   UNL A   1      34.747  35.200  28.897  1.00  0.00     0.023 C 
ENDROOT
BRANCH   1   2
ATOM      2  C   UNL A   1      33.775  34.894  30.030  1.00  0.00     0.116 C 
BRANCH   2   3
ATOM      3  N   UNL A   1      34.101  33.658  30.700  1.00  0.00    -0.355 N 
ATOM      4  C   UNL A   1      34.415  33.414  31.999  1.00  0.00     0.239 C 
ATOM      5  O   UNL A   1      34.581  32.232  32.320  1.00  0.00    -0.273 OA
ATOM      6  H   UNL A   1      34.095  32.862  30.121  1.00  0.00     0.163 HD
BRANCH   4   7
ATOM      7  C   UNL A   1      34.370  34.496  33.091  1.00  0.00     0.216 C 
BRANCH   7   8
ATOM      8  N   UNL A   1      34.733  34.184  34.470  1.00  0.00    -0.343 N 
ATOM      9  C   UNL A   1      35.871  33.862  35.163  1.00  0.00     0.251 C 
ATOM     10  O   UNL A   1      35.762  33.837  36.392  1.00  0.00    -0.269 OA
ATOM     11  H   UNL A   1      33.948  34.214  35.064  1.00  0.00     0.164 HD
BRANCH   9  12
ATOM     12  C   UNL A   1      37.180  33.448  34.565  1.00  0.00     0.040 A 
ATOM     13  C   UNL A   1      38.945  33.541  32.859  1.00  0.00    -0.018 A 
ATOM     14  C   UNL A   1      39.460  32.332  33.343  1.00  0.00     0.009 A 
ATOM     15  C   UNL A   1      37.838  34.104  33.526  1.00  0.00     0.022 A 
ATOM     16  C   UNL A   1      38.865  31.689  34.428  1.00  0.00     0.001 A 
ATOM     17  C   UNL A   1      37.725  32.237  35.022  1.00  0.00     0.014 A 
BRANCH  13  18
ATOM     18  C   UNL A   1      39.444  34.166  31.618  1.00  0.00    -0.018 A 
ATOM     19  C   UNL A   1      40.504  35.127  29.176  1.00  0.00     0.118 A 
ATOM     20  C   UNL A   1      41.306  35.049  30.312  1.00  0.00     0.047 A 
ATOM     21  C   UNL A   1      39.172  34.722  29.251  1.00  0.00     0.047 A 
ATOM     22  C   UNL A   1      40.781  34.584  31.520  1.00  0.00     0.012 A 
ATOM     23  C   UNL A   1      38.648  34.255  30.463  1.00  0.00     0.012 A 
BRANCH  19  24
ATOM     24  O   UNL A   1      41.134  35.555  28.043  1.00  0.00    -0.497 OA
ATOM     25  C   UNL A   1      42.552  35.460  28.059  1.00  0.00     0.278 C 
ENDBRANCH  19  24
ENDBRANCH  13  18
ENDBRANCH   9  12
ENDBRANCH   7   8
ENDBRANCH   4   7
ENDBRANCH   2   3
ENDBRANCH   1   2
BRANCH   1  26
ATOM     26  C   UNL A   1      34.726  34.164  27.768  1.00  0.00     0.023 C 
BRANCH  26  27
ATOM     27  C   UNL A   1      35.330  32.807  28.122  1.00  0.00     0.116 C 
BRANCH  27  28
ATOM     28  N   UNL A   1      34.405  31.705  27.915  1.00  0.00    -0.352 N 
ATOM     29  C   UNL A   1      34.664  30.356  27.848  1.00  0.00     0.251 C 
ATOM     30  H   UNL A   1      33.461  31.960  27.809  1.00  0.00     0.163 HD
ATOM     31  O   UNL A   1      33.772  29.583  27.520  1.00  0.00    -0.269 OA
BRANCH  29  32
ATOM     32  C   UNL A   1      36.025  29.846  28.137  1.00  0.00     0.039 A 
ATOM     33  C   UNL A   1      36.973  29.860  27.113  1.00  0.00     0.014 A 
ATOM     34  C   UNL A   1      36.367  29.355  29.400  1.00  0.00     0.014 A 
ATOM     35  C   UNL A   1      38.277  29.433  27.371  1.00  0.00     0.010 A 
ATOM     36  C   UNL A   1      37.689  29.005  29.678  1.00  0.00     0.010 A 
ATOM     37  C   UNL A   1      38.658  29.036  28.667  1.00  0.00    -0.014 A 
BRANCH  37  38
ATOM     38  C   UNL A   1      40.073  28.679  28.956  1.00  0.00     0.031 A 
ATOM     39  C   UNL A   1      40.988  29.648  29.658  1.00  0.00     0.074 A 
ATOM     40  C   UNL A   1      40.537  27.472  28.573  1.00  0.00     0.049 A 
ATOM     41  N   UNL A   1      42.227  29.476  30.044  1.00  0.00    -0.248 NA
ATOM     42  C   UNL A   1      40.454  30.989  29.948  1.00  0.00     0.031 C 
ATOM     43  C   UNL A   1      39.769  26.465  27.835  1.00  0.00     0.029 A 
ATOM     44  N   UNL A   1      41.759  26.876  28.765  1.00  0.00    -0.354 N 
ATOM     45  C   UNL A   1      42.618  30.677  30.623  1.00  0.00     0.074 A 
ATOM     46  C   UNL A   1      41.506  31.593  30.481  1.00  0.00     0.031 C 
ATOM     47  C   UNL A   1      40.517  25.361  27.685  1.00  0.00     0.029 A 
ATOM     48  C   UNL A   1      41.829  25.591  28.280  1.00  0.00     0.049 A 
ATOM     49  H   UNL A   1      42.514  27.328  29.208  1.00  0.00     0.167 HD
ATOM     50  C   UNL A   1      43.784  30.986  31.240  1.00  0.00     0.031 A 
ATOM     51  C   UNL A   1      42.834  24.694  28.316  1.00  0.00     0.031 A 
ATOM     52  C   UNL A   1      44.890  30.074  31.379  1.00  0.00     0.049 A 
ATOM     53  C   UNL A   1      44.120  25.066  29.001  1.00  0.00     0.074 A 
ATOM     54  C   UNL A   1      46.098  30.277  32.025  1.00  0.00     0.029 A 
ATOM     55  N   UNL A   1      44.928  28.788  30.863  1.00  0.00    -0.354 N 
ATOM     56  N   UNL A   1      44.440  26.184  29.608  1.00  0.00    -0.248 NA
ATOM     57  C   UNL A   1      45.175  24.044  29.022  1.00  0.00     0.031 C 
ATOM     58  C   UNL A   1      46.887  29.136  31.851  1.00  0.00     0.029 A 
ATOM     59  C   UNL A   1      46.146  28.194  31.155  1.00  0.00     0.049 A 
ATOM     60  H   UNL A   1      44.197  28.358  30.363  1.00  0.00     0.167 HD
ATOM     61  C   UNL A   1      45.724  25.989  30.107  1.00  0.00     0.074 A 
ATOM     62  C   UNL A   1      46.104  24.636  29.758  1.00  0.00     0.031 C 
ATOM     63  C   UNL A   1      46.519  26.852  30.790  1.00  0.00     0.031 A 
BRANCH  50  64
ATOM     64  C   UNL A   1      43.923  32.370  31.825  1.00  0.00    -0.014 A 
ATOM     65  C   UNL A   1      43.497  32.648  33.136  1.00  0.00     0.010 A 
ATOM     66  C   UNL A   1      44.547  33.388  31.080  1.00  0.00     0.010 A 
ATOM     67  C   UNL A   1      43.664  33.924  33.682  1.00  0.00     0.020 A 
ATOM     68  C   UNL A   1      44.742  34.658  31.632  1.00  0.00     0.020 A 
ATOM     69  C   UNL A   1      44.288  34.921  32.927  1.00  0.00     0.054 A 
BRANCH  69  70
ATOM     70  S   UNL A   1      44.531  36.553  33.679  1.00  0.00     0.124 S 
ATOM     71  O   UNL A   1      43.156  37.003  33.878  1.00  0.00    -0.237 OA
ATOM     72  O   UNL A   1      45.270  36.235  34.898  1.00  0.00    -0.237 OA
ATOM     73  O   UNL A   1      45.286  37.292  32.670  1.00  0.00    -0.744 OA
ENDBRANCH  69  70
ENDBRANCH  50  64
BRANCH  51  74
ATOM     74  C   UNL A   1      42.661  23.346  27.703  1.00  0.00    -0.014 A 
ATOM     75  C   UNL A   1      41.976  22.328  28.388  1.00  0.00     0.010 A 
ATOM     76  C   UNL A   1      43.202  23.069  26.435  1.00  0.00     0.010 A 
ATOM     77  C   UNL A   1      41.869  21.048  27.835  1.00  0.00     0.020 A 
ATOM     78  C   UNL A   1      43.067  21.802  25.863  1.00  0.00     0.020 A 
ATOM     79  C   UNL A   1      42.418  20.792  26.576  1.00  0.00     0.054 A 
BRANCH  79  80
ATOM     80  S   UNL A   1      42.250  19.130  25.866  1.00  0.00     0.124 S 
ATOM     81  O   UNL A   1      40.812  19.040  25.644  1.00  0.00    -0.237 OA
ATOM     82  O   UNL A   1      43.074  19.217  24.664  1.00  0.00    -0.237 OA
ATOM     83  O   UNL A   1      42.780  18.258  26.913  1.00  0.00    -0.744 OA
ENDBRANCH  79  80
ENDBRANCH  51  74
BRANCH  63  84
ATOM     84  C   UNL A   1      47.867  26.337  31.226  1.00  0.00    -0.014 A 
ATOM     85  C   UNL A   1      48.069  25.808  32.514  1.00  0.00     0.010 A 
ATOM     86  C   UNL A   1      48.952  26.391  30.332  1.00  0.00     0.010 A 
ATOM     87  C   UNL A   1      49.344  25.410  32.923  1.00  0.00     0.020 A 
ATOM     88  C   UNL A   1      50.222  25.958  30.725  1.00  0.00     0.020 A 
ATOM     89  C   UNL A   1      50.414  25.496  32.028  1.00  0.00     0.054 A 
BRANCH  89  90
ATOM     90  S   UNL A   1      52.063  24.988  32.587  1.00  0.00     0.124 S 
ATOM     91  O   UNL A   1      52.082  25.479  33.962  1.00  0.00    -0.237 OA
ATOM     92  O   UNL A   1      52.017  23.535  32.439  1.00  0.00    -0.237 OA
ATOM     93  O   UNL A   1      52.967  25.674  31.668  1.00  0.00    -0.744 OA
ENDBRANCH  89  90
ENDBRANCH  63  84
ENDBRANCH  37  38
ENDBRANCH  29  32
ENDBRANCH  27  28
ENDBRANCH  26  27
ENDBRANCH   1  26
TORSDOF 18
ENDMDL
