MODEL 1
REMARK VINA RESULT:     -12.8      0.000      0.000
REMARK SMILES O=C(NCCCCNC(=O)c1ccc(-c2c3nc(c(-c4ccc(S(=O)(=O)[O-])cc4)c4ccc([nH]4)c(-c4ccc(S(=O)(=O)[O-])cc4)c4nc(c(-c5ccc(S(=O)(=O)[O-])cc5)c5ccc2[nH]5)C=C4)C=C3)cc1)C1=Cc2cc(Cl)cc(-c3ccccc3)c2O[C@@H]1C(F)(F)F
REMARK SMILES IDX 6 1 5 2 4 3 3 4 1 5 2 6 71 8 72 9 87 10 73 11 86 12 74 13
REMARK SMILES IDX 85 14 75 15 78 16 76 17 77 18 88 19 89 20 90 21 91 22 79 23
REMARK SMILES IDX 80 24 84 25 81 26 83 27 82 28 7 29 8 30 9 31 10 33 11 34
REMARK SMILES IDX 12 35 70 36 13 37 69 38 14 39 15 40 16 41 63 42 17 43 68 44
REMARK SMILES IDX 62 45 64 46 18 47 67 48 61 49 60 50 19 52 49 53 30 54 48 55
REMARK SMILES IDX 31 56 34 57 47 58 65 59 32 60 33 61 46 63 66 64 35 65 20 66
REMARK SMILES IDX 21 67 29 68 22 69 28 70 23 71 24 72 25 73 26 74 27 75 50 76
REMARK SMILES IDX 51 77 59 78 52 79 58 80 53 81 54 82 55 83 56 84 57 85 36 86
REMARK SMILES IDX 37 87 45 88 38 89 44 90 39 91 40 92 41 93 42 94 43 95
REMARK H PARENT 3 7 8 32 64 51 34 62
REMARK Flexibility Score: inf
ROOT
ATOM      1  C   UNL A   1      32.860  28.136  27.304  1.00  0.00     0.023 C 
ENDROOT
BRANCH   1   2
ATOM      2  C   UNL A   1      31.406  27.896  26.904  1.00  0.00     0.023 C 
BRANCH   2   3
ATOM      3  C   UNL A   1      31.109  26.623  26.120  1.00  0.00     0.116 C 
BRANCH   3   4
ATOM      4  N   UNL A   1      31.431  25.367  26.775  1.00  0.00    -0.352 N 
ATOM      5  O   UNL A   1      32.616  23.515  27.242  1.00  0.00    -0.270 OA
ATOM      6  C   UNL A   1      32.383  24.433  26.457  1.00  0.00     0.251 C 
ATOM      7  H   UNL A   1      30.884  25.155  27.566  1.00  0.00     0.163 HD
BRANCH   6   8
ATOM      8  C   UNL A   1      33.216  24.513  25.217  1.00  0.00     0.067 C 
ATOM      9  C   UNL A   1      34.537  24.769  25.245  1.00  0.00     0.025 C 
ATOM     10  C   UNL A   1      32.694  23.637  24.101  1.00  0.00     0.314 C 
ATOM     11  C   UNL A   1      35.325  23.534  24.974  1.00  0.00     0.019 A 
ATOM     12  O   UNL A   1      33.370  22.351  24.118  1.00  0.00    -0.475 OA
ATOM     13  C   UNL A   1      36.647  23.501  25.429  1.00  0.00     0.032 A 
ATOM     14  C   UNL A   1      34.672  22.347  24.575  1.00  0.00     0.135 A 
ATOM     15  C   UNL A   1      37.280  22.275  25.583  1.00  0.00     0.042 A 
ATOM     16  C   UNL A   1      35.297  21.102  24.764  1.00  0.00     0.026 A 
ATOM     17  Cl  UNL A   1      38.842  22.214  26.300  1.00  0.00    -0.084 Cl
ATOM     18  C   UNL A   1      36.613  21.090  25.272  1.00  0.00     0.033 A 
BRANCH  10  19
ATOM     19  C   UNL A   1      32.781  24.321  22.722  1.00  0.00     0.429 C 
ATOM     20  F   UNL A   1      33.602  25.397  22.747  1.00  0.00    -0.167 F 
ATOM     21  F   UNL A   1      33.270  23.477  21.779  1.00  0.00    -0.167 F 
ATOM     22  F   UNL A   1      31.577  24.750  22.272  1.00  0.00    -0.167 F 
ENDBRANCH  10  19
BRANCH  16  23
ATOM     23  C   UNL A   1      34.590  19.817  24.633  1.00  0.00    -0.015 A 
ATOM     24  C   UNL A   1      35.309  18.607  24.612  1.00  0.00     0.009 A 
ATOM     25  C   UNL A   1      33.209  19.769  24.403  1.00  0.00     0.009 A 
ATOM     26  C   UNL A   1      34.679  17.396  24.318  1.00  0.00     0.001 A 
ATOM     27  C   UNL A   1      32.575  18.555  24.122  1.00  0.00     0.001 A 
ATOM     28  C   UNL A   1      33.312  17.374  24.062  1.00  0.00     0.000 A 
ENDBRANCH  16  23
ENDBRANCH   6   8
ENDBRANCH   3   4
ENDBRANCH   2   3
ENDBRANCH   1   2
BRANCH   1  29
ATOM     29  C   UNL A   1      33.561  29.367  26.727  1.00  0.00     0.116 C 
BRANCH  29  30
ATOM     30  N   UNL A   1      33.557  30.553  27.572  1.00  0.00    -0.352 N 
ATOM     31  C   UNL A   1      34.575  31.010  28.393  1.00  0.00     0.251 C 
ATOM     32  H   UNL A   1      32.734  31.093  27.559  1.00  0.00     0.163 HD
ATOM     33  O   UNL A   1      34.447  32.030  29.049  1.00  0.00    -0.269 OA
BRANCH  31  34
ATOM     34  C   UNL A   1      35.808  30.195  28.507  1.00  0.00     0.039 A 
ATOM     35  C   UNL A   1      36.710  30.185  27.440  1.00  0.00     0.014 A 
ATOM     36  C   UNL A   1      36.127  29.562  29.710  1.00  0.00     0.014 A 
ATOM     37  C   UNL A   1      37.987  29.647  27.624  1.00  0.00     0.010 A 
ATOM     38  C   UNL A   1      37.422  29.082  29.909  1.00  0.00     0.010 A 
ATOM     39  C   UNL A   1      38.378  29.156  28.882  1.00  0.00    -0.014 A 
BRANCH  39  40
ATOM     40  C   UNL A   1      39.797  28.807  29.170  1.00  0.00     0.031 A 
ATOM     41  C   UNL A   1      40.742  29.834  29.732  1.00  0.00     0.074 A 
ATOM     42  C   UNL A   1      40.262  27.587  28.826  1.00  0.00     0.049 A 
ATOM     43  N   UNL A   1      42.026  29.731  29.962  1.00  0.00    -0.248 NA
ATOM     44  C   UNL A   1      40.181  31.156  30.051  1.00  0.00     0.031 C 
ATOM     45  C   UNL A   1      39.469  26.515  28.214  1.00  0.00     0.029 A 
ATOM     46  N   UNL A   1      41.522  27.045  28.920  1.00  0.00    -0.354 N 
ATOM     47  C   UNL A   1      42.433  30.976  30.425  1.00  0.00     0.074 A 
ATOM     48  C   UNL A   1      41.264  31.829  30.418  1.00  0.00     0.031 C 
ATOM     49  C   UNL A   1      40.255  25.446  28.003  1.00  0.00     0.029 A 
ATOM     50  C   UNL A   1      41.614  25.762  28.427  1.00  0.00     0.049 A 
ATOM     51  H   UNL A   1      42.288  27.529  29.304  1.00  0.00     0.167 HD
ATOM     52  C   UNL A   1      43.663  31.369  30.830  1.00  0.00     0.031 A 
ATOM     53  C   UNL A   1      42.672  24.934  28.317  1.00  0.00     0.031 A 
ATOM     54  C   UNL A   1      44.818  30.511  30.873  1.00  0.00     0.049 A 
ATOM     55  C   UNL A   1      44.022  25.392  28.798  1.00  0.00     0.074 A 
ATOM     56  C   UNL A   1      46.080  30.799  31.363  1.00  0.00     0.029 A 
ATOM     57  N   UNL A   1      44.856  29.207  30.410  1.00  0.00    -0.354 N 
ATOM     58  N   UNL A   1      44.359  26.543  29.330  1.00  0.00    -0.248 NA
ATOM     59  C   UNL A   1      45.135  24.437  28.675  1.00  0.00     0.031 C 
ATOM     60  C   UNL A   1      46.896  29.684  31.152  1.00  0.00     0.029 A 
ATOM     61  C   UNL A   1      46.128  28.685  30.578  1.00  0.00     0.049 A 
ATOM     62  H   UNL A   1      44.093  28.722  30.019  1.00  0.00     0.167 HD
ATOM     63  C   UNL A   1      45.711  26.434  29.637  1.00  0.00     0.074 A 
ATOM     64  C   UNL A   1      46.130  25.108  29.240  1.00  0.00     0.031 C 
ATOM     65  C   UNL A   1      46.530  27.355  30.200  1.00  0.00     0.031 A 
BRANCH  52  66
ATOM     66  C   UNL A   1      43.840  32.797  31.271  1.00  0.00    -0.014 A 
ATOM     67  C   UNL A   1      43.755  33.153  32.628  1.00  0.00     0.010 A 
ATOM     68  C   UNL A   1      44.193  33.778  30.325  1.00  0.00     0.010 A 
ATOM     69  C   UNL A   1      44.000  34.469  33.029  1.00  0.00     0.020 A 
ATOM     70  C   UNL A   1      44.461  35.089  30.726  1.00  0.00     0.020 A 
ATOM     71  C   UNL A   1      44.353  35.428  32.076  1.00  0.00     0.054 A 
BRANCH  71  72
ATOM     72  S   UNL A   1      44.723  37.114  32.634  1.00  0.00     0.124 S 
ATOM     73  O   UNL A   1      45.689  36.871  33.702  1.00  0.00    -0.237 OA
ATOM     74  O   UNL A   1      45.263  37.740  31.429  1.00  0.00    -0.237 OA
ATOM     75  O   UNL A   1      43.427  37.627  33.072  1.00  0.00    -0.744 OA
ENDBRANCH  71  72
ENDBRANCH  52  66
BRANCH  53  76
ATOM     76  C   UNL A   1      42.509  23.576  27.726  1.00  0.00    -0.014 A 
ATOM     77  C   UNL A   1      42.116  22.491  28.530  1.00  0.00     0.010 A 
ATOM     78  C   UNL A   1      42.779  23.355  26.363  1.00  0.00     0.010 A 
ATOM     79  C   UNL A   1      42.034  21.203  27.992  1.00  0.00     0.020 A 
ATOM     80  C   UNL A   1      42.670  22.073  25.816  1.00  0.00     0.020 A 
ATOM     81  C   UNL A   1      42.318  21.001  26.639  1.00  0.00     0.054 A 
BRANCH  81  82
ATOM     82  S   UNL A   1      42.193  19.325  25.954  1.00  0.00     0.124 S 
ATOM     83  O   UNL A   1      42.737  18.515  27.039  1.00  0.00    -0.237 OA
ATOM     84  O   UNL A   1      40.758  19.185  25.716  1.00  0.00    -0.237 OA
ATOM     85  O   UNL A   1      43.013  19.391  24.747  1.00  0.00    -0.744 OA
ENDBRANCH  81  82
ENDBRANCH  53  76
BRANCH  65  86
ATOM     86  C   UNL A   1      47.952  26.952  30.475  1.00  0.00    -0.014 A 
ATOM     87  C   UNL A   1      48.982  27.239  29.562  1.00  0.00     0.010 A 
ATOM     88  C   UNL A   1      48.273  26.346  31.704  1.00  0.00     0.010 A 
ATOM     89  C   UNL A   1      50.305  26.911  29.866  1.00  0.00     0.020 A 
ATOM     90  C   UNL A   1      49.598  26.038  32.021  1.00  0.00     0.020 A 
ATOM     91  C   UNL A   1      50.606  26.314  31.095  1.00  0.00     0.054 A 
BRANCH  91  92
ATOM     92  S   UNL A   1      52.339  25.958  31.496  1.00  0.00     0.124 S 
ATOM     93  O   UNL A   1      52.983  26.082  30.191  1.00  0.00    -0.237 OA
ATOM     94  O   UNL A   1      52.667  27.005  32.461  1.00  0.00    -0.237 OA
ATOM     95  O   UNL A   1      52.297  24.605  32.044  1.00  0.00    -0.744 OA
ENDBRANCH  91  92
ENDBRANCH  65  86
ENDBRANCH  39  40
ENDBRANCH  31  34
ENDBRANCH  29  30
ENDBRANCH   1  29
TORSDOF 16
ENDMDL
MODEL 2
REMARK VINA RESULT:     -12.5      0.439      7.983
REMARK SMILES O=C(NCCCCNC(=O)c1ccc(-c2c3nc(c(-c4ccc(S(=O)(=O)[O-])cc4)c4ccc([nH]4)c(-c4ccc(S(=O)(=O)[O-])cc4)c4nc(c(-c5ccc(S(=O)(=O)[O-])cc5)c5ccc2[nH]5)C=C4)C=C3)cc1)C1=Cc2cc(Cl)cc(-c3ccccc3)c2O[C@@H]1C(F)(F)F
REMARK SMILES IDX 6 1 5 2 4 3 3 4 1 5 2 6 71 8 72 9 87 10 73 11 86 12 74 13
REMARK SMILES IDX 85 14 75 15 78 16 76 17 77 18 88 19 89 20 90 21 91 22 79 23
REMARK SMILES IDX 80 24 84 25 81 26 83 27 82 28 7 29 8 30 9 31 10 33 11 34
REMARK SMILES IDX 12 35 70 36 13 37 69 38 14 39 15 40 16 41 63 42 17 43 68 44
REMARK SMILES IDX 62 45 64 46 18 47 67 48 61 49 60 50 19 52 49 53 30 54 48 55
REMARK SMILES IDX 31 56 34 57 47 58 65 59 32 60 33 61 46 63 66 64 35 65 20 66
REMARK SMILES IDX 21 67 29 68 22 69 28 70 23 71 24 72 25 73 26 74 27 75 50 76
REMARK SMILES IDX 51 77 59 78 52 79 58 80 53 81 54 82 55 83 56 84 57 85 36 86
REMARK SMILES IDX 37 87 45 88 38 89 44 90 39 91 40 92 41 93 42 94 43 95
REMARK H PARENT 3 7 8 32 64 51 34 62
REMARK Flexibility Score: inf
ROOT
ATOM      1  C   UNL A   1      32.433  28.013  27.404  1.00  0.00     0.023 C 
ENDROOT
BRANCH   1   2
ATOM      2  C   UNL A   1      31.191  27.853  26.531  1.00  0.00     0.023 C 
BRANCH   2   3
ATOM      3  C   UNL A   1      30.979  26.493  25.878  1.00  0.00     0.116 C 
BRANCH   3   4
ATOM      4  N   UNL A   1      31.413  25.333  26.637  1.00  0.00    -0.352 N 
ATOM      5  O   UNL A   1      32.764  23.649  27.263  1.00  0.00    -0.270 OA
ATOM      6  C   UNL A   1      32.453  24.471  26.402  1.00  0.00     0.251 C 
ATOM      7  H   UNL A   1      30.881  25.137  27.443  1.00  0.00     0.163 HD
BRANCH   6   8
ATOM      8  C   UNL A   1      33.288  24.526  25.162  1.00  0.00     0.067 C 
ATOM      9  C   UNL A   1      34.612  24.763  25.188  1.00  0.00     0.025 C 
ATOM     10  C   UNL A   1      32.754  23.645  24.055  1.00  0.00     0.314 C 
ATOM     11  C   UNL A   1      35.383  23.514  24.930  1.00  0.00     0.019 A 
ATOM     12  O   UNL A   1      33.411  22.350  24.087  1.00  0.00    -0.475 OA
ATOM     13  C   UNL A   1      36.704  23.468  25.387  1.00  0.00     0.032 A 
ATOM     14  C   UNL A   1      34.713  22.333  24.544  1.00  0.00     0.135 A 
ATOM     15  C   UNL A   1      37.319  22.235  25.554  1.00  0.00     0.042 A 
ATOM     16  C   UNL A   1      35.321  21.081  24.747  1.00  0.00     0.026 A 
ATOM     17  Cl  UNL A   1      38.880  22.160  26.273  1.00  0.00    -0.084 Cl
ATOM     18  C   UNL A   1      36.636  21.056  25.256  1.00  0.00     0.033 A 
BRANCH  10  19
ATOM     19  C   UNL A   1      32.851  24.313  22.669  1.00  0.00     0.429 C 
ATOM     20  F   UNL A   1      31.681  24.889  22.306  1.00  0.00    -0.167 F 
ATOM     21  F   UNL A   1      33.791  25.291  22.654  1.00  0.00    -0.167 F 
ATOM     22  F   UNL A   1      33.185  23.439  21.687  1.00  0.00    -0.167 F 
ENDBRANCH  10  19
BRANCH  16  23
ATOM     23  C   UNL A   1      34.596  19.805  24.630  1.00  0.00    -0.015 A 
ATOM     24  C   UNL A   1      35.300  18.587  24.576  1.00  0.00     0.009 A 
ATOM     25  C   UNL A   1      33.207  19.773  24.445  1.00  0.00     0.009 A 
ATOM     26  C   UNL A   1      34.647  17.386  24.294  1.00  0.00     0.001 A 
ATOM     27  C   UNL A   1      32.551  18.569  24.175  1.00  0.00     0.001 A 
ATOM     28  C   UNL A   1      33.273  17.380  24.083  1.00  0.00     0.000 A 
ENDBRANCH  16  23
ENDBRANCH   6   8
ENDBRANCH   3   4
ENDBRANCH   2   3
ENDBRANCH   1   2
BRANCH   1  29
ATOM     29  C   UNL A   1      33.496  29.015  26.951  1.00  0.00     0.116 C 
BRANCH  29  30
ATOM     30  N   UNL A   1      33.519  30.283  27.666  1.00  0.00    -0.352 N 
ATOM     31  C   UNL A   1      34.592  30.865  28.322  1.00  0.00     0.251 C 
ATOM     32  H   UNL A   1      32.673  30.786  27.687  1.00  0.00     0.163 HD
ATOM     33  O   UNL A   1      34.481  31.943  28.881  1.00  0.00    -0.269 OA
BRANCH  31  34
ATOM     34  C   UNL A   1      35.870  30.116  28.384  1.00  0.00     0.039 A 
ATOM     35  C   UNL A   1      36.743  30.182  27.296  1.00  0.00     0.014 A 
ATOM     36  C   UNL A   1      36.254  29.471  29.562  1.00  0.00     0.014 A 
ATOM     37  C   UNL A   1      38.052  29.710  27.434  1.00  0.00     0.010 A 
ATOM     38  C   UNL A   1      37.578  29.058  29.717  1.00  0.00     0.010 A 
ATOM     39  C   UNL A   1      38.501  29.210  28.669  1.00  0.00    -0.014 A 
BRANCH  39  40
ATOM     40  C   UNL A   1      39.943  28.932  28.913  1.00  0.00     0.031 A 
ATOM     41  C   UNL A   1      40.545  27.605  28.540  1.00  0.00     0.074 A 
ATOM     42  C   UNL A   1      40.692  29.845  29.571  1.00  0.00     0.049 A 
ATOM     43  N   UNL A   1      41.757  27.161  28.758  1.00  0.00    -0.248 NA
ATOM     44  C   UNL A   1      39.667  26.640  27.860  1.00  0.00     0.031 C 
ATOM     45  C   UNL A   1      40.218  31.149  30.047  1.00  0.00     0.029 A 
ATOM     46  N   UNL A   1      42.005  29.810  29.974  1.00  0.00    -0.354 N 
ATOM     47  C   UNL A   1      41.781  25.861  28.269  1.00  0.00     0.074 A 
ATOM     48  C   UNL A   1      40.454  25.576  27.767  1.00  0.00     0.031 C 
ATOM     49  C   UNL A   1      41.226  31.790  30.661  1.00  0.00     0.029 A 
ATOM     50  C   UNL A   1      42.407  30.935  30.658  1.00  0.00     0.049 A 
ATOM     51  H   UNL A   1      42.603  29.049  29.791  1.00  0.00     0.167 HD
ATOM     52  C   UNL A   1      42.816  24.989  28.231  1.00  0.00     0.031 A 
ATOM     53  C   UNL A   1      43.589  31.243  31.230  1.00  0.00     0.031 A 
ATOM     54  C   UNL A   1      44.146  25.285  28.695  1.00  0.00     0.049 A 
ATOM     55  C   UNL A   1      44.727  30.263  31.150  1.00  0.00     0.074 A 
ATOM     56  C   UNL A   1      45.280  24.496  28.604  1.00  0.00     0.029 A 
ATOM     57  N   UNL A   1      44.522  26.452  29.338  1.00  0.00    -0.354 N 
ATOM     58  N   UNL A   1      44.753  29.078  30.588  1.00  0.00    -0.248 NA
ATOM     59  C   UNL A   1      46.000  30.663  31.771  1.00  0.00     0.031 C 
ATOM     60  C   UNL A   1      46.331  25.166  29.235  1.00  0.00     0.029 A 
ATOM     61  C   UNL A   1      45.865  26.394  29.673  1.00  0.00     0.049 A 
ATOM     62  H   UNL A   1      43.924  27.211  29.529  1.00  0.00     0.167 HD
ATOM     63  C   UNL A   1      46.053  28.610  30.757  1.00  0.00     0.074 A 
ATOM     64  C   UNL A   1      46.784  29.638  31.464  1.00  0.00     0.031 C 
ATOM     65  C   UNL A   1      46.589  27.432  30.357  1.00  0.00     0.031 A 
BRANCH  52  66
ATOM     66  C   UNL A   1      42.567  23.619  27.659  1.00  0.00    -0.014 A 
ATOM     67  C   UNL A   1      42.778  23.352  26.296  1.00  0.00     0.010 A 
ATOM     68  C   UNL A   1      42.211  22.563  28.519  1.00  0.00     0.010 A 
ATOM     69  C   UNL A   1      42.617  22.057  25.797  1.00  0.00     0.020 A 
ATOM     70  C   UNL A   1      42.073  21.262  28.028  1.00  0.00     0.020 A 
ATOM     71  C   UNL A   1      42.268  21.020  26.667  1.00  0.00     0.054 A 
BRANCH  71  72
ATOM     72  S   UNL A   1      42.125  19.337  26.002  1.00  0.00     0.124 S 
ATOM     73  O   UNL A   1      42.947  19.421  24.798  1.00  0.00    -0.237 OA
ATOM     74  O   UNL A   1      42.673  18.519  27.081  1.00  0.00    -0.237 OA
ATOM     75  O   UNL A   1      40.692  19.178  25.768  1.00  0.00    -0.744 OA
ENDBRANCH  71  72
ENDBRANCH  52  66
BRANCH  53  76
ATOM     76  C   UNL A   1      43.769  32.543  31.935  1.00  0.00    -0.014 A 
ATOM     77  C   UNL A   1      44.267  33.664  31.247  1.00  0.00     0.010 A 
ATOM     78  C   UNL A   1      43.475  32.658  33.306  1.00  0.00     0.010 A 
ATOM     79  C   UNL A   1      44.506  34.864  31.924  1.00  0.00     0.020 A 
ATOM     80  C   UNL A   1      43.686  33.864  33.980  1.00  0.00     0.020 A 
ATOM     81  C   UNL A   1      44.219  34.954  33.289  1.00  0.00     0.054 A 
BRANCH  81  82
ATOM     82  S   UNL A   1      44.522  36.523  34.149  1.00  0.00     0.124 S 
ATOM     83  O   UNL A   1      45.566  37.123  33.325  1.00  0.00    -0.237 OA
ATOM     84  O   UNL A   1      43.215  37.175  34.090  1.00  0.00    -0.237 OA
ATOM     85  O   UNL A   1      44.940  36.102  35.485  1.00  0.00    -0.744 OA
ENDBRANCH  81  82
ENDBRANCH  53  76
BRANCH  65  86
ATOM     86  C   UNL A   1      48.051  27.203  30.624  1.00  0.00    -0.014 A 
ATOM     87  C   UNL A   1      48.488  26.561  31.796  1.00  0.00     0.010 A 
ATOM     88  C   UNL A   1      48.997  27.566  29.647  1.00  0.00     0.010 A 
ATOM     89  C   UNL A   1      49.847  26.303  31.994  1.00  0.00     0.020 A 
ATOM     90  C   UNL A   1      50.353  27.288  29.830  1.00  0.00     0.020 A 
ATOM     91  C   UNL A   1      50.771  26.666  31.008  1.00  0.00     0.054 A 
BRANCH  91  92
ATOM     92  S   UNL A   1      52.522  26.260  31.257  1.00  0.00     0.124 S 
ATOM     93  O   UNL A   1      52.442  24.933  31.860  1.00  0.00    -0.237 OA
ATOM     94  O   UNL A   1      53.058  26.302  29.898  1.00  0.00    -0.237 OA
ATOM     95  O   UNL A   1      53.000  27.320  32.142  1.00  0.00    -0.744 OA
ENDBRANCH  91  92
ENDBRANCH  65  86
ENDBRANCH  39  40
ENDBRANCH  31  34
ENDBRANCH  29  30
ENDBRANCH   1  29
TORSDOF 16
ENDMDL
MODEL 3
REMARK VINA RESULT:     -12.4      3.154      9.635
REMARK SMILES O=C(NCCCCNC(=O)c1ccc(-c2c3nc(c(-c4ccc(S(=O)(=O)[O-])cc4)c4ccc([nH]4)c(-c4ccc(S(=O)(=O)[O-])cc4)c4nc(c(-c5ccc(S(=O)(=O)[O-])cc5)c5ccc2[nH]5)C=C4)C=C3)cc1)C1=Cc2cc(Cl)cc(-c3ccccc3)c2O[C@@H]1C(F)(F)F
REMARK SMILES IDX 6 1 5 2 4 3 3 4 1 5 2 6 71 8 72 9 87 10 73 11 86 12 74 13
REMARK SMILES IDX 85 14 75 15 78 16 76 17 77 18 88 19 89 20 90 21 91 22 79 23
REMARK SMILES IDX 80 24 84 25 81 26 83 27 82 28 7 29 8 30 9 31 10 33 11 34
REMARK SMILES IDX 12 35 70 36 13 37 69 38 14 39 15 40 16 41 63 42 17 43 68 44
REMARK SMILES IDX 62 45 64 46 18 47 67 48 61 49 60 50 19 52 49 53 30 54 48 55
REMARK SMILES IDX 31 56 34 57 47 58 65 59 32 60 33 61 46 63 66 64 35 65 20 66
REMARK SMILES IDX 21 67 29 68 22 69 28 70 23 71 24 72 25 73 26 74 27 75 50 76
REMARK SMILES IDX 51 77 59 78 52 79 58 80 53 81 54 82 55 83 56 84 57 85 36 86
REMARK SMILES IDX 37 87 45 88 38 89 44 90 39 91 40 92 41 93 42 94 43 95
REMARK H PARENT 3 7 8 32 64 51 34 62
REMARK Flexibility Score: inf
ROOT
ATOM      1  C   UNL A   1      36.667  23.022  24.268  1.00  0.00     0.023 C 
ENDROOT
BRANCH   1   2
ATOM      2  C   UNL A   1      35.440  22.196  23.891  1.00  0.00     0.023 C 
BRANCH   2   3
ATOM      3  C   UNL A   1      34.108  22.932  23.826  1.00  0.00     0.116 C 
BRANCH   3   4
ATOM      4  N   UNL A   1      34.111  24.223  23.159  1.00  0.00    -0.352 N 
ATOM      5  O   UNL A   1      33.916  26.452  22.952  1.00  0.00    -0.270 OA
ATOM      6  C   UNL A   1      33.664  25.440  23.605  1.00  0.00     0.251 C 
ATOM      7  H   UNL A   1      34.491  24.223  22.250  1.00  0.00     0.163 HD
BRANCH   6   8
ATOM      8  C   UNL A   1      32.935  25.612  24.899  1.00  0.00     0.067 C 
ATOM      9  C   UNL A   1      33.469  26.257  25.952  1.00  0.00     0.025 C 
ATOM     10  C   UNL A   1      31.434  25.673  24.725  1.00  0.00     0.314 C 
ATOM     11  C   UNL A   1      32.856  27.605  26.119  1.00  0.00     0.019 A 
ATOM     12  O   UNL A   1      30.998  27.056  24.634  1.00  0.00    -0.475 OA
ATOM     13  C   UNL A   1      33.593  28.566  26.818  1.00  0.00     0.032 A 
ATOM     14  C   UNL A   1      31.746  27.983  25.332  1.00  0.00     0.135 A 
ATOM     15  C   UNL A   1      33.286  29.909  26.651  1.00  0.00     0.042 A 
ATOM     16  C   UNL A   1      31.456  29.345  25.132  1.00  0.00     0.026 A 
ATOM     17  Cl  UNL A   1      34.293  31.102  27.373  1.00  0.00    -0.084 Cl
ATOM     18  C   UNL A   1      32.245  30.298  25.809  1.00  0.00     0.033 A 
BRANCH  10  19
ATOM     19  C   UNL A   1      30.679  24.897  25.822  1.00  0.00     0.429 C 
ATOM     20  F   UNL A   1      30.298  23.670  25.397  1.00  0.00    -0.167 F 
ATOM     21  F   UNL A   1      31.455  24.708  26.919  1.00  0.00    -0.167 F 
ATOM     22  F   UNL A   1      29.561  25.537  26.243  1.00  0.00    -0.167 F 
ENDBRANCH  10  19
BRANCH  16  23
ATOM     23  C   UNL A   1      30.500  29.825  24.120  1.00  0.00    -0.015 A 
ATOM     24  C   UNL A   1      30.506  29.287  22.821  1.00  0.00     0.009 A 
ATOM     25  C   UNL A   1      29.649  30.907  24.383  1.00  0.00     0.009 A 
ATOM     26  C   UNL A   1      29.729  29.843  21.803  1.00  0.00     0.001 A 
ATOM     27  C   UNL A   1      28.860  31.457  23.368  1.00  0.00     0.001 A 
ATOM     28  C   UNL A   1      28.914  30.936  22.076  1.00  0.00     0.000 A 
ENDBRANCH  16  23
ENDBRANCH   6   8
ENDBRANCH   3   4
ENDBRANCH   2   3
ENDBRANCH   1   2
BRANCH   1  29
ATOM     29  C   UNL A   1      37.180  22.915  25.705  1.00  0.00     0.116 C 
BRANCH  29  30
ATOM     30  N   UNL A   1      38.464  22.250  25.874  1.00  0.00    -0.352 N 
ATOM     31  C   UNL A   1      39.617  22.767  26.442  1.00  0.00     0.251 C 
ATOM     32  H   UNL A   1      38.520  21.324  25.544  1.00  0.00     0.163 HD
ATOM     33  O   UNL A   1      40.632  22.098  26.530  1.00  0.00    -0.269 OA
BRANCH  31  34
ATOM     34  C   UNL A   1      39.609  24.181  26.889  1.00  0.00     0.039 A 
ATOM     35  C   UNL A   1      39.149  24.480  28.173  1.00  0.00     0.014 A 
ATOM     36  C   UNL A   1      40.180  25.176  26.091  1.00  0.00     0.014 A 
ATOM     37  C   UNL A   1      39.377  25.752  28.707  1.00  0.00     0.010 A 
ATOM     38  C   UNL A   1      40.461  26.423  26.649  1.00  0.00     0.010 A 
ATOM     39  C   UNL A   1      40.098  26.711  27.975  1.00  0.00    -0.014 A 
BRANCH  39  40
ATOM     40  C   UNL A   1      40.566  27.976  28.608  1.00  0.00     0.031 A 
ATOM     41  C   UNL A   1      41.945  28.075  29.202  1.00  0.00     0.074 A 
ATOM     42  C   UNL A   1      39.705  29.008  28.740  1.00  0.00     0.049 A 
ATOM     43  N   UNL A   1      42.485  29.065  29.866  1.00  0.00    -0.248 NA
ATOM     44  C   UNL A   1      42.821  26.902  29.057  1.00  0.00     0.031 C 
ATOM     45  C   UNL A   1      38.317  29.024  28.266  1.00  0.00     0.029 A 
ATOM     46  N   UNL A   1      39.859  30.239  29.333  1.00  0.00    -0.354 N 
ATOM     47  C   UNL A   1      43.749  28.628  30.241  1.00  0.00     0.074 A 
ATOM     48  C   UNL A   1      43.887  27.272  29.754  1.00  0.00     0.031 C 
ATOM     49  C   UNL A   1      37.756  30.206  28.572  1.00  0.00     0.029 A 
ATOM     50  C   UNL A   1      38.726  31.021  29.295  1.00  0.00     0.049 A 
ATOM     51  H   UNL A   1      40.703  30.534  29.746  1.00  0.00     0.167 HD
ATOM     52  C   UNL A   1      44.711  29.299  30.918  1.00  0.00     0.031 A 
ATOM     53  C   UNL A   1      38.487  32.249  29.796  1.00  0.00     0.031 A 
ATOM     54  C   UNL A   1      44.589  30.660  31.369  1.00  0.00     0.049 A 
ATOM     55  C   UNL A   1      39.584  32.979  30.522  1.00  0.00     0.074 A 
ATOM     56  C   UNL A   1      45.550  31.451  31.975  1.00  0.00     0.029 A 
ATOM     57  N   UNL A   1      43.443  31.431  31.270  1.00  0.00    -0.354 N 
ATOM     58  N   UNL A   1      40.809  32.582  30.773  1.00  0.00    -0.248 NA
ATOM     59  C   UNL A   1      39.272  34.326  31.025  1.00  0.00     0.031 C 
ATOM     60  C   UNL A   1      44.971  32.684  32.286  1.00  0.00     0.029 A 
ATOM     61  C   UNL A   1      43.665  32.679  31.827  1.00  0.00     0.049 A 
ATOM     62  H   UNL A   1      42.596  31.135  30.863  1.00  0.00     0.167 HD
ATOM     63  C   UNL A   1      41.421  33.645  31.429  1.00  0.00     0.074 A 
ATOM     64  C   UNL A   1      40.439  34.702  31.530  1.00  0.00     0.031 C 
ATOM     65  C   UNL A   1      42.687  33.733  31.903  1.00  0.00     0.031 A 
BRANCH  52  66
ATOM     66  C   UNL A   1      45.999  28.580  31.216  1.00  0.00    -0.014 A 
ATOM     67  C   UNL A   1      47.089  28.646  30.331  1.00  0.00     0.010 A 
ATOM     68  C   UNL A   1      46.151  27.909  32.445  1.00  0.00     0.010 A 
ATOM     69  C   UNL A   1      48.303  28.038  30.661  1.00  0.00     0.020 A 
ATOM     70  C   UNL A   1      47.371  27.320  32.787  1.00  0.00     0.020 A 
ATOM     71  C   UNL A   1      48.437  27.381  31.887  1.00  0.00     0.054 A 
BRANCH  71  72
ATOM     72  S   UNL A   1      50.043  26.652  32.313  1.00  0.00     0.124 S 
ATOM     73  O   UNL A   1      49.941  26.529  33.764  1.00  0.00    -0.237 OA
ATOM     74  O   UNL A   1      50.030  25.392  31.573  1.00  0.00    -0.237 OA
ATOM     75  O   UNL A   1      51.009  27.641  31.839  1.00  0.00    -0.744 OA
ENDBRANCH  71  72
ENDBRANCH  52  66
BRANCH  53  76
ATOM     76  C   UNL A   1      37.148  32.883  29.630  1.00  0.00    -0.014 A 
ATOM     77  C   UNL A   1      36.834  33.589  28.455  1.00  0.00     0.010 A 
ATOM     78  C   UNL A   1      36.194  32.813  30.661  1.00  0.00     0.010 A 
ATOM     79  C   UNL A   1      35.606  34.246  28.328  1.00  0.00     0.020 A 
ATOM     80  C   UNL A   1      34.954  33.445  30.527  1.00  0.00     0.020 A 
ATOM     81  C   UNL A   1      34.676  34.175  29.369  1.00  0.00     0.054 A 
BRANCH  81  82
ATOM     82  S   UNL A   1      33.082  35.022  29.183  1.00  0.00     0.124 S 
ATOM     83  O   UNL A   1      33.497  36.358  28.768  1.00  0.00    -0.237 OA
ATOM     84  O   UNL A   1      32.414  34.220  28.160  1.00  0.00    -0.237 OA
ATOM     85  O   UNL A   1      32.494  34.932  30.517  1.00  0.00    -0.744 OA
ENDBRANCH  81  82
ENDBRANCH  53  76
BRANCH  65  86
ATOM     86  C   UNL A   1      43.111  35.033  32.529  1.00  0.00    -0.014 A 
ATOM     87  C   UNL A   1      43.606  36.092  31.748  1.00  0.00     0.010 A 
ATOM     88  C   UNL A   1      42.936  35.223  33.912  1.00  0.00     0.010 A 
ATOM     89  C   UNL A   1      43.936  37.312  32.343  1.00  0.00     0.020 A 
ATOM     90  C   UNL A   1      43.242  36.449  34.507  1.00  0.00     0.020 A 
ATOM     91  C   UNL A   1      43.750  37.485  33.719  1.00  0.00     0.054 A 
BRANCH  91  92
ATOM     92  S   UNL A   1      44.121  39.099  34.458  1.00  0.00     0.124 S 
ATOM     93  O   UNL A   1      43.038  39.928  33.936  1.00  0.00    -0.237 OA
ATOM     94  O   UNL A   1      44.062  38.818  35.891  1.00  0.00    -0.237 OA
ATOM     95  O   UNL A   1      45.452  39.416  33.947  1.00  0.00    -0.744 OA
ENDBRANCH  91  92
ENDBRANCH  65  86
ENDBRANCH  39  40
ENDBRANCH  31  34
ENDBRANCH  29  30
ENDBRANCH   1  29
TORSDOF 16
ENDMDL
