MODEL 1
REMARK VINA RESULT:     -12.4      0.000      0.000
REMARK SMILES C[C@@H](C(=O)NCCCCNC(=O)c1ccc(-c2c3nc(c(-c4ccc(S(=O)(=O)[O-])cc4)c4ccc([nH]4)c(-c4ccc(S(=O)(=O)[O-])cc4)c4nc(c(-c5ccc(S(=O)(=O)[O-])cc5)c5ccc2[nH]5)C=C4)C=C3)cc1)c1ccc2c3cc(Cl)ccc3n(C(=O)c3ccc(Cl)cc3)c2c1
REMARK SMILES IDX 7 1 6 2 5 3 3 4 4 5 2 7 1 8 73 9 74 10 95 11 75 12 94 13
REMARK SMILES IDX 76 14 84 15 77 16 83 17 78 18 82 19 79 20 81 21 80 22 85 23
REMARK SMILES IDX 86 24 87 25 88 26 93 27 89 28 92 29 90 30 91 31 8 32 9 33
REMARK SMILES IDX 10 34 11 35 12 37 13 38 14 39 72 40 15 41 71 42 16 43 17 44
REMARK SMILES IDX 18 45 65 46 19 47 70 48 64 49 66 50 20 51 69 52 63 53 62 54
REMARK SMILES IDX 21 56 51 57 32 58 50 59 33 60 36 61 49 62 67 63 34 64 35 65
REMARK SMILES IDX 48 67 68 68 37 69 22 70 23 71 31 72 24 73 30 74 25 75 26 76
REMARK SMILES IDX 27 77 28 78 29 79 52 80 53 81 61 82 54 83 60 84 55 85 56 86
REMARK SMILES IDX 57 87 58 88 59 89 38 90 39 91 47 92 40 93 46 94 41 95 42 96
REMARK SMILES IDX 43 97 44 98 45 99
REMARK H PARENT 5 6 10 36 66 55 36 66
REMARK Flexibility Score: inf
ROOT
ATOM      1  C   UNL A   1      31.512  27.899  26.669  1.00  0.00     0.023 C 
ENDROOT
BRANCH   1   2
ATOM      2  C   UNL A   1      30.691  27.073  25.673  1.00  0.00     0.116 C 
BRANCH   2   3
ATOM      3  N   UNL A   1      30.483  27.815  24.450  1.00  0.00    -0.356 N 
ATOM      4  C   UNL A   1      30.799  27.479  23.166  1.00  0.00     0.227 C 
ATOM      5  O   UNL A   1      30.902  28.423  22.384  1.00  0.00    -0.274 OA
ATOM      6  H   UNL A   1      30.049  28.692  24.559  1.00  0.00     0.163 HD
BRANCH   4   7
ATOM      7  C   UNL A   1      31.001  26.000  22.798  1.00  0.00     0.105 C 
ATOM      8  C   UNL A   1      29.887  25.137  23.405  1.00  0.00     0.023 C 
BRANCH   7   9
ATOM      9  C   UNL A   1      32.343  25.352  23.161  1.00  0.00    -0.034 A 
ATOM     10  C   UNL A   1      33.478  26.059  23.547  1.00  0.00     0.005 A 
ATOM     11  C   UNL A   1      32.388  23.942  23.200  1.00  0.00     0.032 A 
ATOM     12  C   UNL A   1      34.599  25.407  24.065  1.00  0.00     0.011 A 
ATOM     13  C   UNL A   1      33.529  23.277  23.700  1.00  0.00     0.057 A 
ATOM     14  C   UNL A   1      34.605  24.006  24.184  1.00  0.00     0.008 A 
ATOM     15  N   UNL A   1      33.804  21.909  23.869  1.00  0.00    -0.276 N 
ATOM     16  C   UNL A   1      35.536  23.088  24.725  1.00  0.00     0.009 A 
ATOM     17  C   UNL A   1      35.085  21.793  24.435  1.00  0.00     0.057 A 
ATOM     18  C   UNL A   1      36.760  23.284  25.398  1.00  0.00     0.031 A 
ATOM     19  C   UNL A   1      35.935  20.694  24.666  1.00  0.00     0.029 A 
ATOM     20  C   UNL A   1      37.557  22.186  25.693  1.00  0.00     0.041 A 
ATOM     21  C   UNL A   1      37.167  20.912  25.305  1.00  0.00     0.023 A 
ATOM     22  Cl  UNL A   1      39.056  22.424  26.505  1.00  0.00    -0.084 Cl
BRANCH  15  23
ATOM     23  C   UNL A   1      32.901  20.885  23.465  1.00  0.00     0.262 C 
ATOM     24  O   UNL A   1      32.037  21.223  22.651  1.00  0.00    -0.268 OA
BRANCH  23  25
ATOM     25  C   UNL A   1      32.805  19.462  23.909  1.00  0.00     0.040 A 
ATOM     26  C   UNL A   1      32.673  19.241  25.297  1.00  0.00     0.015 A 
ATOM     27  C   UNL A   1      32.984  18.354  23.077  1.00  0.00     0.015 A 
ATOM     28  C   UNL A   1      32.698  17.954  25.839  1.00  0.00     0.021 A 
ATOM     29  C   UNL A   1      32.974  17.057  23.618  1.00  0.00     0.021 A 
ATOM     30  C   UNL A   1      32.839  16.863  24.993  1.00  0.00     0.041 A 
ATOM     31  Cl  UNL A   1      32.879  15.276  25.652  1.00  0.00    -0.084 Cl
ENDBRANCH  23  25
ENDBRANCH  15  23
ENDBRANCH   7   9
ENDBRANCH   4   7
ENDBRANCH   2   3
ENDBRANCH   1   2
BRANCH   1  32
ATOM     32  C   UNL A   1      32.981  27.483  26.790  1.00  0.00     0.023 C 
BRANCH  32  33
ATOM     33  C   UNL A   1      33.981  28.538  26.346  1.00  0.00     0.116 C 
BRANCH  33  34
ATOM     34  N   UNL A   1      33.734  29.828  26.969  1.00  0.00    -0.352 N 
ATOM     35  C   UNL A   1      34.521  30.517  27.862  1.00  0.00     0.251 C 
ATOM     36  H   UNL A   1      32.889  30.266  26.718  1.00  0.00     0.163 HD
ATOM     37  O   UNL A   1      34.089  31.516  28.415  1.00  0.00    -0.269 OA
BRANCH  35  38
ATOM     38  C   UNL A   1      35.878  30.014  28.160  1.00  0.00     0.039 A 
ATOM     39  C   UNL A   1      36.858  30.095  27.170  1.00  0.00     0.014 A 
ATOM     40  C   UNL A   1      36.184  29.488  29.419  1.00  0.00     0.014 A 
ATOM     41  C   UNL A   1      38.165  29.702  27.464  1.00  0.00     0.010 A 
ATOM     42  C   UNL A   1      37.501  29.170  29.732  1.00  0.00     0.010 A 
ATOM     43  C   UNL A   1      38.504  29.268  28.755  1.00  0.00    -0.014 A 
BRANCH  43  44
ATOM     44  C   UNL A   1      39.901  28.904  29.103  1.00  0.00     0.031 A 
ATOM     45  C   UNL A   1      40.801  29.915  29.762  1.00  0.00     0.074 A 
ATOM     46  C   UNL A   1      40.376  27.688  28.772  1.00  0.00     0.049 A 
ATOM     47  N   UNL A   1      42.061  29.804  30.093  1.00  0.00    -0.248 NA
ATOM     48  C   UNL A   1      40.213  31.231  30.067  1.00  0.00     0.031 C 
ATOM     49  C   UNL A   1      39.615  26.634  28.095  1.00  0.00     0.029 A 
ATOM     50  N   UNL A   1      41.618  27.131  28.956  1.00  0.00    -0.354 N 
ATOM     51  C   UNL A   1      42.421  31.035  30.627  1.00  0.00     0.074 A 
ATOM     52  C   UNL A   1      41.262  31.895  30.529  1.00  0.00     0.031 C 
ATOM     53  C   UNL A   1      40.396  25.553  27.947  1.00  0.00     0.029 A 
ATOM     54  C   UNL A   1      41.724  25.847  28.476  1.00  0.00     0.049 A 
ATOM     55  H   UNL A   1      42.361  27.607  29.391  1.00  0.00     0.167 HD
ATOM     56  C   UNL A   1      43.603  31.411  31.171  1.00  0.00     0.031 A 
ATOM     57  C   UNL A   1      42.774  25.004  28.457  1.00  0.00     0.031 A 
ATOM     58  C   UNL A   1      44.751  30.549  31.274  1.00  0.00     0.049 A 
ATOM     59  C   UNL A   1      44.083  25.449  29.050  1.00  0.00     0.074 A 
ATOM     60  C   UNL A   1      45.977  30.818  31.856  1.00  0.00     0.029 A 
ATOM     61  N   UNL A   1      44.817  29.255  30.781  1.00  0.00    -0.354 N 
ATOM     62  N   UNL A   1      44.384  26.595  29.614  1.00  0.00    -0.248 NA
ATOM     63  C   UNL A   1      45.190  24.483  29.018  1.00  0.00     0.031 C 
ATOM     64  C   UNL A   1      46.803  29.705  31.665  1.00  0.00     0.029 A 
ATOM     65  C   UNL A   1      46.071  28.721  31.022  1.00  0.00     0.049 A 
ATOM     66  H   UNL A   1      44.081  28.785  30.326  1.00  0.00     0.167 HD
ATOM     67  C   UNL A   1      45.706  26.478  30.027  1.00  0.00     0.074 A 
ATOM     68  C   UNL A   1      46.141  25.144  29.664  1.00  0.00     0.031 C 
ATOM     69  C   UNL A   1      46.490  27.391  30.652  1.00  0.00     0.031 A 
BRANCH  56  70
ATOM     70  C   UNL A   1      43.715  32.821  31.689  1.00  0.00    -0.014 A 
ATOM     71  C   UNL A   1      43.205  33.176  32.951  1.00  0.00     0.010 A 
ATOM     72  C   UNL A   1      44.372  33.799  30.919  1.00  0.00     0.010 A 
ATOM     73  C   UNL A   1      43.309  34.490  33.415  1.00  0.00     0.020 A 
ATOM     74  C   UNL A   1      44.506  35.108  31.393  1.00  0.00     0.020 A 
ATOM     75  C   UNL A   1      43.959  35.448  32.631  1.00  0.00     0.054 A 
BRANCH  75  76
ATOM     76  S   UNL A   1      44.098  37.141  33.268  1.00  0.00     0.124 S 
ATOM     77  O   UNL A   1      43.841  37.935  32.069  1.00  0.00    -0.237 OA
ATOM     78  O   UNL A   1      43.052  37.186  34.286  1.00  0.00    -0.237 OA
ATOM     79  O   UNL A   1      45.464  37.209  33.779  1.00  0.00    -0.744 OA
ENDBRANCH  75  76
ENDBRANCH  56  70
BRANCH  57  80
ATOM     80  C   UNL A   1      42.627  23.645  27.863  1.00  0.00    -0.014 A 
ATOM     81  C   UNL A   1      42.184  22.566  28.648  1.00  0.00     0.010 A 
ATOM     82  C   UNL A   1      42.917  23.426  26.504  1.00  0.00     0.010 A 
ATOM     83  C   UNL A   1      42.052  21.291  28.092  1.00  0.00     0.020 A 
ATOM     84  C   UNL A   1      42.758  22.159  25.936  1.00  0.00     0.020 A 
ATOM     85  C   UNL A   1      42.338  21.096  26.738  1.00  0.00     0.054 A 
BRANCH  85  86
ATOM     86  S   UNL A   1      42.113  19.442  26.027  1.00  0.00     0.124 S 
ATOM     87  O   UNL A   1      40.671  19.401  25.805  1.00  0.00    -0.237 OA
ATOM     88  O   UNL A   1      42.937  19.503  24.822  1.00  0.00    -0.237 OA
ATOM     89  O   UNL A   1      42.614  18.549  27.070  1.00  0.00    -0.744 OA
ENDBRANCH  85  86
ENDBRANCH  57  80
BRANCH  69  90
ATOM     90  C   UNL A   1      47.889  26.971  31.018  1.00  0.00    -0.014 A 
ATOM     91  C   UNL A   1      48.164  26.325  32.236  1.00  0.00     0.010 A 
ATOM     92  C   UNL A   1      48.936  27.177  30.100  1.00  0.00     0.010 A 
ATOM     93  C   UNL A   1      49.466  25.921  32.544  1.00  0.00     0.020 A 
ATOM     94  C   UNL A   1      50.233  26.748  30.390  1.00  0.00     0.020 A 
ATOM     95  C   UNL A   1      50.492  26.135  31.617  1.00  0.00     0.054 A 
BRANCH  95  96
ATOM     96  S   UNL A   1      52.165  25.562  32.021  1.00  0.00     0.124 S 
ATOM     97  O   UNL A   1      51.949  24.139  32.268  1.00  0.00    -0.237 OA
ATOM     98  O   UNL A   1      52.914  25.883  30.808  1.00  0.00    -0.237 OA
ATOM     99  O   UNL A   1      52.528  26.350  33.197  1.00  0.00    -0.744 OA
ENDBRANCH  95  96
ENDBRANCH  69  90
ENDBRANCH  43  44
ENDBRANCH  35  38
ENDBRANCH  33  34
ENDBRANCH  32  33
ENDBRANCH   1  32
TORSDOF 17
ENDMDL
MODEL 2
REMARK VINA RESULT:     -12.2      4.148      5.898
REMARK SMILES C[C@@H](C(=O)NCCCCNC(=O)c1ccc(-c2c3nc(c(-c4ccc(S(=O)(=O)[O-])cc4)c4ccc([nH]4)c(-c4ccc(S(=O)(=O)[O-])cc4)c4nc(c(-c5ccc(S(=O)(=O)[O-])cc5)c5ccc2[nH]5)C=C4)C=C3)cc1)c1ccc2c3cc(Cl)ccc3n(C(=O)c3ccc(Cl)cc3)c2c1
REMARK SMILES IDX 7 1 6 2 5 3 3 4 4 5 2 7 1 8 73 9 74 10 95 11 75 12 94 13
REMARK SMILES IDX 76 14 84 15 77 16 83 17 78 18 82 19 79 20 81 21 80 22 85 23
REMARK SMILES IDX 86 24 87 25 88 26 93 27 89 28 92 29 90 30 91 31 8 32 9 33
REMARK SMILES IDX 10 34 11 35 12 37 13 38 14 39 72 40 15 41 71 42 16 43 17 44
REMARK SMILES IDX 18 45 65 46 19 47 70 48 64 49 66 50 20 51 69 52 63 53 62 54
REMARK SMILES IDX 21 56 51 57 32 58 50 59 33 60 36 61 49 62 67 63 34 64 35 65
REMARK SMILES IDX 48 67 68 68 37 69 22 70 23 71 31 72 24 73 30 74 25 75 26 76
REMARK SMILES IDX 27 77 28 78 29 79 52 80 53 81 61 82 54 83 60 84 55 85 56 86
REMARK SMILES IDX 57 87 58 88 59 89 38 90 39 91 47 92 40 93 46 94 41 95 42 96
REMARK SMILES IDX 43 97 44 98 45 99
REMARK H PARENT 5 6 10 36 66 55 36 66
REMARK Flexibility Score: inf
ROOT
ATOM      1  C   UNL A   1      34.567  30.661  27.680  1.00  0.00     0.023 C 
ENDROOT
BRANCH   1   2
ATOM      2  C   UNL A   1      34.232  29.327  27.004  1.00  0.00     0.116 C 
BRANCH   2   3
ATOM      3  N   UNL A   1      33.176  28.647  27.722  1.00  0.00    -0.356 N 
ATOM      4  C   UNL A   1      32.218  27.795  27.254  1.00  0.00     0.227 C 
ATOM      5  O   UNL A   1      31.217  27.690  27.961  1.00  0.00    -0.274 OA
ATOM      6  H   UNL A   1      33.143  28.826  28.689  1.00  0.00     0.163 HD
BRANCH   4   7
ATOM      7  C   UNL A   1      32.445  27.056  25.926  1.00  0.00     0.105 C 
ATOM      8  C   UNL A   1      31.347  27.414  24.915  1.00  0.00     0.023 C 
BRANCH   7   9
ATOM      9  C   UNL A   1      32.555  25.526  25.971  1.00  0.00    -0.034 A 
ATOM     10  C   UNL A   1      31.502  24.673  26.292  1.00  0.00     0.005 A 
ATOM     11  C   UNL A   1      33.779  24.955  25.563  1.00  0.00     0.032 A 
ATOM     12  C   UNL A   1      31.608  23.292  26.113  1.00  0.00     0.011 A 
ATOM     13  C   UNL A   1      33.897  23.557  25.404  1.00  0.00     0.057 A 
ATOM     14  C   UNL A   1      32.801  22.735  25.621  1.00  0.00     0.008 A 
ATOM     15  N   UNL A   1      34.977  22.760  24.986  1.00  0.00    -0.276 N 
ATOM     16  C   UNL A   1      33.178  21.417  25.270  1.00  0.00     0.009 A 
ATOM     17  C   UNL A   1      34.549  21.422  24.980  1.00  0.00     0.057 A 
ATOM     18  C   UNL A   1      32.444  20.212  25.235  1.00  0.00     0.031 A 
ATOM     19  C   UNL A   1      35.228  20.199  24.816  1.00  0.00     0.029 A 
ATOM     20  C   UNL A   1      33.110  19.018  24.995  1.00  0.00     0.041 A 
ATOM     21  C   UNL A   1      34.487  19.006  24.819  1.00  0.00     0.023 A 
ATOM     22  Cl  UNL A   1      32.219  17.546  24.960  1.00  0.00    -0.084 Cl
BRANCH  15  23
ATOM     23  C   UNL A   1      36.261  23.298  24.687  1.00  0.00     0.262 C 
ATOM     24  O   UNL A   1      36.363  23.868  23.597  1.00  0.00    -0.268 OA
BRANCH  23  25
ATOM     25  C   UNL A   1      37.530  23.240  25.472  1.00  0.00     0.040 A 
ATOM     26  C   UNL A   1      38.209  22.003  25.487  1.00  0.00     0.015 A 
ATOM     27  C   UNL A   1      38.003  24.263  26.298  1.00  0.00     0.015 A 
ATOM     28  C   UNL A   1      39.336  21.795  26.284  1.00  0.00     0.021 A 
ATOM     29  C   UNL A   1      39.158  24.067  27.074  1.00  0.00     0.021 A 
ATOM     30  C   UNL A   1      39.814  22.835  27.070  1.00  0.00     0.041 A 
ATOM     31  Cl  UNL A   1      41.197  22.587  28.060  1.00  0.00    -0.084 Cl
ENDBRANCH  23  25
ENDBRANCH  15  23
ENDBRANCH   7   9
ENDBRANCH   4   7
ENDBRANCH   2   3
ENDBRANCH   1   2
BRANCH   1  32
ATOM     32  C   UNL A   1      33.425  31.682  27.682  1.00  0.00     0.023 C 
BRANCH  32  33
ATOM     33  C   UNL A   1      33.856  33.119  27.433  1.00  0.00     0.116 C 
BRANCH  33  34
ATOM     34  N   UNL A   1      33.278  34.041  28.397  1.00  0.00    -0.352 N 
ATOM     35  C   UNL A   1      33.637  34.252  29.707  1.00  0.00     0.251 C 
ATOM     36  H   UNL A   1      32.530  34.587  28.066  1.00  0.00     0.163 HD
ATOM     37  O   UNL A   1      32.941  34.950  30.429  1.00  0.00    -0.269 OA
BRANCH  35  38
ATOM     38  C   UNL A   1      34.855  33.601  30.233  1.00  0.00     0.039 A 
ATOM     39  C   UNL A   1      36.097  34.174  29.955  1.00  0.00     0.014 A 
ATOM     40  C   UNL A   1      34.767  32.446  31.016  1.00  0.00     0.014 A 
ATOM     41  C   UNL A   1      37.250  33.618  30.513  1.00  0.00     0.010 A 
ATOM     42  C   UNL A   1      35.907  31.941  31.632  1.00  0.00     0.010 A 
ATOM     43  C   UNL A   1      37.160  32.519  31.382  1.00  0.00    -0.014 A 
BRANCH  43  44
ATOM     44  C   UNL A   1      38.368  31.953  32.034  1.00  0.00     0.031 A 
ATOM     45  C   UNL A   1      38.740  32.378  33.429  1.00  0.00     0.074 A 
ATOM     46  C   UNL A   1      39.162  31.106  31.350  1.00  0.00     0.049 A 
ATOM     47  N   UNL A   1      39.782  32.038  34.143  1.00  0.00    -0.248 NA
ATOM     48  C   UNL A   1      37.837  33.328  34.099  1.00  0.00     0.031 C 
ATOM     49  C   UNL A   1      38.930  30.649  29.976  1.00  0.00     0.029 A 
ATOM     50  N   UNL A   1      40.328  30.480  31.714  1.00  0.00    -0.354 N 
ATOM     51  C   UNL A   1      39.667  32.742  35.336  1.00  0.00     0.074 A 
ATOM     52  C   UNL A   1      38.485  33.568  35.229  1.00  0.00     0.031 C 
ATOM     53  C   UNL A   1      39.906  29.796  29.626  1.00  0.00     0.029 A 
ATOM     54  C   UNL A   1      40.855  29.678  30.728  1.00  0.00     0.049 A 
ATOM     55  H   UNL A   1      40.747  30.594  32.597  1.00  0.00     0.167 HD
ATOM     56  C   UNL A   1      40.463  32.691  36.431  1.00  0.00     0.031 A 
ATOM     57  C   UNL A   1      41.980  28.937  30.711  1.00  0.00     0.031 A 
ATOM     58  C   UNL A   1      41.635  31.862  36.536  1.00  0.00     0.049 A 
ATOM     59  C   UNL A   1      42.858  28.909  31.933  1.00  0.00     0.074 A 
ATOM     60  C   UNL A   1      42.476  31.697  37.622  1.00  0.00     0.029 A 
ATOM     61  N   UNL A   1      42.132  31.061  35.519  1.00  0.00    -0.354 N 
ATOM     62  N   UNL A   1      42.696  29.529  33.078  1.00  0.00    -0.248 NA
ATOM     63  C   UNL A   1      44.062  28.071  31.866  1.00  0.00     0.031 C 
ATOM     64  C   UNL A   1      43.514  30.840  37.243  1.00  0.00     0.029 A 
ATOM     65  C   UNL A   1      43.284  30.420  35.943  1.00  0.00     0.049 A 
ATOM     66  H   UNL A   1      41.725  30.962  34.628  1.00  0.00     0.167 HD
ATOM     67  C   UNL A   1      43.763  29.135  33.876  1.00  0.00     0.074 A 
ATOM     68  C   UNL A   1      44.554  28.211  33.089  1.00  0.00     0.031 C 
ATOM     69  C   UNL A   1      44.062  29.503  35.147  1.00  0.00     0.031 A 
BRANCH  56  70
ATOM     70  C   UNL A   1      40.095  33.565  37.602  1.00  0.00    -0.014 A 
ATOM     71  C   UNL A   1      40.630  34.859  37.742  1.00  0.00     0.010 A 
ATOM     72  C   UNL A   1      39.170  33.102  38.556  1.00  0.00     0.010 A 
ATOM     73  C   UNL A   1      40.285  35.655  38.837  1.00  0.00     0.020 A 
ATOM     74  C   UNL A   1      38.798  33.908  39.637  1.00  0.00     0.020 A 
ATOM     75  C   UNL A   1      39.372  35.172  39.779  1.00  0.00     0.054 A 
BRANCH  75  76
ATOM     76  S   UNL A   1      38.925  36.236  41.179  1.00  0.00     0.124 S 
ATOM     77  O   UNL A   1      40.179  36.289  41.928  1.00  0.00    -0.237 OA
ATOM     78  O   UNL A   1      38.535  37.481  40.522  1.00  0.00    -0.237 OA
ATOM     79  O   UNL A   1      37.839  35.513  41.833  1.00  0.00    -0.744 OA
ENDBRANCH  75  76
ENDBRANCH  56  70
BRANCH  57  80
ATOM     80  C   UNL A   1      42.334  28.150  29.497  1.00  0.00    -0.014 A 
ATOM     81  C   UNL A   1      41.867  26.833  29.338  1.00  0.00     0.010 A 
ATOM     82  C   UNL A   1      43.131  28.718  28.487  1.00  0.00     0.010 A 
ATOM     83  C   UNL A   1      42.205  26.093  28.201  1.00  0.00     0.020 A 
ATOM     84  C   UNL A   1      43.447  27.992  27.335  1.00  0.00     0.020 A 
ATOM     85  C   UNL A   1      42.992  26.679  27.205  1.00  0.00     0.054 A 
BRANCH  85  86
ATOM     86  S   UNL A   1      43.377  25.716  25.717  1.00  0.00     0.124 S 
ATOM     87  O   UNL A   1      42.152  25.860  24.936  1.00  0.00    -0.237 OA
ATOM     88  O   UNL A   1      44.549  26.409  25.188  1.00  0.00    -0.237 OA
ATOM     89  O   UNL A   1      43.637  24.374  26.235  1.00  0.00    -0.744 OA
ENDBRANCH  85  86
ENDBRANCH  57  80
BRANCH  69  90
ATOM     90  C   UNL A   1      45.276  28.881  35.783  1.00  0.00    -0.014 A 
ATOM     91  C   UNL A   1      45.206  27.632  36.427  1.00  0.00     0.010 A 
ATOM     92  C   UNL A   1      46.520  29.532  35.685  1.00  0.00     0.010 A 
ATOM     93  C   UNL A   1      46.352  27.062  36.988  1.00  0.00     0.020 A 
ATOM     94  C   UNL A   1      47.673  28.951  36.218  1.00  0.00     0.020 A 
ATOM     95  C   UNL A   1      47.578  27.725  36.879  1.00  0.00     0.054 A 
BRANCH  95  96
ATOM     96  S   UNL A   1      49.058  26.944  37.578  1.00  0.00     0.124 S 
ATOM     97  O   UNL A   1      49.961  26.921  36.431  1.00  0.00    -0.237 OA
ATOM     98  O   UNL A   1      49.429  27.863  38.652  1.00  0.00    -0.237 OA
ATOM     99  O   UNL A   1      48.583  25.635  38.023  1.00  0.00    -0.744 OA
ENDBRANCH  95  96
ENDBRANCH  69  90
ENDBRANCH  43  44
ENDBRANCH  35  38
ENDBRANCH  33  34
ENDBRANCH  32  33
ENDBRANCH   1  32
TORSDOF 17
ENDMDL
MODEL 3
REMARK VINA RESULT:     -12.0      3.871      9.111
REMARK SMILES C[C@@H](C(=O)NCCCCNC(=O)c1ccc(-c2c3nc(c(-c4ccc(S(=O)(=O)[O-])cc4)c4ccc([nH]4)c(-c4ccc(S(=O)(=O)[O-])cc4)c4nc(c(-c5ccc(S(=O)(=O)[O-])cc5)c5ccc2[nH]5)C=C4)C=C3)cc1)c1ccc2c3cc(Cl)ccc3n(C(=O)c3ccc(Cl)cc3)c2c1
REMARK SMILES IDX 7 1 6 2 5 3 3 4 4 5 2 7 1 8 73 9 74 10 95 11 75 12 94 13
REMARK SMILES IDX 76 14 84 15 77 16 83 17 78 18 82 19 79 20 81 21 80 22 85 23
REMARK SMILES IDX 86 24 87 25 88 26 93 27 89 28 92 29 90 30 91 31 8 32 9 33
REMARK SMILES IDX 10 34 11 35 12 37 13 38 14 39 72 40 15 41 71 42 16 43 17 44
REMARK SMILES IDX 18 45 65 46 19 47 70 48 64 49 66 50 20 51 69 52 63 53 62 54
REMARK SMILES IDX 21 56 51 57 32 58 50 59 33 60 36 61 49 62 67 63 34 64 35 65
REMARK SMILES IDX 48 67 68 68 37 69 22 70 23 71 31 72 24 73 30 74 25 75 26 76
REMARK SMILES IDX 27 77 28 78 29 79 52 80 53 81 61 82 54 83 60 84 55 85 56 86
REMARK SMILES IDX 57 87 58 88 59 89 38 90 39 91 47 92 40 93 46 94 41 95 42 96
REMARK SMILES IDX 43 97 44 98 45 99
REMARK H PARENT 5 6 10 36 66 55 36 66
REMARK Flexibility Score: inf
ROOT
ATOM      1  C   UNL A   1      31.766  29.670  27.121  1.00  0.00     0.023 C 
ENDROOT
BRANCH   1   2
ATOM      2  C   UNL A   1      32.086  28.243  27.579  1.00  0.00     0.116 C 
BRANCH   2   3
ATOM      3  N   UNL A   1      31.058  27.327  27.139  1.00  0.00    -0.356 N 
ATOM      4  C   UNL A   1      31.105  26.372  26.164  1.00  0.00     0.227 C 
ATOM      5  O   UNL A   1      30.014  26.030  25.709  1.00  0.00    -0.274 OA
ATOM      6  H   UNL A   1      30.196  27.403  27.610  1.00  0.00     0.163 HD
BRANCH   4   7
ATOM      7  C   UNL A   1      32.465  25.814  25.716  1.00  0.00     0.105 C 
ATOM      8  C   UNL A   1      32.792  26.273  24.289  1.00  0.00     0.023 C 
BRANCH   7   9
ATOM      9  C   UNL A   1      32.666  24.294  25.774  1.00  0.00    -0.034 A 
ATOM     10  C   UNL A   1      31.674  23.384  26.131  1.00  0.00     0.005 A 
ATOM     11  C   UNL A   1      33.910  23.791  25.339  1.00  0.00     0.032 A 
ATOM     12  C   UNL A   1      31.856  22.010  25.963  1.00  0.00     0.011 A 
ATOM     13  C   UNL A   1      34.107  22.401  25.191  1.00  0.00     0.057 A 
ATOM     14  C   UNL A   1      33.067  21.518  25.445  1.00  0.00     0.008 A 
ATOM     15  N   UNL A   1      35.221  21.664  24.753  1.00  0.00    -0.276 N 
ATOM     16  C   UNL A   1      33.512  20.221  25.098  1.00  0.00     0.009 A 
ATOM     17  C   UNL A   1      34.872  20.303  24.772  1.00  0.00     0.057 A 
ATOM     18  C   UNL A   1      32.850  18.975  25.095  1.00  0.00     0.031 A 
ATOM     19  C   UNL A   1      35.618  19.120  24.602  1.00  0.00     0.029 A 
ATOM     20  C   UNL A   1      33.579  17.819  24.848  1.00  0.00     0.041 A 
ATOM     21  C   UNL A   1      34.949  17.886  24.637  1.00  0.00     0.023 A 
ATOM     22  Cl  UNL A   1      32.776  16.297  24.853  1.00  0.00    -0.084 Cl
BRANCH  15  23
ATOM     23  C   UNL A   1      36.463  22.272  24.415  1.00  0.00     0.262 C 
ATOM     24  O   UNL A   1      36.604  22.579  23.228  1.00  0.00    -0.268 OA
BRANCH  23  25
ATOM     25  C   UNL A   1      37.653  22.560  25.270  1.00  0.00     0.040 A 
ATOM     26  C   UNL A   1      38.527  21.480  25.521  1.00  0.00     0.015 A 
ATOM     27  C   UNL A   1      37.876  23.762  25.948  1.00  0.00     0.015 A 
ATOM     28  C   UNL A   1      39.602  21.599  26.404  1.00  0.00     0.021 A 
ATOM     29  C   UNL A   1      38.978  23.893  26.810  1.00  0.00     0.021 A 
ATOM     30  C   UNL A   1      39.830  22.812  27.040  1.00  0.00     0.041 A 
ATOM     31  Cl  UNL A   1      41.147  22.964  28.134  1.00  0.00    -0.084 Cl
ENDBRANCH  23  25
ENDBRANCH  15  23
ENDBRANCH   7   9
ENDBRANCH   4   7
ENDBRANCH   2   3
ENDBRANCH   1   2
BRANCH   1  32
ATOM     32  C   UNL A   1      32.945  30.421  26.496  1.00  0.00     0.023 C 
BRANCH  32  33
ATOM     33  C   UNL A   1      33.760  31.254  27.473  1.00  0.00     0.116 C 
BRANCH  33  34
ATOM     34  N   UNL A   1      33.189  32.574  27.680  1.00  0.00    -0.352 N 
ATOM     35  C   UNL A   1      33.571  33.546  28.575  1.00  0.00     0.251 C 
ATOM     36  H   UNL A   1      32.425  32.802  27.103  1.00  0.00     0.163 HD
ATOM     37  O   UNL A   1      32.880  34.540  28.733  1.00  0.00    -0.269 OA
BRANCH  35  38
ATOM     38  C   UNL A   1      34.810  33.354  29.359  1.00  0.00     0.039 A 
ATOM     39  C   UNL A   1      34.765  32.554  30.501  1.00  0.00     0.014 A 
ATOM     40  C   UNL A   1      36.012  33.940  28.951  1.00  0.00     0.014 A 
ATOM     41  C   UNL A   1      35.943  32.294  31.204  1.00  0.00     0.010 A 
ATOM     42  C   UNL A   1      37.194  33.618  29.608  1.00  0.00     0.010 A 
ATOM     43  C   UNL A   1      37.170  32.797  30.745  1.00  0.00    -0.014 A 
BRANCH  43  44
ATOM     44  C   UNL A   1      38.441  32.481  31.444  1.00  0.00     0.031 A 
ATOM     45  C   UNL A   1      39.403  31.487  30.848  1.00  0.00     0.074 A 
ATOM     46  C   UNL A   1      38.702  33.041  32.642  1.00  0.00     0.049 A 
ATOM     47  N   UNL A   1      40.533  31.042  31.333  1.00  0.00    -0.248 NA
ATOM     48  C   UNL A   1      39.032  30.899  29.550  1.00  0.00     0.031 C 
ATOM     49  C   UNL A   1      37.831  33.988  33.343  1.00  0.00     0.029 A 
ATOM     50  N   UNL A   1      39.774  32.891  33.486  1.00  0.00    -0.354 N 
ATOM     51  C   UNL A   1      40.999  30.114  30.410  1.00  0.00     0.074 A 
ATOM     52  C   UNL A   1      40.005  30.020  29.364  1.00  0.00     0.031 C 
ATOM     53  C   UNL A   1      38.415  34.355  34.495  1.00  0.00     0.029 A 
ATOM     54  C   UNL A   1      39.679  33.639  34.637  1.00  0.00     0.049 A 
ATOM     55  H   UNL A   1      40.538  32.304  33.286  1.00  0.00     0.167 HD
ATOM     56  C   UNL A   1      42.160  29.416  30.422  1.00  0.00     0.031 A 
ATOM     57  C   UNL A   1      40.513  33.732  35.691  1.00  0.00     0.031 A 
ATOM     58  C   UNL A   1      43.150  29.518  31.461  1.00  0.00     0.049 A 
ATOM     59  C   UNL A   1      41.789  32.934  35.690  1.00  0.00     0.074 A 
ATOM     60  C   UNL A   1      44.383  28.896  31.538  1.00  0.00     0.029 A 
ATOM     61  N   UNL A   1      43.020  30.290  32.606  1.00  0.00    -0.354 N 
ATOM     62  N   UNL A   1      42.245  32.113  34.775  1.00  0.00    -0.248 NA
ATOM     63  C   UNL A   1      42.668  33.087  36.857  1.00  0.00     0.031 C 
ATOM     64  C   UNL A   1      44.974  29.247  32.756  1.00  0.00     0.029 A 
ATOM     65  C   UNL A   1      44.138  30.138  33.408  1.00  0.00     0.049 A 
ATOM     66  H   UNL A   1      42.246  30.861  32.817  1.00  0.00     0.167 HD
ATOM     67  C   UNL A   1      43.477  31.671  35.243  1.00  0.00     0.074 A 
ATOM     68  C   UNL A   1      43.701  32.330  36.514  1.00  0.00     0.031 C 
ATOM     69  C   UNL A   1      44.346  30.800  34.672  1.00  0.00     0.031 A 
BRANCH  56  70
ATOM     70  C   UNL A   1      42.418  28.473  29.275  1.00  0.00    -0.014 A 
ATOM     71  C   UNL A   1      41.898  27.165  29.277  1.00  0.00     0.010 A 
ATOM     72  C   UNL A   1      43.159  28.911  28.162  1.00  0.00     0.010 A 
ATOM     73  C   UNL A   1      42.151  26.299  28.210  1.00  0.00     0.020 A 
ATOM     74  C   UNL A   1      43.389  28.058  27.078  1.00  0.00     0.020 A 
ATOM     75  C   UNL A   1      42.897  26.752  27.118  1.00  0.00     0.054 A 
BRANCH  75  76
ATOM     76  S   UNL A   1      43.193  25.613  25.737  1.00  0.00     0.124 S 
ATOM     77  O   UNL A   1      44.256  26.298  25.005  1.00  0.00    -0.237 OA
ATOM     78  O   UNL A   1      43.591  24.383  26.417  1.00  0.00    -0.237 OA
ATOM     79  O   UNL A   1      41.904  25.555  25.053  1.00  0.00    -0.744 OA
ENDBRANCH  75  76
ENDBRANCH  56  70
BRANCH  57  80
ATOM     80  C   UNL A   1      40.170  34.625  36.833  1.00  0.00    -0.014 A 
ATOM     81  C   UNL A   1      40.657  35.943  36.880  1.00  0.00     0.010 A 
ATOM     82  C   UNL A   1      39.345  34.165  37.875  1.00  0.00     0.010 A 
ATOM     83  C   UNL A   1      40.341  36.779  37.955  1.00  0.00     0.020 A 
ATOM     84  C   UNL A   1      39.002  35.006  38.938  1.00  0.00     0.020 A 
ATOM     85  C   UNL A   1      39.512  36.305  38.977  1.00  0.00     0.054 A 
BRANCH  85  86
ATOM     86  S   UNL A   1      39.076  37.423  40.337  1.00  0.00     0.124 S 
ATOM     87  O   UNL A   1      38.247  38.416  39.660  1.00  0.00    -0.237 OA
ATOM     88  O   UNL A   1      38.373  36.536  41.261  1.00  0.00    -0.237 OA
ATOM     89  O   UNL A   1      40.371  37.906  40.813  1.00  0.00    -0.744 OA
ENDBRANCH  85  86
ENDBRANCH  57  80
BRANCH  69  90
ATOM     90  C   UNL A   1      45.638  30.533  35.398  1.00  0.00    -0.014 A 
ATOM     91  C   UNL A   1      45.760  29.467  36.307  1.00  0.00     0.010 A 
ATOM     92  C   UNL A   1      46.766  31.328  35.121  1.00  0.00     0.010 A 
ATOM     93  C   UNL A   1      46.976  29.221  36.950  1.00  0.00     0.020 A 
ATOM     94  C   UNL A   1      47.991  31.068  35.738  1.00  0.00     0.020 A 
ATOM     95  C   UNL A   1      48.085  30.024  36.660  1.00  0.00     0.054 A 
BRANCH  95  96
ATOM     96  S   UNL A   1      49.663  29.657  37.474  1.00  0.00     0.124 S 
ATOM     97  O   UNL A   1      49.382  28.381  38.123  1.00  0.00    -0.237 OA
ATOM     98  O   UNL A   1      50.596  29.599  36.350  1.00  0.00    -0.237 OA
ATOM     99  O   UNL A   1      49.858  30.788  38.379  1.00  0.00    -0.744 OA
ENDBRANCH  95  96
ENDBRANCH  69  90
ENDBRANCH  43  44
ENDBRANCH  35  38
ENDBRANCH  33  34
ENDBRANCH  32  33
ENDBRANCH   1  32
TORSDOF 17
ENDMDL
