MODEL 1
REMARK VINA RESULT:      -9.2      0.000      0.000
REMARK SMILES O=C(NCCCCNC(=O)[C@H]1CC[N@@H+]1CCc1ccccc1)c1ccc(-c2c3nc(c(-c4ccc(S(=O)(=O)[O-])cc4)c4ccc([nH]4)c(-c4ccc(S(=O)(=O)[O-])cc4)c4nc(c(-c5ccc(S(=O)(=O)[O-])cc5)c5ccc2[nH]5)C=C4)C=C3)cc1
REMARK SMILES IDX 5 1 4 2 3 3 1 4 2 5 23 7 24 8 82 9 25 10 81 11 26 12 27 13
REMARK SMILES IDX 28 14 75 15 29 16 80 17 74 18 76 19 30 20 79 21 73 22 72 23
REMARK SMILES IDX 31 25 61 26 42 27 60 28 43 29 46 30 59 31 77 32 44 33 45 34
REMARK SMILES IDX 58 36 78 37 47 38 32 39 33 40 41 41 34 42 40 43 35 44 36 45
REMARK SMILES IDX 37 46 38 47 39 48 62 49 63 50 71 51 64 52 70 53 65 54 66 55
REMARK SMILES IDX 67 56 68 57 69 58 48 59 49 60 57 61 50 62 56 63 51 64 52 65
REMARK SMILES IDX 53 66 54 67 55 68 6 69 7 70 8 71 9 72 10 74 11 75 12 76
REMARK SMILES IDX 14 77 13 78 15 80 16 81 17 82 18 83 22 84 19 85 21 86 20 87
REMARK H PARENT 3 6 76 24 46 35 8 73 14 79
REMARK Flexibility Score: inf
ROOT
ATOM      1  C   UNL A   1      33.441  33.894  28.180  1.00  0.00     0.023 C 
ENDROOT
BRANCH   1   2
ATOM      2  C   UNL A   1      34.364  32.687  28.082  1.00  0.00     0.116 C 
BRANCH   2   3
ATOM      3  N   UNL A   1      33.686  31.498  27.593  1.00  0.00    -0.352 N 
ATOM      4  O   UNL A   1      33.527  29.360  26.893  1.00  0.00    -0.269 OA
ATOM      5  C   UNL A   1      34.195  30.233  27.426  1.00  0.00     0.251 C 
ATOM      6  H   UNL A   1      32.739  31.613  27.352  1.00  0.00     0.163 HD
BRANCH   5   7
ATOM      7  C   UNL A   1      35.576  29.961  27.869  1.00  0.00     0.039 A 
ATOM      8  C   UNL A   1      36.647  30.093  26.980  1.00  0.00     0.014 A 
ATOM      9  C   UNL A   1      35.787  29.542  29.184  1.00  0.00     0.014 A 
ATOM     10  C   UNL A   1      37.922  29.706  27.376  1.00  0.00     0.010 A 
ATOM     11  C   UNL A   1      37.077  29.214  29.598  1.00  0.00     0.010 A 
ATOM     12  C   UNL A   1      38.148  29.272  28.691  1.00  0.00    -0.014 A 
BRANCH  12  13
ATOM     13  C   UNL A   1      39.518  28.934  29.142  1.00  0.00     0.031 A 
ATOM     14  C   UNL A   1      40.361  29.948  29.856  1.00  0.00     0.074 A 
ATOM     15  C   UNL A   1      40.010  27.715  28.855  1.00  0.00     0.049 A 
ATOM     16  N   UNL A   1      41.612  29.861  30.228  1.00  0.00    -0.248 NA
ATOM     17  C   UNL A   1      39.720  31.230  30.188  1.00  0.00     0.031 C 
ATOM     18  C   UNL A   1      39.275  26.651  28.165  1.00  0.00     0.029 A 
ATOM     19  N   UNL A   1      41.246  27.172  29.087  1.00  0.00    -0.354 N 
ATOM     20  C   UNL A   1      41.921  31.086  30.809  1.00  0.00     0.074 A 
ATOM     21  C   UNL A   1      40.727  31.902  30.729  1.00  0.00     0.031 C 
ATOM     22  C   UNL A   1      40.074  25.584  28.031  1.00  0.00     0.029 A 
ATOM     23  C   UNL A   1      41.391  25.908  28.568  1.00  0.00     0.049 A 
ATOM     24  H   UNL A   1      41.959  27.640  29.578  1.00  0.00     0.167 HD
ATOM     25  C   UNL A   1      43.094  31.489  31.353  1.00  0.00     0.031 A 
ATOM     26  C   UNL A   1      42.473  25.111  28.493  1.00  0.00     0.031 A 
ATOM     27  C   UNL A   1      44.275  30.670  31.414  1.00  0.00     0.049 A 
ATOM     28  C   UNL A   1      43.772  25.587  29.071  1.00  0.00     0.074 A 
ATOM     29  C   UNL A   1      45.505  30.970  31.974  1.00  0.00     0.029 A 
ATOM     30  N   UNL A   1      44.379  29.390  30.884  1.00  0.00    -0.354 N 
ATOM     31  N   UNL A   1      44.038  26.733  29.650  1.00  0.00    -0.248 NA
ATOM     32  C   UNL A   1      44.913  24.668  28.992  1.00  0.00     0.031 C 
ATOM     33  C   UNL A   1      46.366  29.893  31.737  1.00  0.00     0.029 A 
ATOM     34  C   UNL A   1      45.658  28.897  31.081  1.00  0.00     0.049 A 
ATOM     35  H   UNL A   1      43.650  28.905  30.434  1.00  0.00     0.167 HD
ATOM     36  C   UNL A   1      45.373  26.667  30.025  1.00  0.00     0.074 A 
ATOM     37  C   UNL A   1      45.859  25.364  29.610  1.00  0.00     0.031 C 
ATOM     38  C   UNL A   1      46.124  27.598  30.662  1.00  0.00     0.031 A 
BRANCH  25  39
ATOM     39  C   UNL A   1      43.164  32.901  31.877  1.00  0.00    -0.014 A 
ATOM     40  C   UNL A   1      43.513  33.977  31.041  1.00  0.00     0.010 A 
ATOM     41  C   UNL A   1      42.877  33.152  33.230  1.00  0.00     0.010 A 
ATOM     42  C   UNL A   1      43.634  35.268  31.564  1.00  0.00     0.020 A 
ATOM     43  C   UNL A   1      42.971  34.445  33.752  1.00  0.00     0.020 A 
ATOM     44  C   UNL A   1      43.376  35.491  32.920  1.00  0.00     0.054 A 
BRANCH  44  45
ATOM     45  S   UNL A   1      43.572  37.168  33.583  1.00  0.00     0.124 S 
ATOM     46  O   UNL A   1      43.796  37.946  32.366  1.00  0.00    -0.237 OA
ATOM     47  O   UNL A   1      42.294  37.404  34.250  1.00  0.00    -0.237 OA
ATOM     48  O   UNL A   1      44.724  37.058  34.473  1.00  0.00    -0.744 OA
ENDBRANCH  44  45
ENDBRANCH  25  39
BRANCH  26  49
ATOM     49  C   UNL A   1      42.343  23.792  27.820  1.00  0.00    -0.014 A 
ATOM     50  C   UNL A   1      42.673  23.646  26.463  1.00  0.00     0.010 A 
ATOM     51  C   UNL A   1      41.992  22.651  28.569  1.00  0.00     0.010 A 
ATOM     52  C   UNL A   1      42.670  22.381  25.869  1.00  0.00     0.020 A 
ATOM     53  C   UNL A   1      42.011  21.383  27.985  1.00  0.00     0.020 A 
ATOM     54  C   UNL A   1      42.350  21.256  26.637  1.00  0.00     0.054 A 
BRANCH  54  55
ATOM     55  S   UNL A   1      42.464  19.614  25.873  1.00  0.00     0.124 S 
ATOM     56  O   UNL A   1      41.098  19.400  25.407  1.00  0.00    -0.237 OA
ATOM     57  O   UNL A   1      43.464  19.820  24.828  1.00  0.00    -0.237 OA
ATOM     58  O   UNL A   1      42.894  18.755  26.974  1.00  0.00    -0.744 OA
ENDBRANCH  54  55
ENDBRANCH  26  49
BRANCH  38  59
ATOM     59  C   UNL A   1      47.547  27.239  30.990  1.00  0.00    -0.014 A 
ATOM     60  C   UNL A   1      47.870  26.545  32.168  1.00  0.00     0.010 A 
ATOM     61  C   UNL A   1      48.559  27.515  30.052  1.00  0.00     0.010 A 
ATOM     62  C   UNL A   1      49.186  26.135  32.404  1.00  0.00     0.020 A 
ATOM     63  C   UNL A   1      49.870  27.088  30.274  1.00  0.00     0.020 A 
ATOM     64  C   UNL A   1      50.176  26.403  31.452  1.00  0.00     0.054 A 
BRANCH  64  65
ATOM     65  S   UNL A   1      51.856  25.781  31.738  1.00  0.00     0.124 S 
ATOM     66  O   UNL A   1      52.279  26.568  32.893  1.00  0.00    -0.237 OA
ATOM     67  O   UNL A   1      51.633  24.359  31.993  1.00  0.00    -0.237 OA
ATOM     68  O   UNL A   1      52.553  26.081  30.489  1.00  0.00    -0.744 OA
ENDBRANCH  64  65
ENDBRANCH  38  59
ENDBRANCH  12  13
ENDBRANCH   5   7
ENDBRANCH   2   3
ENDBRANCH   1   2
BRANCH   1  69
ATOM     69  C   UNL A   1      33.641  34.761  29.425  1.00  0.00     0.023 C 
BRANCH  69  70
ATOM     70  C   UNL A   1      34.706  34.253  30.395  1.00  0.00     0.116 C 
BRANCH  70  71
ATOM     71  N   UNL A   1      34.719  34.994  31.637  1.00  0.00    -0.351 N 
ATOM     72  C   UNL A   1      35.525  34.862  32.744  1.00  0.00     0.278 C 
ATOM     73  H   UNL A   1      34.043  35.707  31.700  1.00  0.00     0.163 HD
ATOM     74  O   UNL A   1      35.320  35.686  33.651  1.00  0.00    -0.268 OA
BRANCH  72  75
ATOM     75  C   UNL A   1      36.640  33.766  32.873  1.00  0.00     0.279 C 
ATOM     76  C   UNL A   1      37.854  33.998  31.937  1.00  0.00     0.137 C 
ATOM     77  N   UNL A   1      37.563  33.829  34.029  1.00  0.00    -0.324 N 
ATOM     78  C   UNL A   1      38.661  34.315  33.197  1.00  0.00     0.269 C 
ATOM     79  H   UNL A   1      37.300  34.368  34.854  1.00  0.00     0.348 HD
BRANCH  77  80
ATOM     80  C   UNL A   1      37.793  32.537  34.698  1.00  0.00     0.267 C 
BRANCH  80  81
ATOM     81  C   UNL A   1      39.139  31.766  34.662  1.00  0.00     0.097 C 
BRANCH  81  82
ATOM     82  C   UNL A   1      39.148  30.486  33.862  1.00  0.00    -0.042 A 
ATOM     83  C   UNL A   1      37.970  29.978  33.295  1.00  0.00     0.004 A 
ATOM     84  C   UNL A   1      40.332  29.748  33.738  1.00  0.00     0.004 A 
ATOM     85  C   UNL A   1      37.955  28.702  32.731  1.00  0.00     0.000 A 
ATOM     86  C   UNL A   1      40.316  28.474  33.174  1.00  0.00     0.000 A 
ATOM     87  C   UNL A   1      39.122  27.941  32.692  1.00  0.00     0.000 A 
ENDBRANCH  81  82
ENDBRANCH  80  81
ENDBRANCH  77  80
ENDBRANCH  72  75
ENDBRANCH  70  71
ENDBRANCH  69  70
ENDBRANCH   1  69
TORSDOF 17
ENDMDL
MODEL 2
REMARK VINA RESULT:      -9.2      4.152     11.448
REMARK SMILES O=C(NCCCCNC(=O)[C@H]1CC[N@@H+]1CCc1ccccc1)c1ccc(-c2c3nc(c(-c4ccc(S(=O)(=O)[O-])cc4)c4ccc([nH]4)c(-c4ccc(S(=O)(=O)[O-])cc4)c4nc(c(-c5ccc(S(=O)(=O)[O-])cc5)c5ccc2[nH]5)C=C4)C=C3)cc1
REMARK SMILES IDX 5 1 4 2 3 3 1 4 2 5 23 7 24 8 82 9 25 10 81 11 26 12 27 13
REMARK SMILES IDX 28 14 75 15 29 16 80 17 74 18 76 19 30 20 79 21 73 22 72 23
REMARK SMILES IDX 31 25 61 26 42 27 60 28 43 29 46 30 59 31 77 32 44 33 45 34
REMARK SMILES IDX 58 36 78 37 47 38 32 39 33 40 41 41 34 42 40 43 35 44 36 45
REMARK SMILES IDX 37 46 38 47 39 48 62 49 63 50 71 51 64 52 70 53 65 54 66 55
REMARK SMILES IDX 67 56 68 57 69 58 48 59 49 60 57 61 50 62 56 63 51 64 52 65
REMARK SMILES IDX 53 66 54 67 55 68 6 69 7 70 8 71 9 72 10 74 11 75 12 76
REMARK SMILES IDX 14 77 13 78 15 80 16 81 17 82 18 83 22 84 19 85 21 86 20 87
REMARK H PARENT 3 6 76 24 46 35 8 73 14 79
REMARK Flexibility Score: inf
ROOT
ATOM      1  C   UNL A   1      39.365  22.272  26.731  1.00  0.00     0.023 C 
ENDROOT
BRANCH   1   2
ATOM      2  C   UNL A   1      39.627  23.746  27.003  1.00  0.00     0.116 C 
BRANCH   2   3
ATOM      3  N   UNL A   1      40.464  24.366  25.988  1.00  0.00    -0.352 N 
ATOM      4  O   UNL A   1      41.586  26.050  24.992  1.00  0.00    -0.269 OA
ATOM      5  C   UNL A   1      40.994  25.633  25.977  1.00  0.00     0.251 C 
ATOM      6  H   UNL A   1      40.679  23.805  25.209  1.00  0.00     0.163 HD
BRANCH   5   7
ATOM      7  C   UNL A   1      40.803  26.492  27.162  1.00  0.00     0.039 A 
ATOM      8  C   UNL A   1      41.484  27.708  27.276  1.00  0.00     0.014 A 
ATOM      9  C   UNL A   1      39.952  26.052  28.177  1.00  0.00     0.014 A 
ATOM     10  C   UNL A   1      41.394  28.439  28.455  1.00  0.00     0.010 A 
ATOM     11  C   UNL A   1      39.815  26.818  29.333  1.00  0.00     0.010 A 
ATOM     12  C   UNL A   1      40.551  28.003  29.489  1.00  0.00    -0.014 A 
BRANCH  12  13
ATOM     13  C   UNL A   1      40.391  28.818  30.716  1.00  0.00     0.031 A 
ATOM     14  C   UNL A   1      39.350  29.896  30.788  1.00  0.00     0.074 A 
ATOM     15  C   UNL A   1      41.229  28.606  31.747  1.00  0.00     0.049 A 
ATOM     16  N   UNL A   1      39.138  30.771  31.736  1.00  0.00    -0.248 NA
ATOM     17  C   UNL A   1      38.435  30.014  29.642  1.00  0.00     0.031 C 
ATOM     18  C   UNL A   1      42.276  27.582  31.783  1.00  0.00     0.029 A 
ATOM     19  N   UNL A   1      41.346  29.249  32.951  1.00  0.00    -0.354 N 
ATOM     20  C   UNL A   1      38.088  31.565  31.292  1.00  0.00     0.074 A 
ATOM     21  C   UNL A   1      37.714  31.073  29.982  1.00  0.00     0.031 C 
ATOM     22  C   UNL A   1      42.929  27.666  32.950  1.00  0.00     0.029 A 
ATOM     23  C   UNL A   1      42.389  28.784  33.716  1.00  0.00     0.049 A 
ATOM     24  H   UNL A   1      40.743  29.971  33.240  1.00  0.00     0.167 HD
ATOM     25  C   UNL A   1      37.496  32.610  31.919  1.00  0.00     0.031 A 
ATOM     26  C   UNL A   1      42.886  29.232  34.884  1.00  0.00     0.031 A 
ATOM     27  C   UNL A   1      37.888  33.095  33.216  1.00  0.00     0.049 A 
ATOM     28  C   UNL A   1      42.239  30.410  35.548  1.00  0.00     0.074 A 
ATOM     29  C   UNL A   1      37.332  34.125  33.955  1.00  0.00     0.029 A 
ATOM     30  N   UNL A   1      38.944  32.591  33.963  1.00  0.00    -0.354 N 
ATOM     31  N   UNL A   1      41.222  31.127  35.133  1.00  0.00    -0.248 NA
ATOM     32  C   UNL A   1      42.797  30.839  36.836  1.00  0.00     0.031 C 
ATOM     33  C   UNL A   1      38.085  34.276  35.125  1.00  0.00     0.029 A 
ATOM     34  C   UNL A   1      39.074  33.304  35.143  1.00  0.00     0.049 A 
ATOM     35  H   UNL A   1      39.517  31.838  33.693  1.00  0.00     0.167 HD
ATOM     36  C   UNL A   1      41.003  32.081  36.118  1.00  0.00     0.074 A 
ATOM     37  C   UNL A   1      41.992  31.846  37.152  1.00  0.00     0.031 C 
ATOM     38  C   UNL A   1      40.064  33.056  36.163  1.00  0.00     0.031 A 
BRANCH  25  39
ATOM     39  C   UNL A   1      36.396  33.328  31.180  1.00  0.00    -0.014 A 
ATOM     40  C   UNL A   1      36.600  33.851  29.890  1.00  0.00     0.010 A 
ATOM     41  C   UNL A   1      35.138  33.482  31.789  1.00  0.00     0.010 A 
ATOM     42  C   UNL A   1      35.584  34.569  29.250  1.00  0.00     0.020 A 
ATOM     43  C   UNL A   1      34.112  34.176  31.143  1.00  0.00     0.020 A 
ATOM     44  C   UNL A   1      34.351  34.740  29.887  1.00  0.00     0.054 A 
BRANCH  44  45
ATOM     45  S   UNL A   1      33.061  35.702  29.052  1.00  0.00     0.124 S 
ATOM     46  O   UNL A   1      32.449  34.695  28.187  1.00  0.00    -0.237 OA
ATOM     47  O   UNL A   1      32.229  36.162  30.161  1.00  0.00    -0.237 OA
ATOM     48  O   UNL A   1      33.804  36.751  28.358  1.00  0.00    -0.744 OA
ENDBRANCH  44  45
ENDBRANCH  25  39
BRANCH  26  49
ATOM     49  C   UNL A   1      44.072  28.550  35.464  1.00  0.00    -0.014 A 
ATOM     50  C   UNL A   1      45.368  29.024  35.201  1.00  0.00     0.010 A 
ATOM     51  C   UNL A   1      43.899  27.488  36.373  1.00  0.00     0.010 A 
ATOM     52  C   UNL A   1      46.469  28.458  35.849  1.00  0.00     0.020 A 
ATOM     53  C   UNL A   1      44.995  26.936  37.039  1.00  0.00     0.020 A 
ATOM     54  C   UNL A   1      46.275  27.425  36.772  1.00  0.00     0.054 A 
BRANCH  54  55
ATOM     55  S   UNL A   1      47.707  26.785  37.683  1.00  0.00     0.124 S 
ATOM     56  O   UNL A   1      47.109  26.399  38.958  1.00  0.00    -0.237 OA
ATOM     57  O   UNL A   1      48.155  25.682  36.835  1.00  0.00    -0.237 OA
ATOM     58  O   UNL A   1      48.616  27.927  37.736  1.00  0.00    -0.744 OA
ENDBRANCH  54  55
ENDBRANCH  26  49
BRANCH  38  59
ATOM     59  C   UNL A   1      40.025  33.930  37.386  1.00  0.00    -0.014 A 
ATOM     60  C   UNL A   1      39.301  33.551  38.529  1.00  0.00     0.010 A 
ATOM     61  C   UNL A   1      40.809  35.097  37.421  1.00  0.00     0.010 A 
ATOM     62  C   UNL A   1      39.360  34.330  39.688  1.00  0.00     0.020 A 
ATOM     63  C   UNL A   1      40.888  35.866  38.584  1.00  0.00     0.020 A 
ATOM     64  C   UNL A   1      40.159  35.478  39.711  1.00  0.00     0.054 A 
BRANCH  64  65
ATOM     65  S   UNL A   1      40.291  36.421  41.255  1.00  0.00     0.124 S 
ATOM     66  O   UNL A   1      41.154  37.531  40.862  1.00  0.00    -0.237 OA
ATOM     67  O   UNL A   1      38.900  36.774  41.536  1.00  0.00    -0.237 OA
ATOM     68  O   UNL A   1      40.886  35.470  42.191  1.00  0.00    -0.744 OA
ENDBRANCH  64  65
ENDBRANCH  38  59
ENDBRANCH  12  13
ENDBRANCH   5   7
ENDBRANCH   2   3
ENDBRANCH   1   2
BRANCH   1  69
ATOM     69  C   UNL A   1      40.575  21.480  26.233  1.00  0.00     0.023 C 
BRANCH  69  70
ATOM     70  C   UNL A   1      41.151  20.487  27.242  1.00  0.00     0.116 C 
BRANCH  70  71
ATOM     71  N   UNL A   1      41.397  19.188  26.657  1.00  0.00    -0.351 N 
ATOM     72  C   UNL A   1      42.542  18.666  26.101  1.00  0.00     0.278 C 
ATOM     73  H   UNL A   1      40.622  18.581  26.656  1.00  0.00     0.163 HD
ATOM     74  O   UNL A   1      42.455  17.488  25.715  1.00  0.00    -0.268 OA
BRANCH  72  75
ATOM     75  C   UNL A   1      43.880  19.472  25.964  1.00  0.00     0.279 C 
ATOM     76  C   UNL A   1      45.000  18.702  25.216  1.00  0.00     0.137 C 
ATOM     77  N   UNL A   1      43.967  20.530  24.932  1.00  0.00    -0.324 N 
ATOM     78  C   UNL A   1      44.814  19.703  24.075  1.00  0.00     0.269 C 
ATOM     79  H   UNL A   1      43.110  20.921  24.539  1.00  0.00     0.348 HD
BRANCH  77  80
ATOM     80  C   UNL A   1      44.568  21.791  25.398  1.00  0.00     0.267 C 
BRANCH  80  81
ATOM     81  C   UNL A   1      43.802  23.136  25.500  1.00  0.00     0.097 C 
BRANCH  81  82
ATOM     82  C   UNL A   1      43.897  23.853  26.824  1.00  0.00    -0.042 A 
ATOM     83  C   UNL A   1      43.235  23.368  27.961  1.00  0.00     0.004 A 
ATOM     84  C   UNL A   1      44.597  25.064  26.914  1.00  0.00     0.004 A 
ATOM     85  C   UNL A   1      43.168  24.141  29.121  1.00  0.00     0.000 A 
ATOM     86  C   UNL A   1      44.531  25.835  28.073  1.00  0.00     0.000 A 
ATOM     87  C   UNL A   1      43.796  25.384  29.168  1.00  0.00     0.000 A 
ENDBRANCH  81  82
ENDBRANCH  80  81
ENDBRANCH  77  80
ENDBRANCH  72  75
ENDBRANCH  70  71
ENDBRANCH  69  70
ENDBRANCH   1  69
TORSDOF 17
ENDMDL
MODEL 3
REMARK VINA RESULT:      -9.2      1.094      2.038
REMARK SMILES O=C(NCCCCNC(=O)[C@H]1CC[N@@H+]1CCc1ccccc1)c1ccc(-c2c3nc(c(-c4ccc(S(=O)(=O)[O-])cc4)c4ccc([nH]4)c(-c4ccc(S(=O)(=O)[O-])cc4)c4nc(c(-c5ccc(S(=O)(=O)[O-])cc5)c5ccc2[nH]5)C=C4)C=C3)cc1
REMARK SMILES IDX 5 1 4 2 3 3 1 4 2 5 23 7 24 8 82 9 25 10 81 11 26 12 27 13
REMARK SMILES IDX 28 14 75 15 29 16 80 17 74 18 76 19 30 20 79 21 73 22 72 23
REMARK SMILES IDX 31 25 61 26 42 27 60 28 43 29 46 30 59 31 77 32 44 33 45 34
REMARK SMILES IDX 58 36 78 37 47 38 32 39 33 40 41 41 34 42 40 43 35 44 36 45
REMARK SMILES IDX 37 46 38 47 39 48 62 49 63 50 71 51 64 52 70 53 65 54 66 55
REMARK SMILES IDX 67 56 68 57 69 58 48 59 49 60 57 61 50 62 56 63 51 64 52 65
REMARK SMILES IDX 53 66 54 67 55 68 6 69 7 70 8 71 9 72 10 74 11 75 12 76
REMARK SMILES IDX 14 77 13 78 15 80 16 81 17 82 18 83 22 84 19 85 21 86 20 87
REMARK H PARENT 3 6 76 24 46 35 8 73 14 79
REMARK Flexibility Score: inf
ROOT
ATOM      1  C   UNL A   1      34.551  33.851  28.214  1.00  0.00     0.023 C 
ENDROOT
BRANCH   1   2
ATOM      2  C   UNL A   1      34.528  32.531  28.972  1.00  0.00     0.116 C 
BRANCH   2   3
ATOM      3  N   UNL A   1      33.888  31.462  28.224  1.00  0.00    -0.352 N 
ATOM      4  O   UNL A   1      33.795  29.530  27.063  1.00  0.00    -0.269 OA
ATOM      5  C   UNL A   1      34.436  30.282  27.783  1.00  0.00     0.251 C 
ATOM      6  H   UNL A   1      32.939  31.601  28.005  1.00  0.00     0.163 HD
BRANCH   5   7
ATOM      7  C   UNL A   1      35.823  29.958  28.168  1.00  0.00     0.039 A 
ATOM      8  C   UNL A   1      36.863  30.073  27.241  1.00  0.00     0.014 A 
ATOM      9  C   UNL A   1      36.071  29.507  29.466  1.00  0.00     0.014 A 
ATOM     10  C   UNL A   1      38.140  29.639  27.580  1.00  0.00     0.010 A 
ATOM     11  C   UNL A   1      37.363  29.129  29.823  1.00  0.00     0.010 A 
ATOM     12  C   UNL A   1      38.401  29.172  28.877  1.00  0.00    -0.014 A 
BRANCH  12  13
ATOM     13  C   UNL A   1      39.775  28.781  29.269  1.00  0.00     0.031 A 
ATOM     14  C   UNL A   1      40.682  29.759  29.955  1.00  0.00     0.074 A 
ATOM     15  C   UNL A   1      40.211  27.548  28.953  1.00  0.00     0.049 A 
ATOM     16  N   UNL A   1      41.944  29.625  30.274  1.00  0.00    -0.248 NA
ATOM     17  C   UNL A   1      40.101  31.060  30.322  1.00  0.00     0.031 C 
ATOM     18  C   UNL A   1      39.411  26.517  28.286  1.00  0.00     0.029 A 
ATOM     19  N   UNL A   1      41.436  26.960  29.130  1.00  0.00    -0.354 N 
ATOM     20  C   UNL A   1      42.319  30.833  30.851  1.00  0.00     0.074 A 
ATOM     21  C   UNL A   1      41.153  31.691  30.825  1.00  0.00     0.031 C 
ATOM     22  C   UNL A   1      40.166  25.424  28.112  1.00  0.00     0.029 A 
ATOM     23  C   UNL A   1      41.514  25.696  28.596  1.00  0.00     0.049 A 
ATOM     24  H   UNL A   1      42.185  27.399  29.594  1.00  0.00     0.167 HD
ATOM     25  C   UNL A   1      43.528  31.190  31.348  1.00  0.00     0.031 A 
ATOM     26  C   UNL A   1      42.564  24.862  28.470  1.00  0.00     0.031 A 
ATOM     27  C   UNL A   1      44.681  30.329  31.354  1.00  0.00     0.049 A 
ATOM     28  C   UNL A   1      43.901  25.288  28.998  1.00  0.00     0.074 A 
ATOM     29  C   UNL A   1      45.942  30.581  31.865  1.00  0.00     0.029 A 
ATOM     30  N   UNL A   1      44.717  29.051  30.812  1.00  0.00    -0.354 N 
ATOM     31  N   UNL A   1      44.231  26.418  29.573  1.00  0.00    -0.248 NA
ATOM     32  C   UNL A   1      45.005  24.329  28.865  1.00  0.00     0.031 C 
ATOM     33  C   UNL A   1      46.754  29.476  31.585  1.00  0.00     0.029 A 
ATOM     34  C   UNL A   1      45.984  28.512  30.952  1.00  0.00     0.049 A 
ATOM     35  H   UNL A   1      43.953  28.596  30.388  1.00  0.00     0.167 HD
ATOM     36  C   UNL A   1      45.577  26.302  29.893  1.00  0.00     0.074 A 
ATOM     37  C   UNL A   1      45.999  24.987  29.449  1.00  0.00     0.031 C 
ATOM     38  C   UNL A   1      46.386  27.200  30.505  1.00  0.00     0.031 A 
BRANCH  25  39
ATOM     39  C   UNL A   1      43.670  32.593  31.879  1.00  0.00    -0.014 A 
ATOM     40  C   UNL A   1      43.461  32.889  33.238  1.00  0.00     0.010 A 
ATOM     41  C   UNL A   1      44.017  33.634  30.999  1.00  0.00     0.010 A 
ATOM     42  C   UNL A   1      43.535  34.209  33.694  1.00  0.00     0.020 A 
ATOM     43  C   UNL A   1      44.119  34.951  31.455  1.00  0.00     0.020 A 
ATOM     44  C   UNL A   1      43.849  35.234  32.796  1.00  0.00     0.054 A 
BRANCH  44  45
ATOM     45  S   UNL A   1      43.908  36.942  33.404  1.00  0.00     0.124 S 
ATOM     46  O   UNL A   1      42.596  37.080  34.033  1.00  0.00    -0.237 OA
ATOM     47  O   UNL A   1      45.044  36.921  34.322  1.00  0.00    -0.237 OA
ATOM     48  O   UNL A   1      44.104  37.734  32.193  1.00  0.00    -0.744 OA
ENDBRANCH  44  45
ENDBRANCH  25  39
BRANCH  26  49
ATOM     49  C   UNL A   1      42.359  23.555  27.794  1.00  0.00    -0.014 A 
ATOM     50  C   UNL A   1      42.923  23.307  26.532  1.00  0.00     0.010 A 
ATOM     51  C   UNL A   1      41.689  22.513  28.465  1.00  0.00     0.010 A 
ATOM     52  C   UNL A   1      42.834  22.036  25.958  1.00  0.00     0.020 A 
ATOM     53  C   UNL A   1      41.619  21.235  27.905  1.00  0.00     0.020 A 
ATOM     54  C   UNL A   1      42.193  21.004  26.654  1.00  0.00     0.054 A 
BRANCH  54  55
ATOM     55  S   UNL A   1      42.190  19.337  25.940  1.00  0.00     0.124 S 
ATOM     56  O   UNL A   1      43.004  19.518  24.742  1.00  0.00    -0.237 OA
ATOM     57  O   UNL A   1      42.798  18.537  27.002  1.00  0.00    -0.237 OA
ATOM     58  O   UNL A   1      40.774  19.069  25.704  1.00  0.00    -0.744 OA
ENDBRANCH  54  55
ENDBRANCH  26  49
BRANCH  38  59
ATOM     59  C   UNL A   1      47.808  26.788  30.771  1.00  0.00    -0.014 A 
ATOM     60  C   UNL A   1      48.838  27.105  29.869  1.00  0.00     0.010 A 
ATOM     61  C   UNL A   1      48.125  26.163  31.991  1.00  0.00     0.010 A 
ATOM     62  C   UNL A   1      50.166  26.799  30.184  1.00  0.00     0.020 A 
ATOM     63  C   UNL A   1      49.452  25.876  32.318  1.00  0.00     0.020 A 
ATOM     64  C   UNL A   1      50.465  26.194  31.410  1.00  0.00     0.054 A 
BRANCH  64  65
ATOM     65  S   UNL A   1      52.203  25.891  31.834  1.00  0.00     0.124 S 
ATOM     66  O   UNL A   1      52.250  24.433  31.901  1.00  0.00    -0.237 OA
ATOM     67  O   UNL A   1      52.917  26.492  30.710  1.00  0.00    -0.237 OA
ATOM     68  O   UNL A   1      52.372  26.580  33.112  1.00  0.00    -0.744 OA
ENDBRANCH  64  65
ENDBRANCH  38  59
ENDBRANCH  12  13
ENDBRANCH   5   7
ENDBRANCH   2   3
ENDBRANCH   1   2
BRANCH   1  69
ATOM     69  C   UNL A   1      33.274  34.685  28.330  1.00  0.00     0.023 C 
BRANCH  69  70
ATOM     70  C   UNL A   1      33.471  36.076  28.932  1.00  0.00     0.116 C 
BRANCH  70  71
ATOM     71  N   UNL A   1      32.576  36.327  30.040  1.00  0.00    -0.351 N 
ATOM     72  C   UNL A   1      32.688  35.988  31.369  1.00  0.00     0.278 C 
ATOM     73  H   UNL A   1      31.755  36.819  29.806  1.00  0.00     0.163 HD
ATOM     74  O   UNL A   1      31.764  36.386  32.099  1.00  0.00    -0.268 OA
BRANCH  72  75
ATOM     75  C   UNL A   1      33.893  35.171  31.952  1.00  0.00     0.279 C 
ATOM     76  C   UNL A   1      34.956  36.047  32.664  1.00  0.00     0.137 C 
ATOM     77  N   UNL A   1      33.701  34.434  33.221  1.00  0.00    -0.324 N 
ATOM     78  C   UNL A   1      34.485  35.411  33.973  1.00  0.00     0.269 C 
ATOM     79  H   UNL A   1      32.756  34.218  33.539  1.00  0.00     0.348 HD
BRANCH  77  80
ATOM     80  C   UNL A   1      34.230  33.060  33.216  1.00  0.00     0.267 C 
BRANCH  80  81
ATOM     81  C   UNL A   1      35.369  32.568  32.283  1.00  0.00     0.097 C 
BRANCH  81  82
ATOM     82  C   UNL A   1      36.728  32.417  32.920  1.00  0.00    -0.042 A 
ATOM     83  C   UNL A   1      37.590  33.515  33.059  1.00  0.00     0.004 A 
ATOM     84  C   UNL A   1      37.177  31.151  33.317  1.00  0.00     0.004 A 
ATOM     85  C   UNL A   1      38.911  33.326  33.465  1.00  0.00     0.000 A 
ATOM     86  C   UNL A   1      38.496  30.963  33.724  1.00  0.00     0.000 A 
ATOM     87  C   UNL A   1      39.370  32.047  33.774  1.00  0.00     0.000 A 
ENDBRANCH  81  82
ENDBRANCH  80  81
ENDBRANCH  77  80
ENDBRANCH  72  75
ENDBRANCH  70  71
ENDBRANCH  69  70
ENDBRANCH   1  69
TORSDOF 17
ENDMDL
