MODEL 1
REMARK VINA RESULT:     -13.2      0.000      0.000
REMARK SMILES COc1ccc2c(c1)c(CC(=O)NCCCCNC(=O)c1ccc(-c3c4nc(c(-c5ccc(S(=O)(=O)[O-])cc5)c5ccc([nH]5)c(-c5ccc(S(=O)(=O)[O-])cc5)c5nc(c(-c6ccc(S(=O)(=O)[O-])cc6)c6ccc3[nH]6)C=C5)C=C4)cc1)c(C)n2Cc1ccn(C(F)F)c(=O)c1
REMARK SMILES IDX 15 1 14 2 13 3 11 4 12 5 10 7 9 8 3 9 4 10 8 11 5 12 7 13
REMARK SMILES IDX 6 14 83 15 81 16 82 17 2 18 1 19 84 20 85 21 86 22 94 23
REMARK SMILES IDX 87 24 92 25 88 26 93 27 89 28 90 29 91 30 16 31 17 32 18 33
REMARK SMILES IDX 19 34 20 36 21 37 22 38 80 39 23 40 79 41 24 42 25 43 26 44
REMARK SMILES IDX 73 45 27 46 78 47 72 48 74 49 28 50 77 51 71 52 70 53 29 55
REMARK SMILES IDX 59 56 40 57 58 58 41 59 44 60 57 61 75 62 42 63 43 64 56 66
REMARK SMILES IDX 76 67 45 68 30 69 31 70 39 71 32 72 38 73 33 74 34 75 35 76
REMARK SMILES IDX 36 77 37 78 60 79 61 80 69 81 62 82 68 83 63 84 64 85 65 86
REMARK SMILES IDX 66 87 67 88 46 89 47 90 55 91 48 92 54 93 49 94 50 95 51 96
REMARK SMILES IDX 52 97 53 98
REMARK H PARENT 13 6 18 35 74 54 44 65
REMARK Flexibility Score: inf
ROOT
ATOM      1  C   UNL A   1      40.247  23.140  27.334  1.00  0.00     0.023 C 
ENDROOT
BRANCH   1   2
ATOM      2  C   UNL A   1      38.974  23.795  26.794  1.00  0.00     0.116 C 
BRANCH   2   3
ATOM      3  N   UNL A   1      38.429  23.104  25.639  1.00  0.00    -0.356 N 
ATOM      4  C   UNL A   1      37.188  23.201  25.072  1.00  0.00     0.224 C 
ATOM      5  O   UNL A   1      36.972  22.557  24.041  1.00  0.00    -0.275 OA
ATOM      6  H   UNL A   1      39.043  22.472  25.200  1.00  0.00     0.163 HD
BRANCH   4   7
ATOM      7  C   UNL A   1      36.137  24.150  25.633  1.00  0.00     0.138 C 
BRANCH   7   8
ATOM      8  C   UNL A   1      34.733  23.767  25.277  1.00  0.00    -0.010 A 
ATOM      9  C   UNL A   1      33.190  25.703  22.370  1.00  0.00     0.119 A 
ATOM     10  C   UNL A   1      32.013  24.964  22.310  1.00  0.00     0.048 A 
ATOM     11  C   UNL A   1      34.176  25.358  23.297  1.00  0.00     0.057 A 
ATOM     12  C   UNL A   1      31.783  23.892  23.188  1.00  0.00     0.031 A 
ATOM     13  C   UNL A   1      33.954  24.312  24.216  1.00  0.00     0.007 A 
ATOM     14  C   UNL A   1      32.760  23.591  24.155  1.00  0.00     0.049 A 
ATOM     15  N   UNL A   1      32.823  22.619  25.147  1.00  0.00    -0.340 N 
ATOM     16  C   UNL A   1      33.923  22.866  25.954  1.00  0.00     0.020 A 
ATOM     17  C   UNL A   1      34.188  22.219  27.269  1.00  0.00     0.065 C 
BRANCH   9  18
ATOM     18  O   UNL A   1      33.517  26.744  21.545  1.00  0.00    -0.497 OA
ATOM     19  C   UNL A   1      33.820  27.974  22.194  1.00  0.00     0.278 C 
ENDBRANCH   9  18
BRANCH  15  20
ATOM     20  C   UNL A   1      31.839  21.542  25.330  1.00  0.00     0.158 C 
BRANCH  20  21
ATOM     21  C   UNL A   1      32.303  20.196  24.812  1.00  0.00    -0.021 A 
ATOM     22  C   UNL A   1      32.886  19.235  25.734  1.00  0.00     0.024 A 
ATOM     23  C   UNL A   1      32.145  19.822  23.528  1.00  0.00     0.077 A 
ATOM     24  C   UNL A   1      33.418  18.091  25.293  1.00  0.00     0.095 A 
ATOM     25  C   UNL A   1      32.626  18.496  23.046  1.00  0.00     0.255 A 
ATOM     26  N   UNL A   1      33.345  17.746  23.958  1.00  0.00    -0.258 N 
ATOM     27  O   UNL A   1      32.357  18.157  21.891  1.00  0.00    -0.269 OA
BRANCH  26  28
ATOM     28  C   UNL A   1      33.907  16.499  23.499  1.00  0.00     0.451 C 
ATOM     29  F   UNL A   1      34.718  16.708  22.435  1.00  0.00    -0.185 F 
ATOM     30  F   UNL A   1      34.633  15.903  24.470  1.00  0.00    -0.185 F 
ENDBRANCH  26  28
ENDBRANCH  20  21
ENDBRANCH  15  20
ENDBRANCH   7   8
ENDBRANCH   4   7
ENDBRANCH   2   3
ENDBRANCH   1   2
BRANCH   1  31
ATOM     31  C   UNL A   1      40.707  21.875  26.593  1.00  0.00     0.023 C 
BRANCH  31  32
ATOM     32  C   UNL A   1      42.215  21.611  26.604  1.00  0.00     0.116 C 
BRANCH  32  33
ATOM     33  N   UNL A   1      42.941  22.200  25.495  1.00  0.00    -0.352 N 
ATOM     34  C   UNL A   1      43.474  23.436  25.241  1.00  0.00     0.251 C 
ATOM     35  H   UNL A   1      43.084  21.566  24.756  1.00  0.00     0.163 HD
ATOM     36  O   UNL A   1      44.248  23.482  24.277  1.00  0.00    -0.269 OA
BRANCH  34  37
ATOM     37  C   UNL A   1      43.137  24.701  25.959  1.00  0.00     0.039 A 
ATOM     38  C   UNL A   1      43.606  25.068  27.218  1.00  0.00     0.014 A 
ATOM     39  C   UNL A   1      42.188  25.541  25.334  1.00  0.00     0.014 A 
ATOM     40  C   UNL A   1      43.084  26.191  27.859  1.00  0.00     0.010 A 
ATOM     41  C   UNL A   1      41.661  26.663  25.974  1.00  0.00     0.010 A 
ATOM     42  C   UNL A   1      42.088  26.975  27.256  1.00  0.00    -0.014 A 
BRANCH  42  43
ATOM     43  C   UNL A   1      41.677  28.201  27.946  1.00  0.00     0.031 A 
ATOM     44  C   UNL A   1      42.682  29.291  27.852  1.00  0.00     0.074 A 
ATOM     45  C   UNL A   1      40.506  28.435  28.574  1.00  0.00     0.049 A 
ATOM     46  N   UNL A   1      43.451  29.721  28.796  1.00  0.00    -0.248 NA
ATOM     47  C   UNL A   1      42.977  29.855  26.527  1.00  0.00     0.031 C 
ATOM     48  C   UNL A   1      39.302  27.603  28.589  1.00  0.00     0.029 A 
ATOM     49  N   UNL A   1      40.126  29.536  29.296  1.00  0.00    -0.354 N 
ATOM     50  C   UNL A   1      44.189  30.757  28.241  1.00  0.00     0.074 A 
ATOM     51  C   UNL A   1      43.977  30.689  26.817  1.00  0.00     0.031 C 
ATOM     52  C   UNL A   1      38.267  28.316  29.097  1.00  0.00     0.029 A 
ATOM     53  C   UNL A   1      38.767  29.589  29.588  1.00  0.00     0.049 A 
ATOM     54  H   UNL A   1      40.762  30.231  29.585  1.00  0.00     0.167 HD
ATOM     55  C   UNL A   1      44.730  31.736  29.016  1.00  0.00     0.031 A 
ATOM     56  C   UNL A   1      38.100  30.605  30.193  1.00  0.00     0.031 A 
ATOM     57  C   UNL A   1      44.754  31.367  30.407  1.00  0.00     0.049 A 
ATOM     58  C   UNL A   1      39.077  31.346  31.018  1.00  0.00     0.074 A 
ATOM     59  C   UNL A   1      45.389  30.403  31.160  1.00  0.00     0.029 A 
ATOM     60  N   UNL A   1      43.705  31.836  31.157  1.00  0.00    -0.354 N 
ATOM     61  N   UNL A   1      39.650  30.850  32.077  1.00  0.00    -0.248 NA
ATOM     62  C   UNL A   1      39.677  32.562  30.494  1.00  0.00     0.031 C 
ATOM     63  C   UNL A   1      44.473  30.073  32.201  1.00  0.00     0.029 A 
ATOM     64  C   UNL A   1      43.343  30.885  32.076  1.00  0.00     0.049 A 
ATOM     65  H   UNL A   1      43.280  32.718  31.054  1.00  0.00     0.167 HD
ATOM     66  C   UNL A   1      40.913  31.413  32.082  1.00  0.00     0.074 A 
ATOM     67  C   UNL A   1      40.811  32.568  31.199  1.00  0.00     0.031 C 
ATOM     68  C   UNL A   1      41.986  30.723  32.568  1.00  0.00     0.031 A 
BRANCH  55  69
ATOM     69  C   UNL A   1      44.846  33.171  28.566  1.00  0.00    -0.014 A 
ATOM     70  C   UNL A   1      43.726  33.944  28.198  1.00  0.00     0.010 A 
ATOM     71  C   UNL A   1      46.062  33.860  28.753  1.00  0.00     0.010 A 
ATOM     72  C   UNL A   1      43.813  35.318  27.976  1.00  0.00     0.020 A 
ATOM     73  C   UNL A   1      46.151  35.249  28.574  1.00  0.00     0.020 A 
ATOM     74  C   UNL A   1      45.026  35.966  28.168  1.00  0.00     0.054 A 
BRANCH  74  75
ATOM     75  S   UNL A   1      45.079  37.757  27.921  1.00  0.00     0.124 S 
ATOM     76  O   UNL A   1      45.595  37.853  26.558  1.00  0.00    -0.237 OA
ATOM     77  O   UNL A   1      43.681  38.138  28.094  1.00  0.00    -0.237 OA
ATOM     78  O   UNL A   1      45.988  38.220  28.967  1.00  0.00    -0.744 OA
ENDBRANCH  74  75
ENDBRANCH  55  69
BRANCH  56  79
ATOM     79  C   UNL A   1      36.789  31.203  29.823  1.00  0.00    -0.014 A 
ATOM     80  C   UNL A   1      36.612  31.754  28.540  1.00  0.00     0.010 A 
ATOM     81  C   UNL A   1      35.853  31.549  30.822  1.00  0.00     0.010 A 
ATOM     82  C   UNL A   1      35.608  32.697  28.288  1.00  0.00     0.020 A 
ATOM     83  C   UNL A   1      34.844  32.496  30.576  1.00  0.00     0.020 A 
ATOM     84  C   UNL A   1      34.757  33.096  29.320  1.00  0.00     0.054 A 
BRANCH  84  85
ATOM     85  S   UNL A   1      33.615  34.477  29.012  1.00  0.00     0.124 S 
ATOM     86  O   UNL A   1      34.512  35.501  28.484  1.00  0.00    -0.237 OA
ATOM     87  O   UNL A   1      32.681  33.904  28.045  1.00  0.00    -0.237 OA
ATOM     88  O   UNL A   1      33.048  34.760  30.327  1.00  0.00    -0.744 OA
ENDBRANCH  84  85
ENDBRANCH  56  79
BRANCH  68  89
ATOM     89  C   UNL A   1      41.737  29.564  33.512  1.00  0.00    -0.014 A 
ATOM     90  C   UNL A   1      41.822  29.836  34.890  1.00  0.00     0.010 A 
ATOM     91  C   UNL A   1      41.559  28.227  33.107  1.00  0.00     0.010 A 
ATOM     92  C   UNL A   1      41.770  28.811  35.836  1.00  0.00     0.020 A 
ATOM     93  C   UNL A   1      41.475  27.192  34.055  1.00  0.00     0.020 A 
ATOM     94  C   UNL A   1      41.605  27.492  35.414  1.00  0.00     0.054 A 
BRANCH  94  95
ATOM     95  S   UNL A   1      41.583  26.191  36.678  1.00  0.00     0.124 S 
ATOM     96  O   UNL A   1      41.246  25.003  35.897  1.00  0.00    -0.237 OA
ATOM     97  O   UNL A   1      42.949  26.223  37.198  1.00  0.00    -0.237 OA
ATOM     98  O   UNL A   1      40.555  26.625  37.620  1.00  0.00    -0.744 OA
ENDBRANCH  94  95
ENDBRANCH  68  89
ENDBRANCH  42  43
ENDBRANCH  34  37
ENDBRANCH  32  33
ENDBRANCH  31  32
ENDBRANCH   1  31
TORSDOF 19
ENDMDL
MODEL 2
REMARK VINA RESULT:     -12.7      2.254      3.835
REMARK SMILES COc1ccc2c(c1)c(CC(=O)NCCCCNC(=O)c1ccc(-c3c4nc(c(-c5ccc(S(=O)(=O)[O-])cc5)c5ccc([nH]5)c(-c5ccc(S(=O)(=O)[O-])cc5)c5nc(c(-c6ccc(S(=O)(=O)[O-])cc6)c6ccc3[nH]6)C=C5)C=C4)cc1)c(C)n2Cc1ccn(C(F)F)c(=O)c1
REMARK SMILES IDX 15 1 14 2 13 3 11 4 12 5 10 7 9 8 3 9 4 10 8 11 5 12 7 13
REMARK SMILES IDX 6 14 83 15 81 16 82 17 2 18 1 19 84 20 85 21 86 22 94 23
REMARK SMILES IDX 87 24 92 25 88 26 93 27 89 28 90 29 91 30 16 31 17 32 18 33
REMARK SMILES IDX 19 34 20 36 21 37 22 38 80 39 23 40 79 41 24 42 25 43 26 44
REMARK SMILES IDX 73 45 27 46 78 47 72 48 74 49 28 50 77 51 71 52 70 53 29 55
REMARK SMILES IDX 59 56 40 57 58 58 41 59 44 60 57 61 75 62 42 63 43 64 56 66
REMARK SMILES IDX 76 67 45 68 30 69 31 70 39 71 32 72 38 73 33 74 34 75 35 76
REMARK SMILES IDX 36 77 37 78 60 79 61 80 69 81 62 82 68 83 63 84 64 85 65 86
REMARK SMILES IDX 66 87 67 88 46 89 47 90 55 91 48 92 54 93 49 94 50 95 51 96
REMARK SMILES IDX 52 97 53 98
REMARK H PARENT 13 6 18 35 74 54 44 65
REMARK Flexibility Score: inf
ROOT
ATOM      1  C   UNL A   1      39.878  23.350  27.401  1.00  0.00     0.023 C 
ENDROOT
BRANCH   1   2
ATOM      2  C   UNL A   1      38.830  24.338  26.887  1.00  0.00     0.116 C 
BRANCH   2   3
ATOM      3  N   UNL A   1      38.313  23.984  25.577  1.00  0.00    -0.356 N 
ATOM      4  C   UNL A   1      37.153  23.343  25.242  1.00  0.00     0.224 C 
ATOM      5  O   UNL A   1      36.891  23.210  24.043  1.00  0.00    -0.275 OA
ATOM      6  H   UNL A   1      38.884  24.243  24.817  1.00  0.00     0.163 HD
BRANCH   4   7
ATOM      7  C   UNL A   1      36.163  22.896  26.310  1.00  0.00     0.138 C 
BRANCH   7   8
ATOM      8  C   UNL A   1      34.769  22.707  25.794  1.00  0.00    -0.010 A 
ATOM      9  C   UNL A   1      33.977  19.229  24.435  1.00  0.00     0.119 A 
ATOM     10  C   UNL A   1      32.623  19.462  24.212  1.00  0.00     0.048 A 
ATOM     11  C   UNL A   1      34.769  20.232  24.996  1.00  0.00     0.057 A 
ATOM     12  C   UNL A   1      32.043  20.706  24.513  1.00  0.00     0.031 A 
ATOM     13  C   UNL A   1      34.219  21.502  25.271  1.00  0.00     0.007 A 
ATOM     14  C   UNL A   1      32.863  21.728  25.025  1.00  0.00     0.049 A 
ATOM     15  N   UNL A   1      32.596  23.037  25.408  1.00  0.00    -0.340 N 
ATOM     16  C   UNL A   1      33.792  23.685  25.672  1.00  0.00     0.020 A 
ATOM     17  C   UNL A   1      33.953  25.155  25.852  1.00  0.00     0.065 C 
BRANCH   9  18
ATOM     18  O   UNL A   1      34.628  18.048  24.199  1.00  0.00    -0.497 OA
ATOM     19  C   UNL A   1      34.056  16.896  24.809  1.00  0.00     0.278 C 
ENDBRANCH   9  18
BRANCH  15  20
ATOM     20  C   UNL A   1      31.254  23.637  25.462  1.00  0.00     0.158 C 
BRANCH  20  21
ATOM     21  C   UNL A   1      31.099  24.864  24.587  1.00  0.00    -0.021 A 
ATOM     22  C   UNL A   1      30.674  26.120  25.182  1.00  0.00     0.024 A 
ATOM     23  C   UNL A   1      31.397  24.858  23.273  1.00  0.00     0.077 A 
ATOM     24  C   UNL A   1      30.407  27.187  24.423  1.00  0.00     0.095 A 
ATOM     25  C   UNL A   1      31.219  26.079  22.437  1.00  0.00     0.255 A 
ATOM     26  N   UNL A   1      30.619  27.156  23.059  1.00  0.00    -0.258 N 
ATOM     27  O   UNL A   1      31.611  26.052  21.268  1.00  0.00    -0.269 OA
BRANCH  26  28
ATOM     28  C   UNL A   1      30.344  28.322  22.256  1.00  0.00     0.451 C 
ATOM     29  F   UNL A   1      29.025  28.631  22.303  1.00  0.00    -0.185 F 
ATOM     30  F   UNL A   1      31.042  29.394  22.692  1.00  0.00    -0.185 F 
ENDBRANCH  26  28
ENDBRANCH  20  21
ENDBRANCH  15  20
ENDBRANCH   7   8
ENDBRANCH   4   7
ENDBRANCH   2   3
ENDBRANCH   1   2
BRANCH   1  31
ATOM     31  C   UNL A   1      40.262  22.224  26.429  1.00  0.00     0.023 C 
BRANCH  31  32
ATOM     32  C   UNL A   1      41.708  21.730  26.522  1.00  0.00     0.116 C 
BRANCH  32  33
ATOM     33  N   UNL A   1      42.594  22.253  25.500  1.00  0.00    -0.352 N 
ATOM     34  C   UNL A   1      43.248  23.441  25.308  1.00  0.00     0.251 C 
ATOM     35  H   UNL A   1      42.765  21.605  24.779  1.00  0.00     0.163 HD
ATOM     36  O   UNL A   1      44.123  23.420  24.434  1.00  0.00    -0.269 OA
BRANCH  34  37
ATOM     37  C   UNL A   1      42.938  24.733  25.989  1.00  0.00     0.039 A 
ATOM     38  C   UNL A   1      43.380  25.109  27.255  1.00  0.00     0.014 A 
ATOM     39  C   UNL A   1      42.043  25.595  25.316  1.00  0.00     0.014 A 
ATOM     40  C   UNL A   1      42.882  26.265  27.856  1.00  0.00     0.010 A 
ATOM     41  C   UNL A   1      41.540  26.750  25.915  1.00  0.00     0.010 A 
ATOM     42  C   UNL A   1      41.937  27.072  27.204  1.00  0.00    -0.014 A 
BRANCH  42  43
ATOM     43  C   UNL A   1      41.552  28.328  27.856  1.00  0.00     0.031 A 
ATOM     44  C   UNL A   1      42.558  29.409  27.686  1.00  0.00     0.074 A 
ATOM     45  C   UNL A   1      40.402  28.594  28.509  1.00  0.00     0.049 A 
ATOM     46  N   UNL A   1      43.358  29.873  28.587  1.00  0.00    -0.248 NA
ATOM     47  C   UNL A   1      42.813  29.916  26.329  1.00  0.00     0.031 C 
ATOM     48  C   UNL A   1      39.196  27.769  28.596  1.00  0.00     0.029 A 
ATOM     49  N   UNL A   1      40.048  29.725  29.196  1.00  0.00    -0.354 N 
ATOM     50  C   UNL A   1      44.081  30.882  27.967  1.00  0.00     0.074 A 
ATOM     51  C   UNL A   1      43.825  30.756  26.554  1.00  0.00     0.031 C 
ATOM     52  C   UNL A   1      38.180  28.507  29.105  1.00  0.00     0.029 A 
ATOM     53  C   UNL A   1      38.699  29.797  29.528  1.00  0.00     0.049 A 
ATOM     54  H   UNL A   1      40.695  30.428  29.436  1.00  0.00     0.167 HD
ATOM     55  C   UNL A   1      44.649  31.890  28.684  1.00  0.00     0.031 A 
ATOM     56  C   UNL A   1      38.055  30.840  30.111  1.00  0.00     0.031 A 
ATOM     57  C   UNL A   1      44.716  31.578  30.087  1.00  0.00     0.049 A 
ATOM     58  C   UNL A   1      39.060  31.610  30.873  1.00  0.00     0.074 A 
ATOM     59  C   UNL A   1      45.370  30.643  30.860  1.00  0.00     0.029 A 
ATOM     60  N   UNL A   1      43.692  32.083  30.849  1.00  0.00    -0.354 N 
ATOM     61  N   UNL A   1      39.664  31.155  31.934  1.00  0.00    -0.248 NA
ATOM     62  C   UNL A   1      39.648  32.800  30.281  1.00  0.00     0.031 C 
ATOM     63  C   UNL A   1      44.486  30.360  31.941  1.00  0.00     0.029 A 
ATOM     64  C   UNL A   1      43.356  31.172  31.817  1.00  0.00     0.049 A 
ATOM     65  H   UNL A   1      43.267  32.961  30.723  1.00  0.00     0.167 HD
ATOM     66  C   UNL A   1      40.928  31.712  31.876  1.00  0.00     0.074 A 
ATOM     67  C   UNL A   1      40.803  32.830  30.950  1.00  0.00     0.031 C 
ATOM     68  C   UNL A   1      42.013  31.037  32.358  1.00  0.00     0.031 A 
BRANCH  55  69
ATOM     69  C   UNL A   1      44.757  33.304  28.172  1.00  0.00    -0.014 A 
ATOM     70  C   UNL A   1      43.626  34.088  27.863  1.00  0.00     0.010 A 
ATOM     71  C   UNL A   1      45.997  33.973  28.236  1.00  0.00     0.010 A 
ATOM     72  C   UNL A   1      43.721  35.450  27.582  1.00  0.00     0.020 A 
ATOM     73  C   UNL A   1      46.098  35.352  27.998  1.00  0.00     0.020 A 
ATOM     74  C   UNL A   1      44.957  36.078  27.654  1.00  0.00     0.054 A 
BRANCH  74  75
ATOM     75  S   UNL A   1      45.025  37.857  27.336  1.00  0.00     0.124 S 
ATOM     76  O   UNL A   1      45.336  38.384  28.662  1.00  0.00    -0.237 OA
ATOM     77  O   UNL A   1      46.096  37.958  26.350  1.00  0.00    -0.237 OA
ATOM     78  O   UNL A   1      43.687  38.167  26.839  1.00  0.00    -0.744 OA
ENDBRANCH  74  75
ENDBRANCH  55  69
BRANCH  56  79
ATOM     79  C   UNL A   1      36.736  31.429  29.757  1.00  0.00    -0.014 A 
ATOM     80  C   UNL A   1      36.559  32.039  28.500  1.00  0.00     0.010 A 
ATOM     81  C   UNL A   1      35.784  31.707  30.761  1.00  0.00     0.010 A 
ATOM     82  C   UNL A   1      35.538  32.972  28.285  1.00  0.00     0.020 A 
ATOM     83  C   UNL A   1      34.758  32.644  30.551  1.00  0.00     0.020 A 
ATOM     84  C   UNL A   1      34.670  33.303  29.326  1.00  0.00     0.054 A 
BRANCH  84  85
ATOM     85  S   UNL A   1      33.502  34.673  29.073  1.00  0.00     0.124 S 
ATOM     86  O   UNL A   1      32.533  34.081  28.156  1.00  0.00    -0.237 OA
ATOM     87  O   UNL A   1      33.013  34.925  30.426  1.00  0.00    -0.237 OA
ATOM     88  O   UNL A   1      34.329  35.736  28.508  1.00  0.00    -0.744 OA
ENDBRANCH  84  85
ENDBRANCH  56  79
BRANCH  68  89
ATOM     89  C   UNL A   1      41.789  29.920  33.356  1.00  0.00    -0.014 A 
ATOM     90  C   UNL A   1      41.992  30.229  34.714  1.00  0.00     0.010 A 
ATOM     91  C   UNL A   1      41.525  28.580  33.011  1.00  0.00     0.010 A 
ATOM     92  C   UNL A   1      41.971  29.236  35.694  1.00  0.00     0.020 A 
ATOM     93  C   UNL A   1      41.471  27.579  33.996  1.00  0.00     0.020 A 
ATOM     94  C   UNL A   1      41.718  27.913  35.330  1.00  0.00     0.054 A 
BRANCH  94  95
ATOM     95  S   UNL A   1      41.739  26.653  36.635  1.00  0.00     0.124 S 
ATOM     96  O   UNL A   1      42.977  26.964  37.347  1.00  0.00    -0.237 OA
ATOM     97  O   UNL A   1      40.511  26.935  37.376  1.00  0.00    -0.237 OA
ATOM     98  O   UNL A   1      41.745  25.386  35.910  1.00  0.00    -0.744 OA
ENDBRANCH  94  95
ENDBRANCH  68  89
ENDBRANCH  42  43
ENDBRANCH  34  37
ENDBRANCH  32  33
ENDBRANCH  31  32
ENDBRANCH   1  31
TORSDOF 19
ENDMDL
MODEL 3
REMARK VINA RESULT:     -12.5      1.597      2.057
REMARK SMILES COc1ccc2c(c1)c(CC(=O)NCCCCNC(=O)c1ccc(-c3c4nc(c(-c5ccc(S(=O)(=O)[O-])cc5)c5ccc([nH]5)c(-c5ccc(S(=O)(=O)[O-])cc5)c5nc(c(-c6ccc(S(=O)(=O)[O-])cc6)c6ccc3[nH]6)C=C5)C=C4)cc1)c(C)n2Cc1ccn(C(F)F)c(=O)c1
REMARK SMILES IDX 15 1 14 2 13 3 11 4 12 5 10 7 9 8 3 9 4 10 8 11 5 12 7 13
REMARK SMILES IDX 6 14 83 15 81 16 82 17 2 18 1 19 84 20 85 21 86 22 94 23
REMARK SMILES IDX 87 24 92 25 88 26 93 27 89 28 90 29 91 30 16 31 17 32 18 33
REMARK SMILES IDX 19 34 20 36 21 37 22 38 80 39 23 40 79 41 24 42 25 43 26 44
REMARK SMILES IDX 73 45 27 46 78 47 72 48 74 49 28 50 77 51 71 52 70 53 29 55
REMARK SMILES IDX 59 56 40 57 58 58 41 59 44 60 57 61 75 62 42 63 43 64 56 66
REMARK SMILES IDX 76 67 45 68 30 69 31 70 39 71 32 72 38 73 33 74 34 75 35 76
REMARK SMILES IDX 36 77 37 78 60 79 61 80 69 81 62 82 68 83 63 84 64 85 65 86
REMARK SMILES IDX 66 87 67 88 46 89 47 90 55 91 48 92 54 93 49 94 50 95 51 96
REMARK SMILES IDX 52 97 53 98
REMARK H PARENT 13 6 18 35 74 54 44 65
REMARK Flexibility Score: inf
ROOT
ATOM      1  C   UNL A   1      40.238  21.776  27.098  1.00  0.00     0.023 C 
ENDROOT
BRANCH   1   2
ATOM      2  C   UNL A   1      39.134  22.713  26.608  1.00  0.00     0.116 C 
BRANCH   2   3
ATOM      3  N   UNL A   1      38.554  22.293  25.345  1.00  0.00    -0.356 N 
ATOM      4  C   UNL A   1      37.379  22.672  24.757  1.00  0.00     0.224 C 
ATOM      5  O   UNL A   1      37.125  22.225  23.634  1.00  0.00    -0.275 OA
ATOM      6  H   UNL A   1      39.086  21.638  24.837  1.00  0.00     0.163 HD
BRANCH   4   7
ATOM      7  C   UNL A   1      36.460  23.690  25.417  1.00  0.00     0.138 C 
BRANCH   7   8
ATOM      8  C   UNL A   1      35.005  23.447  25.149  1.00  0.00    -0.010 A 
ATOM      9  C   UNL A   1      33.452  25.628  22.428  1.00  0.00     0.119 A 
ATOM     10  C   UNL A   1      32.211  24.999  22.426  1.00  0.00     0.048 A 
ATOM     11  C   UNL A   1      34.463  25.161  23.270  1.00  0.00     0.057 A 
ATOM     12  C   UNL A   1      31.944  23.917  23.282  1.00  0.00     0.031 A 
ATOM     13  C   UNL A   1      34.209  24.101  24.166  1.00  0.00     0.007 A 
ATOM     14  C   UNL A   1      32.953  23.492  24.166  1.00  0.00     0.049 A 
ATOM     15  N   UNL A   1      32.995  22.479  25.117  1.00  0.00    -0.340 N 
ATOM     16  C   UNL A   1      34.165  22.595  25.852  1.00  0.00     0.020 A 
ATOM     17  C   UNL A   1      34.459  21.875  27.121  1.00  0.00     0.065 C 
BRANCH   9  18
ATOM     18  O   UNL A   1      33.815  26.669  21.617  1.00  0.00    -0.497 OA
ATOM     19  C   UNL A   1      33.758  27.962  22.211  1.00  0.00     0.278 C 
ENDBRANCH   9  18
BRANCH  15  20
ATOM     20  C   UNL A   1      31.932  21.486  25.332  1.00  0.00     0.158 C 
BRANCH  20  21
ATOM     21  C   UNL A   1      32.285  20.097  24.841  1.00  0.00    -0.021 A 
ATOM     22  C   UNL A   1      32.673  19.075  25.799  1.00  0.00     0.024 A 
ATOM     23  C   UNL A   1      32.197  19.745  23.544  1.00  0.00     0.077 A 
ATOM     24  C   UNL A   1      33.109  17.879  25.392  1.00  0.00     0.095 A 
ATOM     25  C   UNL A   1      32.565  18.373  23.091  1.00  0.00     0.255 A 
ATOM     26  N   UNL A   1      33.113  17.546  24.052  1.00  0.00    -0.258 N 
ATOM     27  O   UNL A   1      32.361  18.069  21.914  1.00  0.00    -0.269 OA
BRANCH  26  28
ATOM     28  C   UNL A   1      33.569  16.244  23.630  1.00  0.00     0.451 C 
ATOM     29  F   UNL A   1      34.568  16.363  22.722  1.00  0.00    -0.185 F 
ATOM     30  F   UNL A   1      34.035  15.525  24.675  1.00  0.00    -0.185 F 
ENDBRANCH  26  28
ENDBRANCH  20  21
ENDBRANCH  15  20
ENDBRANCH   7   8
ENDBRANCH   4   7
ENDBRANCH   2   3
ENDBRANCH   1   2
BRANCH   1  31
ATOM     31  C   UNL A   1      40.445  20.501  26.266  1.00  0.00     0.023 C 
BRANCH  31  32
ATOM     32  C   UNL A   1      41.726  19.717  26.558  1.00  0.00     0.116 C 
BRANCH  32  33
ATOM     33  N   UNL A   1      42.855  20.064  25.716  1.00  0.00    -0.352 N 
ATOM     34  C   UNL A   1      43.722  21.123  25.656  1.00  0.00     0.251 C 
ATOM     35  H   UNL A   1      43.040  19.383  25.030  1.00  0.00     0.163 HD
ATOM     36  O   UNL A   1      44.722  20.939  24.952  1.00  0.00    -0.269 OA
BRANCH  34  37
ATOM     37  C   UNL A   1      43.517  22.462  26.285  1.00  0.00     0.039 A 
ATOM     38  C   UNL A   1      43.857  22.805  27.590  1.00  0.00     0.014 A 
ATOM     39  C   UNL A   1      42.833  23.420  25.503  1.00  0.00     0.014 A 
ATOM     40  C   UNL A   1      43.457  24.033  28.118  1.00  0.00     0.010 A 
ATOM     41  C   UNL A   1      42.428  24.648  26.029  1.00  0.00     0.010 A 
ATOM     42  C   UNL A   1      42.714  24.945  27.353  1.00  0.00    -0.014 A 
BRANCH  42  43
ATOM     43  C   UNL A   1      42.433  26.258  27.943  1.00  0.00     0.031 A 
ATOM     44  C   UNL A   1      43.500  27.258  27.680  1.00  0.00     0.074 A 
ATOM     45  C   UNL A   1      41.326  26.634  28.615  1.00  0.00     0.049 A 
ATOM     46  N   UNL A   1      44.359  27.718  28.529  1.00  0.00    -0.248 NA
ATOM     47  C   UNL A   1      43.740  27.672  26.290  1.00  0.00     0.031 C 
ATOM     48  C   UNL A   1      40.073  25.896  28.786  1.00  0.00     0.029 A 
ATOM     49  N   UNL A   1      41.070  27.822  29.248  1.00  0.00    -0.354 N 
ATOM     50  C   UNL A   1      45.123  28.641  27.830  1.00  0.00     0.074 A 
ATOM     51  C   UNL A   1      44.811  28.454  26.435  1.00  0.00     0.031 C 
ATOM     52  C   UNL A   1      39.125  26.727  29.284  1.00  0.00     0.029 A 
ATOM     53  C   UNL A   1      39.740  28.001  29.616  1.00  0.00     0.049 A 
ATOM     54  H   UNL A   1      41.769  28.493  29.427  1.00  0.00     0.167 HD
ATOM     55  C   UNL A   1      45.780  29.646  28.470  1.00  0.00     0.031 A 
ATOM     56  C   UNL A   1      39.185  29.115  30.158  1.00  0.00     0.031 A 
ATOM     57  C   UNL A   1      45.875  29.409  29.886  1.00  0.00     0.049 A 
ATOM     58  C   UNL A   1      40.263  29.858  30.844  1.00  0.00     0.074 A 
ATOM     59  C   UNL A   1      46.494  28.476  30.690  1.00  0.00     0.029 A 
ATOM     60  N   UNL A   1      44.913  30.021  30.650  1.00  0.00    -0.354 N 
ATOM     61  N   UNL A   1      40.873  29.422  31.910  1.00  0.00    -0.248 NA
ATOM     62  C   UNL A   1      40.906  30.972  30.167  1.00  0.00     0.031 C 
ATOM     63  C   UNL A   1      45.631  28.313  31.813  1.00  0.00     0.029 A 
ATOM     64  C   UNL A   1      44.552  29.189  31.678  1.00  0.00     0.049 A 
ATOM     65  H   UNL A   1      44.540  30.918  30.486  1.00  0.00     0.167 HD
ATOM     66  C   UNL A   1      42.167  29.891  31.781  1.00  0.00     0.074 A 
ATOM     67  C   UNL A   1      42.083  30.962  30.797  1.00  0.00     0.031 C 
ATOM     68  C   UNL A   1      43.223  29.173  32.267  1.00  0.00     0.031 A 
BRANCH  55  69
ATOM     69  C   UNL A   1      45.961  31.020  27.875  1.00  0.00    -0.014 A 
ATOM     70  C   UNL A   1      47.206  31.486  27.404  1.00  0.00     0.010 A 
ATOM     71  C   UNL A   1      44.825  31.783  27.533  1.00  0.00     0.010 A 
ATOM     72  C   UNL A   1      47.330  32.670  26.679  1.00  0.00     0.020 A 
ATOM     73  C   UNL A   1      44.934  32.953  26.765  1.00  0.00     0.020 A 
ATOM     74  C   UNL A   1      46.192  33.398  26.360  1.00  0.00     0.054 A 
BRANCH  74  75
ATOM     75  S   UNL A   1      46.394  34.898  25.370  1.00  0.00     0.124 S 
ATOM     76  O   UNL A   1      47.803  34.816  24.993  1.00  0.00    -0.237 OA
ATOM     77  O   UNL A   1      45.439  34.690  24.286  1.00  0.00    -0.237 OA
ATOM     78  O   UNL A   1      46.059  35.971  26.302  1.00  0.00    -0.744 OA
ENDBRANCH  74  75
ENDBRANCH  55  69
BRANCH  56  79
ATOM     79  C   UNL A   1      37.895  29.770  29.812  1.00  0.00    -0.014 A 
ATOM     80  C   UNL A   1      37.760  30.435  28.579  1.00  0.00     0.010 A 
ATOM     81  C   UNL A   1      36.941  30.045  30.815  1.00  0.00     0.010 A 
ATOM     82  C   UNL A   1      36.779  31.416  28.389  1.00  0.00     0.020 A 
ATOM     83  C   UNL A   1      35.955  31.030  30.631  1.00  0.00     0.020 A 
ATOM     84  C   UNL A   1      35.910  31.740  29.432  1.00  0.00     0.054 A 
BRANCH  84  85
ATOM     85  S   UNL A   1      34.801  33.164  29.220  1.00  0.00     0.124 S 
ATOM     86  O   UNL A   1      33.922  32.708  28.147  1.00  0.00    -0.237 OA
ATOM     87  O   UNL A   1      34.176  33.277  30.536  1.00  0.00    -0.237 OA
ATOM     88  O   UNL A   1      35.702  34.258  28.868  1.00  0.00    -0.744 OA
ENDBRANCH  84  85
ENDBRANCH  56  79
BRANCH  68  89
ATOM     89  C   UNL A   1      42.963  28.129  33.334  1.00  0.00    -0.014 A 
ATOM     90  C   UNL A   1      42.405  28.582  34.544  1.00  0.00     0.010 A 
ATOM     91  C   UNL A   1      43.358  26.781  33.246  1.00  0.00     0.010 A 
ATOM     92  C   UNL A   1      42.276  27.733  35.644  1.00  0.00     0.020 A 
ATOM     93  C   UNL A   1      43.204  25.911  34.340  1.00  0.00     0.020 A 
ATOM     94  C   UNL A   1      42.684  26.403  35.540  1.00  0.00     0.054 A 
BRANCH  94  95
ATOM     95  S   UNL A   1      42.534  25.350  37.010  1.00  0.00     0.124 S 
ATOM     96  O   UNL A   1      43.571  24.346  36.781  1.00  0.00    -0.237 OA
ATOM     97  O   UNL A   1      42.804  26.282  38.103  1.00  0.00    -0.237 OA
ATOM     98  O   UNL A   1      41.163  24.849  36.953  1.00  0.00    -0.744 OA
ENDBRANCH  94  95
ENDBRANCH  68  89
ENDBRANCH  42  43
ENDBRANCH  34  37
ENDBRANCH  32  33
ENDBRANCH  31  32
ENDBRANCH   1  31
TORSDOF 19
ENDMDL
