MODEL 1
REMARK VINA RESULT:     -10.2      0.000      0.000
REMARK SMILES CC(C)c1noc(C[N@H+]2CCCC[C@H]2C(=O)NCCCCNC(=O)c2ccc(-c3c4nc(c(-c5ccc(S(=O)(=O)[O-])cc5)c5ccc([nH]5)c(-c5ccc(S(=O)(=O)[O-])cc5)c5nc(c(-c6ccc(S(=O)(=O)[O-])cc6)c6ccc3[nH]6)C=C5)C=C4)cc2)n1
REMARK SMILES IDX 19 1 18 2 17 3 15 4 16 5 14 7 9 8 10 9 11 11 13 12 12 13
REMARK SMILES IDX 8 14 7 15 4 16 5 17 85 18 6 19 2 20 1 21 3 22 20 23 21 24
REMARK SMILES IDX 22 25 23 26 24 28 25 29 26 30 84 31 27 32 83 33 28 34 29 35
REMARK SMILES IDX 30 36 77 37 31 38 82 39 76 40 78 41 32 42 81 43 75 44 74 45
REMARK SMILES IDX 33 47 63 48 44 49 62 50 45 51 48 52 61 53 79 54 46 55 47 56
REMARK SMILES IDX 60 58 80 59 49 60 34 61 35 62 43 63 36 64 42 65 37 66 38 67
REMARK SMILES IDX 39 68 40 69 41 70 64 71 65 72 73 73 66 74 72 75 67 76 68 77
REMARK SMILES IDX 69 78 70 79 71 80 50 81 51 82 59 83 52 84 58 85 53 86 54 87
REMARK SMILES IDX 55 88 56 89 57 90
REMARK H PARENT 17 6 9 10 22 27 78 46 48 57
REMARK Flexibility Score: inf
ROOT
ATOM      1  C   UNL A   1      36.820  33.276  29.126  1.00  0.00     0.023 C 
ENDROOT
BRANCH   1   2
ATOM      2  C   UNL A   1      36.648  33.786  30.561  1.00  0.00     0.116 C 
BRANCH   2   3
ATOM      3  N   UNL A   1      36.915  32.719  31.501  1.00  0.00    -0.351 N 
ATOM      4  C   UNL A   1      37.771  32.717  32.561  1.00  0.00     0.278 C 
ATOM      5  O   UNL A   1      38.293  31.640  32.849  1.00  0.00    -0.268 OA
ATOM      6  H   UNL A   1      36.413  31.885  31.356  1.00  0.00     0.163 HD
BRANCH   4   7
ATOM      7  C   UNL A   1      37.994  34.031  33.351  1.00  0.00     0.274 C 
ATOM      8  N   UNL A   1      37.651  33.937  34.795  1.00  0.00    -0.317 N 
ATOM      9  C   UNL A   1      38.514  33.026  35.551  1.00  0.00     0.263 C 
ATOM     10  H   UNL A   1      37.865  34.870  35.148  1.00  0.00     0.349 HD
ATOM     11  C   UNL A   1      39.994  33.392  35.391  1.00  0.00     0.062 C 
ATOM     12  C   UNL A   1      39.447  34.500  33.202  1.00  0.00     0.076 C 
ATOM     13  C   UNL A   1      40.414  33.578  33.937  1.00  0.00     0.012 C 
BRANCH   8  14
ATOM     14  C   UNL A   1      36.211  33.767  35.090  1.00  0.00     0.364 C 
BRANCH  14  15
ATOM     15  C   UNL A   1      35.223  34.304  34.111  1.00  0.00     0.281 A 
ATOM     16  C   UNL A   1      33.887  35.366  32.897  1.00  0.00     0.174 A 
ATOM     17  N   UNL A   1      33.551  34.086  32.681  1.00  0.00    -0.062 NA
ATOM     18  N   UNL A   1      34.970  35.537  33.732  1.00  0.00    -0.191 NA
ATOM     19  O   UNL A   1      34.437  33.377  33.487  1.00  0.00    -0.333 OA
BRANCH  16  20
ATOM     20  C   UNL A   1      33.198  36.520  32.233  1.00  0.00     0.055 C 
ATOM     21  C   UNL A   1      33.872  37.870  32.506  1.00  0.00     0.016 C 
ATOM     22  C   UNL A   1      33.080  36.317  30.720  1.00  0.00     0.016 C 
ENDBRANCH  16  20
ENDBRANCH  14  15
ENDBRANCH   8  14
ENDBRANCH   4   7
ENDBRANCH   2   3
ENDBRANCH   1   2
BRANCH   1  23
ATOM     23  C   UNL A   1      35.509  33.118  28.342  1.00  0.00     0.023 C 
BRANCH  23  24
ATOM     24  C   UNL A   1      34.412  32.343  29.063  1.00  0.00     0.116 C 
BRANCH  24  25
ATOM     25  N   UNL A   1      33.908  31.235  28.266  1.00  0.00    -0.352 N 
ATOM     26  C   UNL A   1      34.589  30.156  27.757  1.00  0.00     0.251 C 
ATOM     27  H   UNL A   1      32.945  31.262  28.065  1.00  0.00     0.163 HD
ATOM     28  O   UNL A   1      34.032  29.411  26.953  1.00  0.00    -0.269 OA
BRANCH  26  29
ATOM     29  C   UNL A   1      35.994  29.908  28.150  1.00  0.00     0.039 A 
ATOM     30  C   UNL A   1      36.266  29.487  29.453  1.00  0.00     0.014 A 
ATOM     31  C   UNL A   1      37.039  30.086  27.240  1.00  0.00     0.014 A 
ATOM     32  C   UNL A   1      37.578  29.176  29.824  1.00  0.00     0.010 A 
ATOM     33  C   UNL A   1      38.335  29.710  27.589  1.00  0.00     0.010 A 
ATOM     34  C   UNL A   1      38.619  29.246  28.883  1.00  0.00    -0.014 A 
BRANCH  34  35
ATOM     35  C   UNL A   1      40.003  28.824  29.229  1.00  0.00     0.031 A 
ATOM     36  C   UNL A   1      40.937  29.779  29.925  1.00  0.00     0.074 A 
ATOM     37  C   UNL A   1      40.438  27.599  28.870  1.00  0.00     0.049 A 
ATOM     38  N   UNL A   1      42.198  29.618  30.237  1.00  0.00    -0.248 NA
ATOM     39  C   UNL A   1      40.387  31.091  30.306  1.00  0.00     0.031 C 
ATOM     40  C   UNL A   1      39.641  26.586  28.172  1.00  0.00     0.029 A 
ATOM     41  N   UNL A   1      41.662  26.997  29.036  1.00  0.00    -0.354 N 
ATOM     42  C   UNL A   1      42.591  30.802  30.850  1.00  0.00     0.074 A 
ATOM     43  C   UNL A   1      41.453  31.695  30.812  1.00  0.00     0.031 C 
ATOM     44  C   UNL A   1      40.388  25.483  27.993  1.00  0.00     0.029 A 
ATOM     45  C   UNL A   1      41.728  25.725  28.515  1.00  0.00     0.049 A 
ATOM     46  H   UNL A   1      42.420  27.435  29.485  1.00  0.00     0.167 HD
ATOM     47  C   UNL A   1      43.782  31.112  31.416  1.00  0.00     0.031 A 
ATOM     48  C   UNL A   1      42.756  24.855  28.450  1.00  0.00     0.031 A 
ATOM     49  C   UNL A   1      44.916  30.226  31.450  1.00  0.00     0.049 A 
ATOM     50  C   UNL A   1      44.090  25.252  29.028  1.00  0.00     0.074 A 
ATOM     51  C   UNL A   1      46.160  30.444  32.016  1.00  0.00     0.029 A 
ATOM     52  N   UNL A   1      44.945  28.954  30.900  1.00  0.00    -0.354 N 
ATOM     53  N   UNL A   1      44.426  26.360  29.643  1.00  0.00    -0.248 NA
ATOM     54  C   UNL A   1      45.183  24.275  28.908  1.00  0.00     0.031 C 
ATOM     55  C   UNL A   1      46.959  29.324  31.764  1.00  0.00     0.029 A 
ATOM     56  C   UNL A   1      46.191  28.383  31.097  1.00  0.00     0.049 A 
ATOM     57  H   UNL A   1      44.192  28.520  30.439  1.00  0.00     0.167 HD
ATOM     58  C   UNL A   1      45.756  26.197  30.015  1.00  0.00     0.074 A 
ATOM     59  C   UNL A   1      46.158  24.879  29.572  1.00  0.00     0.031 C 
ATOM     60  C   UNL A   1      46.574  27.063  30.665  1.00  0.00     0.031 A 
BRANCH  47  61
ATOM     61  C   UNL A   1      43.919  32.466  32.062  1.00  0.00    -0.014 A 
ATOM     62  C   UNL A   1      44.071  33.625  31.276  1.00  0.00     0.010 A 
ATOM     63  C   UNL A   1      43.830  32.597  33.460  1.00  0.00     0.010 A 
ATOM     64  C   UNL A   1      44.161  34.882  31.878  1.00  0.00     0.020 A 
ATOM     65  C   UNL A   1      43.890  33.857  34.064  1.00  0.00     0.020 A 
ATOM     66  C   UNL A   1      44.067  34.990  33.268  1.00  0.00     0.054 A 
BRANCH  66  67
ATOM     67  S   UNL A   1      44.145  36.642  34.014  1.00  0.00     0.124 S 
ATOM     68  O   UNL A   1      43.361  37.436  33.071  1.00  0.00    -0.237 OA
ATOM     69  O   UNL A   1      43.528  36.430  35.321  1.00  0.00    -0.237 OA
ATOM     70  O   UNL A   1      45.574  36.944  34.044  1.00  0.00    -0.744 OA
ENDBRANCH  66  67
ENDBRANCH  47  61
BRANCH  48  71
ATOM     71  C   UNL A   1      42.582  23.522  27.806  1.00  0.00    -0.014 A 
ATOM     72  C   UNL A   1      41.981  22.461  28.507  1.00  0.00     0.010 A 
ATOM     73  C   UNL A   1      43.056  23.294  26.499  1.00  0.00     0.010 A 
ATOM     74  C   UNL A   1      41.900  21.188  27.935  1.00  0.00     0.020 A 
ATOM     75  C   UNL A   1      42.944  22.031  25.910  1.00  0.00     0.020 A 
ATOM     76  C   UNL A   1      42.387  20.981  26.641  1.00  0.00     0.054 A 
BRANCH  76  77
ATOM     77  S   UNL A   1      42.272  19.320  25.918  1.00  0.00     0.124 S 
ATOM     78  O   UNL A   1      40.837  19.188  25.691  1.00  0.00    -0.237 OA
ATOM     79  O   UNL A   1      43.095  19.442  24.717  1.00  0.00    -0.237 OA
ATOM     80  O   UNL A   1      42.825  18.456  26.959  1.00  0.00    -0.744 OA
ENDBRANCH  76  77
ENDBRANCH  48  71
BRANCH  60  81
ATOM     81  C   UNL A   1      47.970  26.597  30.984  1.00  0.00    -0.014 A 
ATOM     82  C   UNL A   1      49.054  26.898  30.140  1.00  0.00     0.010 A 
ATOM     83  C   UNL A   1      48.210  25.899  32.183  1.00  0.00     0.010 A 
ATOM     84  C   UNL A   1      50.347  26.486  30.476  1.00  0.00     0.020 A 
ATOM     85  C   UNL A   1      49.505  25.512  32.537  1.00  0.00     0.020 A 
ATOM     86  C   UNL A   1      50.564  25.799  31.674  1.00  0.00     0.054 A 
BRANCH  86  87
ATOM     87  S   UNL A   1      52.259  25.327  32.112  1.00  0.00     0.124 S 
ATOM     88  O   UNL A   1      52.124  23.893  32.352  1.00  0.00    -0.237 OA
ATOM     89  O   UNL A   1      53.014  25.696  30.916  1.00  0.00    -0.237 OA
ATOM     90  O   UNL A   1      52.549  26.130  33.297  1.00  0.00    -0.744 OA
ENDBRANCH  86  87
ENDBRANCH  60  81
ENDBRANCH  34  35
ENDBRANCH  26  29
ENDBRANCH  24  25
ENDBRANCH  23  24
ENDBRANCH   1  23
TORSDOF 17
ENDMDL
MODEL 2
REMARK VINA RESULT:     -10.0      4.120      7.802
REMARK SMILES CC(C)c1noc(C[N@H+]2CCCC[C@H]2C(=O)NCCCCNC(=O)c2ccc(-c3c4nc(c(-c5ccc(S(=O)(=O)[O-])cc5)c5ccc([nH]5)c(-c5ccc(S(=O)(=O)[O-])cc5)c5nc(c(-c6ccc(S(=O)(=O)[O-])cc6)c6ccc3[nH]6)C=C5)C=C4)cc2)n1
REMARK SMILES IDX 19 1 18 2 17 3 15 4 16 5 14 7 9 8 10 9 11 11 13 12 12 13
REMARK SMILES IDX 8 14 7 15 4 16 5 17 85 18 6 19 2 20 1 21 3 22 20 23 21 24
REMARK SMILES IDX 22 25 23 26 24 28 25 29 26 30 84 31 27 32 83 33 28 34 29 35
REMARK SMILES IDX 30 36 77 37 31 38 82 39 76 40 78 41 32 42 81 43 75 44 74 45
REMARK SMILES IDX 33 47 63 48 44 49 62 50 45 51 48 52 61 53 79 54 46 55 47 56
REMARK SMILES IDX 60 58 80 59 49 60 34 61 35 62 43 63 36 64 42 65 37 66 38 67
REMARK SMILES IDX 39 68 40 69 41 70 64 71 65 72 73 73 66 74 72 75 67 76 68 77
REMARK SMILES IDX 69 78 70 79 71 80 50 81 51 82 59 83 52 84 58 85 53 86 54 87
REMARK SMILES IDX 55 88 56 89 57 90
REMARK H PARENT 17 6 9 10 22 27 78 46 48 57
REMARK Flexibility Score: inf
ROOT
ATOM      1  C   UNL A   1      32.484  26.305  25.188  1.00  0.00     0.023 C 
ENDROOT
BRANCH   1   2
ATOM      2  C   UNL A   1      32.138  24.813  25.235  1.00  0.00     0.116 C 
BRANCH   2   3
ATOM      3  N   UNL A   1      33.012  24.075  24.350  1.00  0.00    -0.351 N 
ATOM      4  C   UNL A   1      34.334  23.783  24.513  1.00  0.00     0.278 C 
ATOM      5  O   UNL A   1      35.013  23.702  23.488  1.00  0.00    -0.268 OA
ATOM      6  H   UNL A   1      32.599  23.738  23.522  1.00  0.00     0.163 HD
BRANCH   4   7
ATOM      7  C   UNL A   1      34.879  23.531  25.940  1.00  0.00     0.274 C 
ATOM      8  N   UNL A   1      34.932  22.095  26.325  1.00  0.00    -0.317 N 
ATOM      9  C   UNL A   1      35.882  21.305  25.537  1.00  0.00     0.263 C 
ATOM     10  H   UNL A   1      35.316  22.120  27.270  1.00  0.00     0.349 HD
ATOM     11  C   UNL A   1      37.291  21.910  25.585  1.00  0.00     0.062 C 
ATOM     12  C   UNL A   1      36.273  24.151  26.093  1.00  0.00     0.076 C 
ATOM     13  C   UNL A   1      37.317  23.402  25.271  1.00  0.00     0.012 C 
BRANCH   8  14
ATOM     14  C   UNL A   1      33.617  21.440  26.493  1.00  0.00     0.364 C 
BRANCH  14  15
ATOM     15  C   UNL A   1      33.228  20.378  25.520  1.00  0.00     0.281 A 
ATOM     16  C   UNL A   1      32.888  18.677  24.347  1.00  0.00     0.174 A 
ATOM     17  N   UNL A   1      32.484  19.683  23.558  1.00  0.00    -0.062 NA
ATOM     18  N   UNL A   1      33.297  19.068  25.604  1.00  0.00    -0.191 NA
ATOM     19  O   UNL A   1      32.709  20.816  24.335  1.00  0.00    -0.333 OA
BRANCH  16  20
ATOM     20  C   UNL A   1      32.836  17.237  23.934  1.00  0.00     0.055 C 
ATOM     21  C   UNL A   1      33.989  16.827  23.010  1.00  0.00     0.016 C 
ATOM     22  C   UNL A   1      32.809  16.299  25.144  1.00  0.00     0.016 C 
ENDBRANCH  16  20
ENDBRANCH  14  15
ENDBRANCH   8  14
ENDBRANCH   4   7
ENDBRANCH   2   3
ENDBRANCH   1   2
BRANCH   1  23
ATOM     23  C   UNL A   1      32.929  26.901  26.531  1.00  0.00     0.023 C 
BRANCH  23  24
ATOM     24  C   UNL A   1      34.069  27.910  26.448  1.00  0.00     0.116 C 
BRANCH  24  25
ATOM     25  N   UNL A   1      33.648  29.248  26.830  1.00  0.00    -0.352 N 
ATOM     26  C   UNL A   1      34.309  30.178  27.595  1.00  0.00     0.251 C 
ATOM     27  H   UNL A   1      32.767  29.527  26.491  1.00  0.00     0.163 HD
ATOM     28  O   UNL A   1      33.719  31.191  27.965  1.00  0.00    -0.269 OA
BRANCH  26  29
ATOM     29  C   UNL A   1      35.714  29.947  27.999  1.00  0.00     0.039 A 
ATOM     30  C   UNL A   1      35.980  29.532  29.306  1.00  0.00     0.014 A 
ATOM     31  C   UNL A   1      36.764  30.134  27.097  1.00  0.00     0.014 A 
ATOM     32  C   UNL A   1      37.293  29.238  29.687  1.00  0.00     0.010 A 
ATOM     33  C   UNL A   1      38.062  29.774  27.457  1.00  0.00     0.010 A 
ATOM     34  C   UNL A   1      38.340  29.317  28.754  1.00  0.00    -0.014 A 
BRANCH  34  35
ATOM     35  C   UNL A   1      39.727  28.911  29.112  1.00  0.00     0.031 A 
ATOM     36  C   UNL A   1      40.652  29.886  29.793  1.00  0.00     0.074 A 
ATOM     37  C   UNL A   1      40.171  27.683  28.777  1.00  0.00     0.049 A 
ATOM     38  N   UNL A   1      41.913  29.741  30.111  1.00  0.00    -0.248 NA
ATOM     39  C   UNL A   1      40.091  31.201  30.147  1.00  0.00     0.031 C 
ATOM     40  C   UNL A   1      39.384  26.651  28.097  1.00  0.00     0.029 A 
ATOM     41  N   UNL A   1      41.399  27.093  28.958  1.00  0.00    -0.354 N 
ATOM     42  C   UNL A   1      42.295  30.939  30.703  1.00  0.00     0.074 A 
ATOM     43  C   UNL A   1      41.151  31.823  30.645  1.00  0.00     0.031 C 
ATOM     44  C   UNL A   1      40.139  25.551  27.941  1.00  0.00     0.029 A 
ATOM     45  C   UNL A   1      41.476  25.812  28.461  1.00  0.00     0.049 A 
ATOM     46  H   UNL A   1      42.153  27.545  29.401  1.00  0.00     0.167 HD
ATOM     47  C   UNL A   1      43.482  31.268  31.266  1.00  0.00     0.031 A 
ATOM     48  C   UNL A   1      42.511  24.949  28.416  1.00  0.00     0.031 A 
ATOM     49  C   UNL A   1      44.623  30.391  31.320  1.00  0.00     0.049 A 
ATOM     50  C   UNL A   1      43.840  25.366  28.990  1.00  0.00     0.074 A 
ATOM     51  C   UNL A   1      45.864  30.629  31.885  1.00  0.00     0.029 A 
ATOM     52  N   UNL A   1      44.663  29.109  30.794  1.00  0.00    -0.354 N 
ATOM     53  N   UNL A   1      44.166  26.488  29.585  1.00  0.00    -0.248 NA
ATOM     54  C   UNL A   1      44.940  24.395  28.892  1.00  0.00     0.031 C 
ATOM     55  C   UNL A   1      46.671  29.510  31.656  1.00  0.00     0.029 A 
ATOM     56  C   UNL A   1      45.912  28.551  31.006  1.00  0.00     0.049 A 
ATOM     57  H   UNL A   1      43.914  28.661  30.339  1.00  0.00     0.167 HD
ATOM     58  C   UNL A   1      45.497  26.342  29.964  1.00  0.00     0.074 A 
ATOM     59  C   UNL A   1      45.909  25.018  29.547  1.00  0.00     0.031 C 
ATOM     60  C   UNL A   1      46.306  27.225  30.600  1.00  0.00     0.031 A 
BRANCH  47  61
ATOM     61  C   UNL A   1      43.608  32.635  31.887  1.00  0.00    -0.014 A 
ATOM     62  C   UNL A   1      43.337  32.830  33.255  1.00  0.00     0.010 A 
ATOM     63  C   UNL A   1      44.062  33.722  31.119  1.00  0.00     0.010 A 
ATOM     64  C   UNL A   1      43.489  34.092  33.834  1.00  0.00     0.020 A 
ATOM     65  C   UNL A   1      44.245  34.980  31.703  1.00  0.00     0.020 A 
ATOM     66  C   UNL A   1      43.946  35.158  33.055  1.00  0.00     0.054 A 
BRANCH  66  67
ATOM     67  S   UNL A   1      44.174  36.773  33.848  1.00  0.00     0.124 S 
ATOM     68  O   UNL A   1      42.871  37.400  33.637  1.00  0.00    -0.237 OA
ATOM     69  O   UNL A   1      44.478  36.409  35.230  1.00  0.00    -0.237 OA
ATOM     70  O   UNL A   1      45.280  37.374  33.107  1.00  0.00    -0.744 OA
ENDBRANCH  66  67
ENDBRANCH  47  61
BRANCH  48  71
ATOM     71  C   UNL A   1      42.348  23.602  27.797  1.00  0.00    -0.014 A 
ATOM     72  C   UNL A   1      41.858  22.522  28.551  1.00  0.00     0.010 A 
ATOM     73  C   UNL A   1      42.723  23.383  26.457  1.00  0.00     0.010 A 
ATOM     74  C   UNL A   1      41.791  21.240  27.996  1.00  0.00     0.020 A 
ATOM     75  C   UNL A   1      42.625  22.111  25.887  1.00  0.00     0.020 A 
ATOM     76  C   UNL A   1      42.180  21.043  26.668  1.00  0.00     0.054 A 
BRANCH  76  77
ATOM     77  S   UNL A   1      42.085  19.372  25.967  1.00  0.00     0.124 S 
ATOM     78  O   UNL A   1      40.652  19.223  25.734  1.00  0.00    -0.237 OA
ATOM     79  O   UNL A   1      42.914  19.485  24.769  1.00  0.00    -0.237 OA
ATOM     80  O   UNL A   1      42.640  18.527  27.023  1.00  0.00    -0.744 OA
ENDBRANCH  76  77
ENDBRANCH  48  71
BRANCH  60  81
ATOM     81  C   UNL A   1      47.705  26.776  30.931  1.00  0.00    -0.014 A 
ATOM     82  C   UNL A   1      48.792  27.090  30.097  1.00  0.00     0.010 A 
ATOM     83  C   UNL A   1      47.941  26.081  32.132  1.00  0.00     0.010 A 
ATOM     84  C   UNL A   1      50.086  26.693  30.445  1.00  0.00     0.020 A 
ATOM     85  C   UNL A   1      49.238  25.709  32.498  1.00  0.00     0.020 A 
ATOM     86  C   UNL A   1      50.301  26.008  31.645  1.00  0.00     0.054 A 
BRANCH  86  87
ATOM     87  S   UNL A   1      51.998  25.556  32.098  1.00  0.00     0.124 S 
ATOM     88  O   UNL A   1      52.708  25.731  30.834  1.00  0.00    -0.237 OA
ATOM     89  O   UNL A   1      52.320  26.529  33.140  1.00  0.00    -0.237 OA
ATOM     90  O   UNL A   1      51.879  24.175  32.559  1.00  0.00    -0.744 OA
ENDBRANCH  86  87
ENDBRANCH  60  81
ENDBRANCH  34  35
ENDBRANCH  26  29
ENDBRANCH  24  25
ENDBRANCH  23  24
ENDBRANCH   1  23
TORSDOF 17
ENDMDL
MODEL 3
REMARK VINA RESULT:      -9.9      3.583      7.289
REMARK SMILES CC(C)c1noc(C[N@H+]2CCCC[C@H]2C(=O)NCCCCNC(=O)c2ccc(-c3c4nc(c(-c5ccc(S(=O)(=O)[O-])cc5)c5ccc([nH]5)c(-c5ccc(S(=O)(=O)[O-])cc5)c5nc(c(-c6ccc(S(=O)(=O)[O-])cc6)c6ccc3[nH]6)C=C5)C=C4)cc2)n1
REMARK SMILES IDX 19 1 18 2 17 3 15 4 16 5 14 7 9 8 10 9 11 11 13 12 12 13
REMARK SMILES IDX 8 14 7 15 4 16 5 17 85 18 6 19 2 20 1 21 3 22 20 23 21 24
REMARK SMILES IDX 22 25 23 26 24 28 25 29 26 30 84 31 27 32 83 33 28 34 29 35
REMARK SMILES IDX 30 36 77 37 31 38 82 39 76 40 78 41 32 42 81 43 75 44 74 45
REMARK SMILES IDX 33 47 63 48 44 49 62 50 45 51 48 52 61 53 79 54 46 55 47 56
REMARK SMILES IDX 60 58 80 59 49 60 34 61 35 62 43 63 36 64 42 65 37 66 38 67
REMARK SMILES IDX 39 68 40 69 41 70 64 71 65 72 73 73 66 74 72 75 67 76 68 77
REMARK SMILES IDX 69 78 70 79 71 80 50 81 51 82 59 83 52 84 58 85 53 86 54 87
REMARK SMILES IDX 55 88 56 89 57 90
REMARK H PARENT 17 6 9 10 22 27 78 46 48 57
REMARK Flexibility Score: inf
ROOT
ATOM      1  C   UNL A   1      33.628  28.248  24.680  1.00  0.00     0.023 C 
ENDROOT
BRANCH   1   2
ATOM      2  C   UNL A   1      33.574  26.997  23.795  1.00  0.00     0.116 C 
BRANCH   2   3
ATOM      3  N   UNL A   1      33.961  25.832  24.562  1.00  0.00    -0.351 N 
ATOM      4  C   UNL A   1      33.160  24.920  25.180  1.00  0.00     0.278 C 
ATOM      5  O   UNL A   1      33.601  24.402  26.207  1.00  0.00    -0.268 OA
ATOM      6  H   UNL A   1      34.930  25.679  24.648  1.00  0.00     0.163 HD
BRANCH   4   7
ATOM      7  C   UNL A   1      31.795  24.562  24.543  1.00  0.00     0.274 C 
ATOM      8  N   UNL A   1      31.673  23.140  24.126  1.00  0.00    -0.317 N 
ATOM      9  C   UNL A   1      31.699  22.191  25.242  1.00  0.00     0.263 C 
ATOM     10  H   UNL A   1      30.728  23.087  23.745  1.00  0.00     0.349 HD
ATOM     11  C   UNL A   1      30.624  22.522  26.285  1.00  0.00     0.062 C 
ATOM     12  C   UNL A   1      30.652  24.911  25.505  1.00  0.00     0.076 C 
ATOM     13  C   UNL A   1      30.633  23.984  26.716  1.00  0.00     0.012 C 
BRANCH   8  14
ATOM     14  C   UNL A   1      32.535  22.740  22.992  1.00  0.00     0.364 C 
BRANCH  14  15
ATOM     15  C   UNL A   1      34.012  22.721  23.201  1.00  0.00     0.281 A 
ATOM     16  C   UNL A   1      36.009  22.552  23.808  1.00  0.00     0.174 A 
ATOM     17  N   UNL A   1      36.067  23.420  22.788  1.00  0.00    -0.062 NA
ATOM     18  N   UNL A   1      34.751  22.044  24.051  1.00  0.00    -0.191 NA
ATOM     19  O   UNL A   1      34.742  23.535  22.382  1.00  0.00    -0.333 OA
BRANCH  16  20
ATOM     20  C   UNL A   1      37.215  22.107  24.579  1.00  0.00     0.055 C 
ATOM     21  C   UNL A   1      37.406  22.863  25.899  1.00  0.00     0.016 C 
ATOM     22  C   UNL A   1      37.184  20.603  24.865  1.00  0.00     0.016 C 
ENDBRANCH  16  20
ENDBRANCH  14  15
ENDBRANCH   8  14
ENDBRANCH   4   7
ENDBRANCH   2   3
ENDBRANCH   1   2
BRANCH   1  23
ATOM     23  C   UNL A   1      32.759  28.175  25.943  1.00  0.00     0.023 C 
BRANCH  23  24
ATOM     24  C   UNL A   1      33.474  28.523  27.244  1.00  0.00     0.116 C 
BRANCH  24  25
ATOM     25  N   UNL A   1      33.474  29.953  27.505  1.00  0.00    -0.352 N 
ATOM     26  C   UNL A   1      34.451  30.727  28.083  1.00  0.00     0.251 C 
ATOM     27  H   UNL A   1      32.661  30.434  27.228  1.00  0.00     0.163 HD
ATOM     28  O   UNL A   1      34.203  31.892  28.388  1.00  0.00    -0.269 OA
BRANCH  26  29
ATOM     29  C   UNL A   1      35.786  30.154  28.365  1.00  0.00     0.039 A 
ATOM     30  C   UNL A   1      36.750  30.160  27.356  1.00  0.00     0.014 A 
ATOM     31  C   UNL A   1      36.089  29.616  29.619  1.00  0.00     0.014 A 
ATOM     32  C   UNL A   1      38.040  29.690  27.624  1.00  0.00     0.010 A 
ATOM     33  C   UNL A   1      37.392  29.213  29.905  1.00  0.00     0.010 A 
ATOM     34  C   UNL A   1      38.384  29.251  28.913  1.00  0.00    -0.014 A 
BRANCH  34  35
ATOM     35  C   UNL A   1      39.776  28.842  29.244  1.00  0.00     0.031 A 
ATOM     36  C   UNL A   1      40.712  29.811  29.919  1.00  0.00     0.074 A 
ATOM     37  C   UNL A   1      40.215  27.618  28.890  1.00  0.00     0.049 A 
ATOM     38  N   UNL A   1      41.978  29.663  30.216  1.00  0.00    -0.248 NA
ATOM     39  C   UNL A   1      40.157  31.122  30.296  1.00  0.00     0.031 C 
ATOM     40  C   UNL A   1      39.418  26.592  28.212  1.00  0.00     0.029 A 
ATOM     41  N   UNL A   1      41.446  27.027  29.045  1.00  0.00    -0.354 N 
ATOM     42  C   UNL A   1      42.370  30.855  30.813  1.00  0.00     0.074 A 
ATOM     43  C   UNL A   1      41.225  31.739  30.782  1.00  0.00     0.031 C 
ATOM     44  C   UNL A   1      40.170  25.494  28.033  1.00  0.00     0.029 A 
ATOM     45  C   UNL A   1      41.516  25.750  28.534  1.00  0.00     0.049 A 
ATOM     46  H   UNL A   1      42.207  27.475  29.480  1.00  0.00     0.167 HD
ATOM     47  C   UNL A   1      43.565  31.180  31.360  1.00  0.00     0.031 A 
ATOM     48  C   UNL A   1      42.550  24.888  28.463  1.00  0.00     0.031 A 
ATOM     49  C   UNL A   1      44.707  30.303  31.386  1.00  0.00     0.049 A 
ATOM     50  C   UNL A   1      43.888  25.300  29.020  1.00  0.00     0.074 A 
ATOM     51  C   UNL A   1      45.957  30.536  31.933  1.00  0.00     0.029 A 
ATOM     52  N   UNL A   1      44.739  29.026  30.847  1.00  0.00    -0.354 N 
ATOM     53  N   UNL A   1      44.224  26.417  29.621  1.00  0.00    -0.248 NA
ATOM     54  C   UNL A   1      44.987  24.331  28.894  1.00  0.00     0.031 C 
ATOM     55  C   UNL A   1      46.761  29.420  31.680  1.00  0.00     0.029 A 
ATOM     56  C   UNL A   1      45.992  28.467  31.033  1.00  0.00     0.049 A 
ATOM     57  H   UNL A   1      43.983  28.582  30.400  1.00  0.00     0.167 HD
ATOM     58  C   UNL A   1      45.560  26.268  29.976  1.00  0.00     0.074 A 
ATOM     59  C   UNL A   1      45.966  24.949  29.539  1.00  0.00     0.031 C 
ATOM     60  C   UNL A   1      46.379  27.146  30.607  1.00  0.00     0.031 A 
BRANCH  47  61
ATOM     61  C   UNL A   1      43.701  32.541  31.992  1.00  0.00    -0.014 A 
ATOM     62  C   UNL A   1      43.923  33.682  31.198  1.00  0.00     0.010 A 
ATOM     63  C   UNL A   1      43.540  32.696  33.380  1.00  0.00     0.010 A 
ATOM     64  C   UNL A   1      44.011  34.947  31.784  1.00  0.00     0.020 A 
ATOM     65  C   UNL A   1      43.598  33.965  33.967  1.00  0.00     0.020 A 
ATOM     66  C   UNL A   1      43.845  35.080  33.165  1.00  0.00     0.054 A 
BRANCH  66  67
ATOM     67  S   UNL A   1      43.923  36.741  33.889  1.00  0.00     0.124 S 
ATOM     68  O   UNL A   1      42.508  37.080  34.022  1.00  0.00    -0.237 OA
ATOM     69  O   UNL A   1      44.632  36.508  35.145  1.00  0.00    -0.237 OA
ATOM     70  O   UNL A   1      44.659  37.521  32.896  1.00  0.00    -0.744 OA
ENDBRANCH  66  67
ENDBRANCH  47  61
BRANCH  48  71
ATOM     71  C   UNL A   1      42.378  23.548  27.834  1.00  0.00    -0.014 A 
ATOM     72  C   UNL A   1      42.089  22.419  28.621  1.00  0.00     0.010 A 
ATOM     73  C   UNL A   1      42.544  23.386  26.445  1.00  0.00     0.010 A 
ATOM     74  C   UNL A   1      42.016  21.149  28.041  1.00  0.00     0.020 A 
ATOM     75  C   UNL A   1      42.437  22.123  25.856  1.00  0.00     0.020 A 
ATOM     76  C   UNL A   1      42.196  21.009  26.662  1.00  0.00     0.054 A 
BRANCH  76  77
ATOM     77  S   UNL A   1      42.100  19.351  25.930  1.00  0.00     0.124 S 
ATOM     78  O   UNL A   1      42.954  19.490  24.755  1.00  0.00    -0.237 OA
ATOM     79  O   UNL A   1      42.624  18.504  26.999  1.00  0.00    -0.237 OA
ATOM     80  O   UNL A   1      40.675  19.183  25.653  1.00  0.00    -0.744 OA
ENDBRANCH  76  77
ENDBRANCH  48  71
BRANCH  60  81
ATOM     81  C   UNL A   1      47.783  26.694  30.911  1.00  0.00    -0.014 A 
ATOM     82  C   UNL A   1      48.843  26.946  30.022  1.00  0.00     0.010 A 
ATOM     83  C   UNL A   1      48.056  26.060  32.139  1.00  0.00     0.010 A 
ATOM     84  C   UNL A   1      50.144  26.549  30.343  1.00  0.00     0.020 A 
ATOM     85  C   UNL A   1      49.360  25.689  32.477  1.00  0.00     0.020 A 
ATOM     86  C   UNL A   1      50.395  25.926  31.570  1.00  0.00     0.054 A 
BRANCH  86  87
ATOM     87  S   UNL A   1      52.101  25.474  31.985  1.00  0.00     0.124 S 
ATOM     88  O   UNL A   1      52.361  26.307  33.156  1.00  0.00    -0.237 OA
ATOM     89  O   UNL A   1      51.998  24.039  32.246  1.00  0.00    -0.237 OA
ATOM     90  O   UNL A   1      52.857  25.830  30.788  1.00  0.00    -0.744 OA
ENDBRANCH  86  87
ENDBRANCH  60  81
ENDBRANCH  34  35
ENDBRANCH  26  29
ENDBRANCH  24  25
ENDBRANCH  23  24
ENDBRANCH   1  23
TORSDOF 17
ENDMDL
