MODEL 1
REMARK VINA RESULT:      -7.7      0.000      0.000
REMARK SMILES CC1CC[NH+]([C@H](c2ccc(F)cc2)c2ccc([C@@H](C)C(=O)NCCCCNC(=O)c3ccc(-c4c5nc(c(-c6ccc(S(=O)(=O)[O-])cc6)c6ccc([nH]6)c(-c6ccc(S(=O)(=O)[O-])cc6)c6nc(c(-c7ccc(S(=O)(=O)[O-])cc7)c7ccc4[nH]7)C=C6)C=C5)cc3)cc2-c2ccc(C(F)(F)F)cc2)CC1
REMARK SMILES IDX 24 1 23 2 22 3 20 4 21 5 18 7 19 8 17 9 14 10 15 11 91 12
REMARK SMILES IDX 16 13 90 14 6 15 5 16 1 17 2 18 3 19 103 20 4 21 102 22 7 24
REMARK SMILES IDX 8 25 13 26 9 27 12 28 10 29 11 30 92 31 93 32 101 33 94 34
REMARK SMILES IDX 100 35 95 36 96 37 97 38 98 39 99 40 25 41 26 42 27 43 28 44
REMARK SMILES IDX 29 46 30 47 31 48 89 49 32 50 88 51 33 52 34 53 35 54 82 55
REMARK SMILES IDX 36 56 87 57 81 58 83 59 37 60 86 61 80 62 79 63 38 65 68 66
REMARK SMILES IDX 49 67 67 68 50 69 53 70 66 71 84 72 51 73 52 74 65 76 85 77
REMARK SMILES IDX 54 78 39 79 40 80 48 81 41 82 47 83 42 84 43 85 44 86 45 87
REMARK SMILES IDX 46 88 69 89 70 90 78 91 71 92 77 93 72 94 73 95 74 96 75 97
REMARK SMILES IDX 76 98 55 99 56 100 64 101 57 102 63 103 58 104 59 105 60 106
REMARK SMILES IDX 61 107 62 108
REMARK H PARENT 22 6 5 23 27 45 83 64 53 75
REMARK Flexibility Score: inf
ROOT
ATOM      1  C   UNL A   1      44.469  43.785  32.300  1.00  0.00     0.023 C 
ENDROOT
BRANCH   1   2
ATOM      2  C   UNL A   1      43.436  42.972  33.089  1.00  0.00     0.116 C 
BRANCH   2   3
ATOM      3  N   UNL A   1      42.312  42.566  32.267  1.00  0.00    -0.356 N 
ATOM      4  C   UNL A   1      42.031  41.423  31.580  1.00  0.00     0.227 C 
ATOM      5  O   UNL A   1      40.979  41.428  30.928  1.00  0.00    -0.274 OA
ATOM      6  H   UNL A   1      41.612  43.252  32.191  1.00  0.00     0.163 HD
BRANCH   4   7
ATOM      7  C   UNL A   1      42.913  40.158  31.577  1.00  0.00     0.105 C 
ATOM      8  C   UNL A   1      43.660  39.914  32.886  1.00  0.00     0.023 C 
BRANCH   7   9
ATOM      9  C   UNL A   1      43.745  40.010  30.315  1.00  0.00    -0.035 A 
ATOM     10  C   UNL A   1      44.951  39.939  27.714  1.00  0.00     0.022 A 
ATOM     11  C   UNL A   1      45.162  40.988  28.623  1.00  0.00     0.011 A 
ATOM     12  C   UNL A   1      44.255  38.804  28.219  1.00  0.00    -0.009 A 
ATOM     13  C   UNL A   1      44.650  40.978  29.919  1.00  0.00     0.005 A 
ATOM     14  C   UNL A   1      43.595  38.901  29.471  1.00  0.00     0.013 A 
BRANCH  10  15
ATOM     15  C   UNL A   1      45.518  40.011  26.263  1.00  0.00     0.247 C 
BRANCH  15  16
ATOM     16  N   UNL A   1      46.947  39.610  26.039  1.00  0.00    -0.325 N 
ATOM     17  C   UNL A   1      50.506  37.035  26.330  1.00  0.00     0.008 C 
ATOM     18  C   UNL A   1      49.123  37.674  26.405  1.00  0.00    -0.003 C 
ATOM     19  C   UNL A   1      48.504  37.853  25.019  1.00  0.00     0.065 C 
ATOM     20  C   UNL A   1      49.193  39.051  27.047  1.00  0.00     0.065 C 
ATOM     21  C   UNL A   1      47.124  38.529  25.065  1.00  0.00     0.263 C 
ATOM     22  C   UNL A   1      47.787  39.612  27.238  1.00  0.00     0.263 C 
ATOM     23  H   UNL A   1      47.373  40.389  25.536  1.00  0.00     0.348 HD
ENDBRANCH  15  16
BRANCH  15  24
ATOM     24  C   UNL A   1      45.236  41.351  25.550  1.00  0.00     0.014 A 
ATOM     25  C   UNL A   1      46.274  42.214  25.145  1.00  0.00     0.013 A 
ATOM     26  C   UNL A   1      43.907  41.737  25.289  1.00  0.00     0.013 A 
ATOM     27  C   UNL A   1      45.993  43.419  24.496  1.00  0.00     0.040 A 
ATOM     28  C   UNL A   1      43.627  42.956  24.668  1.00  0.00     0.040 A 
ATOM     29  C   UNL A   1      44.671  43.781  24.273  1.00  0.00     0.123 A 
ATOM     30  F   UNL A   1      44.398  44.946  23.670  1.00  0.00    -0.207 F 
ENDBRANCH  15  24
ENDBRANCH  10  15
BRANCH  12  31
ATOM     31  C   UNL A   1      44.242  37.488  27.548  1.00  0.00    -0.018 A 
ATOM     32  C   UNL A   1      43.064  36.935  27.025  1.00  0.00     0.009 A 
ATOM     33  C   UNL A   1      45.419  36.724  27.477  1.00  0.00     0.009 A 
ATOM     34  C   UNL A   1      43.069  35.671  26.424  1.00  0.00     0.014 A 
ATOM     35  C   UNL A   1      45.431  35.465  26.870  1.00  0.00     0.014 A 
ATOM     36  C   UNL A   1      44.256  34.929  26.330  1.00  0.00     0.056 A 
BRANCH  36  37
ATOM     37  C   UNL A   1      44.252  33.564  25.686  1.00  0.00     0.416 C 
ATOM     38  F   UNL A   1      45.509  33.069  25.510  1.00  0.00    -0.166 F 
ATOM     39  F   UNL A   1      43.583  32.632  26.419  1.00  0.00    -0.166 F 
ATOM     40  F   UNL A   1      43.673  33.549  24.452  1.00  0.00    -0.166 F 
ENDBRANCH  36  37
ENDBRANCH  12  31
ENDBRANCH   7   9
ENDBRANCH   4   7
ENDBRANCH   2   3
ENDBRANCH   1   2
BRANCH   1  41
ATOM     41  C   UNL A   1      45.919  43.639  32.751  1.00  0.00     0.023 C 
BRANCH  41  42
ATOM     42  C   UNL A   1      46.309  42.252  33.246  1.00  0.00     0.116 C 
BRANCH  42  43
ATOM     43  N   UNL A   1      47.745  42.042  33.367  1.00  0.00    -0.352 N 
ATOM     44  C   UNL A   1      48.469  40.904  33.075  1.00  0.00     0.251 C 
ATOM     45  H   UNL A   1      48.264  42.808  33.700  1.00  0.00     0.163 HD
ATOM     46  O   UNL A   1      49.669  40.865  33.297  1.00  0.00    -0.269 OA
BRANCH  44  47
ATOM     47  C   UNL A   1      47.761  39.719  32.539  1.00  0.00     0.039 A 
ATOM     48  C   UNL A   1      47.574  39.616  31.159  1.00  0.00     0.014 A 
ATOM     49  C   UNL A   1      47.346  38.686  33.384  1.00  0.00     0.014 A 
ATOM     50  C   UNL A   1      47.051  38.437  30.621  1.00  0.00     0.010 A 
ATOM     51  C   UNL A   1      46.902  37.484  32.841  1.00  0.00     0.010 A 
ATOM     52  C   UNL A   1      46.757  37.344  31.453  1.00  0.00    -0.014 A 
BRANCH  52  53
ATOM     53  C   UNL A   1      46.327  36.040  30.885  1.00  0.00     0.031 A 
ATOM     54  C   UNL A   1      47.272  35.227  30.042  1.00  0.00     0.074 A 
ATOM     55  C   UNL A   1      45.059  35.621  31.075  1.00  0.00     0.049 A 
ATOM     56  N   UNL A   1      47.062  34.084  29.442  1.00  0.00    -0.248 NA
ATOM     57  C   UNL A   1      48.619  35.781  29.819  1.00  0.00     0.031 C 
ATOM     58  C   UNL A   1      44.023  36.351  31.815  1.00  0.00     0.029 A 
ATOM     59  N   UNL A   1      44.419  34.481  30.656  1.00  0.00    -0.354 N 
ATOM     60  C   UNL A   1      48.236  33.792  28.757  1.00  0.00     0.074 A 
ATOM     61  C   UNL A   1      49.141  34.898  28.979  1.00  0.00     0.031 C 
ATOM     62  C   UNL A   1      42.893  35.626  31.824  1.00  0.00     0.029 A 
ATOM     63  C   UNL A   1      43.108  34.398  31.066  1.00  0.00     0.049 A 
ATOM     64  H   UNL A   1      44.858  33.787  30.114  1.00  0.00     0.167 HD
ATOM     65  C   UNL A   1      48.541  32.694  28.027  1.00  0.00     0.031 A 
ATOM     66  C   UNL A   1      42.183  33.443  30.854  1.00  0.00     0.031 A 
ATOM     67  C   UNL A   1      47.652  31.579  27.836  1.00  0.00     0.049 A 
ATOM     68  C   UNL A   1      42.561  32.219  30.064  1.00  0.00     0.074 A 
ATOM     69  C   UNL A   1      47.904  30.382  27.188  1.00  0.00     0.029 A 
ATOM     70  N   UNL A   1      46.345  31.521  28.292  1.00  0.00    -0.354 N 
ATOM     71  N   UNL A   1      43.711  31.921  29.507  1.00  0.00    -0.248 NA
ATOM     72  C   UNL A   1      41.520  31.198  29.886  1.00  0.00     0.031 C 
ATOM     73  C   UNL A   1      46.733  29.618  27.211  1.00  0.00     0.029 A 
ATOM     74  C   UNL A   1      45.770  30.318  27.917  1.00  0.00     0.049 A 
ATOM     75  H   UNL A   1      45.894  32.228  28.806  1.00  0.00     0.167 HD
ATOM     76  C   UNL A   1      43.536  30.666  28.934  1.00  0.00     0.074 A 
ATOM     77  C   UNL A   1      42.181  30.253  29.230  1.00  0.00     0.031 C 
ATOM     78  C   UNL A   1      44.419  29.923  28.223  1.00  0.00     0.031 A 
BRANCH  65  79
ATOM     79  C   UNL A   1      49.899  32.631  27.383  1.00  0.00    -0.014 A 
ATOM     80  C   UNL A   1      50.125  33.189  26.111  1.00  0.00     0.010 A 
ATOM     81  C   UNL A   1      50.982  32.080  28.092  1.00  0.00     0.010 A 
ATOM     82  C   UNL A   1      51.405  33.178  25.553  1.00  0.00     0.020 A 
ATOM     83  C   UNL A   1      52.269  32.089  27.545  1.00  0.00     0.020 A 
ATOM     84  C   UNL A   1      52.470  32.631  26.273  1.00  0.00     0.054 A 
BRANCH  84  85
ATOM     85  S   UNL A   1      54.130  32.685  25.547  1.00  0.00     0.124 S 
ATOM     86  O   UNL A   1      53.849  32.443  24.134  1.00  0.00    -0.237 OA
ATOM     87  O   UNL A   1      54.580  34.036  25.876  1.00  0.00    -0.237 OA
ATOM     88  O   UNL A   1      54.845  31.610  26.233  1.00  0.00    -0.744 OA
ENDBRANCH  84  85
ENDBRANCH  65  79
BRANCH  66  89
ATOM     89  C   UNL A   1      40.808  33.588  31.407  1.00  0.00    -0.014 A 
ATOM     90  C   UNL A   1      40.489  33.063  32.672  1.00  0.00     0.010 A 
ATOM     91  C   UNL A   1      39.803  34.224  30.658  1.00  0.00     0.010 A 
ATOM     92  C   UNL A   1      39.180  33.136  33.161  1.00  0.00     0.020 A 
ATOM     93  C   UNL A   1      38.500  34.325  31.155  1.00  0.00     0.020 A 
ATOM     94  C   UNL A   1      38.193  33.761  32.395  1.00  0.00     0.054 A 
BRANCH  94  95
ATOM     95  S   UNL A   1      36.504  33.859  33.050  1.00  0.00     0.124 S 
ATOM     96  O   UNL A   1      35.736  34.187  31.854  1.00  0.00    -0.237 OA
ATOM     97  O   UNL A   1      36.294  32.518  33.590  1.00  0.00    -0.237 OA
ATOM     98  O   UNL A   1      36.589  34.919  34.052  1.00  0.00    -0.744 OA
ENDBRANCH  94  95
ENDBRANCH  66  89
BRANCH  78  99
ATOM     99  C   UNL A   1      43.954  28.575  27.743  1.00  0.00    -0.014 A 
ATOM    100  C   UNL A   1      43.316  28.427  26.499  1.00  0.00     0.010 A 
ATOM    101  C   UNL A   1      44.191  27.437  28.536  1.00  0.00     0.010 A 
ATOM    102  C   UNL A   1      42.886  27.168  26.074  1.00  0.00     0.020 A 
ATOM    103  C   UNL A   1      43.786  26.172  28.101  1.00  0.00     0.020 A 
ATOM    104  C   UNL A   1      43.119  26.049  26.879  1.00  0.00     0.054 A 
BRANCH 104 105
ATOM    105  S   UNL A   1      42.575  24.421  26.296  1.00  0.00     0.124 S 
ATOM    106  O   UNL A   1      43.232  24.330  24.995  1.00  0.00    -0.237 OA
ATOM    107  O   UNL A   1      43.091  23.521  27.324  1.00  0.00    -0.237 OA
ATOM    108  O   UNL A   1      41.120  24.538  26.252  1.00  0.00    -0.744 OA
ENDBRANCH 104 105
ENDBRANCH  78  99
ENDBRANCH  52  53
ENDBRANCH  44  47
ENDBRANCH  42  43
ENDBRANCH  41  42
ENDBRANCH   1  41
TORSDOF 20
ENDMDL
MODEL 2
REMARK VINA RESULT:      -7.2      4.763     13.551
REMARK SMILES CC1CC[NH+]([C@H](c2ccc(F)cc2)c2ccc([C@@H](C)C(=O)NCCCCNC(=O)c3ccc(-c4c5nc(c(-c6ccc(S(=O)(=O)[O-])cc6)c6ccc([nH]6)c(-c6ccc(S(=O)(=O)[O-])cc6)c6nc(c(-c7ccc(S(=O)(=O)[O-])cc7)c7ccc4[nH]7)C=C6)C=C5)cc3)cc2-c2ccc(C(F)(F)F)cc2)CC1
REMARK SMILES IDX 24 1 23 2 22 3 20 4 21 5 18 7 19 8 17 9 14 10 15 11 91 12
REMARK SMILES IDX 16 13 90 14 6 15 5 16 1 17 2 18 3 19 103 20 4 21 102 22 7 24
REMARK SMILES IDX 8 25 13 26 9 27 12 28 10 29 11 30 92 31 93 32 101 33 94 34
REMARK SMILES IDX 100 35 95 36 96 37 97 38 98 39 99 40 25 41 26 42 27 43 28 44
REMARK SMILES IDX 29 46 30 47 31 48 89 49 32 50 88 51 33 52 34 53 35 54 82 55
REMARK SMILES IDX 36 56 87 57 81 58 83 59 37 60 86 61 80 62 79 63 38 65 68 66
REMARK SMILES IDX 49 67 67 68 50 69 53 70 66 71 84 72 51 73 52 74 65 76 85 77
REMARK SMILES IDX 54 78 39 79 40 80 48 81 41 82 47 83 42 84 43 85 44 86 45 87
REMARK SMILES IDX 46 88 69 89 70 90 78 91 71 92 77 93 72 94 73 95 74 96 75 97
REMARK SMILES IDX 76 98 55 99 56 100 64 101 57 102 63 103 58 104 59 105 60 106
REMARK SMILES IDX 61 107 62 108
REMARK H PARENT 22 6 5 23 27 45 83 64 53 75
REMARK Flexibility Score: inf
ROOT
ATOM      1  C   UNL A   1      46.028  23.768  37.264  1.00  0.00     0.023 C 
ENDROOT
BRANCH   1   2
ATOM      2  C   UNL A   1      45.788  23.417  35.790  1.00  0.00     0.116 C 
BRANCH   2   3
ATOM      3  N   UNL A   1      47.014  23.441  35.014  1.00  0.00    -0.356 N 
ATOM      4  C   UNL A   1      47.567  24.369  34.184  1.00  0.00     0.227 C 
ATOM      5  O   UNL A   1      48.626  24.039  33.633  1.00  0.00    -0.274 OA
ATOM      6  H   UNL A   1      47.554  22.623  35.106  1.00  0.00     0.163 HD
BRANCH   4   7
ATOM      7  C   UNL A   1      46.978  25.767  33.909  1.00  0.00     0.105 C 
ATOM      8  C   UNL A   1      46.457  26.481  35.153  1.00  0.00     0.023 C 
BRANCH   7   9
ATOM      9  C   UNL A   1      46.057  25.802  32.702  1.00  0.00    -0.035 A 
ATOM     10  C   UNL A   1      44.670  25.654  30.196  1.00  0.00     0.022 A 
ATOM     11  C   UNL A   1      44.556  24.668  31.190  1.00  0.00     0.011 A 
ATOM     12  C   UNL A   1      45.364  26.840  30.568  1.00  0.00    -0.009 A 
ATOM     13  C   UNL A   1      45.156  24.785  32.442  1.00  0.00     0.005 A 
ATOM     14  C   UNL A   1      46.113  26.850  31.774  1.00  0.00     0.013 A 
BRANCH  10  15
ATOM     15  C   UNL A   1      44.006  25.463  28.798  1.00  0.00     0.247 C 
BRANCH  15  16
ATOM     16  N   UNL A   1      42.918  24.437  28.663  1.00  0.00    -0.325 N 
ATOM     17  C   UNL A   1      40.025  21.882  26.545  1.00  0.00     0.008 C 
ATOM     18  C   UNL A   1      41.111  22.869  26.963  1.00  0.00    -0.003 C 
ATOM     19  C   UNL A   1      42.276  22.170  27.663  1.00  0.00     0.065 C 
ATOM     20  C   UNL A   1      40.561  23.906  27.931  1.00  0.00     0.065 C 
ATOM     21  C   UNL A   1      43.367  23.149  28.127  1.00  0.00     0.263 C 
ATOM     22  C   UNL A   1      41.623  24.961  28.226  1.00  0.00     0.263 C 
ATOM     23  H   UNL A   1      42.676  24.169  29.618  1.00  0.00     0.348 HD
ENDBRANCH  15  16
BRANCH  15  24
ATOM     24  C   UNL A   1      45.020  25.300  27.645  1.00  0.00     0.014 A 
ATOM     25  C   UNL A   1      46.202  24.546  27.790  1.00  0.00     0.013 A 
ATOM     26  C   UNL A   1      44.769  25.916  26.404  1.00  0.00     0.013 A 
ATOM     27  C   UNL A   1      47.099  24.409  26.728  1.00  0.00     0.040 A 
ATOM     28  C   UNL A   1      45.682  25.804  25.354  1.00  0.00     0.040 A 
ATOM     29  C   UNL A   1      46.834  25.048  25.524  1.00  0.00     0.123 A 
ATOM     30  F   UNL A   1      47.705  24.935  24.512  1.00  0.00    -0.207 F 
ENDBRANCH  15  24
ENDBRANCH  10  15
BRANCH  12  31
ATOM     31  C   UNL A   1      45.290  28.103  29.808  1.00  0.00    -0.018 A 
ATOM     32  C   UNL A   1      44.099  28.838  29.705  1.00  0.00     0.009 A 
ATOM     33  C   UNL A   1      46.416  28.569  29.107  1.00  0.00     0.009 A 
ATOM     34  C   UNL A   1      44.044  30.016  28.951  1.00  0.00     0.014 A 
ATOM     35  C   UNL A   1      46.367  29.749  28.360  1.00  0.00     0.014 A 
ATOM     36  C   UNL A   1      45.181  30.489  28.280  1.00  0.00     0.056 A 
BRANCH  36  37
ATOM     37  C   UNL A   1      45.112  31.756  27.464  1.00  0.00     0.416 C 
ATOM     38  F   UNL A   1      46.257  32.490  27.545  1.00  0.00    -0.166 F 
ATOM     39  F   UNL A   1      44.910  31.524  26.138  1.00  0.00    -0.166 F 
ATOM     40  F   UNL A   1      44.108  32.595  27.849  1.00  0.00    -0.166 F 
ENDBRANCH  36  37
ENDBRANCH  12  31
ENDBRANCH   7   9
ENDBRANCH   4   7
ENDBRANCH   2   3
ENDBRANCH   1   2
BRANCH   1  41
ATOM     41  C   UNL A   1      44.777  24.008  38.104  1.00  0.00     0.023 C 
BRANCH  41  42
ATOM     42  C   UNL A   1      43.958  25.233  37.716  1.00  0.00     0.116 C 
BRANCH  42  43
ATOM     43  N   UNL A   1      42.574  24.942  37.369  1.00  0.00    -0.352 N 
ATOM     44  C   UNL A   1      41.772  25.583  36.448  1.00  0.00     0.251 C 
ATOM     45  H   UNL A   1      42.159  24.193  37.854  1.00  0.00     0.163 HD
ATOM     46  O   UNL A   1      40.601  25.260  36.323  1.00  0.00    -0.269 OA
BRANCH  44  47
ATOM     47  C   UNL A   1      42.337  26.701  35.657  1.00  0.00     0.039 A 
ATOM     48  C   UNL A   1      42.607  26.494  34.303  1.00  0.00     0.014 A 
ATOM     49  C   UNL A   1      42.533  27.960  36.228  1.00  0.00     0.014 A 
ATOM     50  C   UNL A   1      42.990  27.574  33.503  1.00  0.00     0.010 A 
ATOM     51  C   UNL A   1      42.835  29.049  35.416  1.00  0.00     0.010 A 
ATOM     52  C   UNL A   1      43.059  28.870  34.044  1.00  0.00    -0.014 A 
BRANCH  52  53
ATOM     53  C   UNL A   1      43.334  30.048  33.182  1.00  0.00     0.031 A 
ATOM     54  C   UNL A   1      42.202  30.802  32.538  1.00  0.00     0.074 A 
ATOM     55  C   UNL A   1      44.612  30.396  32.925  1.00  0.00     0.049 A 
ATOM     56  N   UNL A   1      42.254  31.833  31.735  1.00  0.00    -0.248 NA
ATOM     57  C   UNL A   1      40.836  30.321  32.806  1.00  0.00     0.031 C 
ATOM     58  C   UNL A   1      45.801  29.703  33.432  1.00  0.00     0.029 A 
ATOM     59  N   UNL A   1      45.128  31.418  32.168  1.00  0.00    -0.354 N 
ATOM     60  C   UNL A   1      40.937  32.110  31.387  1.00  0.00     0.074 A 
ATOM     61  C   UNL A   1      40.110  31.114  32.031  1.00  0.00     0.031 C 
ATOM     62  C   UNL A   1      46.902  30.340  32.998  1.00  0.00     0.029 A 
ATOM     63  C   UNL A   1      46.503  31.462  32.158  1.00  0.00     0.049 A 
ATOM     64  H   UNL A   1      44.566  32.061  31.678  1.00  0.00     0.167 HD
ATOM     65  C   UNL A   1      40.457  33.116  30.618  1.00  0.00     0.031 A 
ATOM     66  C   UNL A   1      47.348  32.310  31.541  1.00  0.00     0.031 A 
ATOM     67  C   UNL A   1      41.278  34.127  30.007  1.00  0.00     0.049 A 
ATOM     68  C   UNL A   1      46.784  33.437  30.717  1.00  0.00     0.074 A 
ATOM     69  C   UNL A   1      40.876  35.238  29.285  1.00  0.00     0.029 A 
ATOM     70  N   UNL A   1      42.663  34.154  30.045  1.00  0.00    -0.354 N 
ATOM     71  N   UNL A   1      45.528  33.737  30.482  1.00  0.00    -0.248 NA
ATOM     72  C   UNL A   1      47.751  34.346  30.087  1.00  0.00     0.031 C 
ATOM     73  C   UNL A   1      42.020  35.911  28.846  1.00  0.00     0.029 A 
ATOM     74  C   UNL A   1      43.132  35.248  29.338  1.00  0.00     0.049 A 
ATOM     75  H   UNL A   1      43.228  33.493  30.507  1.00  0.00     0.167 HD
ATOM     76  C   UNL A   1      45.557  34.885  29.698  1.00  0.00     0.074 A 
ATOM     77  C   UNL A   1      46.950  35.236  29.517  1.00  0.00     0.031 C 
ATOM     78  C   UNL A   1      44.522  35.583  29.171  1.00  0.00     0.031 A 
BRANCH  65  79
ATOM     79  C   UNL A   1      38.971  33.187  30.399  1.00  0.00    -0.014 A 
ATOM     80  C   UNL A   1      38.137  33.868  31.304  1.00  0.00     0.010 A 
ATOM     81  C   UNL A   1      38.410  32.636  29.232  1.00  0.00     0.010 A 
ATOM     82  C   UNL A   1      36.766  33.979  31.056  1.00  0.00     0.020 A 
ATOM     83  C   UNL A   1      37.043  32.765  28.969  1.00  0.00     0.020 A 
ATOM     84  C   UNL A   1      36.228  33.429  29.889  1.00  0.00     0.054 A 
BRANCH  84  85
ATOM     85  S   UNL A   1      34.457  33.640  29.565  1.00  0.00     0.124 S 
ATOM     86  O   UNL A   1      34.453  34.771  28.639  1.00  0.00    -0.237 OA
ATOM     87  O   UNL A   1      34.081  32.353  28.986  1.00  0.00    -0.237 OA
ATOM     88  O   UNL A   1      33.892  33.915  30.885  1.00  0.00    -0.744 OA
ENDBRANCH  84  85
ENDBRANCH  65  79
BRANCH  66  89
ATOM     89  C   UNL A   1      48.820  32.145  31.682  1.00  0.00    -0.014 A 
ATOM     90  C   UNL A   1      49.517  32.801  32.713  1.00  0.00     0.010 A 
ATOM     91  C   UNL A   1      49.539  31.355  30.767  1.00  0.00     0.010 A 
ATOM     92  C   UNL A   1      50.909  32.703  32.803  1.00  0.00     0.020 A 
ATOM     93  C   UNL A   1      50.928  31.230  30.871  1.00  0.00     0.020 A 
ATOM     94  C   UNL A   1      51.606  31.923  31.877  1.00  0.00     0.054 A 
BRANCH  94  95
ATOM     95  S   UNL A   1      53.411  31.796  32.017  1.00  0.00     0.124 S 
ATOM     96  O   UNL A   1      53.585  31.542  33.443  1.00  0.00    -0.237 OA
ATOM     97  O   UNL A   1      53.719  30.676  31.131  1.00  0.00    -0.237 OA
ATOM     98  O   UNL A   1      53.880  33.097  31.548  1.00  0.00    -0.744 OA
ENDBRANCH  94  95
ENDBRANCH  66  89
BRANCH  78  99
ATOM     99  C   UNL A   1      44.859  36.815  28.375  1.00  0.00    -0.014 A 
ATOM    100  C   UNL A   1      45.215  36.728  27.017  1.00  0.00     0.010 A 
ATOM    101  C   UNL A   1      44.783  38.079  28.987  1.00  0.00     0.010 A 
ATOM    102  C   UNL A   1      45.530  37.882  26.297  1.00  0.00     0.020 A 
ATOM    103  C   UNL A   1      45.071  39.238  28.262  1.00  0.00     0.020 A 
ATOM    104  C   UNL A   1      45.461  39.130  26.925  1.00  0.00     0.054 A 
BRANCH 104 105
ATOM    105  S   UNL A   1      45.849  40.617  25.963  1.00  0.00     0.124 S 
ATOM    106  O   UNL A   1      46.957  40.159  25.130  1.00  0.00    -0.237 OA
ATOM    107  O   UNL A   1      44.598  40.879  25.255  1.00  0.00    -0.237 OA
ATOM    108  O   UNL A   1      46.200  41.605  26.980  1.00  0.00    -0.744 OA
ENDBRANCH 104 105
ENDBRANCH  78  99
ENDBRANCH  52  53
ENDBRANCH  44  47
ENDBRANCH  42  43
ENDBRANCH  41  42
ENDBRANCH   1  41
TORSDOF 20
ENDMDL
MODEL 3
REMARK VINA RESULT:      -7.0      4.741     13.373
REMARK SMILES CC1CC[NH+]([C@H](c2ccc(F)cc2)c2ccc([C@@H](C)C(=O)NCCCCNC(=O)c3ccc(-c4c5nc(c(-c6ccc(S(=O)(=O)[O-])cc6)c6ccc([nH]6)c(-c6ccc(S(=O)(=O)[O-])cc6)c6nc(c(-c7ccc(S(=O)(=O)[O-])cc7)c7ccc4[nH]7)C=C6)C=C5)cc3)cc2-c2ccc(C(F)(F)F)cc2)CC1
REMARK SMILES IDX 24 1 23 2 22 3 20 4 21 5 18 7 19 8 17 9 14 10 15 11 91 12
REMARK SMILES IDX 16 13 90 14 6 15 5 16 1 17 2 18 3 19 103 20 4 21 102 22 7 24
REMARK SMILES IDX 8 25 13 26 9 27 12 28 10 29 11 30 92 31 93 32 101 33 94 34
REMARK SMILES IDX 100 35 95 36 96 37 97 38 98 39 99 40 25 41 26 42 27 43 28 44
REMARK SMILES IDX 29 46 30 47 31 48 89 49 32 50 88 51 33 52 34 53 35 54 82 55
REMARK SMILES IDX 36 56 87 57 81 58 83 59 37 60 86 61 80 62 79 63 38 65 68 66
REMARK SMILES IDX 49 67 67 68 50 69 53 70 66 71 84 72 51 73 52 74 65 76 85 77
REMARK SMILES IDX 54 78 39 79 40 80 48 81 41 82 47 83 42 84 43 85 44 86 45 87
REMARK SMILES IDX 46 88 69 89 70 90 78 91 71 92 77 93 72 94 73 95 74 96 75 97
REMARK SMILES IDX 76 98 55 99 56 100 64 101 57 102 63 103 58 104 59 105 60 106
REMARK SMILES IDX 61 107 62 108
REMARK H PARENT 22 6 5 23 27 45 83 64 53 75
REMARK Flexibility Score: inf
ROOT
ATOM      1  C   UNL A   1      40.146  28.769  32.533  1.00  0.00     0.023 C 
ENDROOT
BRANCH   1   2
ATOM      2  C   UNL A   1      40.458  28.730  34.034  1.00  0.00     0.116 C 
BRANCH   2   3
ATOM      3  N   UNL A   1      41.340  27.633  34.384  1.00  0.00    -0.356 N 
ATOM      4  C   UNL A   1      42.679  27.434  34.229  1.00  0.00     0.227 C 
ATOM      5  O   UNL A   1      43.111  26.337  34.607  1.00  0.00    -0.274 OA
ATOM      6  H   UNL A   1      40.879  26.881  34.820  1.00  0.00     0.163 HD
BRANCH   4   7
ATOM      7  C   UNL A   1      43.661  28.469  33.642  1.00  0.00     0.105 C 
ATOM      8  C   UNL A   1      43.378  29.909  34.065  1.00  0.00     0.023 C 
BRANCH   7   9
ATOM      9  C   UNL A   1      43.933  28.265  32.162  1.00  0.00    -0.035 A 
ATOM     10  C   UNL A   1      44.130  28.223  29.302  1.00  0.00     0.022 A 
ATOM     11  C   UNL A   1      44.976  28.997  30.112  1.00  0.00     0.011 A 
ATOM     12  C   UNL A   1      43.283  27.302  29.981  1.00  0.00    -0.009 A 
ATOM     13  C   UNL A   1      44.941  28.947  31.505  1.00  0.00     0.005 A 
ATOM     14  C   UNL A   1      43.141  27.406  31.389  1.00  0.00     0.013 A 
BRANCH  10  15
ATOM     15  C   UNL A   1      44.185  28.338  27.748  1.00  0.00     0.247 C 
BRANCH  15  16
ATOM     16  N   UNL A   1      44.887  27.254  26.981  1.00  0.00    -0.325 N 
ATOM     17  C   UNL A   1      45.915  23.121  25.865  1.00  0.00     0.008 C 
ATOM     18  C   UNL A   1      45.349  24.400  26.474  1.00  0.00    -0.003 C 
ATOM     19  C   UNL A   1      44.584  25.230  25.443  1.00  0.00     0.065 C 
ATOM     20  C   UNL A   1      46.460  25.280  27.026  1.00  0.00     0.065 C 
ATOM     21  C   UNL A   1      44.034  26.543  26.024  1.00  0.00     0.263 C 
ATOM     22  C   UNL A   1      45.864  26.483  27.751  1.00  0.00     0.263 C 
ATOM     23  H   UNL A   1      45.521  27.738  26.344  1.00  0.00     0.348 HD
ENDBRANCH  15  16
BRANCH  15  24
ATOM     24  C   UNL A   1      44.653  29.719  27.241  1.00  0.00     0.014 A 
ATOM     25  C   UNL A   1      45.985  29.959  26.847  1.00  0.00     0.013 A 
ATOM     26  C   UNL A   1      43.733  30.782  27.164  1.00  0.00     0.013 A 
ATOM     27  C   UNL A   1      46.381  31.217  26.387  1.00  0.00     0.040 A 
ATOM     28  C   UNL A   1      44.138  32.047  26.732  1.00  0.00     0.040 A 
ATOM     29  C   UNL A   1      45.455  32.250  26.343  1.00  0.00     0.123 A 
ATOM     30  F   UNL A   1      45.838  33.463  25.922  1.00  0.00    -0.207 F 
ENDBRANCH  15  24
ENDBRANCH  10  15
BRANCH  12  31
ATOM     31  C   UNL A   1      42.595  26.179  29.313  1.00  0.00    -0.018 A 
ATOM     32  C   UNL A   1      43.128  24.881  29.307  1.00  0.00     0.009 A 
ATOM     33  C   UNL A   1      41.403  26.406  28.605  1.00  0.00     0.009 A 
ATOM     34  C   UNL A   1      42.475  23.839  28.639  1.00  0.00     0.014 A 
ATOM     35  C   UNL A   1      40.743  25.368  27.943  1.00  0.00     0.014 A 
ATOM     36  C   UNL A   1      41.269  24.070  27.960  1.00  0.00     0.056 A 
BRANCH  36  37
ATOM     37  C   UNL A   1      40.574  22.943  27.237  1.00  0.00     0.416 C 
ATOM     38  F   UNL A   1      40.556  21.791  27.964  1.00  0.00    -0.166 F 
ATOM     39  F   UNL A   1      39.274  23.221  26.945  1.00  0.00    -0.166 F 
ATOM     40  F   UNL A   1      41.159  22.619  26.048  1.00  0.00    -0.166 F 
ENDBRANCH  36  37
ENDBRANCH  12  31
ENDBRANCH   7   9
ENDBRANCH   4   7
ENDBRANCH   2   3
ENDBRANCH   1   2
BRANCH   1  41
ATOM     41  C   UNL A   1      39.026  27.846  32.061  1.00  0.00     0.023 C 
BRANCH  41  42
ATOM     42  C   UNL A   1      38.006  28.487  31.129  1.00  0.00     0.116 C 
BRANCH  42  43
ATOM     43  N   UNL A   1      38.248  28.240  29.715  1.00  0.00    -0.352 N 
ATOM     44  C   UNL A   1      38.993  28.994  28.832  1.00  0.00     0.251 C 
ATOM     45  H   UNL A   1      37.828  27.432  29.343  1.00  0.00     0.163 HD
ATOM     46  O   UNL A   1      39.043  28.686  27.651  1.00  0.00    -0.269 OA
BRANCH  44  47
ATOM     47  C   UNL A   1      39.682  30.208  29.326  1.00  0.00     0.039 A 
ATOM     48  C   UNL A   1      38.924  31.354  29.577  1.00  0.00     0.014 A 
ATOM     49  C   UNL A   1      41.051  30.196  29.603  1.00  0.00     0.014 A 
ATOM     50  C   UNL A   1      39.525  32.457  30.190  1.00  0.00     0.010 A 
ATOM     51  C   UNL A   1      41.628  31.263  30.285  1.00  0.00     0.010 A 
ATOM     52  C   UNL A   1      40.870  32.401  30.593  1.00  0.00    -0.014 A 
BRANCH  52  53
ATOM     53  C   UNL A   1      41.487  33.512  31.363  1.00  0.00     0.031 A 
ATOM     54  C   UNL A   1      41.312  33.594  32.856  1.00  0.00     0.074 A 
ATOM     55  C   UNL A   1      42.150  34.485  30.705  1.00  0.00     0.049 A 
ATOM     56  N   UNL A   1      41.752  34.504  33.686  1.00  0.00    -0.248 NA
ATOM     57  C   UNL A   1      40.515  32.534  33.498  1.00  0.00     0.031 C 
ATOM     58  C   UNL A   1      42.331  34.558  29.251  1.00  0.00     0.029 A 
ATOM     59  N   UNL A   1      42.792  35.605  31.171  1.00  0.00    -0.354 N 
ATOM     60  C   UNL A   1      41.272  34.140  34.938  1.00  0.00     0.074 A 
ATOM     61  C   UNL A   1      40.470  32.950  34.756  1.00  0.00     0.031 C 
ATOM     62  C   UNL A   1      43.063  35.644  28.952  1.00  0.00     0.029 A 
ATOM     63  C   UNL A   1      43.375  36.362  30.182  1.00  0.00     0.049 A 
ATOM     64  H   UNL A   1      42.833  35.844  32.125  1.00  0.00     0.167 HD
ATOM     65  C   UNL A   1      41.495  34.730  36.136  1.00  0.00     0.031 A 
ATOM     66  C   UNL A   1      44.082  37.507  30.256  1.00  0.00     0.031 A 
ATOM     67  C   UNL A   1      42.322  35.893  36.322  1.00  0.00     0.049 A 
ATOM     68  C   UNL A   1      44.339  38.123  31.604  1.00  0.00     0.074 A 
ATOM     69  C   UNL A   1      42.681  36.510  37.507  1.00  0.00     0.029 A 
ATOM     70  N   UNL A   1      42.918  36.612  35.299  1.00  0.00    -0.354 N 
ATOM     71  N   UNL A   1      43.955  37.705  32.787  1.00  0.00    -0.248 NA
ATOM     72  C   UNL A   1      45.136  39.357  31.628  1.00  0.00     0.031 C 
ATOM     73  C   UNL A   1      43.457  37.632  37.198  1.00  0.00     0.029 A 
ATOM     74  C   UNL A   1      43.623  37.682  35.825  1.00  0.00     0.049 A 
ATOM     75  H   UNL A   1      42.851  36.395  34.341  1.00  0.00     0.167 HD
ATOM     76  C   UNL A   1      44.487  38.614  33.697  1.00  0.00     0.074 A 
ATOM     77  C   UNL A   1      45.235  39.588  32.930  1.00  0.00     0.031 C 
ATOM     78  C   UNL A   1      44.363  38.641  35.046  1.00  0.00     0.031 A 
BRANCH  65  79
ATOM     79  C   UNL A   1      40.847  34.125  37.351  1.00  0.00    -0.014 A 
ATOM     80  C   UNL A   1      41.564  33.260  38.199  1.00  0.00     0.010 A 
ATOM     81  C   UNL A   1      39.533  34.488  37.695  1.00  0.00     0.010 A 
ATOM     82  C   UNL A   1      40.969  32.754  39.357  1.00  0.00     0.020 A 
ATOM     83  C   UNL A   1      38.943  34.002  38.866  1.00  0.00     0.020 A 
ATOM     84  C   UNL A   1      39.663  33.129  39.685  1.00  0.00     0.054 A 
BRANCH  84  85
ATOM     85  S   UNL A   1      38.939  32.504  41.225  1.00  0.00     0.124 S 
ATOM     86  O   UNL A   1      39.830  31.391  41.546  1.00  0.00    -0.237 OA
ATOM     87  O   UNL A   1      39.032  33.659  42.115  1.00  0.00    -0.237 OA
ATOM     88  O   UNL A   1      37.582  32.123  40.842  1.00  0.00    -0.744 OA
ENDBRANCH  84  85
ENDBRANCH  65  79
BRANCH  66  89
ATOM     89  C   UNL A   1      44.613  38.147  29.021  1.00  0.00    -0.014 A 
ATOM     90  C   UNL A   1      45.975  38.036  28.689  1.00  0.00     0.010 A 
ATOM     91  C   UNL A   1      43.765  38.898  28.187  1.00  0.00     0.010 A 
ATOM     92  C   UNL A   1      46.488  38.697  27.568  1.00  0.00     0.020 A 
ATOM     93  C   UNL A   1      44.268  39.536  27.050  1.00  0.00     0.020 A 
ATOM     94  C   UNL A   1      45.632  39.448  26.760  1.00  0.00     0.054 A 
BRANCH  94  95
ATOM     95  S   UNL A   1      46.311  40.288  25.301  1.00  0.00     0.124 S 
ATOM     96  O   UNL A   1      47.380  41.090  25.887  1.00  0.00    -0.237 OA
ATOM     97  O   UNL A   1      46.743  39.171  24.464  1.00  0.00    -0.237 OA
ATOM     98  O   UNL A   1      45.172  41.041  24.782  1.00  0.00    -0.744 OA
ENDBRANCH  94  95
ENDBRANCH  66  89
BRANCH  78  99
ATOM     99  C   UNL A   1      45.079  39.742  35.780  1.00  0.00    -0.014 A 
ATOM    100  C   UNL A   1      44.457  40.981  36.016  1.00  0.00     0.010 A 
ATOM    101  C   UNL A   1      46.378  39.519  36.271  1.00  0.00     0.010 A 
ATOM    102  C   UNL A   1      45.139  41.994  36.693  1.00  0.00     0.020 A 
ATOM    103  C   UNL A   1      47.053  40.520  36.973  1.00  0.00     0.020 A 
ATOM    104  C   UNL A   1      46.435  41.759  37.164  1.00  0.00     0.054 A 
BRANCH 104 105
ATOM    105  S   UNL A   1      47.293  43.079  38.064  1.00  0.00     0.124 S 
ATOM    106  O   UNL A   1      46.269  43.517  39.009  1.00  0.00    -0.237 OA
ATOM    107  O   UNL A   1      48.433  42.380  38.653  1.00  0.00    -0.237 OA
ATOM    108  O   UNL A   1      47.633  44.044  37.022  1.00  0.00    -0.744 OA
ENDBRANCH 104 105
ENDBRANCH  78  99
ENDBRANCH  52  53
ENDBRANCH  44  47
ENDBRANCH  42  43
ENDBRANCH  41  42
ENDBRANCH   1  41
TORSDOF 20
ENDMDL
