MODEL 1
REMARK VINA RESULT:     -11.5      0.000      0.000
REMARK SMILES C[C@@H](C(=O)NCCCCNC(=O)c1ccc(-c2c3nc(c(-c4ccc(S(=O)(=O)[O-])cc4)c4ccc([nH]4)c(-c4ccc(S(=O)(=O)[O-])cc4)c4nc(c(-c5ccc(S(=O)(=O)[O-])cc5)c5ccc2[nH]5)C=C4)C=C3)cc1)N1C(=O)/C(=C/c2ccc(F)cc2)SC1=S
REMARK SMILES IDX 8 1 7 2 6 3 5 4 3 5 4 6 2 8 1 9 73 10 74 11 86 12 75 13
REMARK SMILES IDX 76 14 85 15 87 16 77 17 78 18 79 19 84 20 80 21 83 22 81 23
REMARK SMILES IDX 82 24 9 25 10 26 11 27 12 29 13 30 14 31 72 32 15 33 71 34
REMARK SMILES IDX 16 35 17 36 18 37 65 38 19 39 70 40 64 41 66 42 20 43 69 44
REMARK SMILES IDX 63 45 62 46 21 48 51 49 32 50 50 51 33 52 36 53 49 54 67 55
REMARK SMILES IDX 34 56 35 57 48 59 68 60 37 61 22 62 23 63 31 64 24 65 30 66
REMARK SMILES IDX 25 67 26 68 27 69 28 70 29 71 52 72 53 73 61 74 54 75 60 76
REMARK SMILES IDX 55 77 56 78 57 79 58 80 59 81 38 82 39 83 47 84 40 85 46 86
REMARK SMILES IDX 41 87 42 88 43 89 44 90 45 91
REMARK H PARENT 5 7 10 28 66 47 36 58
REMARK Flexibility Score: inf
ROOT
ATOM      1  C   UNL A   1      34.336  28.052  25.847  1.00  0.00     0.023 C 
ENDROOT
BRANCH   1   2
ATOM      2  C   UNL A   1      33.643  26.953  25.039  1.00  0.00     0.023 C 
BRANCH   2   3
ATOM      3  C   UNL A   1      34.045  25.524  25.401  1.00  0.00     0.116 C 
BRANCH   3   4
ATOM      4  N   UNL A   1      34.602  24.797  24.279  1.00  0.00    -0.354 N 
ATOM      5  C   UNL A   1      34.017  23.889  23.448  1.00  0.00     0.242 C 
ATOM      6  O   UNL A   1      34.597  23.662  22.383  1.00  0.00    -0.273 OA
ATOM      7  H   UNL A   1      35.549  24.989  24.088  1.00  0.00     0.163 HD
BRANCH   5   8
ATOM      8  C   UNL A   1      32.643  23.261  23.779  1.00  0.00     0.178 C 
ATOM      9  C   UNL A   1      32.140  22.128  22.888  1.00  0.00     0.042 C 
BRANCH   8  10
ATOM     10  N   UNL A   1      31.601  24.305  23.905  1.00  0.00    -0.281 N 
ATOM     11  C   UNL A   1      31.507  25.248  22.896  1.00  0.00     0.266 C 
ATOM     12  C   UNL A   1      30.812  24.532  25.022  1.00  0.00     0.149 C 
ATOM     13  O   UNL A   1      32.190  25.289  21.874  1.00  0.00    -0.268 OA
ATOM     14  C   UNL A   1      30.536  26.309  23.262  1.00  0.00     0.081 C 
ATOM     15  S   UNL A   1      29.721  25.877  24.706  1.00  0.00    -0.054 SA
ATOM     16  S   UNL A   1      30.824  23.788  26.517  1.00  0.00    -0.052 S 
ATOM     17  C   UNL A   1      30.426  27.445  22.559  1.00  0.00     0.029 C 
BRANCH  17  18
ATOM     18  C   UNL A   1      29.548  28.574  22.890  1.00  0.00    -0.024 A 
ATOM     19  C   UNL A   1      30.111  29.738  23.428  1.00  0.00     0.011 A 
ATOM     20  C   UNL A   1      28.160  28.507  22.695  1.00  0.00     0.011 A 
ATOM     21  C   UNL A   1      29.301  30.837  23.722  1.00  0.00     0.040 A 
ATOM     22  C   UNL A   1      27.353  29.610  22.981  1.00  0.00     0.040 A 
ATOM     23  C   UNL A   1      27.932  30.766  23.487  1.00  0.00     0.123 A 
ATOM     24  F   UNL A   1      27.161  31.827  23.755  1.00  0.00    -0.207 F 
ENDBRANCH  17  18
ENDBRANCH   8  10
ENDBRANCH   5   8
ENDBRANCH   3   4
ENDBRANCH   2   3
ENDBRANCH   1   2
BRANCH   1  25
ATOM     25  C   UNL A   1      33.766  28.304  27.237  1.00  0.00     0.116 C 
BRANCH  25  26
ATOM     26  N   UNL A   1      33.547  29.713  27.515  1.00  0.00    -0.352 N 
ATOM     27  C   UNL A   1      34.407  30.628  28.075  1.00  0.00     0.251 C 
ATOM     28  H   UNL A   1      32.660  30.062  27.267  1.00  0.00     0.163 HD
ATOM     29  O   UNL A   1      33.999  31.752  28.353  1.00  0.00    -0.269 OA
BRANCH  27  30
ATOM     30  C   UNL A   1      35.808  30.250  28.367  1.00  0.00     0.039 A 
ATOM     31  C   UNL A   1      36.121  29.744  29.631  1.00  0.00     0.014 A 
ATOM     32  C   UNL A   1      36.812  30.401  27.406  1.00  0.00     0.014 A 
ATOM     33  C   UNL A   1      37.431  29.352  29.916  1.00  0.00     0.010 A 
ATOM     34  C   UNL A   1      38.096  29.931  27.664  1.00  0.00     0.010 A 
ATOM     35  C   UNL A   1      38.426  29.423  28.928  1.00  0.00    -0.014 A 
BRANCH  35  36
ATOM     36  C   UNL A   1      39.826  29.018  29.215  1.00  0.00     0.031 A 
ATOM     37  C   UNL A   1      40.763  29.983  29.893  1.00  0.00     0.074 A 
ATOM     38  C   UNL A   1      40.270  27.806  28.827  1.00  0.00     0.049 A 
ATOM     39  N   UNL A   1      42.023  29.825  30.213  1.00  0.00    -0.248 NA
ATOM     40  C   UNL A   1      40.221  31.309  30.233  1.00  0.00     0.031 C 
ATOM     41  C   UNL A   1      39.475  26.795  28.127  1.00  0.00     0.029 A 
ATOM     42  N   UNL A   1      41.503  27.218  28.970  1.00  0.00    -0.354 N 
ATOM     43  C   UNL A   1      42.428  31.036  30.764  1.00  0.00     0.074 A 
ATOM     44  C   UNL A   1      41.297  31.935  30.685  1.00  0.00     0.031 C 
ATOM     45  C   UNL A   1      40.227  25.698  27.939  1.00  0.00     0.029 A 
ATOM     46  C   UNL A   1      41.565  25.939  28.471  1.00  0.00     0.049 A 
ATOM     47  H   UNL A   1      42.269  27.670  29.391  1.00  0.00     0.167 HD
ATOM     48  C   UNL A   1      43.624  31.367  31.307  1.00  0.00     0.031 A 
ATOM     49  C   UNL A   1      42.583  25.056  28.449  1.00  0.00     0.031 A 
ATOM     50  C   UNL A   1      44.740  30.465  31.401  1.00  0.00     0.049 A 
ATOM     51  C   UNL A   1      43.901  25.441  29.066  1.00  0.00     0.074 A 
ATOM     52  C   UNL A   1      45.975  30.680  31.989  1.00  0.00     0.029 A 
ATOM     53  N   UNL A   1      44.759  29.176  30.890  1.00  0.00    -0.354 N 
ATOM     54  N   UNL A   1      44.244  26.568  29.643  1.00  0.00    -0.248 NA
ATOM     55  C   UNL A   1      44.962  24.426  29.044  1.00  0.00     0.031 C 
ATOM     56  C   UNL A   1      46.758  29.539  31.788  1.00  0.00     0.029 A 
ATOM     57  C   UNL A   1      45.990  28.590  31.132  1.00  0.00     0.049 A 
ATOM     58  H   UNL A   1      44.009  28.742  30.425  1.00  0.00     0.167 HD
ATOM     59  C   UNL A   1      45.547  26.381  30.092  1.00  0.00     0.074 A 
ATOM     60  C   UNL A   1      45.926  25.032  29.723  1.00  0.00     0.031 C 
ATOM     61  C   UNL A   1      46.353  27.244  30.760  1.00  0.00     0.031 A 
BRANCH  48  62
ATOM     62  C   UNL A   1      43.784  32.775  31.825  1.00  0.00    -0.014 A 
ATOM     63  C   UNL A   1      44.134  33.835  30.970  1.00  0.00     0.010 A 
ATOM     64  C   UNL A   1      43.571  33.042  33.190  1.00  0.00     0.010 A 
ATOM     65  C   UNL A   1      44.329  35.122  31.478  1.00  0.00     0.020 A 
ATOM     66  C   UNL A   1      43.733  34.335  33.698  1.00  0.00     0.020 A 
ATOM     67  C   UNL A   1      44.135  35.361  32.842  1.00  0.00     0.054 A 
BRANCH  67  68
ATOM     68  S   UNL A   1      44.401  37.039  33.478  1.00  0.00     0.124 S 
ATOM     69  O   UNL A   1      43.723  36.981  34.771  1.00  0.00    -0.237 OA
ATOM     70  O   UNL A   1      45.858  37.132  33.538  1.00  0.00    -0.237 OA
ATOM     71  O   UNL A   1      43.766  37.894  32.479  1.00  0.00    -0.744 OA
ENDBRANCH  67  68
ENDBRANCH  48  62
BRANCH  49  72
ATOM     72  C   UNL A   1      42.377  23.700  27.869  1.00  0.00    -0.014 A 
ATOM     73  C   UNL A   1      42.646  23.463  26.509  1.00  0.00     0.010 A 
ATOM     74  C   UNL A   1      41.934  22.635  28.674  1.00  0.00     0.010 A 
ATOM     75  C   UNL A   1      42.461  22.191  25.961  1.00  0.00     0.020 A 
ATOM     76  C   UNL A   1      41.774  21.354  28.135  1.00  0.00     0.020 A 
ATOM     77  C   UNL A   1      42.030  21.143  26.778  1.00  0.00     0.054 A 
BRANCH  77  78
ATOM     78  S   UNL A   1      41.855  19.488  26.056  1.00  0.00     0.124 S 
ATOM     79  O   UNL A   1      40.423  19.421  25.788  1.00  0.00    -0.237 OA
ATOM     80  O   UNL A   1      42.718  19.566  24.880  1.00  0.00    -0.237 OA
ATOM     81  O   UNL A   1      42.336  18.601  27.113  1.00  0.00    -0.744 OA
ENDBRANCH  77  78
ENDBRANCH  49  72
BRANCH  61  82
ATOM     82  C   UNL A   1      47.706  26.739  31.188  1.00  0.00    -0.014 A 
ATOM     83  C   UNL A   1      47.915  26.166  32.453  1.00  0.00     0.010 A 
ATOM     84  C   UNL A   1      48.781  26.808  30.282  1.00  0.00     0.010 A 
ATOM     85  C   UNL A   1      49.185  25.711  32.822  1.00  0.00     0.020 A 
ATOM     86  C   UNL A   1      50.044  26.327  30.634  1.00  0.00     0.020 A 
ATOM     87  C   UNL A   1      50.242  25.799  31.910  1.00  0.00     0.054 A 
BRANCH  87  88
ATOM     88  S   UNL A   1      51.875  25.183  32.402  1.00  0.00     0.124 S 
ATOM     89  O   UNL A   1      51.976  25.656  33.779  1.00  0.00    -0.237 OA
ATOM     90  O   UNL A   1      51.734  23.737  32.243  1.00  0.00    -0.237 OA
ATOM     91  O   UNL A   1      52.787  25.822  31.455  1.00  0.00    -0.744 OA
ENDBRANCH  87  88
ENDBRANCH  61  82
ENDBRANCH  35  36
ENDBRANCH  27  30
ENDBRANCH  25  26
ENDBRANCH   1  25
TORSDOF 16
ENDMDL
MODEL 2
REMARK VINA RESULT:     -11.5      3.248      9.549
REMARK SMILES C[C@@H](C(=O)NCCCCNC(=O)c1ccc(-c2c3nc(c(-c4ccc(S(=O)(=O)[O-])cc4)c4ccc([nH]4)c(-c4ccc(S(=O)(=O)[O-])cc4)c4nc(c(-c5ccc(S(=O)(=O)[O-])cc5)c5ccc2[nH]5)C=C4)C=C3)cc1)N1C(=O)/C(=C/c2ccc(F)cc2)SC1=S
REMARK SMILES IDX 8 1 7 2 6 3 5 4 3 5 4 6 2 8 1 9 73 10 74 11 86 12 75 13
REMARK SMILES IDX 76 14 85 15 87 16 77 17 78 18 79 19 84 20 80 21 83 22 81 23
REMARK SMILES IDX 82 24 9 25 10 26 11 27 12 29 13 30 14 31 72 32 15 33 71 34
REMARK SMILES IDX 16 35 17 36 18 37 65 38 19 39 70 40 64 41 66 42 20 43 69 44
REMARK SMILES IDX 63 45 62 46 21 48 51 49 32 50 50 51 33 52 36 53 49 54 67 55
REMARK SMILES IDX 34 56 35 57 48 59 68 60 37 61 22 62 23 63 31 64 24 65 30 66
REMARK SMILES IDX 25 67 26 68 27 69 28 70 29 71 52 72 53 73 61 74 54 75 60 76
REMARK SMILES IDX 55 77 56 78 57 79 58 80 59 81 38 82 39 83 47 84 40 85 46 86
REMARK SMILES IDX 41 87 42 88 43 89 44 90 45 91
REMARK H PARENT 5 7 10 28 66 47 36 58
REMARK Flexibility Score: inf
ROOT
ATOM      1  C   UNL A   1      35.407  23.491  25.046  1.00  0.00     0.023 C 
ENDROOT
BRANCH   1   2
ATOM      2  C   UNL A   1      34.395  24.126  26.002  1.00  0.00     0.023 C 
BRANCH   2   3
ATOM      3  C   UNL A   1      33.910  25.520  25.607  1.00  0.00     0.116 C 
BRANCH   3   4
ATOM      4  N   UNL A   1      32.704  25.913  26.306  1.00  0.00    -0.354 N 
ATOM      5  C   UNL A   1      31.411  25.934  25.876  1.00  0.00     0.242 C 
ATOM      6  O   UNL A   1      30.540  25.993  26.749  1.00  0.00    -0.273 OA
ATOM      7  H   UNL A   1      32.840  26.212  27.234  1.00  0.00     0.163 HD
BRANCH   5   8
ATOM      8  C   UNL A   1      31.056  25.781  24.379  1.00  0.00     0.178 C 
ATOM      9  C   UNL A   1      29.615  26.049  23.953  1.00  0.00     0.042 C 
BRANCH   8  10
ATOM     10  N   UNL A   1      31.499  24.465  23.863  1.00  0.00    -0.281 N 
ATOM     11  C   UNL A   1      31.223  23.346  24.628  1.00  0.00     0.266 C 
ATOM     12  C   UNL A   1      32.313  24.260  22.761  1.00  0.00     0.149 C 
ATOM     13  O   UNL A   1      30.609  23.328  25.695  1.00  0.00    -0.268 OA
ATOM     14  C   UNL A   1      31.880  22.146  24.055  1.00  0.00     0.081 C 
ATOM     15  S   UNL A   1      32.569  22.532  22.534  1.00  0.00    -0.054 SA
ATOM     16  S   UNL A   1      33.065  25.363  21.758  1.00  0.00    -0.052 S 
ATOM     17  C   UNL A   1      31.950  20.985  24.723  1.00  0.00     0.029 C 
BRANCH  17  18
ATOM     18  C   UNL A   1      32.642  19.775  24.263  1.00  0.00    -0.024 A 
ATOM     19  C   UNL A   1      33.875  19.438  24.835  1.00  0.00     0.011 A 
ATOM     20  C   UNL A   1      32.105  18.959  23.256  1.00  0.00     0.011 A 
ATOM     21  C   UNL A   1      34.538  18.274  24.438  1.00  0.00     0.040 A 
ATOM     22  C   UNL A   1      32.764  17.792  22.866  1.00  0.00     0.040 A 
ATOM     23  C   UNL A   1      33.972  17.458  23.465  1.00  0.00     0.123 A 
ATOM     24  F   UNL A   1      34.601  16.335  23.098  1.00  0.00    -0.207 F 
ENDBRANCH  17  18
ENDBRANCH   8  10
ENDBRANCH   5   8
ENDBRANCH   3   4
ENDBRANCH   2   3
ENDBRANCH   1   2
BRANCH   1  25
ATOM     25  C   UNL A   1      36.848  23.958  25.210  1.00  0.00     0.116 C 
BRANCH  25  26
ATOM     26  N   UNL A   1      37.778  22.864  25.432  1.00  0.00    -0.352 N 
ATOM     27  C   UNL A   1      38.992  22.879  26.077  1.00  0.00     0.251 C 
ATOM     28  H   UNL A   1      37.501  21.991  25.072  1.00  0.00     0.163 HD
ATOM     29  O   UNL A   1      39.703  21.879  26.054  1.00  0.00    -0.269 OA
BRANCH  27  30
ATOM     30  C   UNL A   1      39.450  24.104  26.772  1.00  0.00     0.039 A 
ATOM     31  C   UNL A   1      40.208  25.037  26.061  1.00  0.00     0.014 A 
ATOM     32  C   UNL A   1      39.144  24.329  28.116  1.00  0.00     0.014 A 
ATOM     33  C   UNL A   1      40.624  26.215  26.688  1.00  0.00     0.010 A 
ATOM     34  C   UNL A   1      39.485  25.539  28.713  1.00  0.00     0.010 A 
ATOM     35  C   UNL A   1      40.249  26.485  28.015  1.00  0.00    -0.014 A 
BRANCH  35  36
ATOM     36  C   UNL A   1      40.688  27.727  28.700  1.00  0.00     0.031 A 
ATOM     37  C   UNL A   1      42.087  27.828  29.250  1.00  0.00     0.074 A 
ATOM     38  C   UNL A   1      39.820  28.744  28.872  1.00  0.00     0.049 A 
ATOM     39  N   UNL A   1      42.653  28.816  29.895  1.00  0.00    -0.248 NA
ATOM     40  C   UNL A   1      42.956  26.652  29.076  1.00  0.00     0.031 C 
ATOM     41  C   UNL A   1      38.427  28.757  28.423  1.00  0.00     0.029 A 
ATOM     42  N   UNL A   1      39.987  29.969  29.471  1.00  0.00    -0.354 N 
ATOM     43  C   UNL A   1      43.928  28.372  30.225  1.00  0.00     0.074 A 
ATOM     44  C   UNL A   1      44.034  27.008  29.757  1.00  0.00     0.031 C 
ATOM     45  C   UNL A   1      37.879  29.946  28.724  1.00  0.00     0.029 A 
ATOM     46  C   UNL A   1      38.868  30.765  29.420  1.00  0.00     0.049 A 
ATOM     47  H   UNL A   1      40.829  30.250  29.897  1.00  0.00     0.167 HD
ATOM     48  C   UNL A   1      44.931  29.043  30.840  1.00  0.00     0.031 A 
ATOM     49  C   UNL A   1      38.662  32.016  29.875  1.00  0.00     0.031 A 
ATOM     50  C   UNL A   1      44.829  30.406  31.287  1.00  0.00     0.049 A 
ATOM     51  C   UNL A   1      39.791  32.747  30.548  1.00  0.00     0.074 A 
ATOM     52  C   UNL A   1      45.805  31.200  31.865  1.00  0.00     0.029 A 
ATOM     53  N   UNL A   1      43.680  31.180  31.209  1.00  0.00    -0.354 N 
ATOM     54  N   UNL A   1      41.013  32.335  30.791  1.00  0.00    -0.248 NA
ATOM     55  C   UNL A   1      39.519  34.121  30.992  1.00  0.00     0.031 C 
ATOM     56  C   UNL A   1      45.232  32.435  32.183  1.00  0.00     0.029 A 
ATOM     57  C   UNL A   1      43.917  32.434  31.745  1.00  0.00     0.049 A 
ATOM     58  H   UNL A   1      42.823  30.881  30.828  1.00  0.00     0.167 HD
ATOM     59  C   UNL A   1      41.668  33.414  31.376  1.00  0.00     0.074 A 
ATOM     60  C   UNL A   1      40.707  34.496  31.446  1.00  0.00     0.031 C 
ATOM     61  C   UNL A   1      42.951  33.503  31.806  1.00  0.00     0.031 A 
BRANCH  48  62
ATOM     62  C   UNL A   1      46.220  28.297  31.079  1.00  0.00    -0.014 A 
ATOM     63  C   UNL A   1      46.425  27.545  32.250  1.00  0.00     0.010 A 
ATOM     64  C   UNL A   1      47.240  28.342  30.111  1.00  0.00     0.010 A 
ATOM     65  C   UNL A   1      47.646  26.905  32.477  1.00  0.00     0.020 A 
ATOM     66  C   UNL A   1      48.451  27.676  30.319  1.00  0.00     0.020 A 
ATOM     67  C   UNL A   1      48.655  26.981  31.512  1.00  0.00     0.054 A 
BRANCH  67  68
ATOM     68  S   UNL A   1      50.233  26.146  31.833  1.00  0.00     0.124 S 
ATOM     69  O   UNL A   1      50.889  27.083  32.743  1.00  0.00    -0.237 OA
ATOM     70  O   UNL A   1      49.810  24.882  32.434  1.00  0.00    -0.237 OA
ATOM     71  O   UNL A   1      50.841  26.032  30.511  1.00  0.00    -0.744 OA
ENDBRANCH  67  68
ENDBRANCH  48  62
BRANCH  49  72
ATOM     72  C   UNL A   1      37.344  32.678  29.658  1.00  0.00    -0.014 A 
ATOM     73  C   UNL A   1      36.395  32.719  30.695  1.00  0.00     0.010 A 
ATOM     74  C   UNL A   1      37.040  33.286  28.428  1.00  0.00     0.010 A 
ATOM     75  C   UNL A   1      35.160  33.344  30.500  1.00  0.00     0.020 A 
ATOM     76  C   UNL A   1      35.817  33.936  28.238  1.00  0.00     0.020 A 
ATOM     77  C   UNL A   1      34.880  33.952  29.274  1.00  0.00     0.054 A 
BRANCH  77  78
ATOM     78  S   UNL A   1      33.294  34.809  29.066  1.00  0.00     0.124 S 
ATOM     79  O   UNL A   1      33.716  36.115  28.571  1.00  0.00    -0.237 OA
ATOM     80  O   UNL A   1      32.601  33.958  28.102  1.00  0.00    -0.237 OA
ATOM     81  O   UNL A   1      32.723  34.804  30.412  1.00  0.00    -0.744 OA
ENDBRANCH  77  78
ENDBRANCH  49  72
BRANCH  61  82
ATOM     82  C   UNL A   1      43.412  34.835  32.339  1.00  0.00    -0.014 A 
ATOM     83  C   UNL A   1      43.926  35.832  31.493  1.00  0.00     0.010 A 
ATOM     84  C   UNL A   1      43.287  35.102  33.715  1.00  0.00     0.010 A 
ATOM     85  C   UNL A   1      44.351  37.055  32.019  1.00  0.00     0.020 A 
ATOM     86  C   UNL A   1      43.680  36.335  34.241  1.00  0.00     0.020 A 
ATOM     87  C   UNL A   1      44.228  37.297  33.392  1.00  0.00     0.054 A 
BRANCH  87  88
ATOM     88  S   UNL A   1      44.764  38.900  34.050  1.00  0.00     0.124 S 
ATOM     89  O   UNL A   1      44.339  39.817  32.997  1.00  0.00    -0.237 OA
ATOM     90  O   UNL A   1      44.021  38.996  35.305  1.00  0.00    -0.237 OA
ATOM     91  O   UNL A   1      46.210  38.748  34.198  1.00  0.00    -0.744 OA
ENDBRANCH  87  88
ENDBRANCH  61  82
ENDBRANCH  35  36
ENDBRANCH  27  30
ENDBRANCH  25  26
ENDBRANCH   1  25
TORSDOF 16
ENDMDL
MODEL 3
REMARK VINA RESULT:     -11.0      4.648      6.470
REMARK SMILES C[C@@H](C(=O)NCCCCNC(=O)c1ccc(-c2c3nc(c(-c4ccc(S(=O)(=O)[O-])cc4)c4ccc([nH]4)c(-c4ccc(S(=O)(=O)[O-])cc4)c4nc(c(-c5ccc(S(=O)(=O)[O-])cc5)c5ccc2[nH]5)C=C4)C=C3)cc1)N1C(=O)/C(=C/c2ccc(F)cc2)SC1=S
REMARK SMILES IDX 8 1 7 2 6 3 5 4 3 5 4 6 2 8 1 9 73 10 74 11 86 12 75 13
REMARK SMILES IDX 76 14 85 15 87 16 77 17 78 18 79 19 84 20 80 21 83 22 81 23
REMARK SMILES IDX 82 24 9 25 10 26 11 27 12 29 13 30 14 31 72 32 15 33 71 34
REMARK SMILES IDX 16 35 17 36 18 37 65 38 19 39 70 40 64 41 66 42 20 43 69 44
REMARK SMILES IDX 63 45 62 46 21 48 51 49 32 50 50 51 33 52 36 53 49 54 67 55
REMARK SMILES IDX 34 56 35 57 48 59 68 60 37 61 22 62 23 63 31 64 24 65 30 66
REMARK SMILES IDX 25 67 26 68 27 69 28 70 29 71 52 72 53 73 61 74 54 75 60 76
REMARK SMILES IDX 55 77 56 78 57 79 58 80 59 81 38 82 39 83 47 84 40 85 46 86
REMARK SMILES IDX 41 87 42 88 43 89 44 90 45 91
REMARK H PARENT 5 7 10 28 66 47 36 58
REMARK Flexibility Score: inf
ROOT
ATOM      1  C   UNL A   1      31.839  31.920  26.908  1.00  0.00     0.023 C 
ENDROOT
BRANCH   1   2
ATOM      2  C   UNL A   1      31.969  30.409  26.705  1.00  0.00     0.023 C 
BRANCH   2   3
ATOM      3  C   UNL A   1      31.655  29.911  25.295  1.00  0.00     0.116 C 
BRANCH   3   4
ATOM      4  N   UNL A   1      32.846  29.635  24.519  1.00  0.00    -0.354 N 
ATOM      5  C   UNL A   1      33.041  28.750  23.501  1.00  0.00     0.242 C 
ATOM      6  O   UNL A   1      34.037  28.932  22.794  1.00  0.00    -0.273 OA
ATOM      7  H   UNL A   1      33.636  30.167  24.766  1.00  0.00     0.163 HD
BRANCH   5   8
ATOM      8  C   UNL A   1      32.008  27.643  23.185  1.00  0.00     0.178 C 
ATOM      9  C   UNL A   1      30.695  27.647  23.963  1.00  0.00     0.042 C 
BRANCH   8  10
ATOM     10  N   UNL A   1      32.633  26.303  23.254  1.00  0.00    -0.281 N 
ATOM     11  C   UNL A   1      33.245  25.935  24.439  1.00  0.00     0.266 C 
ATOM     12  C   UNL A   1      32.811  25.437  22.186  1.00  0.00     0.149 C 
ATOM     13  O   UNL A   1      33.296  26.606  25.469  1.00  0.00    -0.268 OA
ATOM     14  C   UNL A   1      33.961  24.645  24.279  1.00  0.00     0.081 C 
ATOM     15  S   UNL A   1      33.598  23.966  22.749  1.00  0.00    -0.054 SA
ATOM     16  S   UNL A   1      32.458  25.638  20.567  1.00  0.00    -0.052 S 
ATOM     17  C   UNL A   1      34.810  24.184  25.209  1.00  0.00     0.029 C 
BRANCH  17  18
ATOM     18  C   UNL A   1      35.612  22.959  25.101  1.00  0.00    -0.024 A 
ATOM     19  C   UNL A   1      37.007  23.064  25.036  1.00  0.00     0.011 A 
ATOM     20  C   UNL A   1      35.014  21.691  25.044  1.00  0.00     0.011 A 
ATOM     21  C   UNL A   1      37.794  21.913  24.965  1.00  0.00     0.040 A 
ATOM     22  C   UNL A   1      35.803  20.541  24.982  1.00  0.00     0.040 A 
ATOM     23  C   UNL A   1      37.185  20.662  24.948  1.00  0.00     0.123 A 
ATOM     24  F   UNL A   1      37.943  19.560  24.897  1.00  0.00    -0.207 F 
ENDBRANCH  17  18
ENDBRANCH   8  10
ENDBRANCH   5   8
ENDBRANCH   3   4
ENDBRANCH   2   3
ENDBRANCH   1   2
BRANCH   1  25
ATOM     25  C   UNL A   1      33.115  32.639  27.327  1.00  0.00     0.116 C 
BRANCH  25  26
ATOM     26  N   UNL A   1      32.879  33.998  27.783  1.00  0.00    -0.352 N 
ATOM     27  C   UNL A   1      33.491  34.686  28.804  1.00  0.00     0.251 C 
ATOM     28  H   UNL A   1      32.185  34.495  27.293  1.00  0.00     0.163 HD
ATOM     29  O   UNL A   1      33.066  35.791  29.129  1.00  0.00    -0.269 OA
BRANCH  27  30
ATOM     30  C   UNL A   1      34.636  34.086  29.523  1.00  0.00     0.039 A 
ATOM     31  C   UNL A   1      34.386  33.284  30.639  1.00  0.00     0.014 A 
ATOM     32  C   UNL A   1      35.951  34.317  29.108  1.00  0.00     0.014 A 
ATOM     33  C   UNL A   1      35.452  32.681  31.313  1.00  0.00     0.010 A 
ATOM     34  C   UNL A   1      37.002  33.649  29.729  1.00  0.00     0.010 A 
ATOM     35  C   UNL A   1      36.768  32.843  30.852  1.00  0.00    -0.014 A 
BRANCH  35  36
ATOM     36  C   UNL A   1      37.914  32.217  31.560  1.00  0.00     0.031 A 
ATOM     37  C   UNL A   1      38.330  32.729  32.914  1.00  0.00     0.074 A 
ATOM     38  C   UNL A   1      38.610  31.225  30.971  1.00  0.00     0.049 A 
ATOM     39  N   UNL A   1      39.311  32.330  33.683  1.00  0.00    -0.248 NA
ATOM     40  C   UNL A   1      37.559  33.855  33.466  1.00  0.00     0.031 C 
ATOM     41  C   UNL A   1      38.334  30.665  29.646  1.00  0.00     0.029 A 
ATOM     42  N   UNL A   1      39.693  30.507  31.415  1.00  0.00    -0.354 N 
ATOM     43  C   UNL A   1      39.290  33.171  34.791  1.00  0.00     0.074 A 
ATOM     44  C   UNL A   1      38.235  34.135  34.569  1.00  0.00     0.031 C 
ATOM     45  C   UNL A   1      39.197  29.666  29.403  1.00  0.00     0.029 A 
ATOM     46  C   UNL A   1      40.110  29.536  30.536  1.00  0.00     0.049 A 
ATOM     47  H   UNL A   1      40.129  30.672  32.282  1.00  0.00     0.167 HD
ATOM     48  C   UNL A   1      40.062  33.133  35.903  1.00  0.00     0.031 A 
ATOM     49  C   UNL A   1      41.110  28.638  30.633  1.00  0.00     0.031 A 
ATOM     50  C   UNL A   1      41.098  32.161  36.129  1.00  0.00     0.049 A 
ATOM     51  C   UNL A   1      41.950  28.608  31.881  1.00  0.00     0.074 A 
ATOM     52  C   UNL A   1      41.896  31.996  37.248  1.00  0.00     0.029 A 
ATOM     53  N   UNL A   1      41.483  31.190  35.216  1.00  0.00    -0.354 N 
ATOM     54  N   UNL A   1      41.871  29.368  32.947  1.00  0.00    -0.248 NA
ATOM     55  C   UNL A   1      43.002  27.585  31.945  1.00  0.00     0.031 C 
ATOM     56  C   UNL A   1      42.798  30.959  36.992  1.00  0.00     0.029 A 
ATOM     57  C   UNL A   1      42.520  30.435  35.739  1.00  0.00     0.049 A 
ATOM     58  H   UNL A   1      41.080  31.058  34.329  1.00  0.00     0.167 HD
ATOM     59  C   UNL A   1      42.835  28.886  33.827  1.00  0.00     0.074 A 
ATOM     60  C   UNL A   1      43.479  27.767  33.168  1.00  0.00     0.031 C 
ATOM     61  C   UNL A   1      43.150  29.322  35.072  1.00  0.00     0.031 A 
BRANCH  48  62
ATOM     62  C   UNL A   1      39.820  34.191  36.951  1.00  0.00    -0.014 A 
ATOM     63  C   UNL A   1      40.335  35.492  36.811  1.00  0.00     0.010 A 
ATOM     64  C   UNL A   1      39.057  33.879  38.091  1.00  0.00     0.010 A 
ATOM     65  C   UNL A   1      40.144  36.443  37.817  1.00  0.00     0.020 A 
ATOM     66  C   UNL A   1      38.836  34.836  39.085  1.00  0.00     0.020 A 
ATOM     67  C   UNL A   1      39.401  36.105  38.952  1.00  0.00     0.054 A 
BRANCH  67  68
ATOM     68  S   UNL A   1      39.174  37.355  40.248  1.00  0.00     0.124 S 
ATOM     69  O   UNL A   1      38.364  38.358  39.559  1.00  0.00    -0.237 OA
ATOM     70  O   UNL A   1      38.485  36.607  41.298  1.00  0.00    -0.237 OA
ATOM     71  O   UNL A   1      40.535  37.770  40.572  1.00  0.00    -0.744 OA
ENDBRANCH  67  68
ENDBRANCH  48  62
BRANCH  49  72
ATOM     72  C   UNL A   1      41.335  27.656  29.535  1.00  0.00    -0.014 A 
ATOM     73  C   UNL A   1      42.579  27.598  28.882  1.00  0.00     0.010 A 
ATOM     74  C   UNL A   1      40.319  26.762  29.152  1.00  0.00     0.010 A 
ATOM     75  C   UNL A   1      42.798  26.675  27.856  1.00  0.00     0.020 A 
ATOM     76  C   UNL A   1      40.544  25.819  28.145  1.00  0.00     0.020 A 
ATOM     77  C   UNL A   1      41.781  25.788  27.496  1.00  0.00     0.054 A 
BRANCH  77  78
ATOM     78  S   UNL A   1      42.111  24.559  26.203  1.00  0.00     0.124 S 
ATOM     79  O   UNL A   1      43.430  24.063  26.583  1.00  0.00    -0.237 OA
ATOM     80  O   UNL A   1      41.006  23.618  26.375  1.00  0.00    -0.237 OA
ATOM     81  O   UNL A   1      42.066  25.340  24.969  1.00  0.00    -0.744 OA
ENDBRANCH  77  78
ENDBRANCH  49  72
BRANCH  61  82
ATOM     82  C   UNL A   1      44.201  28.554  35.831  1.00  0.00    -0.014 A 
ATOM     83  C   UNL A   1      45.560  28.906  35.772  1.00  0.00     0.010 A 
ATOM     84  C   UNL A   1      43.806  27.481  36.651  1.00  0.00     0.010 A 
ATOM     85  C   UNL A   1      46.512  28.170  36.484  1.00  0.00     0.020 A 
ATOM     86  C   UNL A   1      44.750  26.762  37.388  1.00  0.00     0.020 A 
ATOM     87  C   UNL A   1      46.099  27.099  37.285  1.00  0.00     0.054 A 
BRANCH  87  88
ATOM     88  S   UNL A   1      47.349  26.173  38.217  1.00  0.00     0.124 S 
ATOM     89  O   UNL A   1      47.649  25.069  37.310  1.00  0.00    -0.237 OA
ATOM     90  O   UNL A   1      48.417  27.155  38.388  1.00  0.00    -0.237 OA
ATOM     91  O   UNL A   1      46.655  25.796  39.447  1.00  0.00    -0.744 OA
ENDBRANCH  87  88
ENDBRANCH  61  82
ENDBRANCH  35  36
ENDBRANCH  27  30
ENDBRANCH  25  26
ENDBRANCH   1  25
TORSDOF 16
ENDMDL
