MODEL 1
REMARK VINA RESULT:     -12.8      0.000      0.000
REMARK SMILES COc1ccc(-n2ccnc2C[N@@H+]2CCn3nc(C(=O)NCCCCNC(=O)c4ccc(-c5c6nc(c(-c7ccc(S(=O)(=O)[O-])cc7)c7ccc([nH]7)c(-c7ccc(S(=O)(=O)[O-])cc7)c7nc(c(-c8ccc(S(=O)(=O)[O-])cc8)c8ccc5[nH]8)C=C7)C=C6)cc4)cc3C2)cc1
REMARK SMILES IDX 23 1 22 2 21 3 19 4 20 5 18 7 13 8 14 9 91 10 15 12 90 13
REMARK SMILES IDX 16 14 89 15 17 16 12 17 11 18 7 19 8 20 9 21 10 22 6 23 3 24
REMARK SMILES IDX 4 25 93 26 5 27 92 28 2 29 1 30 24 31 25 32 26 33 27 34
REMARK SMILES IDX 28 36 29 37 30 38 88 39 31 40 87 41 32 42 33 43 34 44 81 45
REMARK SMILES IDX 35 46 86 47 80 48 82 49 36 50 85 51 79 52 78 53 37 55 67 56
REMARK SMILES IDX 48 57 66 58 49 59 52 60 65 61 83 62 50 63 51 64 64 66 84 67
REMARK SMILES IDX 53 68 38 69 39 70 47 71 40 72 46 73 41 74 42 75 43 76 44 77
REMARK SMILES IDX 45 78 68 79 69 80 77 81 70 82 76 83 71 84 72 85 73 86 74 87
REMARK SMILES IDX 75 88 54 89 55 90 63 91 56 92 62 93 57 94 58 95 59 96 60 97
REMARK SMILES IDX 61 98
REMARK H PARENT 21 6 13 11 26 35 82 54 52 65
REMARK Flexibility Score: inf
ROOT
ATOM      1  C   UNL A   1      37.267  21.279  24.536  1.00  0.00     0.023 C 
ENDROOT
BRANCH   1   2
ATOM      2  C   UNL A   1      37.241  22.283  25.688  1.00  0.00     0.116 C 
BRANCH   2   3
ATOM      3  N   UNL A   1      36.886  23.665  25.339  1.00  0.00    -0.351 N 
ATOM      4  C   UNL A   1      35.502  24.141  24.879  1.00  0.00     0.271 C 
ATOM      5  O   UNL A   1      35.723  23.805  23.643  1.00  0.00    -0.267 OA
ATOM      6  H   UNL A   1      37.597  24.344  25.406  1.00  0.00     0.163 HD
BRANCH   4   7
ATOM      7  C   UNL A   1      33.902  25.073  25.837  1.00  0.00     0.150 A 
ATOM      8  N   UNL A   1      30.024  25.127  24.681  1.00  0.00    -0.322 N 
ATOM      9  C   UNL A   1      30.471  26.454  24.171  1.00  0.00     0.286 C 
ATOM     10  C   UNL A   1      30.191  25.013  26.152  1.00  0.00     0.319 C 
ATOM     11  H   UNL A   1      29.035  25.138  24.432  1.00  0.00     0.348 HD
ATOM     12  C   UNL A   1      31.306  27.323  25.140  1.00  0.00     0.206 C 
ATOM     13  C   UNL A   1      31.610  25.315  26.452  1.00  0.00     0.094 A 
ATOM     14  N   UNL A   1      32.139  26.438  25.931  1.00  0.00    -0.257 N 
ATOM     15  C   UNL A   1      32.691  24.560  26.814  1.00  0.00     0.065 A 
ATOM     16  N   UNL A   1      33.463  26.439  25.802  1.00  0.00    -0.167 NA
BRANCH   8  17
ATOM     17  C   UNL A   1      30.542  23.904  24.001  1.00  0.00     0.339 C 
BRANCH  17  18
ATOM     18  C   UNL A   1      31.597  24.010  22.931  1.00  0.00     0.168 A 
ATOM     19  N   UNL A   1      32.475  23.004  22.553  1.00  0.00    -0.299 N 
ATOM     20  C   UNL A   1      33.363  23.559  21.665  1.00  0.00     0.113 A 
ATOM     21  C   UNL A   1      32.930  24.842  21.455  1.00  0.00     0.132 A 
ATOM     22  N   UNL A   1      31.848  25.118  22.243  1.00  0.00    -0.236 NA
BRANCH  19  23
ATOM     23  C   UNL A   1      32.614  21.701  23.045  1.00  0.00     0.047 A 
ATOM     24  C   UNL A   1      33.159  18.220  23.989  1.00  0.00     0.119 A 
ATOM     25  C   UNL A   1      33.812  19.548  25.048  1.00  0.00     0.048 A 
ATOM     26  C   UNL A   1      32.234  18.612  22.476  1.00  0.00     0.048 A 
ATOM     27  C   UNL A   1      33.542  21.319  24.564  1.00  0.00     0.030 A 
ATOM     28  C   UNL A   1      31.948  20.371  22.001  1.00  0.00     0.030 A 
BRANCH  24  29
ATOM     29  O   UNL A   1      33.393  16.949  24.427  1.00  0.00    -0.497 OA
ATOM     30  C   UNL A   1      32.564  16.566  25.516  1.00  0.00     0.278 C 
ENDBRANCH  24  29
ENDBRANCH  19  23
ENDBRANCH  17  18
ENDBRANCH   8  17
ENDBRANCH   4   7
ENDBRANCH   2   3
ENDBRANCH   1   2
BRANCH   1  31
ATOM     31  C   UNL A   1      38.086  20.001  24.748  1.00  0.00     0.023 C 
BRANCH  31  32
ATOM     32  C   UNL A   1      39.071  20.035  25.911  1.00  0.00     0.116 C 
BRANCH  32  33
ATOM     33  N   UNL A   1      40.141  19.042  25.805  1.00  0.00    -0.352 N 
ATOM     34  C   UNL A   1      41.503  19.260  25.890  1.00  0.00     0.251 C 
ATOM     35  H   UNL A   1      39.857  18.112  25.657  1.00  0.00     0.163 HD
ATOM     36  O   UNL A   1      42.302  18.443  25.450  1.00  0.00    -0.269 OA
BRANCH  34  37
ATOM     37  C   UNL A   1      41.977  20.495  26.537  1.00  0.00     0.039 A 
ATOM     38  C   UNL A   1      42.752  21.432  25.846  1.00  0.00     0.014 A 
ATOM     39  C   UNL A   1      41.587  20.720  27.854  1.00  0.00     0.014 A 
ATOM     40  C   UNL A   1      43.053  22.644  26.465  1.00  0.00     0.010 A 
ATOM     41  C   UNL A   1      41.782  21.955  28.418  1.00  0.00     0.010 A 
ATOM     42  C   UNL A   1      42.546  22.908  27.746  1.00  0.00    -0.014 A 
BRANCH  42  43
ATOM     43  C   UNL A   1      42.650  24.241  28.338  1.00  0.00     0.031 A 
ATOM     44  C   UNL A   1      41.493  25.138  28.038  1.00  0.00     0.074 A 
ATOM     45  C   UNL A   1      43.554  24.521  29.305  1.00  0.00     0.049 A 
ATOM     46  N   UNL A   1      41.496  26.267  27.409  1.00  0.00    -0.248 NA
ATOM     47  C   UNL A   1      40.138  24.647  28.358  1.00  0.00     0.031 C 
ATOM     48  C   UNL A   1      44.526  23.600  29.909  1.00  0.00     0.029 A 
ATOM     49  N   UNL A   1      43.693  25.637  30.071  1.00  0.00    -0.354 N 
ATOM     50  C   UNL A   1      40.186  26.741  27.467  1.00  0.00     0.074 A 
ATOM     51  C   UNL A   1      39.373  25.622  27.865  1.00  0.00     0.031 C 
ATOM     52  C   UNL A   1      44.942  24.095  31.095  1.00  0.00     0.029 A 
ATOM     53  C   UNL A   1      44.407  25.435  31.252  1.00  0.00     0.049 A 
ATOM     54  H   UNL A   1      43.322  26.512  29.815  1.00  0.00     0.167 HD
ATOM     55  C   UNL A   1      39.908  28.076  27.461  1.00  0.00     0.031 A 
ATOM     56  C   UNL A   1      44.514  26.284  32.307  1.00  0.00     0.031 A 
ATOM     57  C   UNL A   1      41.046  28.849  27.033  1.00  0.00     0.049 A 
ATOM     58  C   UNL A   1      44.137  27.630  31.816  1.00  0.00     0.074 A 
ATOM     59  C   UNL A   1      41.825  28.891  25.894  1.00  0.00     0.029 A 
ATOM     60  N   UNL A   1      41.780  29.467  28.019  1.00  0.00    -0.354 N 
ATOM     61  N   UNL A   1      44.822  28.283  30.919  1.00  0.00    -0.248 NA
ATOM     62  C   UNL A   1      42.753  28.048  31.970  1.00  0.00     0.031 C 
ATOM     63  C   UNL A   1      43.155  29.091  26.368  1.00  0.00     0.029 A 
ATOM     64  C   UNL A   1      43.105  29.245  27.756  1.00  0.00     0.049 A 
ATOM     65  H   UNL A   1      41.417  29.977  28.778  1.00  0.00     0.167 HD
ATOM     66  C   UNL A   1      43.864  28.866  30.101  1.00  0.00     0.074 A 
ATOM     67  C   UNL A   1      42.616  28.772  30.856  1.00  0.00     0.031 C 
ATOM     68  C   UNL A   1      44.120  29.106  28.779  1.00  0.00     0.031 A 
BRANCH  55  69
ATOM     69  C   UNL A   1      38.787  28.703  28.267  1.00  0.00    -0.014 A 
ATOM     70  C   UNL A   1      38.016  29.725  27.672  1.00  0.00     0.010 A 
ATOM     71  C   UNL A   1      38.658  28.547  29.663  1.00  0.00     0.010 A 
ATOM     72  C   UNL A   1      37.245  30.603  28.445  1.00  0.00     0.020 A 
ATOM     73  C   UNL A   1      37.857  29.388  30.438  1.00  0.00     0.020 A 
ATOM     74  C   UNL A   1      37.188  30.439  29.829  1.00  0.00     0.054 A 
BRANCH  74  75
ATOM     75  S   UNL A   1      36.294  31.649  30.834  1.00  0.00     0.124 S 
ATOM     76  O   UNL A   1      37.263  32.738  30.921  1.00  0.00    -0.237 OA
ATOM     77  O   UNL A   1      35.113  31.913  30.018  1.00  0.00    -0.237 OA
ATOM     78  O   UNL A   1      36.038  30.933  32.081  1.00  0.00    -0.744 OA
ENDBRANCH  74  75
ENDBRANCH  55  69
BRANCH  56  79
ATOM     79  C   UNL A   1      44.619  25.956  33.754  1.00  0.00    -0.014 A 
ATOM     80  C   UNL A   1      45.727  26.367  34.520  1.00  0.00     0.010 A 
ATOM     81  C   UNL A   1      43.490  25.476  34.452  1.00  0.00     0.010 A 
ATOM     82  C   UNL A   1      45.685  26.354  35.928  1.00  0.00     0.020 A 
ATOM     83  C   UNL A   1      43.443  25.454  35.852  1.00  0.00     0.020 A 
ATOM     84  C   UNL A   1      44.533  25.916  36.585  1.00  0.00     0.054 A 
BRANCH  84  85
ATOM     85  S   UNL A   1      44.419  26.065  38.396  1.00  0.00     0.124 S 
ATOM     86  O   UNL A   1      44.802  24.730  38.843  1.00  0.00    -0.237 OA
ATOM     87  O   UNL A   1      45.374  27.129  38.690  1.00  0.00    -0.237 OA
ATOM     88  O   UNL A   1      43.017  26.415  38.625  1.00  0.00    -0.744 OA
ENDBRANCH  84  85
ENDBRANCH  56  79
BRANCH  68  89
ATOM     89  C   UNL A   1      45.548  29.012  28.290  1.00  0.00    -0.014 A 
ATOM     90  C   UNL A   1      46.204  27.801  27.985  1.00  0.00     0.010 A 
ATOM     91  C   UNL A   1      46.195  30.220  27.974  1.00  0.00     0.010 A 
ATOM     92  C   UNL A   1      47.481  27.805  27.402  1.00  0.00     0.020 A 
ATOM     93  C   UNL A   1      47.456  30.230  27.379  1.00  0.00     0.020 A 
ATOM     94  C   UNL A   1      48.100  29.024  27.103  1.00  0.00     0.054 A 
BRANCH  94  95
ATOM     95  S   UNL A   1      49.734  29.032  26.313  1.00  0.00     0.124 S 
ATOM     96  O   UNL A   1      50.052  30.456  26.257  1.00  0.00    -0.237 OA
ATOM     97  O   UNL A   1      50.547  28.241  27.235  1.00  0.00    -0.237 OA
ATOM     98  O   UNL A   1      49.497  28.401  25.014  1.00  0.00    -0.744 OA
ENDBRANCH  94  95
ENDBRANCH  68  89
ENDBRANCH  42  43
ENDBRANCH  34  37
ENDBRANCH  32  33
ENDBRANCH  31  32
ENDBRANCH   1  31
TORSDOF 18
ENDMDL
MODEL 2
REMARK VINA RESULT:     -12.6      3.490      8.995
REMARK SMILES COc1ccc(-n2ccnc2C[N@@H+]2CCn3nc(C(=O)NCCCCNC(=O)c4ccc(-c5c6nc(c(-c7ccc(S(=O)(=O)[O-])cc7)c7ccc([nH]7)c(-c7ccc(S(=O)(=O)[O-])cc7)c7nc(c(-c8ccc(S(=O)(=O)[O-])cc8)c8ccc5[nH]8)C=C7)C=C6)cc4)cc3C2)cc1
REMARK SMILES IDX 23 1 22 2 21 3 19 4 20 5 18 7 13 8 14 9 91 10 15 12 90 13
REMARK SMILES IDX 16 14 89 15 17 16 12 17 11 18 7 19 8 20 9 21 10 22 6 23 3 24
REMARK SMILES IDX 4 25 93 26 5 27 92 28 2 29 1 30 24 31 25 32 26 33 27 34
REMARK SMILES IDX 28 36 29 37 30 38 88 39 31 40 87 41 32 42 33 43 34 44 81 45
REMARK SMILES IDX 35 46 86 47 80 48 82 49 36 50 85 51 79 52 78 53 37 55 67 56
REMARK SMILES IDX 48 57 66 58 49 59 52 60 65 61 83 62 50 63 51 64 64 66 84 67
REMARK SMILES IDX 53 68 38 69 39 70 47 71 40 72 46 73 41 74 42 75 43 76 44 77
REMARK SMILES IDX 45 78 68 79 69 80 77 81 70 82 76 83 71 84 72 85 73 86 74 87
REMARK SMILES IDX 75 88 54 89 55 90 63 91 56 92 62 93 57 94 58 95 59 96 60 97
REMARK SMILES IDX 61 98
REMARK H PARENT 21 6 13 11 26 35 82 54 52 65
REMARK Flexibility Score: inf
ROOT
ATOM      1  C   UNL A   1      34.416  30.753  27.508  1.00  0.00     0.023 C 
ENDROOT
BRANCH   1   2
ATOM      2  C   UNL A   1      33.769  29.738  26.566  1.00  0.00     0.116 C 
BRANCH   2   3
ATOM      3  N   UNL A   1      33.825  28.332  26.987  1.00  0.00    -0.351 N 
ATOM      4  C   UNL A   1      33.237  27.145  26.212  1.00  0.00     0.271 C 
ATOM      5  O   UNL A   1      32.048  27.324  26.707  1.00  0.00    -0.267 OA
ATOM      6  H   UNL A   1      34.279  28.134  27.838  1.00  0.00     0.163 HD
BRANCH   4   7
ATOM      7  C   UNL A   1      34.046  25.712  24.932  1.00  0.00     0.150 A 
ATOM      8  N   UNL A   1      32.052  22.968  22.722  1.00  0.00    -0.322 N 
ATOM      9  C   UNL A   1      32.451  22.131  23.888  1.00  0.00     0.286 C 
ATOM     10  C   UNL A   1      33.228  23.538  22.019  1.00  0.00     0.319 C 
ATOM     11  H   UNL A   1      31.578  22.283  22.133  1.00  0.00     0.348 HD
ATOM     12  C   UNL A   1      33.919  22.256  24.360  1.00  0.00     0.206 C 
ATOM     13  C   UNL A   1      34.025  24.271  23.030  1.00  0.00     0.094 A 
ATOM     14  N   UNL A   1      34.334  23.632  24.174  1.00  0.00    -0.257 N 
ATOM     15  C   UNL A   1      34.230  25.595  23.308  1.00  0.00     0.065 A 
ATOM     16  N   UNL A   1      34.601  24.419  25.212  1.00  0.00    -0.167 NA
BRANCH   8  17
ATOM     17  C   UNL A   1      31.014  24.019  22.938  1.00  0.00     0.339 C 
BRANCH  17  18
ATOM     18  C   UNL A   1      30.555  24.369  24.329  1.00  0.00     0.168 A 
ATOM     19  N   UNL A   1      29.938  25.553  24.708  1.00  0.00    -0.299 N 
ATOM     20  C   UNL A   1      29.829  25.529  26.077  1.00  0.00     0.113 A 
ATOM     21  C   UNL A   1      30.278  24.295  26.466  1.00  0.00     0.132 A 
ATOM     22  N   UNL A   1      30.732  23.587  25.388  1.00  0.00    -0.236 NA
BRANCH  19  23
ATOM     23  C   UNL A   1      29.610  26.680  23.944  1.00  0.00     0.047 A 
ATOM     24  C   UNL A   1      28.568  29.750  22.274  1.00  0.00     0.119 A 
ATOM     25  C   UNL A   1      30.339  29.341  22.373  1.00  0.00     0.048 A 
ATOM     26  C   UNL A   1      27.320  28.643  22.990  1.00  0.00     0.048 A 
ATOM     27  C   UNL A   1      30.870  27.782  23.229  1.00  0.00     0.030 A 
ATOM     28  C   UNL A   1      27.842  27.084  23.827  1.00  0.00     0.030 A 
BRANCH  24  29
ATOM     29  O   UNL A   1      28.268  30.907  21.616  1.00  0.00    -0.497 OA
ATOM     30  C   UNL A   1      28.427  32.070  22.417  1.00  0.00     0.278 C 
ENDBRANCH  24  29
ENDBRANCH  19  23
ENDBRANCH  17  18
ENDBRANCH   8  17
ENDBRANCH   4   7
ENDBRANCH   2   3
ENDBRANCH   1   2
BRANCH   1  31
ATOM     31  C   UNL A   1      33.697  32.095  27.682  1.00  0.00     0.023 C 
BRANCH  31  32
ATOM     32  C   UNL A   1      34.585  33.273  28.069  1.00  0.00     0.116 C 
BRANCH  32  33
ATOM     33  N   UNL A   1      34.109  34.008  29.241  1.00  0.00    -0.352 N 
ATOM     34  C   UNL A   1      34.431  33.779  30.566  1.00  0.00     0.251 C 
ATOM     35  H   UNL A   1      33.488  34.751  29.066  1.00  0.00     0.163 HD
ATOM     36  O   UNL A   1      33.727  34.210  31.471  1.00  0.00    -0.269 OA
BRANCH  34  37
ATOM     37  C   UNL A   1      35.652  33.014  30.870  1.00  0.00     0.039 A 
ATOM     38  C   UNL A   1      35.626  31.624  31.022  1.00  0.00     0.014 A 
ATOM     39  C   UNL A   1      36.848  33.722  30.955  1.00  0.00     0.014 A 
ATOM     40  C   UNL A   1      36.832  30.941  31.169  1.00  0.00     0.010 A 
ATOM     41  C   UNL A   1      38.038  33.042  30.982  1.00  0.00     0.010 A 
ATOM     42  C   UNL A   1      38.038  31.655  31.127  1.00  0.00    -0.014 A 
BRANCH  42  43
ATOM     43  C   UNL A   1      39.323  30.960  31.055  1.00  0.00     0.031 A 
ATOM     44  C   UNL A   1      39.969  30.726  32.382  1.00  0.00     0.074 A 
ATOM     45  C   UNL A   1      39.728  30.330  29.929  1.00  0.00     0.049 A 
ATOM     46  N   UNL A   1      41.110  31.161  32.805  1.00  0.00    -0.248 NA
ATOM     47  C   UNL A   1      39.181  30.033  33.420  1.00  0.00     0.031 C 
ATOM     48  C   UNL A   1      39.000  30.220  28.657  1.00  0.00     0.029 A 
ATOM     49  N   UNL A   1      40.798  29.514  29.724  1.00  0.00    -0.354 N 
ATOM     50  C   UNL A   1      41.289  30.599  34.069  1.00  0.00     0.074 A 
ATOM     51  C   UNL A   1      39.999  30.102  34.472  1.00  0.00     0.031 C 
ATOM     52  C   UNL A   1      39.498  29.192  27.938  1.00  0.00     0.029 A 
ATOM     53  C   UNL A   1      40.680  28.685  28.609  1.00  0.00     0.049 A 
ATOM     54  H   UNL A   1      41.588  29.509  30.311  1.00  0.00     0.167 HD
ATOM     55  C   UNL A   1      42.531  30.331  34.563  1.00  0.00     0.031 A 
ATOM     56  C   UNL A   1      41.464  27.625  28.282  1.00  0.00     0.031 A 
ATOM     57  C   UNL A   1      43.554  31.013  33.812  1.00  0.00     0.049 A 
ATOM     58  C   UNL A   1      42.726  27.773  29.043  1.00  0.00     0.074 A 
ATOM     59  C   UNL A   1      43.833  32.332  33.516  1.00  0.00     0.029 A 
ATOM     60  N   UNL A   1      44.251  30.260  32.895  1.00  0.00    -0.354 N 
ATOM     61  N   UNL A   1      43.566  28.753  28.854  1.00  0.00    -0.248 NA
ATOM     62  C   UNL A   1      42.829  27.104  30.329  1.00  0.00     0.031 C 
ATOM     63  C   UNL A   1      44.282  32.315  32.163  1.00  0.00     0.029 A 
ATOM     64  C   UNL A   1      44.335  30.985  31.736  1.00  0.00     0.049 A 
ATOM     65  H   UNL A   1      44.624  29.363  33.045  1.00  0.00     0.167 HD
ATOM     66  C   UNL A   1      43.980  29.112  30.130  1.00  0.00     0.074 A 
ATOM     67  C   UNL A   1      43.575  27.997  30.985  1.00  0.00     0.031 C 
ATOM     68  C   UNL A   1      44.352  30.397  30.413  1.00  0.00     0.031 A 
BRANCH  55  69
ATOM     69  C   UNL A   1      42.852  29.116  35.411  1.00  0.00    -0.014 A 
ATOM     70  C   UNL A   1      43.685  29.279  36.539  1.00  0.00     0.010 A 
ATOM     71  C   UNL A   1      42.624  27.791  34.982  1.00  0.00     0.010 A 
ATOM     72  C   UNL A   1      44.334  28.188  37.133  1.00  0.00     0.020 A 
ATOM     73  C   UNL A   1      43.230  26.692  35.595  1.00  0.00     0.020 A 
ATOM     74  C   UNL A   1      44.115  26.901  36.642  1.00  0.00     0.054 A 
BRANCH  74  75
ATOM     75  S   UNL A   1      45.050  25.514  37.329  1.00  0.00     0.124 S 
ATOM     76  O   UNL A   1      44.214  24.377  36.955  1.00  0.00    -0.237 OA
ATOM     77  O   UNL A   1      46.325  25.624  36.626  1.00  0.00    -0.237 OA
ATOM     78  O   UNL A   1      45.102  25.813  38.758  1.00  0.00    -0.744 OA
ENDBRANCH  74  75
ENDBRANCH  55  69
BRANCH  56  79
ATOM     79  C   UNL A   1      41.077  26.358  27.607  1.00  0.00    -0.014 A 
ATOM     80  C   UNL A   1      41.985  25.653  26.793  1.00  0.00     0.010 A 
ATOM     81  C   UNL A   1      39.895  25.688  27.989  1.00  0.00     0.010 A 
ATOM     82  C   UNL A   1      41.748  24.315  26.425  1.00  0.00     0.020 A 
ATOM     83  C   UNL A   1      39.649  24.358  27.623  1.00  0.00     0.020 A 
ATOM     84  C   UNL A   1      40.589  23.668  26.861  1.00  0.00     0.054 A 
BRANCH  84  85
ATOM     85  S   UNL A   1      40.371  21.891  26.531  1.00  0.00     0.124 S 
ATOM     86  O   UNL A   1      39.029  21.843  25.959  1.00  0.00    -0.237 OA
ATOM     87  O   UNL A   1      41.463  21.601  25.607  1.00  0.00    -0.237 OA
ATOM     88  O   UNL A   1      40.502  21.278  27.852  1.00  0.00    -0.744 OA
ENDBRANCH  84  85
ENDBRANCH  56  79
BRANCH  68  89
ATOM     89  C   UNL A   1      44.596  31.350  29.265  1.00  0.00    -0.014 A 
ATOM     90  C   UNL A   1      45.796  31.415  28.529  1.00  0.00     0.010 A 
ATOM     91  C   UNL A   1      43.495  32.100  28.814  1.00  0.00     0.010 A 
ATOM     92  C   UNL A   1      45.895  32.228  27.388  1.00  0.00     0.020 A 
ATOM     93  C   UNL A   1      43.581  32.895  27.672  1.00  0.00     0.020 A 
ATOM     94  C   UNL A   1      44.782  32.965  26.967  1.00  0.00     0.054 A 
BRANCH  94  95
ATOM     95  S   UNL A   1      44.893  33.984  25.470  1.00  0.00     0.124 S 
ATOM     96  O   UNL A   1      46.326  34.245  25.369  1.00  0.00    -0.237 OA
ATOM     97  O   UNL A   1      44.338  33.110  24.438  1.00  0.00    -0.237 OA
ATOM     98  O   UNL A   1      44.073  35.155  25.783  1.00  0.00    -0.744 OA
ENDBRANCH  94  95
ENDBRANCH  68  89
ENDBRANCH  42  43
ENDBRANCH  34  37
ENDBRANCH  32  33
ENDBRANCH  31  32
ENDBRANCH   1  31
TORSDOF 18
ENDMDL
MODEL 3
REMARK VINA RESULT:     -11.5      5.559     12.784
REMARK SMILES COc1ccc(-n2ccnc2C[N@@H+]2CCn3nc(C(=O)NCCCCNC(=O)c4ccc(-c5c6nc(c(-c7ccc(S(=O)(=O)[O-])cc7)c7ccc([nH]7)c(-c7ccc(S(=O)(=O)[O-])cc7)c7nc(c(-c8ccc(S(=O)(=O)[O-])cc8)c8ccc5[nH]8)C=C7)C=C6)cc4)cc3C2)cc1
REMARK SMILES IDX 23 1 22 2 21 3 19 4 20 5 18 7 13 8 14 9 91 10 15 12 90 13
REMARK SMILES IDX 16 14 89 15 17 16 12 17 11 18 7 19 8 20 9 21 10 22 6 23 3 24
REMARK SMILES IDX 4 25 93 26 5 27 92 28 2 29 1 30 24 31 25 32 26 33 27 34
REMARK SMILES IDX 28 36 29 37 30 38 88 39 31 40 87 41 32 42 33 43 34 44 81 45
REMARK SMILES IDX 35 46 86 47 80 48 82 49 36 50 85 51 79 52 78 53 37 55 67 56
REMARK SMILES IDX 48 57 66 58 49 59 52 60 65 61 83 62 50 63 51 64 64 66 84 67
REMARK SMILES IDX 53 68 38 69 39 70 47 71 40 72 46 73 41 74 42 75 43 76 44 77
REMARK SMILES IDX 45 78 68 79 69 80 77 81 70 82 76 83 71 84 72 85 73 86 74 87
REMARK SMILES IDX 75 88 54 89 55 90 63 91 56 92 62 93 57 94 58 95 59 96 60 97
REMARK SMILES IDX 61 98
REMARK H PARENT 21 6 13 11 26 35 82 54 52 65
REMARK Flexibility Score: inf
ROOT
ATOM      1  C   UNL A   1      45.945  23.729  24.337  1.00  0.00     0.023 C 
ENDROOT
BRANCH   1   2
ATOM      2  C   UNL A   1      46.283  23.887  25.819  1.00  0.00     0.116 C 
BRANCH   2   3
ATOM      3  N   UNL A   1      46.791  25.202  26.233  1.00  0.00    -0.351 N 
ATOM      4  C   UNL A   1      47.649  25.475  27.476  1.00  0.00     0.271 C 
ATOM      5  O   UNL A   1      46.613  25.544  28.258  1.00  0.00    -0.267 OA
ATOM      6  H   UNL A   1      46.562  25.973  25.666  1.00  0.00     0.163 HD
BRANCH   4   7
ATOM      7  C   UNL A   1      49.692  25.744  27.791  1.00  0.00     0.150 A 
ATOM      8  N   UNL A   1      52.346  27.583  25.349  1.00  0.00    -0.322 N 
ATOM      9  C   UNL A   1      52.603  26.159  24.995  1.00  0.00     0.286 C 
ATOM     10  C   UNL A   1      52.595  27.852  26.787  1.00  0.00     0.319 C 
ATOM     11  H   UNL A   1      53.034  28.063  24.769  1.00  0.00     0.348 HD
ATOM     12  C   UNL A   1      52.749  25.168  26.174  1.00  0.00     0.206 C 
ATOM     13  C   UNL A   1      51.771  26.892  27.557  1.00  0.00     0.094 A 
ATOM     14  N   UNL A   1      51.846  25.589  27.228  1.00  0.00    -0.257 N 
ATOM     15  C   UNL A   1      50.622  26.996  28.293  1.00  0.00     0.065 A 
ATOM     16  N   UNL A   1      50.794  24.852  27.571  1.00  0.00    -0.167 NA
BRANCH   8  17
ATOM     17  C   UNL A   1      51.049  28.187  24.923  1.00  0.00     0.339 C 
BRANCH  17  18
ATOM     18  C   UNL A   1      50.123  27.442  23.998  1.00  0.00     0.168 A 
ATOM     19  N   UNL A   1      50.182  27.447  22.611  1.00  0.00    -0.299 N 
ATOM     20  C   UNL A   1      49.074  26.773  22.159  1.00  0.00     0.113 A 
ATOM     21  C   UNL A   1      48.447  26.293  23.278  1.00  0.00     0.132 A 
ATOM     22  N   UNL A   1      49.091  26.713  24.408  1.00  0.00    -0.236 NA
BRANCH  19  23
ATOM     23  C   UNL A   1      51.059  28.119  21.752  1.00  0.00     0.047 A 
ATOM     24  C   UNL A   1      53.329  29.552  19.281  1.00  0.00     0.119 A 
ATOM     25  C   UNL A   1      51.793  30.433  19.704  1.00  0.00     0.048 A 
ATOM     26  C   UNL A   1      53.743  27.977  20.082  1.00  0.00     0.048 A 
ATOM     27  C   UNL A   1      50.634  29.700  20.955  1.00  0.00     0.030 A 
ATOM     28  C   UNL A   1      52.603  27.253  21.340  1.00  0.00     0.030 A 
BRANCH  24  29
ATOM     29  O   UNL A   1      54.127  30.169  18.362  1.00  0.00    -0.497 OA
ATOM     30  C   UNL A   1      53.868  29.762  17.026  1.00  0.00     0.278 C 
ENDBRANCH  24  29
ENDBRANCH  19  23
ENDBRANCH  17  18
ENDBRANCH   8  17
ENDBRANCH   4   7
ENDBRANCH   2   3
ENDBRANCH   1   2
BRANCH   1  31
ATOM     31  C   UNL A   1      45.215  22.446  23.925  1.00  0.00     0.023 C 
BRANCH  31  32
ATOM     32  C   UNL A   1      44.827  21.513  25.068  1.00  0.00     0.116 C 
BRANCH  32  33
ATOM     33  N   UNL A   1      43.413  21.137  25.065  1.00  0.00    -0.352 N 
ATOM     34  C   UNL A   1      42.396  21.683  25.826  1.00  0.00     0.251 C 
ATOM     35  H   UNL A   1      43.156  20.413  24.451  1.00  0.00     0.163 HD
ATOM     36  O   UNL A   1      41.345  21.079  26.002  1.00  0.00    -0.269 OA
BRANCH  34  37
ATOM     37  C   UNL A   1      42.598  23.019  26.413  1.00  0.00     0.039 A 
ATOM     38  C   UNL A   1      42.222  24.181  25.732  1.00  0.00     0.014 A 
ATOM     39  C   UNL A   1      43.137  23.082  27.695  1.00  0.00     0.014 A 
ATOM     40  C   UNL A   1      42.309  25.406  26.393  1.00  0.00     0.010 A 
ATOM     41  C   UNL A   1      43.111  24.267  28.384  1.00  0.00     0.010 A 
ATOM     42  C   UNL A   1      42.734  25.439  27.729  1.00  0.00    -0.014 A 
BRANCH  42  43
ATOM     43  C   UNL A   1      42.630  26.663  28.523  1.00  0.00     0.031 A 
ATOM     44  C   UNL A   1      43.760  27.620  28.327  1.00  0.00     0.074 A 
ATOM     45  C   UNL A   1      41.476  27.017  29.135  1.00  0.00     0.049 A 
ATOM     46  N   UNL A   1      44.607  28.050  29.204  1.00  0.00    -0.248 NA
ATOM     47  C   UNL A   1      44.072  28.046  26.949  1.00  0.00     0.031 C 
ATOM     48  C   UNL A   1      40.196  26.295  29.108  1.00  0.00     0.029 A 
ATOM     49  N   UNL A   1      41.148  28.172  29.773  1.00  0.00    -0.354 N 
ATOM     50  C   UNL A   1      45.405  28.982  28.541  1.00  0.00     0.074 A 
ATOM     51  C   UNL A   1      45.172  28.778  27.135  1.00  0.00     0.031 C 
ATOM     52  C   UNL A   1      39.196  27.136  29.451  1.00  0.00     0.029 A 
ATOM     53  C   UNL A   1      39.775  28.393  29.886  1.00  0.00     0.049 A 
ATOM     54  H   UNL A   1      41.820  28.798  30.126  1.00  0.00     0.167 HD
ATOM     55  C   UNL A   1      45.974  30.032  29.199  1.00  0.00     0.031 A 
ATOM     56  C   UNL A   1      39.152  29.540  30.263  1.00  0.00     0.031 A 
ATOM     57  C   UNL A   1      45.950  29.834  30.625  1.00  0.00     0.049 A 
ATOM     58  C   UNL A   1      40.160  30.365  30.969  1.00  0.00     0.074 A 
ATOM     59  C   UNL A   1      46.448  28.878  31.488  1.00  0.00     0.029 A 
ATOM     60  N   UNL A   1      44.977  30.510  31.325  1.00  0.00    -0.354 N 
ATOM     61  N   UNL A   1      40.708  30.014  32.099  1.00  0.00    -0.248 NA
ATOM     62  C   UNL A   1      40.903  31.345  30.194  1.00  0.00     0.031 C 
ATOM     63  C   UNL A   1      45.431  28.712  32.474  1.00  0.00     0.029 A 
ATOM     64  C   UNL A   1      44.412  29.631  32.210  1.00  0.00     0.049 A 
ATOM     65  H   UNL A   1      44.731  31.456  31.211  1.00  0.00     0.167 HD
ATOM     66  C   UNL A   1      42.043  30.371  31.969  1.00  0.00     0.074 A 
ATOM     67  C   UNL A   1      42.081  31.276  30.821  1.00  0.00     0.031 C 
ATOM     68  C   UNL A   1      43.024  29.676  32.621  1.00  0.00     0.031 A 
BRANCH  55  69
ATOM     69  C   UNL A   1      46.130  31.414  28.596  1.00  0.00    -0.014 A 
ATOM     70  C   UNL A   1      45.068  32.336  28.732  1.00  0.00     0.010 A 
ATOM     71  C   UNL A   1      47.130  31.739  27.655  1.00  0.00     0.010 A 
ATOM     72  C   UNL A   1      44.964  33.459  27.901  1.00  0.00     0.020 A 
ATOM     73  C   UNL A   1      47.059  32.880  26.852  1.00  0.00     0.020 A 
ATOM     74  C   UNL A   1      45.954  33.711  26.951  1.00  0.00     0.054 A 
BRANCH  74  75
ATOM     75  S   UNL A   1      45.750  35.089  25.797  1.00  0.00     0.124 S 
ATOM     76  O   UNL A   1      46.981  35.844  26.015  1.00  0.00    -0.237 OA
ATOM     77  O   UNL A   1      45.645  34.402  24.513  1.00  0.00    -0.237 OA
ATOM     78  O   UNL A   1      44.525  35.739  26.255  1.00  0.00    -0.744 OA
ENDBRANCH  74  75
ENDBRANCH  55  69
BRANCH  56  79
ATOM     79  C   UNL A   1      37.854  30.089  29.788  1.00  0.00    -0.014 A 
ATOM     80  C   UNL A   1      36.876  30.545  30.693  1.00  0.00     0.010 A 
ATOM     81  C   UNL A   1      37.686  30.427  28.428  1.00  0.00     0.010 A 
ATOM     82  C   UNL A   1      35.807  31.355  30.265  1.00  0.00     0.020 A 
ATOM     83  C   UNL A   1      36.621  31.227  27.993  1.00  0.00     0.020 A 
ATOM     84  C   UNL A   1      35.697  31.707  28.918  1.00  0.00     0.054 A 
BRANCH  84  85
ATOM     85  S   UNL A   1      34.417  32.893  28.399  1.00  0.00     0.124 S 
ATOM     86  O   UNL A   1      33.945  33.421  29.675  1.00  0.00    -0.237 OA
ATOM     87  O   UNL A   1      35.166  33.828  27.566  1.00  0.00    -0.237 OA
ATOM     88  O   UNL A   1      33.452  32.063  27.678  1.00  0.00    -0.744 OA
ENDBRANCH  84  85
ENDBRANCH  56  79
BRANCH  68  89
ATOM     89  C   UNL A   1      42.623  28.712  33.715  1.00  0.00    -0.014 A 
ATOM     90  C   UNL A   1      42.454  27.325  33.528  1.00  0.00     0.010 A 
ATOM     91  C   UNL A   1      42.573  29.221  35.025  1.00  0.00     0.010 A 
ATOM     92  C   UNL A   1      42.219  26.478  34.623  1.00  0.00     0.020 A 
ATOM     93  C   UNL A   1      42.358  28.382  36.118  1.00  0.00     0.020 A 
ATOM     94  C   UNL A   1      42.171  27.015  35.914  1.00  0.00     0.054 A 
BRANCH  94  95
ATOM     95  S   UNL A   1      41.908  25.917  37.335  1.00  0.00     0.124 S 
ATOM     96  O   UNL A   1      42.205  24.600  36.778  1.00  0.00    -0.237 OA
ATOM     97  O   UNL A   1      42.869  26.418  38.316  1.00  0.00    -0.237 OA
ATOM     98  O   UNL A   1      40.505  26.135  37.689  1.00  0.00    -0.744 OA
ENDBRANCH  94  95
ENDBRANCH  68  89
ENDBRANCH  42  43
ENDBRANCH  34  37
ENDBRANCH  32  33
ENDBRANCH  31  32
ENDBRANCH   1  31
TORSDOF 18
ENDMDL
