MODEL 1
REMARK VINA RESULT:     -10.4      0.000      0.000
REMARK SMILES CN(CCOCC1CC1)C(=O)N1[C@@H]2CC[C@H]1[C@H](C(=O)NCCCCNC(=O)c1ccc(-c3c4nc(c(-c5ccc(S(=O)(=O)[O-])cc5)c5ccc([nH]5)c(-c5ccc(S(=O)(=O)[O-])cc5)c5nc(c(-c6ccc(S(=O)(=O)[O-])cc6)c6ccc3[nH]6)C=C5)C=C4)cc1)C2
REMARK SMILES IDX 18 1 19 2 20 3 17 5 12 6 13 7 16 8 14 9 88 10 15 11 10 12
REMARK SMILES IDX 11 13 2 14 1 15 3 16 4 17 5 18 6 19 7 20 8 21 9 22 21 23
REMARK SMILES IDX 22 24 23 25 24 26 25 27 26 28 27 30 28 31 29 32 87 33 30 34
REMARK SMILES IDX 86 35 31 36 32 37 33 38 80 39 34 40 85 41 79 42 81 43 35 44
REMARK SMILES IDX 84 45 78 46 77 47 36 49 66 50 47 51 65 52 48 53 51 54 64 55
REMARK SMILES IDX 82 56 49 57 50 58 63 60 83 61 52 62 37 63 38 64 46 65 39 66
REMARK SMILES IDX 45 67 40 68 41 69 42 70 43 71 44 72 67 73 68 74 76 75 69 76
REMARK SMILES IDX 75 77 70 78 71 79 72 80 73 81 74 82 53 83 54 84 62 85 55 86
REMARK SMILES IDX 61 87 56 88 57 89 58 90 59 91 60 92
REMARK H PARENT 20 4 25 29 81 48 51 59
REMARK Flexibility Score: inf
ROOT
ATOM      1  C   UNL A   1      32.580  26.340  21.765  1.00  0.00     0.225 C 
ATOM      2  O   UNL A   1      33.299  25.881  20.865  1.00  0.00    -0.275 OA
ATOM      3  N   UNL A   1      32.715  27.671  21.992  1.00  0.00    -0.356 N 
ATOM      4  H   UNL A   1      33.264  28.117  21.308  1.00  0.00     0.163 HD
ENDROOT
BRANCH   1   5
ATOM      5  C   UNL A   1      31.681  25.363  22.521  1.00  0.00     0.103 C 
ATOM      6  N   UNL A   1      32.886  24.527  24.297  1.00  0.00    -0.318 N 
ATOM      7  C   UNL A   1      31.591  24.871  24.869  1.00  0.00     0.088 C 
ATOM      8  C   UNL A   1      32.443  24.105  22.982  1.00  0.00     0.099 C 
ATOM      9  C   UNL A   1      30.879  23.517  24.741  1.00  0.00     0.027 C 
ATOM     10  C   UNL A   1      30.970  25.809  23.807  1.00  0.00     0.040 C 
ATOM     11  C   UNL A   1      31.405  23.018  23.377  1.00  0.00     0.028 C 
BRANCH   6  12
ATOM     12  C   UNL A   1      33.996  24.317  25.059  1.00  0.00     0.320 C 
ATOM     13  O   UNL A   1      34.721  25.282  25.325  1.00  0.00    -0.248 OA
BRANCH  12  14
ATOM     14  N   UNL A   1      34.361  23.044  25.471  1.00  0.00    -0.325 N 
ATOM     15  C   UNL A   1      34.572  22.886  26.909  1.00  0.00     0.148 C 
BRANCH  14  16
ATOM     16  C   UNL A   1      34.783  21.895  24.654  1.00  0.00     0.149 C 
BRANCH  16  17
ATOM     17  C   UNL A   1      34.823  20.549  25.375  1.00  0.00     0.181 C 
BRANCH  17  18
ATOM     18  O   UNL A   1      33.593  19.829  25.410  1.00  0.00    -0.379 OA
BRANCH  18  19
ATOM     19  C   UNL A   1      32.849  19.787  24.193  1.00  0.00     0.163 C 
BRANCH  19  20
ATOM     20  C   UNL A   1      32.447  18.405  23.785  1.00  0.00     0.015 C 
ATOM     21  C   UNL A   1      32.361  18.025  22.329  1.00  0.00     0.006 C 
ATOM     22  C   UNL A   1      33.433  17.429  23.190  1.00  0.00     0.006 C 
ENDBRANCH  19  20
ENDBRANCH  18  19
ENDBRANCH  17  18
ENDBRANCH  16  17
ENDBRANCH  14  16
ENDBRANCH  12  14
ENDBRANCH   6  12
ENDBRANCH   1   5
BRANCH   3  23
ATOM     23  C   UNL A   1      32.235  28.593  23.016  1.00  0.00     0.116 C 
BRANCH  23  24
ATOM     24  C   UNL A   1      33.227  28.709  24.156  1.00  0.00     0.023 C 
BRANCH  24  25
ATOM     25  C   UNL A   1      32.792  29.519  25.357  1.00  0.00     0.023 C 
BRANCH  25  26
ATOM     26  C   UNL A   1      33.711  29.353  26.548  1.00  0.00     0.116 C 
BRANCH  26  27
ATOM     27  N   UNL A   1      33.655  30.465  27.498  1.00  0.00    -0.352 N 
ATOM     28  C   UNL A   1      34.606  30.881  28.406  1.00  0.00     0.251 C 
ATOM     29  H   UNL A   1      32.822  30.989  27.487  1.00  0.00     0.163 HD
ATOM     30  O   UNL A   1      34.363  31.793  29.191  1.00  0.00    -0.269 OA
BRANCH  28  31
ATOM     31  C   UNL A   1      35.900  30.171  28.460  1.00  0.00     0.039 A 
ATOM     32  C   UNL A   1      36.772  30.243  27.372  1.00  0.00     0.014 A 
ATOM     33  C   UNL A   1      36.296  29.551  29.642  1.00  0.00     0.014 A 
ATOM     34  C   UNL A   1      38.086  29.792  27.520  1.00  0.00     0.010 A 
ATOM     35  C   UNL A   1      37.636  29.265  29.836  1.00  0.00     0.010 A 
ATOM     36  C   UNL A   1      38.548  29.361  28.775  1.00  0.00    -0.014 A 
BRANCH  36  37
ATOM     37  C   UNL A   1      39.963  28.974  29.019  1.00  0.00     0.031 A 
ATOM     38  C   UNL A   1      40.916  29.996  29.590  1.00  0.00     0.074 A 
ATOM     39  C   UNL A   1      40.419  27.765  28.631  1.00  0.00     0.049 A 
ATOM     40  N   UNL A   1      42.216  29.940  29.707  1.00  0.00    -0.248 NA
ATOM     41  C   UNL A   1      40.335  31.281  30.020  1.00  0.00     0.031 C 
ATOM     42  C   UNL A   1      39.621  26.712  27.992  1.00  0.00     0.029 A 
ATOM     43  N   UNL A   1      41.674  27.217  28.713  1.00  0.00    -0.354 N 
ATOM     44  C   UNL A   1      42.606  31.198  30.154  1.00  0.00     0.074 A 
ATOM     45  C   UNL A   1      41.417  32.016  30.216  1.00  0.00     0.031 C 
ATOM     46  C   UNL A   1      40.394  25.632  27.791  1.00  0.00     0.029 A 
ATOM     47  C   UNL A   1      41.750  25.927  28.240  1.00  0.00     0.049 A 
ATOM     48  H   UNL A   1      42.450  27.702  29.076  1.00  0.00     0.167 HD
ATOM     49  C   UNL A   1      43.835  31.627  30.525  1.00  0.00     0.031 A 
ATOM     50  C   UNL A   1      42.793  25.078  28.179  1.00  0.00     0.031 A 
ATOM     51  C   UNL A   1      44.992  30.777  30.557  1.00  0.00     0.049 A 
ATOM     52  C   UNL A   1      44.133  25.543  28.683  1.00  0.00     0.074 A 
ATOM     53  C   UNL A   1      46.262  31.069  31.016  1.00  0.00     0.029 A 
ATOM     54  N   UNL A   1      45.006  29.455  30.139  1.00  0.00    -0.354 N 
ATOM     55  N   UNL A   1      44.470  26.718  29.161  1.00  0.00    -0.248 NA
ATOM     56  C   UNL A   1      45.231  24.567  28.649  1.00  0.00     0.031 C 
ATOM     57  C   UNL A   1      47.054  29.928  30.853  1.00  0.00     0.029 A 
ATOM     58  C   UNL A   1      46.265  28.916  30.328  1.00  0.00     0.049 A 
ATOM     59  H   UNL A   1      44.234  28.972  29.765  1.00  0.00     0.167 HD
ATOM     60  C   UNL A   1      45.813  26.616  29.502  1.00  0.00     0.074 A 
ATOM     61  C   UNL A   1      46.221  25.260  29.194  1.00  0.00     0.031 C 
ATOM     62  C   UNL A   1      46.638  27.559  30.020  1.00  0.00     0.031 A 
BRANCH  49  63
ATOM     63  C   UNL A   1      43.971  33.064  30.952  1.00  0.00    -0.014 A 
ATOM     64  C   UNL A   1      43.768  33.447  32.292  1.00  0.00     0.010 A 
ATOM     65  C   UNL A   1      44.307  34.048  30.006  1.00  0.00     0.010 A 
ATOM     66  C   UNL A   1      43.835  34.790  32.664  1.00  0.00     0.020 A 
ATOM     67  C   UNL A   1      44.410  35.391  30.382  1.00  0.00     0.020 A 
ATOM     68  C   UNL A   1      44.150  35.756  31.705  1.00  0.00     0.054 A 
BRANCH  68  69
ATOM     69  S   UNL A   1      44.238  37.493  32.217  1.00  0.00     0.124 S 
ATOM     70  O   UNL A   1      43.774  38.184  31.016  1.00  0.00    -0.237 OA
ATOM     71  O   UNL A   1      43.327  37.539  33.358  1.00  0.00    -0.237 OA
ATOM     72  O   UNL A   1      45.649  37.687  32.543  1.00  0.00    -0.744 OA
ENDBRANCH  68  69
ENDBRANCH  49  63
BRANCH  50  73
ATOM     73  C   UNL A   1      42.605  23.694  27.665  1.00  0.00    -0.014 A 
ATOM     74  C   UNL A   1      42.821  23.411  26.304  1.00  0.00     0.010 A 
ATOM     75  C   UNL A   1      42.226  22.649  28.527  1.00  0.00     0.010 A 
ATOM     76  C   UNL A   1      42.646  22.114  25.811  1.00  0.00     0.020 A 
ATOM     77  C   UNL A   1      42.074  21.346  28.041  1.00  0.00     0.020 A 
ATOM     78  C   UNL A   1      42.274  21.089  26.683  1.00  0.00     0.054 A 
BRANCH  78  79
ATOM     79  S   UNL A   1      42.104  19.403  26.031  1.00  0.00     0.124 S 
ATOM     80  O   UNL A   1      42.552  18.595  27.160  1.00  0.00    -0.237 OA
ATOM     81  O   UNL A   1      40.679  19.326  25.721  1.00  0.00    -0.237 OA
ATOM     82  O   UNL A   1      42.987  19.398  24.866  1.00  0.00    -0.744 OA
ENDBRANCH  78  79
ENDBRANCH  50  73
BRANCH  62  83
ATOM     83  C   UNL A   1      48.054  27.154  30.309  1.00  0.00    -0.014 A 
ATOM     84  C   UNL A   1      49.108  27.568  29.476  1.00  0.00     0.010 A 
ATOM     85  C   UNL A   1      48.342  26.418  31.473  1.00  0.00     0.010 A 
ATOM     86  C   UNL A   1      50.425  27.235  29.793  1.00  0.00     0.020 A 
ATOM     87  C   UNL A   1      49.660  26.105  31.805  1.00  0.00     0.020 A 
ATOM     88  C   UNL A   1      50.694  26.508  30.957  1.00  0.00     0.054 A 
BRANCH  88  89
ATOM     89  S   UNL A   1      52.419  26.146  31.379  1.00  0.00     0.124 S 
ATOM     90  O   UNL A   1      52.851  27.397  31.995  1.00  0.00    -0.237 OA
ATOM     91  O   UNL A   1      52.295  25.008  32.287  1.00  0.00    -0.237 OA
ATOM     92  O   UNL A   1      53.035  25.840  30.089  1.00  0.00    -0.744 OA
ENDBRANCH  88  89
ENDBRANCH  62  83
ENDBRANCH  36  37
ENDBRANCH  28  31
ENDBRANCH  26  27
ENDBRANCH  25  26
ENDBRANCH  24  25
ENDBRANCH  23  24
ENDBRANCH   3  23
TORSDOF 21
ENDMDL
MODEL 2
REMARK VINA RESULT:     -10.2      1.318      2.077
REMARK SMILES CN(CCOCC1CC1)C(=O)N1[C@@H]2CC[C@H]1[C@H](C(=O)NCCCCNC(=O)c1ccc(-c3c4nc(c(-c5ccc(S(=O)(=O)[O-])cc5)c5ccc([nH]5)c(-c5ccc(S(=O)(=O)[O-])cc5)c5nc(c(-c6ccc(S(=O)(=O)[O-])cc6)c6ccc3[nH]6)C=C5)C=C4)cc1)C2
REMARK SMILES IDX 18 1 19 2 20 3 17 5 12 6 13 7 16 8 14 9 88 10 15 11 10 12
REMARK SMILES IDX 11 13 2 14 1 15 3 16 4 17 5 18 6 19 7 20 8 21 9 22 21 23
REMARK SMILES IDX 22 24 23 25 24 26 25 27 26 28 27 30 28 31 29 32 87 33 30 34
REMARK SMILES IDX 86 35 31 36 32 37 33 38 80 39 34 40 85 41 79 42 81 43 35 44
REMARK SMILES IDX 84 45 78 46 77 47 36 49 66 50 47 51 65 52 48 53 51 54 64 55
REMARK SMILES IDX 82 56 49 57 50 58 63 60 83 61 52 62 37 63 38 64 46 65 39 66
REMARK SMILES IDX 45 67 40 68 41 69 42 70 43 71 44 72 67 73 68 74 76 75 69 76
REMARK SMILES IDX 75 77 70 78 71 79 72 80 73 81 74 82 53 83 54 84 62 85 55 86
REMARK SMILES IDX 61 87 56 88 57 89 58 90 59 91 60 92
REMARK H PARENT 20 4 25 29 81 48 51 59
REMARK Flexibility Score: inf
ROOT
ATOM      1  C   UNL A   1      32.860  26.638  21.875  1.00  0.00     0.225 C 
ATOM      2  O   UNL A   1      33.489  25.942  21.064  1.00  0.00    -0.275 OA
ATOM      3  N   UNL A   1      33.321  27.904  22.030  1.00  0.00    -0.356 N 
ATOM      4  H   UNL A   1      34.007  28.142  21.366  1.00  0.00     0.163 HD
ENDROOT
BRANCH   1   5
ATOM      5  C   UNL A   1      31.695  25.984  22.616  1.00  0.00     0.103 C 
ATOM      6  N   UNL A   1      32.539  24.975  24.506  1.00  0.00    -0.318 N 
ATOM      7  C   UNL A   1      31.357  25.684  24.974  1.00  0.00     0.088 C 
ATOM      8  C   UNL A   1      32.068  24.601  23.186  1.00  0.00     0.099 C 
ATOM      9  C   UNL A   1      30.316  24.561  24.864  1.00  0.00     0.027 C 
ATOM     10  C   UNL A   1      31.065  26.684  23.829  1.00  0.00     0.040 C 
ATOM     11  C   UNL A   1      30.758  23.855  23.563  1.00  0.00     0.028 C 
BRANCH   6  12
ATOM     12  C   UNL A   1      33.512  24.528  25.350  1.00  0.00     0.320 C 
ATOM     13  O   UNL A   1      34.423  25.303  25.664  1.00  0.00    -0.248 OA
BRANCH  12  14
ATOM     14  N   UNL A   1      33.539  23.215  25.794  1.00  0.00    -0.325 N 
ATOM     15  C   UNL A   1      33.264  23.027  27.217  1.00  0.00     0.148 C 
BRANCH  14  16
ATOM     16  C   UNL A   1      34.021  22.013  25.093  1.00  0.00     0.149 C 
BRANCH  16  17
ATOM     17  C   UNL A   1      34.528  22.234  23.670  1.00  0.00     0.181 C 
BRANCH  17  18
ATOM     18  O   UNL A   1      35.890  22.641  23.555  1.00  0.00    -0.379 OA
BRANCH  18  19
ATOM     19  C   UNL A   1      36.818  22.003  24.431  1.00  0.00     0.163 C 
BRANCH  19  20
ATOM     20  C   UNL A   1      37.860  22.928  24.976  1.00  0.00     0.015 C 
ATOM     21  C   UNL A   1      37.572  23.795  26.174  1.00  0.00     0.006 C 
ATOM     22  C   UNL A   1      38.551  22.667  26.293  1.00  0.00     0.006 C 
ENDBRANCH  19  20
ENDBRANCH  18  19
ENDBRANCH  17  18
ENDBRANCH  16  17
ENDBRANCH  14  16
ENDBRANCH  12  14
ENDBRANCH   6  12
ENDBRANCH   1   5
BRANCH   3  23
ATOM     23  C   UNL A   1      33.035  28.997  22.955  1.00  0.00     0.116 C 
BRANCH  23  24
ATOM     24  C   UNL A   1      33.649  28.736  24.316  1.00  0.00     0.023 C 
BRANCH  24  25
ATOM     25  C   UNL A   1      32.832  29.148  25.521  1.00  0.00     0.023 C 
BRANCH  25  26
ATOM     26  C   UNL A   1      33.626  29.127  26.810  1.00  0.00     0.116 C 
BRANCH  26  27
ATOM     27  N   UNL A   1      33.699  30.425  27.480  1.00  0.00    -0.352 N 
ATOM     28  C   UNL A   1      34.729  30.965  28.222  1.00  0.00     0.251 C 
ATOM     29  H   UNL A   1      32.900  30.993  27.390  1.00  0.00     0.163 HD
ATOM     30  O   UNL A   1      34.594  32.045  28.788  1.00  0.00    -0.269 OA
BRANCH  28  31
ATOM     31  C   UNL A   1      35.979  30.191  28.374  1.00  0.00     0.039 A 
ATOM     32  C   UNL A   1      36.968  30.278  27.393  1.00  0.00     0.014 A 
ATOM     33  C   UNL A   1      36.215  29.491  29.554  1.00  0.00     0.014 A 
ATOM     34  C   UNL A   1      38.237  29.758  27.656  1.00  0.00     0.010 A 
ATOM     35  C   UNL A   1      37.513  29.132  29.875  1.00  0.00     0.010 A 
ATOM     36  C   UNL A   1      38.540  29.240  28.927  1.00  0.00    -0.014 A 
BRANCH  36  37
ATOM     37  C   UNL A   1      39.901  28.772  29.299  1.00  0.00     0.031 A 
ATOM     38  C   UNL A   1      40.822  29.712  30.040  1.00  0.00     0.074 A 
ATOM     39  C   UNL A   1      40.350  27.570  28.884  1.00  0.00     0.049 A 
ATOM     40  N   UNL A   1      42.098  29.588  30.296  1.00  0.00    -0.248 NA
ATOM     41  C   UNL A   1      40.247  30.993  30.488  1.00  0.00     0.031 C 
ATOM     42  C   UNL A   1      39.590  26.598  28.091  1.00  0.00     0.029 A 
ATOM     43  N   UNL A   1      41.566  26.961  29.068  1.00  0.00    -0.354 N 
ATOM     44  C   UNL A   1      42.483  30.796  30.867  1.00  0.00     0.074 A 
ATOM     45  C   UNL A   1      41.328  31.663  30.851  1.00  0.00     0.031 C 
ATOM     46  C   UNL A   1      40.338  25.497  27.905  1.00  0.00     0.029 A 
ATOM     47  C   UNL A   1      41.644  25.701  28.520  1.00  0.00     0.049 A 
ATOM     48  H   UNL A   1      42.314  27.386  29.547  1.00  0.00     0.167 HD
ATOM     49  C   UNL A   1      43.678  31.144  31.400  1.00  0.00     0.031 A 
ATOM     50  C   UNL A   1      42.654  24.810  28.519  1.00  0.00     0.031 A 
ATOM     51  C   UNL A   1      44.790  30.241  31.503  1.00  0.00     0.049 A 
ATOM     52  C   UNL A   1      43.945  25.179  29.198  1.00  0.00     0.074 A 
ATOM     53  C   UNL A   1      46.010  30.445  32.119  1.00  0.00     0.029 A 
ATOM     54  N   UNL A   1      44.800  28.949  31.002  1.00  0.00    -0.354 N 
ATOM     55  N   UNL A   1      44.271  26.305  29.788  1.00  0.00    -0.248 NA
ATOM     56  C   UNL A   1      45.000  24.157  29.221  1.00  0.00     0.031 C 
ATOM     57  C   UNL A   1      46.770  29.280  31.968  1.00  0.00     0.029 A 
ATOM     58  C   UNL A   1      46.006  28.341  31.292  1.00  0.00     0.049 A 
ATOM     59  H   UNL A   1      44.057  28.526  30.512  1.00  0.00     0.167 HD
ATOM     60  C   UNL A   1      45.562  26.120  30.268  1.00  0.00     0.074 A 
ATOM     61  C   UNL A   1      45.948  24.769  29.918  1.00  0.00     0.031 C 
ATOM     62  C   UNL A   1      46.359  26.990  30.937  1.00  0.00     0.031 A 
BRANCH  49  63
ATOM     63  C   UNL A   1      43.821  32.544  31.935  1.00  0.00    -0.014 A 
ATOM     64  C   UNL A   1      44.139  33.619  31.084  1.00  0.00     0.010 A 
ATOM     65  C   UNL A   1      43.633  32.793  33.306  1.00  0.00     0.010 A 
ATOM     66  C   UNL A   1      44.330  34.901  31.601  1.00  0.00     0.020 A 
ATOM     67  C   UNL A   1      43.789  34.082  33.824  1.00  0.00     0.020 A 
ATOM     68  C   UNL A   1      44.160  35.124  32.971  1.00  0.00     0.054 A 
BRANCH  68  69
ATOM     69  S   UNL A   1      44.406  36.801  33.615  1.00  0.00     0.124 S 
ATOM     70  O   UNL A   1      43.613  37.600  32.682  1.00  0.00    -0.237 OA
ATOM     71  O   UNL A   1      43.872  36.707  34.971  1.00  0.00    -0.237 OA
ATOM     72  O   UNL A   1      45.851  36.996  33.530  1.00  0.00    -0.744 OA
ENDBRANCH  68  69
ENDBRANCH  49  63
BRANCH  50  73
ATOM     73  C   UNL A   1      42.471  23.470  27.895  1.00  0.00    -0.014 A 
ATOM     74  C   UNL A   1      42.928  23.233  26.587  1.00  0.00     0.010 A 
ATOM     75  C   UNL A   1      41.858  22.421  28.604  1.00  0.00     0.010 A 
ATOM     76  C   UNL A   1      42.761  21.979  25.991  1.00  0.00     0.020 A 
ATOM     77  C   UNL A   1      41.711  21.159  28.020  1.00  0.00     0.020 A 
ATOM     78  C   UNL A   1      42.153  20.948  26.712  1.00  0.00     0.054 A 
BRANCH  78  79
ATOM     79  S   UNL A   1      41.994  19.314  25.939  1.00  0.00     0.124 S 
ATOM     80  O   UNL A   1      42.478  18.431  26.994  1.00  0.00    -0.237 OA
ATOM     81  O   UNL A   1      40.564  19.237  25.653  1.00  0.00    -0.237 OA
ATOM     82  O   UNL A   1      42.851  19.411  24.759  1.00  0.00    -0.744 OA
ENDBRANCH  78  79
ENDBRANCH  50  73
BRANCH  62  83
ATOM     83  C   UNL A   1      47.716  26.502  31.353  1.00  0.00    -0.014 A 
ATOM     84  C   UNL A   1      47.931  25.975  32.639  1.00  0.00     0.010 A 
ATOM     85  C   UNL A   1      48.768  26.495  30.419  1.00  0.00     0.010 A 
ATOM     86  C   UNL A   1      49.182  25.467  32.989  1.00  0.00     0.020 A 
ATOM     87  C   UNL A   1      50.013  25.966  30.759  1.00  0.00     0.020 A 
ATOM     88  C   UNL A   1      50.216  25.463  32.046  1.00  0.00     0.054 A 
BRANCH  88  89
ATOM     89  S   UNL A   1      51.812  24.739  32.506  1.00  0.00     0.124 S 
ATOM     90  O   UNL A   1      51.622  23.335  32.154  1.00  0.00    -0.237 OA
ATOM     91  O   UNL A   1      52.753  25.476  31.666  1.00  0.00    -0.237 OA
ATOM     92  O   UNL A   1      51.918  25.014  33.938  1.00  0.00    -0.744 OA
ENDBRANCH  88  89
ENDBRANCH  62  83
ENDBRANCH  36  37
ENDBRANCH  28  31
ENDBRANCH  26  27
ENDBRANCH  25  26
ENDBRANCH  24  25
ENDBRANCH  23  24
ENDBRANCH   3  23
TORSDOF 21
ENDMDL
MODEL 3
REMARK VINA RESULT:     -10.0      4.563     10.480
REMARK SMILES CN(CCOCC1CC1)C(=O)N1[C@@H]2CC[C@H]1[C@H](C(=O)NCCCCNC(=O)c1ccc(-c3c4nc(c(-c5ccc(S(=O)(=O)[O-])cc5)c5ccc([nH]5)c(-c5ccc(S(=O)(=O)[O-])cc5)c5nc(c(-c6ccc(S(=O)(=O)[O-])cc6)c6ccc3[nH]6)C=C5)C=C4)cc1)C2
REMARK SMILES IDX 18 1 19 2 20 3 17 5 12 6 13 7 16 8 14 9 88 10 15 11 10 12
REMARK SMILES IDX 11 13 2 14 1 15 3 16 4 17 5 18 6 19 7 20 8 21 9 22 21 23
REMARK SMILES IDX 22 24 23 25 24 26 25 27 26 28 27 30 28 31 29 32 87 33 30 34
REMARK SMILES IDX 86 35 31 36 32 37 33 38 80 39 34 40 85 41 79 42 81 43 35 44
REMARK SMILES IDX 84 45 78 46 77 47 36 49 66 50 47 51 65 52 48 53 51 54 64 55
REMARK SMILES IDX 82 56 49 57 50 58 63 60 83 61 52 62 37 63 38 64 46 65 39 66
REMARK SMILES IDX 45 67 40 68 41 69 42 70 43 71 44 72 67 73 68 74 76 75 69 76
REMARK SMILES IDX 75 77 70 78 71 79 72 80 73 81 74 82 53 83 54 84 62 85 55 86
REMARK SMILES IDX 61 87 56 88 57 89 58 90 59 91 60 92
REMARK H PARENT 20 4 25 29 81 48 51 59
REMARK Flexibility Score: inf
ROOT
ATOM      1  C   UNL A   1      36.103  23.231  23.868  1.00  0.00     0.225 C 
ATOM      2  O   UNL A   1      36.007  23.139  22.635  1.00  0.00    -0.275 OA
ATOM      3  N   UNL A   1      37.340  22.996  24.371  1.00  0.00    -0.356 N 
ATOM      4  H   UNL A   1      38.027  22.927  23.670  1.00  0.00     0.163 HD
ENDROOT
BRANCH   1   5
ATOM      5  C   UNL A   1      34.832  23.547  24.655  1.00  0.00     0.103 C 
ATOM      6  N   UNL A   1      33.603  25.060  23.429  1.00  0.00    -0.318 N 
ATOM      7  C   UNL A   1      32.628  24.066  23.856  1.00  0.00     0.088 C 
ATOM      8  C   UNL A   1      34.465  25.043  24.595  1.00  0.00     0.099 C 
ATOM      9  C   UNL A   1      32.123  24.729  25.145  1.00  0.00     0.027 C 
ATOM     10  C   UNL A   1      33.507  22.866  24.282  1.00  0.00     0.040 C 
ATOM     11  C   UNL A   1      33.425  25.339  25.711  1.00  0.00     0.028 C 
BRANCH   6  12
ATOM     12  C   UNL A   1      33.363  25.939  22.414  1.00  0.00     0.320 C 
ATOM     13  O   UNL A   1      33.681  25.613  21.265  1.00  0.00    -0.248 OA
BRANCH  12  14
ATOM     14  N   UNL A   1      32.847  27.202  22.657  1.00  0.00    -0.325 N 
ATOM     15  C   UNL A   1      33.823  28.212  23.063  1.00  0.00     0.148 C 
BRANCH  14  16
ATOM     16  C   UNL A   1      31.440  27.617  22.782  1.00  0.00     0.149 C 
BRANCH  16  17
ATOM     17  C   UNL A   1      31.210  29.095  23.092  1.00  0.00     0.181 C 
BRANCH  17  18
ATOM     18  O   UNL A   1      30.072  29.388  23.898  1.00  0.00    -0.379 OA
BRANCH  18  19
ATOM     19  C   UNL A   1      29.288  30.513  23.504  1.00  0.00     0.163 C 
BRANCH  19  20
ATOM     20  C   UNL A   1      29.214  30.702  22.021  1.00  0.00     0.015 C 
ATOM     21  C   UNL A   1      27.884  30.743  21.314  1.00  0.00     0.006 C 
ATOM     22  C   UNL A   1      28.716  31.986  21.403  1.00  0.00     0.006 C 
ENDBRANCH  19  20
ENDBRANCH  18  19
ENDBRANCH  17  18
ENDBRANCH  16  17
ENDBRANCH  14  16
ENDBRANCH  12  14
ENDBRANCH   6  12
ENDBRANCH   1   5
BRANCH   3  23
ATOM     23  C   UNL A   1      37.889  22.822  25.713  1.00  0.00     0.116 C 
BRANCH  23  24
ATOM     24  C   UNL A   1      38.120  24.160  26.386  1.00  0.00     0.023 C 
BRANCH  24  25
ATOM     25  C   UNL A   1      39.496  24.400  26.968  1.00  0.00     0.023 C 
BRANCH  25  26
ATOM     26  C   UNL A   1      40.294  25.430  26.197  1.00  0.00     0.116 C 
BRANCH  26  27
ATOM     27  N   UNL A   1      41.637  24.982  25.828  1.00  0.00    -0.352 N 
ATOM     28  C   UNL A   1      42.853  25.336  26.373  1.00  0.00     0.251 C 
ATOM     29  H   UNL A   1      41.678  24.338  25.085  1.00  0.00     0.163 HD
ATOM     30  O   UNL A   1      43.901  24.923  25.886  1.00  0.00    -0.269 OA
BRANCH  28  31
ATOM     31  C   UNL A   1      42.876  26.270  27.517  1.00  0.00     0.039 A 
ATOM     32  C   UNL A   1      43.249  27.600  27.315  1.00  0.00     0.014 A 
ATOM     33  C   UNL A   1      42.397  25.852  28.756  1.00  0.00     0.014 A 
ATOM     34  C   UNL A   1      43.027  28.533  28.331  1.00  0.00     0.010 A 
ATOM     35  C   UNL A   1      42.023  26.804  29.689  1.00  0.00     0.010 A 
ATOM     36  C   UNL A   1      42.349  28.155  29.502  1.00  0.00    -0.014 A 
BRANCH  36  37
ATOM     37  C   UNL A   1      41.988  29.125  30.569  1.00  0.00     0.031 A 
ATOM     38  C   UNL A   1      42.834  29.190  31.819  1.00  0.00     0.074 A 
ATOM     39  C   UNL A   1      40.858  29.855  30.478  1.00  0.00     0.049 A 
ATOM     40  N   UNL A   1      42.601  29.814  32.943  1.00  0.00    -0.248 NA
ATOM     41  C   UNL A   1      44.070  28.386  31.829  1.00  0.00     0.031 C 
ATOM     42  C   UNL A   1      39.908  29.828  29.360  1.00  0.00     0.029 A 
ATOM     43  N   UNL A   1      40.311  30.765  31.348  1.00  0.00    -0.354 N 
ATOM     44  C   UNL A   1      43.620  29.423  33.805  1.00  0.00     0.074 A 
ATOM     45  C   UNL A   1      44.426  28.453  33.101  1.00  0.00     0.031 C 
ATOM     46  C   UNL A   1      38.928  30.719  29.590  1.00  0.00     0.029 A 
ATOM     47  C   UNL A   1      39.151  31.345  30.888  1.00  0.00     0.049 A 
ATOM     48  H   UNL A   1      40.712  30.982  32.220  1.00  0.00     0.167 HD
ATOM     49  C   UNL A   1      43.892  29.861  35.057  1.00  0.00     0.031 A 
ATOM     50  C   UNL A   1      38.359  32.279  31.450  1.00  0.00     0.031 A 
ATOM     51  C   UNL A   1      43.146  30.900  35.710  1.00  0.00     0.049 A 
ATOM     52  C   UNL A   1      38.729  32.822  32.803  1.00  0.00     0.074 A 
ATOM     53  C   UNL A   1      43.393  31.501  36.929  1.00  0.00     0.029 A 
ATOM     54  N   UNL A   1      42.022  31.511  35.177  1.00  0.00    -0.354 N 
ATOM     55  N   UNL A   1      39.733  32.483  33.578  1.00  0.00    -0.248 NA
ATOM     56  C   UNL A   1      37.869  33.879  33.354  1.00  0.00     0.031 C 
ATOM     57  C   UNL A   1      42.401  32.463  37.146  1.00  0.00     0.029 A 
ATOM     58  C   UNL A   1      41.561  32.485  36.043  1.00  0.00     0.049 A 
ATOM     59  H   UNL A   1      41.613  31.287  34.309  1.00  0.00     0.167 HD
ATOM     60  C   UNL A   1      39.635  33.299  34.700  1.00  0.00     0.074 A 
ATOM     61  C   UNL A   1      38.488  34.159  34.493  1.00  0.00     0.031 C 
ATOM     62  C   UNL A   1      40.421  33.332  35.804  1.00  0.00     0.031 A 
BRANCH  49  63
ATOM     63  C   UNL A   1      45.060  29.238  35.774  1.00  0.00    -0.014 A 
ATOM     64  C   UNL A   1      46.359  29.763  35.640  1.00  0.00     0.010 A 
ATOM     65  C   UNL A   1      44.861  28.114  36.595  1.00  0.00     0.010 A 
ATOM     66  C   UNL A   1      47.444  29.139  36.259  1.00  0.00     0.020 A 
ATOM     67  C   UNL A   1      45.939  27.507  37.246  1.00  0.00     0.020 A 
ATOM     68  C   UNL A   1      47.228  28.010  37.054  1.00  0.00     0.054 A 
BRANCH  68  69
ATOM     69  S   UNL A   1      48.654  27.225  37.853  1.00  0.00     0.124 S 
ATOM     70  O   UNL A   1      48.806  28.037  39.059  1.00  0.00    -0.237 OA
ATOM     71  O   UNL A   1      48.187  25.859  38.073  1.00  0.00    -0.237 OA
ATOM     72  O   UNL A   1      49.723  27.365  36.868  1.00  0.00    -0.744 OA
ENDBRANCH  68  69
ENDBRANCH  49  63
BRANCH  50  73
ATOM     73  C   UNL A   1      37.168  32.790  30.717  1.00  0.00    -0.014 A 
ATOM     74  C   UNL A   1      35.883  32.327  31.048  1.00  0.00     0.010 A 
ATOM     75  C   UNL A   1      37.305  33.752  29.699  1.00  0.00     0.010 A 
ATOM     76  C   UNL A   1      34.758  32.800  30.366  1.00  0.00     0.020 A 
ATOM     77  C   UNL A   1      36.179  34.246  29.032  1.00  0.00     0.020 A 
ATOM     78  C   UNL A   1      34.913  33.758  29.361  1.00  0.00     0.054 A 
BRANCH  78  79
ATOM     79  S   UNL A   1      33.434  34.398  28.525  1.00  0.00     0.124 S 
ATOM     80  O   UNL A   1      33.992  35.457  27.691  1.00  0.00    -0.237 OA
ATOM     81  O   UNL A   1      32.940  33.223  27.813  1.00  0.00    -0.237 OA
ATOM     82  O   UNL A   1      32.588  34.848  29.629  1.00  0.00    -0.744 OA
ENDBRANCH  78  79
ENDBRANCH  50  73
BRANCH  62  83
ATOM     83  C   UNL A   1      40.082  34.343  36.861  1.00  0.00    -0.014 A 
ATOM     84  C   UNL A   1      39.245  34.008  37.939  1.00  0.00     0.010 A 
ATOM     85  C   UNL A   1      40.676  35.618  36.817  1.00  0.00     0.010 A 
ATOM     86  C   UNL A   1      38.992  34.940  38.947  1.00  0.00     0.020 A 
ATOM     87  C   UNL A   1      40.443  36.543  37.836  1.00  0.00     0.020 A 
ATOM     88  C   UNL A   1      39.594  36.200  38.891  1.00  0.00     0.054 A 
BRANCH  88  89
ATOM     89  S   UNL A   1      39.299  37.368  40.245  1.00  0.00     0.124 S 
ATOM     90  O   UNL A   1      40.656  37.786  40.586  1.00  0.00    -0.237 OA
ATOM     91  O   UNL A   1      38.467  38.389  39.613  1.00  0.00    -0.237 OA
ATOM     92  O   UNL A   1      38.622  36.560  41.257  1.00  0.00    -0.744 OA
ENDBRANCH  88  89
ENDBRANCH  62  83
ENDBRANCH  36  37
ENDBRANCH  28  31
ENDBRANCH  26  27
ENDBRANCH  25  26
ENDBRANCH  24  25
ENDBRANCH  23  24
ENDBRANCH   3  23
TORSDOF 21
ENDMDL
