MODEL 1
REMARK VINA RESULT:     -11.0      0.000      0.000
REMARK SMILES O=C(NCCCCNC(=O)[C@H]1CC(=O)N(CCC2=c3ccccc3=NC2)C1)c1ccc(-c2c3nc(c(-c4ccc(S(=O)(=O)[O-])cc4)c4ccc([nH]4)c(-c4ccc(S(=O)(=O)[O-])cc4)c4nc(c(-c5ccc(S(=O)(=O)[O-])cc5)c5ccc2[nH]5)C=C4)C=C3)cc1
REMARK SMILES IDX 5 1 4 2 3 3 1 4 2 5 28 7 29 8 87 9 30 10 86 11 31 12 32 13
REMARK SMILES IDX 33 14 80 15 34 16 85 17 79 18 81 19 35 20 84 21 78 22 77 23
REMARK SMILES IDX 36 25 66 26 47 27 65 28 48 29 51 30 64 31 82 32 49 33 50 34
REMARK SMILES IDX 63 36 83 37 52 38 37 39 38 40 46 41 39 42 45 43 40 44 41 45
REMARK SMILES IDX 42 46 43 47 44 48 67 49 68 50 76 51 69 52 75 53 70 54 71 55
REMARK SMILES IDX 72 56 73 57 74 58 53 59 54 60 62 61 55 62 61 63 56 64 57 65
REMARK SMILES IDX 58 66 59 67 60 68 6 69 7 70 8 71 9 72 10 74 11 75 12 76
REMARK SMILES IDX 27 77 13 78 15 79 14 80 16 81 17 82 18 83 19 84 26 85 20 86
REMARK SMILES IDX 24 87 25 88 21 89 23 90 22 91
REMARK H PARENT 3 6 81 24 51 35 8 73
REMARK Flexibility Score: inf
ROOT
ATOM      1  C   UNL A   1      34.228  28.170  25.601  1.00  0.00     0.023 C 
ENDROOT
BRANCH   1   2
ATOM      2  C   UNL A   1      33.736  28.343  27.035  1.00  0.00     0.116 C 
BRANCH   2   3
ATOM      3  N   UNL A   1      33.529  29.739  27.379  1.00  0.00    -0.352 N 
ATOM      4  O   UNL A   1      33.940  31.695  28.406  1.00  0.00    -0.269 OA
ATOM      5  C   UNL A   1      34.360  30.597  28.052  1.00  0.00     0.251 C 
ATOM      6  H   UNL A   1      32.670  30.123  27.089  1.00  0.00     0.163 HD
BRANCH   5   7
ATOM      7  C   UNL A   1      35.748  30.195  28.354  1.00  0.00     0.039 A 
ATOM      8  C   UNL A   1      36.713  30.304  27.349  1.00  0.00     0.014 A 
ATOM      9  C   UNL A   1      36.089  29.675  29.606  1.00  0.00     0.014 A 
ATOM     10  C   UNL A   1      38.025  29.905  27.605  1.00  0.00     0.010 A 
ATOM     11  C   UNL A   1      37.412  29.348  29.882  1.00  0.00     0.010 A 
ATOM     12  C   UNL A   1      38.386  29.432  28.877  1.00  0.00    -0.014 A 
BRANCH  12  13
ATOM     13  C   UNL A   1      39.764  28.964  29.159  1.00  0.00     0.031 A 
ATOM     14  C   UNL A   1      40.735  29.880  29.853  1.00  0.00     0.074 A 
ATOM     15  C   UNL A   1      40.156  27.739  28.758  1.00  0.00     0.049 A 
ATOM     16  N   UNL A   1      41.994  29.678  30.141  1.00  0.00    -0.248 NA
ATOM     17  C   UNL A   1      40.232  31.204  30.256  1.00  0.00     0.031 C 
ATOM     18  C   UNL A   1      39.303  26.769  28.071  1.00  0.00     0.029 A 
ATOM     19  N   UNL A   1      41.367  27.103  28.869  1.00  0.00    -0.354 N 
ATOM     20  C   UNL A   1      42.437  30.853  30.737  1.00  0.00     0.074 A 
ATOM     21  C   UNL A   1      41.330  31.781  30.723  1.00  0.00     0.031 C 
ATOM     22  C   UNL A   1      40.007  25.648  27.854  1.00  0.00     0.029 A 
ATOM     23  C   UNL A   1      41.374  25.836  28.336  1.00  0.00     0.049 A 
ATOM     24  H   UNL A   1      42.156  27.515  29.292  1.00  0.00     0.167 HD
ATOM     25  C   UNL A   1      43.651  31.121  31.269  1.00  0.00     0.031 A 
ATOM     26  C   UNL A   1      42.366  24.927  28.239  1.00  0.00     0.031 A 
ATOM     27  C   UNL A   1      44.735  30.175  31.302  1.00  0.00     0.049 A 
ATOM     28  C   UNL A   1      43.718  25.253  28.807  1.00  0.00     0.074 A 
ATOM     29  C   UNL A   1      45.978  30.323  31.889  1.00  0.00     0.029 A 
ATOM     30  N   UNL A   1      44.711  28.913  30.724  1.00  0.00    -0.354 N 
ATOM     31  N   UNL A   1      44.102  26.341  29.431  1.00  0.00    -0.248 NA
ATOM     32  C   UNL A   1      44.770  24.238  28.666  1.00  0.00     0.031 C 
ATOM     33  C   UNL A   1      46.736  29.192  31.588  1.00  0.00     0.029 A 
ATOM     34  C   UNL A   1      45.938  28.296  30.893  1.00  0.00     0.049 A 
ATOM     35  H   UNL A   1      43.937  28.518  30.262  1.00  0.00     0.167 HD
ATOM     36  C   UNL A   1      45.436  26.141  29.766  1.00  0.00     0.074 A 
ATOM     37  C   UNL A   1      45.788  24.817  29.293  1.00  0.00     0.031 C 
ATOM     38  C   UNL A   1      46.287  26.981  30.406  1.00  0.00     0.031 A 
BRANCH  25  39
ATOM     39  C   UNL A   1      43.886  32.488  31.864  1.00  0.00    -0.014 A 
ATOM     40  C   UNL A   1      44.403  33.518  31.056  1.00  0.00     0.010 A 
ATOM     41  C   UNL A   1      43.690  32.732  33.236  1.00  0.00     0.010 A 
ATOM     42  C   UNL A   1      44.742  34.755  31.610  1.00  0.00     0.020 A 
ATOM     43  C   UNL A   1      43.993  33.981  33.787  1.00  0.00     0.020 A 
ATOM     44  C   UNL A   1      44.539  34.977  32.974  1.00  0.00     0.054 A 
BRANCH  44  45
ATOM     45  S   UNL A   1      44.993  36.587  33.675  1.00  0.00     0.124 S 
ATOM     46  O   UNL A   1      46.354  36.767  33.178  1.00  0.00    -0.237 OA
ATOM     47  O   UNL A   1      43.987  37.480  33.103  1.00  0.00    -0.237 OA
ATOM     48  O   UNL A   1      44.876  36.377  35.117  1.00  0.00    -0.744 OA
ENDBRANCH  44  45
ENDBRANCH  25  39
BRANCH  26  49
ATOM     49  C   UNL A   1      42.061  23.609  27.615  1.00  0.00    -0.014 A 
ATOM     50  C   UNL A   1      41.531  22.560  28.390  1.00  0.00     0.010 A 
ATOM     51  C   UNL A   1      42.453  23.350  26.291  1.00  0.00     0.010 A 
ATOM     52  C   UNL A   1      41.489  21.257  27.886  1.00  0.00     0.020 A 
ATOM     53  C   UNL A   1      42.384  22.052  25.772  1.00  0.00     0.020 A 
ATOM     54  C   UNL A   1      41.944  21.009  26.589  1.00  0.00     0.054 A 
BRANCH  54  55
ATOM     55  S   UNL A   1      42.021  19.290  26.011  1.00  0.00     0.124 S 
ATOM     56  O   UNL A   1      42.909  19.403  24.857  1.00  0.00    -0.237 OA
ATOM     57  O   UNL A   1      42.577  18.590  27.167  1.00  0.00    -0.237 OA
ATOM     58  O   UNL A   1      40.630  18.969  25.700  1.00  0.00    -0.744 OA
ENDBRANCH  54  55
ENDBRANCH  26  49
BRANCH  38  59
ATOM     59  C   UNL A   1      47.711  26.535  30.624  1.00  0.00    -0.014 A 
ATOM     60  C   UNL A   1      48.066  25.883  31.819  1.00  0.00     0.010 A 
ATOM     61  C   UNL A   1      48.725  26.927  29.732  1.00  0.00     0.010 A 
ATOM     62  C   UNL A   1      49.408  25.688  32.151  1.00  0.00     0.020 A 
ATOM     63  C   UNL A   1      50.069  26.703  30.044  1.00  0.00     0.020 A 
ATOM     64  C   UNL A   1      50.403  26.116  31.267  1.00  0.00     0.054 A 
BRANCH  64  65
ATOM     65  S   UNL A   1      52.140  25.932  31.755  1.00  0.00     0.124 S 
ATOM     66  O   UNL A   1      52.827  25.968  30.467  1.00  0.00    -0.237 OA
ATOM     67  O   UNL A   1      52.353  27.095  32.615  1.00  0.00    -0.237 OA
ATOM     68  O   UNL A   1      52.171  24.644  32.443  1.00  0.00    -0.744 OA
ENDBRANCH  64  65
ENDBRANCH  38  59
ENDBRANCH  12  13
ENDBRANCH   5   7
ENDBRANCH   2   3
ENDBRANCH   1   2
BRANCH   1  69
ATOM     69  C   UNL A   1      33.290  28.723  24.522  1.00  0.00     0.023 C 
BRANCH  69  70
ATOM     70  C   UNL A   1      31.807  28.456  24.769  1.00  0.00     0.116 C 
BRANCH  70  71
ATOM     71  N   UNL A   1      31.271  27.525  23.801  1.00  0.00    -0.356 N 
ATOM     72  C   UNL A   1      31.193  26.171  23.873  1.00  0.00     0.225 C 
ATOM     73  H   UNL A   1      30.915  27.928  22.977  1.00  0.00     0.163 HD
ATOM     74  O   UNL A   1      30.775  25.564  22.890  1.00  0.00    -0.275 OA
BRANCH  72  75
ATOM     75  C   UNL A   1      31.617  25.481  25.151  1.00  0.00     0.107 C 
ATOM     76  C   UNL A   1      30.447  25.040  26.026  1.00  0.00     0.115 C 
ATOM     77  C   UNL A   1      32.294  24.177  24.810  1.00  0.00     0.133 C 
ATOM     78  C   UNL A   1      30.932  23.738  26.639  1.00  0.00     0.223 C 
ATOM     79  N   UNL A   1      32.032  23.308  25.911  1.00  0.00    -0.342 N 
ATOM     80  O   UNL A   1      30.415  23.172  27.581  1.00  0.00    -0.275 OA
BRANCH  79  81
ATOM     81  C   UNL A   1      32.742  22.045  26.083  1.00  0.00     0.124 C 
BRANCH  81  82
ATOM     82  C   UNL A   1      33.535  21.578  24.841  1.00  0.00     0.055 C 
BRANCH  82  83
ATOM     83  C   UNL A   1      34.994  21.198  24.966  1.00  0.00    -0.038 C 
ATOM     84  C   UNL A   1      35.990  22.038  25.256  1.00  0.00     0.001 A 
ATOM     85  C   UNL A   1      35.558  19.815  24.801  1.00  0.00     0.174 C 
ATOM     86  C   UNL A   1      36.094  23.442  25.499  1.00  0.00     0.010 A 
ATOM     87  C   UNL A   1      37.177  21.166  25.310  1.00  0.00     0.065 A 
ATOM     88  N   UNL A   1      37.024  19.922  24.989  1.00  0.00    -0.280 NA
ATOM     89  C   UNL A   1      37.290  23.950  25.840  1.00  0.00     0.001 A 
ATOM     90  C   UNL A   1      38.443  21.786  25.741  1.00  0.00     0.028 A 
ATOM     91  C   UNL A   1      38.462  23.103  25.998  1.00  0.00     0.002 A 
ENDBRANCH  82  83
ENDBRANCH  81  82
ENDBRANCH  79  81
ENDBRANCH  72  75
ENDBRANCH  70  71
ENDBRANCH  69  70
ENDBRANCH   1  69
TORSDOF 17
ENDMDL
MODEL 2
REMARK VINA RESULT:     -10.8      0.673      8.175
REMARK SMILES O=C(NCCCCNC(=O)[C@H]1CC(=O)N(CCC2=c3ccccc3=NC2)C1)c1ccc(-c2c3nc(c(-c4ccc(S(=O)(=O)[O-])cc4)c4ccc([nH]4)c(-c4ccc(S(=O)(=O)[O-])cc4)c4nc(c(-c5ccc(S(=O)(=O)[O-])cc5)c5ccc2[nH]5)C=C4)C=C3)cc1
REMARK SMILES IDX 5 1 4 2 3 3 1 4 2 5 28 7 29 8 87 9 30 10 86 11 31 12 32 13
REMARK SMILES IDX 33 14 80 15 34 16 85 17 79 18 81 19 35 20 84 21 78 22 77 23
REMARK SMILES IDX 36 25 66 26 47 27 65 28 48 29 51 30 64 31 82 32 49 33 50 34
REMARK SMILES IDX 63 36 83 37 52 38 37 39 38 40 46 41 39 42 45 43 40 44 41 45
REMARK SMILES IDX 42 46 43 47 44 48 67 49 68 50 76 51 69 52 75 53 70 54 71 55
REMARK SMILES IDX 72 56 73 57 74 58 53 59 54 60 62 61 55 62 61 63 56 64 57 65
REMARK SMILES IDX 58 66 59 67 60 68 6 69 7 70 8 71 9 72 10 74 11 75 12 76
REMARK SMILES IDX 27 77 13 78 15 79 14 80 16 81 17 82 18 83 19 84 26 85 20 86
REMARK SMILES IDX 24 87 25 88 21 89 23 90 22 91
REMARK H PARENT 3 6 81 24 51 35 8 73
REMARK Flexibility Score: inf
ROOT
ATOM      1  C   UNL A   1      33.992  27.985  25.375  1.00  0.00     0.023 C 
ENDROOT
BRANCH   1   2
ATOM      2  C   UNL A   1      33.842  28.224  26.873  1.00  0.00     0.116 C 
BRANCH   2   3
ATOM      3  N   UNL A   1      33.640  29.629  27.186  1.00  0.00    -0.352 N 
ATOM      4  O   UNL A   1      34.043  31.599  28.189  1.00  0.00    -0.269 OA
ATOM      5  C   UNL A   1      34.461  30.490  27.866  1.00  0.00     0.251 C 
ATOM      6  H   UNL A   1      32.793  30.016  26.866  1.00  0.00     0.163 HD
BRANCH   5   7
ATOM      7  C   UNL A   1      35.836  30.080  28.214  1.00  0.00     0.039 A 
ATOM      8  C   UNL A   1      36.091  29.614  29.505  1.00  0.00     0.014 A 
ATOM      9  C   UNL A   1      36.876  30.194  27.287  1.00  0.00     0.014 A 
ATOM     10  C   UNL A   1      37.388  29.245  29.863  1.00  0.00     0.010 A 
ATOM     11  C   UNL A   1      38.153  29.758  27.622  1.00  0.00     0.010 A 
ATOM     12  C   UNL A   1      38.427  29.307  28.921  1.00  0.00    -0.014 A 
BRANCH  12  13
ATOM     13  C   UNL A   1      39.821  28.962  29.290  1.00  0.00     0.031 A 
ATOM     14  C   UNL A   1      40.386  27.624  28.896  1.00  0.00     0.074 A 
ATOM     15  C   UNL A   1      40.561  29.824  30.013  1.00  0.00     0.049 A 
ATOM     16  N   UNL A   1      41.559  27.115  29.169  1.00  0.00    -0.248 NA
ATOM     17  C   UNL A   1      39.513  26.735  28.112  1.00  0.00     0.031 C 
ATOM     18  C   UNL A   1      40.115  31.145  30.456  1.00  0.00     0.029 A 
ATOM     19  N   UNL A   1      41.840  29.721  30.498  1.00  0.00    -0.354 N 
ATOM     20  C   UNL A   1      41.555  25.842  28.611  1.00  0.00     0.074 A 
ATOM     21  C   UNL A   1      40.249  25.636  28.029  1.00  0.00     0.031 C 
ATOM     22  C   UNL A   1      41.116  31.743  31.118  1.00  0.00     0.029 A 
ATOM     23  C   UNL A   1      42.256  30.831  31.194  1.00  0.00     0.049 A 
ATOM     24  H   UNL A   1      42.408  28.928  30.361  1.00  0.00     0.167 HD
ATOM     25  C   UNL A   1      42.561  24.939  28.566  1.00  0.00     0.031 A 
ATOM     26  C   UNL A   1      43.419  31.090  31.827  1.00  0.00     0.031 A 
ATOM     27  C   UNL A   1      43.867  25.172  29.124  1.00  0.00     0.049 A 
ATOM     28  C   UNL A   1      44.515  30.063  31.795  1.00  0.00     0.074 A 
ATOM     29  C   UNL A   1      44.979  24.351  29.063  1.00  0.00     0.029 A 
ATOM     30  N   UNL A   1      44.238  26.296  29.847  1.00  0.00    -0.354 N 
ATOM     31  N   UNL A   1      44.522  28.893  31.202  1.00  0.00    -0.248 NA
ATOM     32  C   UNL A   1      45.758  30.383  32.509  1.00  0.00     0.031 C 
ATOM     33  C   UNL A   1      45.991  24.936  29.823  1.00  0.00     0.029 A 
ATOM     34  C   UNL A   1      45.545  26.165  30.284  1.00  0.00     0.049 A 
ATOM     35  H   UNL A   1      43.657  27.071  30.023  1.00  0.00     0.167 HD
ATOM     36  C   UNL A   1      45.771  28.339  31.462  1.00  0.00     0.074 A 
ATOM     37  C   UNL A   1      46.501  29.313  32.250  1.00  0.00     0.031 C 
ATOM     38  C   UNL A   1      46.261  27.133  31.082  1.00  0.00     0.031 A 
BRANCH  25  39
ATOM     39  C   UNL A   1      42.304  23.613  27.894  1.00  0.00    -0.014 A 
ATOM     40  C   UNL A   1      41.886  22.512  28.666  1.00  0.00     0.010 A 
ATOM     41  C   UNL A   1      42.565  23.424  26.525  1.00  0.00     0.010 A 
ATOM     42  C   UNL A   1      41.758  21.246  28.089  1.00  0.00     0.020 A 
ATOM     43  C   UNL A   1      42.402  22.166  25.936  1.00  0.00     0.020 A 
ATOM     44  C   UNL A   1      42.021  21.080  26.728  1.00  0.00     0.054 A 
BRANCH  44  45
ATOM     45  S   UNL A   1      41.857  19.428  26.000  1.00  0.00     0.124 S 
ATOM     46  O   UNL A   1      40.423  19.348  25.737  1.00  0.00    -0.237 OA
ATOM     47  O   UNL A   1      42.713  19.512  24.818  1.00  0.00    -0.237 OA
ATOM     48  O   UNL A   1      42.350  18.540  27.051  1.00  0.00    -0.744 OA
ENDBRANCH  44  45
ENDBRANCH  25  39
BRANCH  26  49
ATOM     49  C   UNL A   1      43.587  32.414  32.489  1.00  0.00    -0.014 A 
ATOM     50  C   UNL A   1      43.156  32.608  33.815  1.00  0.00     0.010 A 
ATOM     51  C   UNL A   1      44.024  33.522  31.743  1.00  0.00     0.010 A 
ATOM     52  C   UNL A   1      43.066  33.896  34.351  1.00  0.00     0.020 A 
ATOM     53  C   UNL A   1      43.964  34.810  32.287  1.00  0.00     0.020 A 
ATOM     54  C   UNL A   1      43.444  34.991  33.570  1.00  0.00     0.054 A 
BRANCH  54  55
ATOM     55  S   UNL A   1      43.177  36.660  34.231  1.00  0.00     0.124 S 
ATOM     56  O   UNL A   1      41.816  36.559  34.754  1.00  0.00    -0.237 OA
ATOM     57  O   UNL A   1      44.231  36.777  35.235  1.00  0.00    -0.237 OA
ATOM     58  O   UNL A   1      43.333  37.522  33.062  1.00  0.00    -0.744 OA
ENDBRANCH  54  55
ENDBRANCH  26  49
BRANCH  38  59
ATOM     59  C   UNL A   1      47.651  26.749  31.524  1.00  0.00    -0.014 A 
ATOM     60  C   UNL A   1      48.746  26.974  30.668  1.00  0.00     0.010 A 
ATOM     61  C   UNL A   1      47.844  26.001  32.700  1.00  0.00     0.010 A 
ATOM     62  C   UNL A   1      49.991  26.405  30.944  1.00  0.00     0.020 A 
ATOM     63  C   UNL A   1      49.098  25.459  32.997  1.00  0.00     0.020 A 
ATOM     64  C   UNL A   1      50.154  25.636  32.100  1.00  0.00     0.054 A 
BRANCH  64  65
ATOM     65  S   UNL A   1      51.754  24.834  32.396  1.00  0.00     0.124 S 
ATOM     66  O   UNL A   1      52.027  25.194  33.784  1.00  0.00    -0.237 OA
ATOM     67  O   UNL A   1      51.452  23.425  32.157  1.00  0.00    -0.237 OA
ATOM     68  O   UNL A   1      52.636  25.450  31.407  1.00  0.00    -0.744 OA
ENDBRANCH  64  65
ENDBRANCH  38  59
ENDBRANCH  12  13
ENDBRANCH   5   7
ENDBRANCH   2   3
ENDBRANCH   1   2
BRANCH   1  69
ATOM     69  C   UNL A   1      32.972  28.715  24.494  1.00  0.00     0.023 C 
BRANCH  69  70
ATOM     70  C   UNL A   1      31.519  28.309  24.732  1.00  0.00     0.116 C 
BRANCH  70  71
ATOM     71  N   UNL A   1      31.071  27.354  23.745  1.00  0.00    -0.356 N 
ATOM     72  C   UNL A   1      31.105  25.997  23.794  1.00  0.00     0.225 C 
ATOM     73  H   UNL A   1      30.689  27.739  22.923  1.00  0.00     0.163 HD
ATOM     74  O   UNL A   1      30.747  25.374  22.798  1.00  0.00    -0.275 OA
BRANCH  72  75
ATOM     75  C   UNL A   1      31.574  25.323  25.065  1.00  0.00     0.107 C 
ATOM     76  C   UNL A   1      30.437  24.905  25.993  1.00  0.00     0.115 C 
ATOM     77  C   UNL A   1      32.228  24.009  24.717  1.00  0.00     0.133 C 
ATOM     78  C   UNL A   1      30.937  23.609  26.606  1.00  0.00     0.223 C 
ATOM     79  N   UNL A   1      32.004  23.159  25.842  1.00  0.00    -0.342 N 
ATOM     80  O   UNL A   1      30.454  23.061  27.577  1.00  0.00    -0.275 OA
BRANCH  79  81
ATOM     81  C   UNL A   1      32.712  21.893  26.005  1.00  0.00     0.124 C 
BRANCH  81  82
ATOM     82  C   UNL A   1      33.571  21.474  24.791  1.00  0.00     0.055 C 
BRANCH  82  83
ATOM     83  C   UNL A   1      35.049  21.198  24.961  1.00  0.00    -0.038 C 
ATOM     84  C   UNL A   1      35.972  22.104  25.289  1.00  0.00     0.001 A 
ATOM     85  C   UNL A   1      35.715  19.861  24.805  1.00  0.00     0.174 C 
ATOM     86  C   UNL A   1      35.968  23.510  25.545  1.00  0.00     0.010 A 
ATOM     87  C   UNL A   1      37.216  21.319  25.376  1.00  0.00     0.065 A 
ATOM     88  N   UNL A   1      37.162  20.070  25.042  1.00  0.00    -0.280 NA
ATOM     89  C   UNL A   1      37.113  24.099  25.928  1.00  0.00     0.001 A 
ATOM     90  C   UNL A   1      38.420  22.023  25.853  1.00  0.00     0.028 A 
ATOM     91  C   UNL A   1      38.337  23.335  26.119  1.00  0.00     0.002 A 
ENDBRANCH  82  83
ENDBRANCH  81  82
ENDBRANCH  79  81
ENDBRANCH  72  75
ENDBRANCH  70  71
ENDBRANCH  69  70
ENDBRANCH   1  69
TORSDOF 17
ENDMDL
MODEL 3
REMARK VINA RESULT:     -10.7      2.554      9.241
REMARK SMILES O=C(NCCCCNC(=O)[C@H]1CC(=O)N(CCC2=c3ccccc3=NC2)C1)c1ccc(-c2c3nc(c(-c4ccc(S(=O)(=O)[O-])cc4)c4ccc([nH]4)c(-c4ccc(S(=O)(=O)[O-])cc4)c4nc(c(-c5ccc(S(=O)(=O)[O-])cc5)c5ccc2[nH]5)C=C4)C=C3)cc1
REMARK SMILES IDX 5 1 4 2 3 3 1 4 2 5 28 7 29 8 87 9 30 10 86 11 31 12 32 13
REMARK SMILES IDX 33 14 80 15 34 16 85 17 79 18 81 19 35 20 84 21 78 22 77 23
REMARK SMILES IDX 36 25 66 26 47 27 65 28 48 29 51 30 64 31 82 32 49 33 50 34
REMARK SMILES IDX 63 36 83 37 52 38 37 39 38 40 46 41 39 42 45 43 40 44 41 45
REMARK SMILES IDX 42 46 43 47 44 48 67 49 68 50 76 51 69 52 75 53 70 54 71 55
REMARK SMILES IDX 72 56 73 57 74 58 53 59 54 60 62 61 55 62 61 63 56 64 57 65
REMARK SMILES IDX 58 66 59 67 60 68 6 69 7 70 8 71 9 72 10 74 11 75 12 76
REMARK SMILES IDX 27 77 13 78 15 79 14 80 16 81 17 82 18 83 19 84 26 85 20 86
REMARK SMILES IDX 24 87 25 88 21 89 23 90 22 91
REMARK H PARENT 3 6 81 24 51 35 8 73
REMARK Flexibility Score: inf
ROOT
ATOM      1  C   UNL A   1      35.237  23.308  26.196  1.00  0.00     0.023 C 
ENDROOT
BRANCH   1   2
ATOM      2  C   UNL A   1      36.557  23.714  25.550  1.00  0.00     0.116 C 
BRANCH   2   3
ATOM      3  N   UNL A   1      37.576  22.688  25.692  1.00  0.00    -0.352 N 
ATOM      4  O   UNL A   1      39.638  21.857  26.022  1.00  0.00    -0.269 OA
ATOM      5  C   UNL A   1      38.866  22.806  26.139  1.00  0.00     0.251 C 
ATOM      6  H   UNL A   1      37.301  21.780  25.430  1.00  0.00     0.163 HD
BRANCH   5   7
ATOM      7  C   UNL A   1      39.325  24.071  26.747  1.00  0.00     0.039 A 
ATOM      8  C   UNL A   1      39.000  24.331  28.080  1.00  0.00     0.014 A 
ATOM      9  C   UNL A   1      40.035  25.012  25.997  1.00  0.00     0.014 A 
ATOM     10  C   UNL A   1      39.400  25.532  28.667  1.00  0.00     0.010 A 
ATOM     11  C   UNL A   1      40.496  26.175  26.604  1.00  0.00     0.010 A 
ATOM     12  C   UNL A   1      40.159  26.459  27.935  1.00  0.00    -0.014 A 
BRANCH  12  13
ATOM     13  C   UNL A   1      40.560  27.760  28.525  1.00  0.00     0.031 A 
ATOM     14  C   UNL A   1      41.973  27.957  29.002  1.00  0.00     0.074 A 
ATOM     15  C   UNL A   1      39.651  28.742  28.671  1.00  0.00     0.049 A 
ATOM     16  N   UNL A   1      42.504  28.996  29.592  1.00  0.00    -0.248 NA
ATOM     17  C   UNL A   1      42.906  26.833  28.812  1.00  0.00     0.031 C 
ATOM     18  C   UNL A   1      38.252  28.660  28.252  1.00  0.00     0.029 A 
ATOM     19  N   UNL A   1      39.767  29.999  29.210  1.00  0.00    -0.354 N 
ATOM     20  C   UNL A   1      43.821  28.643  29.861  1.00  0.00     0.074 A 
ATOM     21  C   UNL A   1      43.996  27.279  29.419  1.00  0.00     0.031 C 
ATOM     22  C   UNL A   1      37.649  29.829  28.516  1.00  0.00     0.029 A 
ATOM     23  C   UNL A   1      38.600  30.724  29.172  1.00  0.00     0.049 A 
ATOM     24  H   UNL A   1      40.607  30.349  29.586  1.00  0.00     0.167 HD
ATOM     25  C   UNL A   1      44.801  29.401  30.405  1.00  0.00     0.031 A 
ATOM     26  C   UNL A   1      38.320  31.966  29.617  1.00  0.00     0.031 A 
ATOM     27  C   UNL A   1      44.618  30.769  30.813  1.00  0.00     0.049 A 
ATOM     28  C   UNL A   1      39.412  32.783  30.248  1.00  0.00     0.074 A 
ATOM     29  C   UNL A   1      45.569  31.646  31.303  1.00  0.00     0.029 A 
ATOM     30  N   UNL A   1      43.414  31.456  30.786  1.00  0.00    -0.354 N 
ATOM     31  N   UNL A   1      40.671  32.462  30.431  1.00  0.00    -0.248 NA
ATOM     32  C   UNL A   1      39.057  34.124  30.729  1.00  0.00     0.031 C 
ATOM     33  C   UNL A   1      44.923  32.830  31.656  1.00  0.00     0.029 A 
ATOM     34  C   UNL A   1      43.586  32.729  31.303  1.00  0.00     0.049 A 
ATOM     35  H   UNL A   1      42.563  31.092  30.451  1.00  0.00     0.167 HD
ATOM     36  C   UNL A   1      41.262  33.563  31.040  1.00  0.00     0.074 A 
ATOM     37  C   UNL A   1      40.226  34.568  31.177  1.00  0.00     0.031 C 
ATOM     38  C   UNL A   1      42.546  33.721  31.449  1.00  0.00     0.031 A 
BRANCH  25  39
ATOM     39  C   UNL A   1      46.163  28.780  30.595  1.00  0.00    -0.014 A 
ATOM     40  C   UNL A   1      47.099  28.825  29.545  1.00  0.00     0.010 A 
ATOM     41  C   UNL A   1      46.487  28.071  31.766  1.00  0.00     0.010 A 
ATOM     42  C   UNL A   1      48.321  28.155  29.651  1.00  0.00     0.020 A 
ATOM     43  C   UNL A   1      47.724  27.430  31.891  1.00  0.00     0.020 A 
ATOM     44  C   UNL A   1      48.623  27.458  30.823  1.00  0.00     0.054 A 
BRANCH  44  45
ATOM     45  S   UNL A   1      50.210  26.588  30.939  1.00  0.00     0.124 S 
ATOM     46  O   UNL A   1      51.003  27.255  29.910  1.00  0.00    -0.237 OA
ATOM     47  O   UNL A   1      50.617  26.847  32.318  1.00  0.00    -0.237 OA
ATOM     48  O   UNL A   1      49.860  25.197  30.654  1.00  0.00    -0.744 OA
ENDBRANCH  44  45
ENDBRANCH  25  39
BRANCH  26  49
ATOM     49  C   UNL A   1      36.944  32.499  29.414  1.00  0.00    -0.014 A 
ATOM     50  C   UNL A   1      36.585  33.099  28.192  1.00  0.00     0.010 A 
ATOM     51  C   UNL A   1      36.045  32.555  30.493  1.00  0.00     0.010 A 
ATOM     52  C   UNL A   1      35.398  33.830  28.082  1.00  0.00     0.020 A 
ATOM     53  C   UNL A   1      34.842  33.260  30.377  1.00  0.00     0.020 A 
ATOM     54  C   UNL A   1      34.549  33.928  29.186  1.00  0.00     0.054 A 
BRANCH  54  55
ATOM     55  S   UNL A   1      33.092  35.004  29.066  1.00  0.00     0.124 S 
ATOM     56  O   UNL A   1      32.300  34.320  28.046  1.00  0.00    -0.237 OA
ATOM     57  O   UNL A   1      32.549  34.957  30.421  1.00  0.00    -0.237 OA
ATOM     58  O   UNL A   1      33.649  36.293  28.663  1.00  0.00    -0.744 OA
ENDBRANCH  54  55
ENDBRANCH  26  49
BRANCH  38  59
ATOM     59  C   UNL A   1      42.934  35.014  32.120  1.00  0.00    -0.014 A 
ATOM     60  C   UNL A   1      43.583  36.020  31.379  1.00  0.00     0.010 A 
ATOM     61  C   UNL A   1      42.826  35.155  33.515  1.00  0.00     0.010 A 
ATOM     62  C   UNL A   1      44.172  37.109  32.024  1.00  0.00     0.020 A 
ATOM     63  C   UNL A   1      43.385  36.261  34.161  1.00  0.00     0.020 A 
ATOM     64  C   UNL A   1      44.084  37.213  33.415  1.00  0.00     0.054 A 
BRANCH  64  65
ATOM     65  S   UNL A   1      44.929  38.588  34.243  1.00  0.00     0.124 S 
ATOM     66  O   UNL A   1      45.706  39.172  33.154  1.00  0.00    -0.237 OA
ATOM     67  O   UNL A   1      43.815  39.400  34.728  1.00  0.00    -0.237 OA
ATOM     68  O   UNL A   1      45.713  37.932  35.287  1.00  0.00    -0.744 OA
ENDBRANCH  64  65
ENDBRANCH  38  59
ENDBRANCH  12  13
ENDBRANCH   5   7
ENDBRANCH   2   3
ENDBRANCH   1   2
BRANCH   1  69
ATOM     69  C   UNL A   1      34.832  21.845  25.984  1.00  0.00     0.023 C 
BRANCH  69  70
ATOM     70  C   UNL A   1      33.326  21.601  25.935  1.00  0.00     0.116 C 
BRANCH  70  71
ATOM     71  N   UNL A   1      32.901  21.196  24.614  1.00  0.00    -0.356 N 
ATOM     72  C   UNL A   1      32.580  21.971  23.546  1.00  0.00     0.225 C 
ATOM     73  H   UNL A   1      32.835  20.224  24.469  1.00  0.00     0.163 HD
ATOM     74  O   UNL A   1      32.158  21.414  22.535  1.00  0.00    -0.275 OA
BRANCH  72  75
ATOM     75  C   UNL A   1      32.760  23.469  23.650  1.00  0.00     0.107 C 
ATOM     76  C   UNL A   1      33.813  24.027  22.697  1.00  0.00     0.115 C 
ATOM     77  C   UNL A   1      31.496  24.154  23.195  1.00  0.00     0.133 C 
ATOM     78  C   UNL A   1      33.252  25.381  22.300  1.00  0.00     0.223 C 
ATOM     79  N   UNL A   1      31.911  25.407  22.652  1.00  0.00    -0.342 N 
ATOM     80  O   UNL A   1      33.877  26.263  21.744  1.00  0.00    -0.275 OA
BRANCH  79  81
ATOM     81  C   UNL A   1      30.958  26.471  22.352  1.00  0.00     0.124 C 
BRANCH  81  82
ATOM     82  C   UNL A   1      30.271  27.088  23.592  1.00  0.00     0.055 C 
BRANCH  82  83
ATOM     83  C   UNL A   1      30.936  28.215  24.351  1.00  0.00    -0.038 C 
ATOM     84  C   UNL A   1      31.999  28.090  25.148  1.00  0.00     0.001 A 
ATOM     85  C   UNL A   1      30.521  29.659  24.319  1.00  0.00     0.174 C 
ATOM     86  C   UNL A   1      32.814  27.002  25.587  1.00  0.00     0.010 A 
ATOM     87  C   UNL A   1      32.272  29.469  25.586  1.00  0.00     0.065 A 
ATOM     88  N   UNL A   1      31.438  30.390  25.224  1.00  0.00    -0.280 NA
ATOM     89  C   UNL A   1      33.879  27.266  26.363  1.00  0.00     0.001 A 
ATOM     90  C   UNL A   1      33.486  29.689  26.393  1.00  0.00     0.028 A 
ATOM     91  C   UNL A   1      34.234  28.627  26.733  1.00  0.00     0.002 A 
ENDBRANCH  82  83
ENDBRANCH  81  82
ENDBRANCH  79  81
ENDBRANCH  72  75
ENDBRANCH  70  71
ENDBRANCH  69  70
ENDBRANCH   1  69
TORSDOF 17
ENDMDL
