MODEL 1
REMARK VINA RESULT:     -11.5      0.000      0.000
REMARK SMILES O=C(NCCCCNC(=O)c1cc(-n2ccnc2)ccn1)c1ccc(-c2c3nc(c(-c4ccc(S(=O)(=O)[O-])cc4)c4ccc([nH]4)c(-c4ccc(S(=O)(=O)[O-])cc4)c4nc(c(-c5ccc(S(=O)(=O)[O-])cc5)c5ccc2[nH]5)C=C4)C=C3)cc1
REMARK SMILES IDX 4 1 3 2 1 3 2 4 22 6 23 7 81 8 24 9 80 10 25 11 26 12 27 13
REMARK SMILES IDX 74 14 28 15 79 16 73 17 75 18 29 19 78 20 72 21 71 22 30 24
REMARK SMILES IDX 60 25 41 26 59 27 42 28 45 29 58 30 76 31 43 32 44 33 57 35
REMARK SMILES IDX 77 36 46 37 31 38 32 39 40 40 33 41 39 42 34 43 35 44 36 45
REMARK SMILES IDX 37 46 38 47 61 48 62 49 70 50 63 51 69 52 64 53 65 54 66 55
REMARK SMILES IDX 67 56 68 57 47 58 48 59 56 60 49 61 55 62 50 63 51 64 52 65
REMARK SMILES IDX 53 66 54 67 5 68 6 69 7 70 8 71 9 72 10 74 11 75 12 76 21 77
REMARK SMILES IDX 13 78 20 79 19 80 14 81 15 82 18 83 16 84 17 85
REMARK H PARENT 3 5 75 23 45 34 8 73
REMARK Flexibility Score: inf
ROOT
ATOM      1  C   UNL A   1      41.840  20.786  26.291  1.00  0.00     0.116 C 
ENDROOT
BRANCH   1   2
ATOM      2  N   UNL A   1      40.423  21.057  26.154  1.00  0.00    -0.352 N 
ATOM      3  O   UNL A   1      38.465  22.025  25.915  1.00  0.00    -0.269 OA
ATOM      4  C   UNL A   1      39.622  22.152  26.329  1.00  0.00     0.251 C 
ATOM      5  H   UNL A   1      39.917  20.265  25.864  1.00  0.00     0.163 HD
BRANCH   4   6
ATOM      6  C   UNL A   1      40.005  23.429  27.000  1.00  0.00     0.039 A 
ATOM      7  C   UNL A   1      41.169  23.662  27.732  1.00  0.00     0.014 A 
ATOM      8  C   UNL A   1      39.064  24.474  26.898  1.00  0.00     0.014 A 
ATOM      9  C   UNL A   1      41.360  24.882  28.389  1.00  0.00     0.010 A 
ATOM     10  C   UNL A   1      39.251  25.692  27.548  1.00  0.00     0.010 A 
ATOM     11  C   UNL A   1      40.390  25.888  28.322  1.00  0.00    -0.014 A 
BRANCH  11  12
ATOM     12  C   UNL A   1      40.651  27.168  28.985  1.00  0.00     0.031 A 
ATOM     13  C   UNL A   1      41.746  27.992  28.391  1.00  0.00     0.074 A 
ATOM     14  C   UNL A   1      39.883  27.691  29.965  1.00  0.00     0.049 A 
ATOM     15  N   UNL A   1      42.858  28.364  28.937  1.00  0.00    -0.248 NA
ATOM     16  C   UNL A   1      41.611  28.391  26.981  1.00  0.00     0.031 C 
ATOM     17  C   UNL A   1      38.595  27.203  30.465  1.00  0.00     0.029 A 
ATOM     18  N   UNL A   1      40.059  28.856  30.656  1.00  0.00    -0.354 N 
ATOM     19  C   UNL A   1      43.499  29.183  28.006  1.00  0.00     0.074 A 
ATOM     20  C   UNL A   1      42.742  29.072  26.784  1.00  0.00     0.031 C 
ATOM     21  C   UNL A   1      38.006  28.174  31.201  1.00  0.00     0.029 A 
ATOM     22  C   UNL A   1      38.931  29.284  31.349  1.00  0.00     0.049 A 
ATOM     23  H   UNL A   1      40.909  29.349  30.664  1.00  0.00     0.167 HD
ATOM     24  C   UNL A   1      44.512  30.030  28.347  1.00  0.00     0.031 A 
ATOM     25  C   UNL A   1      38.753  30.487  31.952  1.00  0.00     0.031 A 
ATOM     26  C   UNL A   1      45.046  29.742  29.648  1.00  0.00     0.049 A 
ATOM     27  C   UNL A   1      40.094  31.069  32.193  1.00  0.00     0.074 A 
ATOM     28  C   UNL A   1      45.688  28.666  30.226  1.00  0.00     0.029 A 
ATOM     29  N   UNL A   1      44.640  30.544  30.687  1.00  0.00    -0.354 N 
ATOM     30  N   UNL A   1      40.963  30.565  33.024  1.00  0.00    -0.248 NA
ATOM     31  C   UNL A   1      40.636  31.987  31.203  1.00  0.00     0.031 C 
ATOM     32  C   UNL A   1      45.205  28.631  31.566  1.00  0.00     0.029 A 
ATOM     33  C   UNL A   1      44.340  29.715  31.736  1.00  0.00     0.049 A 
ATOM     34  H   UNL A   1      44.577  31.527  30.680  1.00  0.00     0.167 HD
ATOM     35  C   UNL A   1      42.193  30.765  32.416  1.00  0.00     0.074 A 
ATOM     36  C   UNL A   1      41.937  31.729  31.349  1.00  0.00     0.031 C 
ATOM     37  C   UNL A   1      43.248  29.934  32.661  1.00  0.00     0.031 A 
BRANCH  24  38
ATOM     38  C   UNL A   1      44.803  31.339  27.653  1.00  0.00    -0.014 A 
ATOM     39  C   UNL A   1      46.120  31.605  27.220  1.00  0.00     0.010 A 
ATOM     40  C   UNL A   1      43.904  32.424  27.670  1.00  0.00     0.010 A 
ATOM     41  C   UNL A   1      46.535  32.905  26.900  1.00  0.00     0.020 A 
ATOM     42  C   UNL A   1      44.297  33.717  27.311  1.00  0.00     0.020 A 
ATOM     43  C   UNL A   1      45.621  33.956  26.966  1.00  0.00     0.054 A 
BRANCH  43  44
ATOM     44  S   UNL A   1      46.198  35.648  26.681  1.00  0.00     0.124 S 
ATOM     45  O   UNL A   1      44.965  36.416  26.829  1.00  0.00    -0.237 OA
ATOM     46  O   UNL A   1      47.185  35.823  27.742  1.00  0.00    -0.237 OA
ATOM     47  O   UNL A   1      46.747  35.598  25.327  1.00  0.00    -0.744 OA
ENDBRANCH  43  44
ENDBRANCH  24  38
BRANCH  25  48
ATOM     48  C   UNL A   1      37.509  31.295  32.028  1.00  0.00    -0.014 A 
ATOM     49  C   UNL A   1      37.042  31.808  33.256  1.00  0.00     0.010 A 
ATOM     50  C   UNL A   1      36.935  31.808  30.847  1.00  0.00     0.010 A 
ATOM     51  C   UNL A   1      36.080  32.834  33.293  1.00  0.00     0.020 A 
ATOM     52  C   UNL A   1      35.973  32.824  30.877  1.00  0.00     0.020 A 
ATOM     53  C   UNL A   1      35.566  33.350  32.100  1.00  0.00     0.054 A 
BRANCH  53  54
ATOM     54  S   UNL A   1      34.461  34.794  32.148  1.00  0.00     0.124 S 
ATOM     55  O   UNL A   1      33.288  34.265  32.837  1.00  0.00    -0.237 OA
ATOM     56  O   UNL A   1      35.246  35.772  32.896  1.00  0.00    -0.237 OA
ATOM     57  O   UNL A   1      34.257  35.117  30.737  1.00  0.00    -0.744 OA
ENDBRANCH  53  54
ENDBRANCH  25  48
BRANCH  37  58
ATOM     58  C   UNL A   1      43.169  28.973  33.822  1.00  0.00    -0.014 A 
ATOM     59  C   UNL A   1      43.448  29.338  35.154  1.00  0.00     0.010 A 
ATOM     60  C   UNL A   1      42.595  27.713  33.577  1.00  0.00     0.010 A 
ATOM     61  C   UNL A   1      43.157  28.462  36.210  1.00  0.00     0.020 A 
ATOM     62  C   UNL A   1      42.287  26.844  34.625  1.00  0.00     0.020 A 
ATOM     63  C   UNL A   1      42.570  27.221  35.938  1.00  0.00     0.054 A 
BRANCH  63  64
ATOM     64  S   UNL A   1      42.098  26.136  37.314  1.00  0.00     0.124 S 
ATOM     65  O   UNL A   1      40.751  26.597  37.635  1.00  0.00    -0.237 OA
ATOM     66  O   UNL A   1      42.182  24.803  36.720  1.00  0.00    -0.237 OA
ATOM     67  O   UNL A   1      43.107  26.411  38.337  1.00  0.00    -0.744 OA
ENDBRANCH  63  64
ENDBRANCH  37  58
ENDBRANCH  11  12
ENDBRANCH   4   6
ENDBRANCH   1   2
BRANCH   1  68
ATOM     68  C   UNL A   1      42.172  19.581  27.170  1.00  0.00     0.023 C 
BRANCH  68  69
ATOM     69  C   UNL A   1      43.137  18.554  26.563  1.00  0.00     0.023 C 
BRANCH  69  70
ATOM     70  C   UNL A   1      43.583  18.802  25.124  1.00  0.00     0.116 C 
BRANCH  70  71
ATOM     71  N   UNL A   1      45.026  18.810  24.947  1.00  0.00    -0.351 N 
ATOM     72  C   UNL A   1      45.902  19.883  24.877  1.00  0.00     0.269 C 
ATOM     73  H   UNL A   1      45.444  17.923  24.862  1.00  0.00     0.163 HD
ATOM     74  O   UNL A   1      47.096  19.689  24.741  1.00  0.00    -0.268 OA
BRANCH  72  75
ATOM     75  C   UNL A   1      45.368  21.274  24.986  1.00  0.00     0.130 A 
ATOM     76  C   UNL A   1      45.556  22.000  26.155  1.00  0.00     0.060 A 
ATOM     77  N   UNL A   1      44.642  21.716  23.929  1.00  0.00    -0.251 NA
ATOM     78  C   UNL A   1      44.838  23.189  26.291  1.00  0.00     0.050 A 
ATOM     79  C   UNL A   1      44.020  22.903  24.069  1.00  0.00     0.114 A 
ATOM     80  C   UNL A   1      44.053  23.653  25.233  1.00  0.00     0.047 A 
BRANCH  78  81
ATOM     81  N   UNL A   1      44.858  23.886  27.521  1.00  0.00    -0.306 N 
ATOM     82  C   UNL A   1      45.066  25.232  27.712  1.00  0.00     0.113 A 
ATOM     83  C   UNL A   1      44.721  23.340  28.777  1.00  0.00     0.204 A 
ATOM     84  C   UNL A   1      45.008  25.428  29.072  1.00  0.00     0.131 A 
ATOM     85  N   UNL A   1      44.800  24.246  29.727  1.00  0.00    -0.245 NA
ENDBRANCH  78  81
ENDBRANCH  72  75
ENDBRANCH  70  71
ENDBRANCH  69  70
ENDBRANCH  68  69
ENDBRANCH   1  68
TORSDOF 15
ENDMDL
MODEL 2
REMARK VINA RESULT:     -11.1      3.514      6.107
REMARK SMILES O=C(NCCCCNC(=O)c1cc(-n2ccnc2)ccn1)c1ccc(-c2c3nc(c(-c4ccc(S(=O)(=O)[O-])cc4)c4ccc([nH]4)c(-c4ccc(S(=O)(=O)[O-])cc4)c4nc(c(-c5ccc(S(=O)(=O)[O-])cc5)c5ccc2[nH]5)C=C4)C=C3)cc1
REMARK SMILES IDX 4 1 3 2 1 3 2 4 22 6 23 7 81 8 24 9 80 10 25 11 26 12 27 13
REMARK SMILES IDX 74 14 28 15 79 16 73 17 75 18 29 19 78 20 72 21 71 22 30 24
REMARK SMILES IDX 60 25 41 26 59 27 42 28 45 29 58 30 76 31 43 32 44 33 57 35
REMARK SMILES IDX 77 36 46 37 31 38 32 39 40 40 33 41 39 42 34 43 35 44 36 45
REMARK SMILES IDX 37 46 38 47 61 48 62 49 70 50 63 51 69 52 64 53 65 54 66 55
REMARK SMILES IDX 67 56 68 57 47 58 48 59 56 60 49 61 55 62 50 63 51 64 52 65
REMARK SMILES IDX 53 66 54 67 5 68 6 69 7 70 8 71 9 72 10 74 11 75 12 76 21 77
REMARK SMILES IDX 13 78 20 79 19 80 14 81 15 82 18 83 16 84 17 85
REMARK H PARENT 3 5 75 23 45 34 8 73
REMARK Flexibility Score: inf
ROOT
ATOM      1  C   UNL A   1      37.306  22.314  24.870  1.00  0.00     0.116 C 
ENDROOT
BRANCH   1   2
ATOM      2  N   UNL A   1      38.515  21.685  25.362  1.00  0.00    -0.352 N 
ATOM      3  O   UNL A   1      40.253  21.088  26.566  1.00  0.00    -0.269 OA
ATOM      4  C   UNL A   1      39.460  21.997  26.299  1.00  0.00     0.251 C 
ATOM      5  H   UNL A   1      38.699  20.827  24.915  1.00  0.00     0.163 HD
BRANCH   4   6
ATOM      6  C   UNL A   1      39.636  23.318  26.971  1.00  0.00     0.039 A 
ATOM      7  C   UNL A   1      38.775  24.412  26.883  1.00  0.00     0.014 A 
ATOM      8  C   UNL A   1      40.815  23.460  27.732  1.00  0.00     0.014 A 
ATOM      9  C   UNL A   1      39.109  25.627  27.491  1.00  0.00     0.010 A 
ATOM     10  C   UNL A   1      41.149  24.667  28.342  1.00  0.00     0.010 A 
ATOM     11  C   UNL A   1      40.309  25.766  28.197  1.00  0.00    -0.014 A 
BRANCH  11  12
ATOM     12  C   UNL A   1      40.598  27.041  28.858  1.00  0.00     0.031 A 
ATOM     13  C   UNL A   1      41.709  27.841  28.263  1.00  0.00     0.074 A 
ATOM     14  C   UNL A   1      39.841  27.580  29.838  1.00  0.00     0.049 A 
ATOM     15  N   UNL A   1      42.829  28.190  28.808  1.00  0.00    -0.248 NA
ATOM     16  C   UNL A   1      41.582  28.241  26.853  1.00  0.00     0.031 C 
ATOM     17  C   UNL A   1      38.543  27.120  30.339  1.00  0.00     0.029 A 
ATOM     18  N   UNL A   1      40.041  28.742  30.528  1.00  0.00    -0.354 N 
ATOM     19  C   UNL A   1      43.486  28.994  27.876  1.00  0.00     0.074 A 
ATOM     20  C   UNL A   1      42.727  28.898  26.654  1.00  0.00     0.031 C 
ATOM     21  C   UNL A   1      37.975  28.103  31.074  1.00  0.00     0.029 A 
ATOM     22  C   UNL A   1      38.923  29.194  31.220  1.00  0.00     0.049 A 
ATOM     23  H   UNL A   1      40.902  29.217  30.535  1.00  0.00     0.167 HD
ATOM     24  C   UNL A   1      44.517  29.820  28.216  1.00  0.00     0.031 A 
ATOM     25  C   UNL A   1      38.770  30.401  31.822  1.00  0.00     0.031 A 
ATOM     26  C   UNL A   1      45.046  29.523  29.517  1.00  0.00     0.049 A 
ATOM     27  C   UNL A   1      40.124  30.955  32.062  1.00  0.00     0.074 A 
ATOM     28  C   UNL A   1      45.665  28.434  30.095  1.00  0.00     0.029 A 
ATOM     29  N   UNL A   1      44.657  30.334  30.556  1.00  0.00    -0.354 N 
ATOM     30  N   UNL A   1      40.982  30.434  32.893  1.00  0.00    -0.248 NA
ATOM     31  C   UNL A   1      40.684  31.861  31.071  1.00  0.00     0.031 C 
ATOM     32  C   UNL A   1      45.183  28.410  31.435  1.00  0.00     0.029 A 
ATOM     33  C   UNL A   1      44.340  29.512  31.605  1.00  0.00     0.049 A 
ATOM     34  H   UNL A   1      44.614  31.318  30.547  1.00  0.00     0.167 HD
ATOM     35  C   UNL A   1      42.216  30.607  32.285  1.00  0.00     0.074 A 
ATOM     36  C   UNL A   1      41.980  31.576  31.217  1.00  0.00     0.031 C 
ATOM     37  C   UNL A   1      43.253  29.755  32.530  1.00  0.00     0.031 A 
BRANCH  24  38
ATOM     38  C   UNL A   1      44.835  31.123  27.520  1.00  0.00    -0.014 A 
ATOM     39  C   UNL A   1      46.057  31.245  26.823  1.00  0.00     0.010 A 
ATOM     40  C   UNL A   1      44.118  32.311  27.767  1.00  0.00     0.010 A 
ATOM     41  C   UNL A   1      46.571  32.498  26.466  1.00  0.00     0.020 A 
ATOM     42  C   UNL A   1      44.603  33.562  27.376  1.00  0.00     0.020 A 
ATOM     43  C   UNL A   1      45.846  33.651  26.763  1.00  0.00     0.054 A 
BRANCH  43  44
ATOM     44  S   UNL A   1      46.579  35.271  26.418  1.00  0.00     0.124 S 
ATOM     45  O   UNL A   1      47.477  35.443  27.556  1.00  0.00    -0.237 OA
ATOM     46  O   UNL A   1      47.225  35.051  25.128  1.00  0.00    -0.237 OA
ATOM     47  O   UNL A   1      45.425  36.168  26.388  1.00  0.00    -0.744 OA
ENDBRANCH  43  44
ENDBRANCH  24  38
BRANCH  25  48
ATOM     48  C   UNL A   1      37.543  31.235  31.899  1.00  0.00    -0.014 A 
ATOM     49  C   UNL A   1      37.044  31.693  33.135  1.00  0.00     0.010 A 
ATOM     50  C   UNL A   1      37.025  31.824  30.727  1.00  0.00     0.010 A 
ATOM     51  C   UNL A   1      36.105  32.740  33.194  1.00  0.00     0.020 A 
ATOM     52  C   UNL A   1      36.087  32.861  30.778  1.00  0.00     0.020 A 
ATOM     53  C   UNL A   1      35.648  33.331  32.013  1.00  0.00     0.054 A 
BRANCH  53  54
ATOM     54  S   UNL A   1      34.575  34.798  32.100  1.00  0.00     0.124 S 
ATOM     55  O   UNL A   1      33.403  34.285  32.803  1.00  0.00    -0.237 OA
ATOM     56  O   UNL A   1      35.394  35.748  32.846  1.00  0.00    -0.237 OA
ATOM     57  O   UNL A   1      34.354  35.145  30.697  1.00  0.00    -0.744 OA
ENDBRANCH  53  54
ENDBRANCH  25  48
BRANCH  37  58
ATOM     58  C   UNL A   1      43.154  28.797  33.692  1.00  0.00    -0.014 A 
ATOM     59  C   UNL A   1      43.612  29.099  34.990  1.00  0.00     0.010 A 
ATOM     60  C   UNL A   1      42.388  27.633  33.504  1.00  0.00     0.010 A 
ATOM     61  C   UNL A   1      43.306  28.256  36.069  1.00  0.00     0.020 A 
ATOM     62  C   UNL A   1      42.066  26.800  34.577  1.00  0.00     0.020 A 
ATOM     63  C   UNL A   1      42.526  27.114  35.855  1.00  0.00     0.054 A 
BRANCH  63  64
ATOM     64  S   UNL A   1      42.045  26.084  37.269  1.00  0.00     0.124 S 
ATOM     65  O   UNL A   1      43.090  26.376  38.246  1.00  0.00    -0.237 OA
ATOM     66  O   UNL A   1      40.714  26.589  37.602  1.00  0.00    -0.237 OA
ATOM     67  O   UNL A   1      42.062  24.724  36.732  1.00  0.00    -0.744 OA
ENDBRANCH  63  64
ENDBRANCH  37  58
ENDBRANCH  11  12
ENDBRANCH   4   6
ENDBRANCH   1   2
BRANCH   1  68
ATOM     68  C   UNL A   1      36.019  21.810  25.524  1.00  0.00     0.023 C 
BRANCH  68  69
ATOM     69  C   UNL A   1      35.338  22.778  26.499  1.00  0.00     0.023 C 
BRANCH  69  70
ATOM     70  C   UNL A   1      34.425  23.837  25.886  1.00  0.00     0.116 C 
BRANCH  70  71
ATOM     71  N   UNL A   1      33.109  23.910  26.501  1.00  0.00    -0.351 N 
ATOM     72  C   UNL A   1      31.950  23.214  26.194  1.00  0.00     0.269 C 
ATOM     73  H   UNL A   1      33.029  24.549  27.246  1.00  0.00     0.163 HD
ATOM     74  O   UNL A   1      30.936  23.400  26.842  1.00  0.00    -0.268 OA
BRANCH  72  75
ATOM     75  C   UNL A   1      31.964  22.225  25.075  1.00  0.00     0.130 A 
ATOM     76  C   UNL A   1      32.118  20.872  25.345  1.00  0.00     0.060 A 
ATOM     77  N   UNL A   1      31.903  22.745  23.823  1.00  0.00    -0.251 NA
ATOM     78  C   UNL A   1      32.362  20.027  24.261  1.00  0.00     0.050 A 
ATOM     79  C   UNL A   1      32.070  21.887  22.797  1.00  0.00     0.114 A 
ATOM     80  C   UNL A   1      32.341  20.539  22.961  1.00  0.00     0.047 A 
BRANCH  78  81
ATOM     81  N   UNL A   1      32.692  18.671  24.486  1.00  0.00    -0.306 N 
ATOM     82  C   UNL A   1      33.030  17.729  23.543  1.00  0.00     0.113 A 
ATOM     83  C   UNL A   1      32.690  18.014  25.696  1.00  0.00     0.204 A 
ATOM     84  C   UNL A   1      33.248  16.564  24.241  1.00  0.00     0.131 A 
ATOM     85  N   UNL A   1      33.027  16.749  25.578  1.00  0.00    -0.245 NA
ENDBRANCH  78  81
ENDBRANCH  72  75
ENDBRANCH  70  71
ENDBRANCH  69  70
ENDBRANCH  68  69
ENDBRANCH   1  68
TORSDOF 15
ENDMDL
MODEL 3
REMARK VINA RESULT:     -11.1      3.104      5.489
REMARK SMILES O=C(NCCCCNC(=O)c1cc(-n2ccnc2)ccn1)c1ccc(-c2c3nc(c(-c4ccc(S(=O)(=O)[O-])cc4)c4ccc([nH]4)c(-c4ccc(S(=O)(=O)[O-])cc4)c4nc(c(-c5ccc(S(=O)(=O)[O-])cc5)c5ccc2[nH]5)C=C4)C=C3)cc1
REMARK SMILES IDX 4 1 3 2 1 3 2 4 22 6 23 7 81 8 24 9 80 10 25 11 26 12 27 13
REMARK SMILES IDX 74 14 28 15 79 16 73 17 75 18 29 19 78 20 72 21 71 22 30 24
REMARK SMILES IDX 60 25 41 26 59 27 42 28 45 29 58 30 76 31 43 32 44 33 57 35
REMARK SMILES IDX 77 36 46 37 31 38 32 39 40 40 33 41 39 42 34 43 35 44 36 45
REMARK SMILES IDX 37 46 38 47 61 48 62 49 70 50 63 51 69 52 64 53 65 54 66 55
REMARK SMILES IDX 67 56 68 57 47 58 48 59 56 60 49 61 55 62 50 63 51 64 52 65
REMARK SMILES IDX 53 66 54 67 5 68 6 69 7 70 8 71 9 72 10 74 11 75 12 76 21 77
REMARK SMILES IDX 13 78 20 79 19 80 14 81 15 82 18 83 16 84 17 85
REMARK H PARENT 3 5 75 23 45 34 8 73
REMARK Flexibility Score: inf
ROOT
ATOM      1  C   UNL A   1      41.245  21.317  26.588  1.00  0.00     0.116 C 
ENDROOT
BRANCH   1   2
ATOM      2  N   UNL A   1      42.014  21.877  25.497  1.00  0.00    -0.352 N 
ATOM      3  O   UNL A   1      43.380  23.081  24.266  1.00  0.00    -0.269 OA
ATOM      4  C   UNL A   1      42.660  23.062  25.270  1.00  0.00     0.251 C 
ATOM      5  H   UNL A   1      42.093  21.256  24.737  1.00  0.00     0.163 HD
BRANCH   4   6
ATOM      6  C   UNL A   1      42.532  24.307  26.082  1.00  0.00     0.039 A 
ATOM      7  C   UNL A   1      43.055  24.519  27.358  1.00  0.00     0.014 A 
ATOM      8  C   UNL A   1      41.774  25.341  25.494  1.00  0.00     0.014 A 
ATOM      9  C   UNL A   1      42.781  25.706  28.046  1.00  0.00     0.010 A 
ATOM     10  C   UNL A   1      41.501  26.524  26.175  1.00  0.00     0.010 A 
ATOM     11  C   UNL A   1      41.980  26.698  27.469  1.00  0.00    -0.014 A 
BRANCH  11  12
ATOM     12  C   UNL A   1      41.758  27.945  28.205  1.00  0.00     0.031 A 
ATOM     13  C   UNL A   1      42.841  28.966  28.089  1.00  0.00     0.074 A 
ATOM     14  C   UNL A   1      40.604  28.268  28.828  1.00  0.00     0.049 A 
ATOM     15  N   UNL A   1      43.590  29.452  29.024  1.00  0.00    -0.248 NA
ATOM     16  C   UNL A   1      43.178  29.453  26.742  1.00  0.00     0.031 C 
ATOM     17  C   UNL A   1      39.323  27.557  28.789  1.00  0.00     0.029 A 
ATOM     18  N   UNL A   1      40.312  29.387  29.555  1.00  0.00    -0.354 N 
ATOM     19  C   UNL A   1      44.386  30.429  28.424  1.00  0.00     0.074 A 
ATOM     20  C   UNL A   1      44.170  30.307  27.004  1.00  0.00     0.031 C 
ATOM     21  C   UNL A   1      38.349  28.368  29.263  1.00  0.00     0.029 A 
ATOM     22  C   UNL A   1      38.953  29.587  29.773  1.00  0.00     0.049 A 
ATOM     23  H   UNL A   1      41.003  29.997  29.896  1.00  0.00     0.167 HD
ATOM     24  C   UNL A   1      45.042  31.386  29.141  1.00  0.00     0.031 A 
ATOM     25  C   UNL A   1      38.364  30.698  30.285  1.00  0.00     0.031 A 
ATOM     26  C   UNL A   1      45.092  31.076  30.542  1.00  0.00     0.049 A 
ATOM     27  C   UNL A   1      39.402  31.449  31.030  1.00  0.00     0.074 A 
ATOM     28  C   UNL A   1      45.641  30.063  31.300  1.00  0.00     0.029 A 
ATOM     29  N   UNL A   1      44.200  31.722  31.363  1.00  0.00    -0.354 N 
ATOM     30  N   UNL A   1      39.968  31.013  32.120  1.00  0.00    -0.248 NA
ATOM     31  C   UNL A   1      40.112  32.514  30.339  1.00  0.00     0.031 C 
ATOM     32  C   UNL A   1      44.707  29.849  32.354  1.00  0.00     0.029 A 
ATOM     33  C   UNL A   1      43.673  30.777  32.202  1.00  0.00     0.049 A 
ATOM     34  H   UNL A   1      43.981  32.683  31.350  1.00  0.00     0.167 HD
ATOM     35  C   UNL A   1      41.284  31.441  32.031  1.00  0.00     0.074 A 
ATOM     36  C   UNL A   1      41.288  32.440  30.966  1.00  0.00     0.031 C 
ATOM     37  C   UNL A   1      42.295  30.757  32.644  1.00  0.00     0.031 A 
BRANCH  24  38
ATOM     38  C   UNL A   1      45.349  32.776  28.635  1.00  0.00    -0.014 A 
ATOM     39  C   UNL A   1      46.661  33.277  28.768  1.00  0.00     0.010 A 
ATOM     40  C   UNL A   1      44.340  33.702  28.302  1.00  0.00     0.010 A 
ATOM     41  C   UNL A   1      46.934  34.647  28.654  1.00  0.00     0.020 A 
ATOM     42  C   UNL A   1      44.610  35.065  28.144  1.00  0.00     0.020 A 
ATOM     43  C   UNL A   1      45.899  35.534  28.360  1.00  0.00     0.054 A 
BRANCH  43  44
ATOM     44  S   UNL A   1      46.237  37.313  28.347  1.00  0.00     0.124 S 
ATOM     45  O   UNL A   1      47.430  37.399  29.185  1.00  0.00    -0.237 OA
ATOM     46  O   UNL A   1      46.438  37.581  26.927  1.00  0.00    -0.237 OA
ATOM     47  O   UNL A   1      45.024  37.894  28.920  1.00  0.00    -0.744 OA
ENDBRANCH  43  44
ENDBRANCH  24  38
BRANCH  25  48
ATOM     48  C   UNL A   1      37.066  31.305  29.896  1.00  0.00    -0.014 A 
ATOM     49  C   UNL A   1      36.112  31.678  30.864  1.00  0.00     0.010 A 
ATOM     50  C   UNL A   1      36.884  31.786  28.583  1.00  0.00     0.010 A 
ATOM     51  C   UNL A   1      35.051  32.545  30.541  1.00  0.00     0.020 A 
ATOM     52  C   UNL A   1      35.829  32.644  28.253  1.00  0.00     0.020 A 
ATOM     53  C   UNL A   1      34.930  33.039  29.239  1.00  0.00     0.054 A 
BRANCH  53  54
ATOM     54  S   UNL A   1      33.667  34.296  28.870  1.00  0.00     0.124 S 
ATOM     55  O   UNL A   1      34.451  35.344  28.224  1.00  0.00    -0.237 OA
ATOM     56  O   UNL A   1      32.742  33.573  28.003  1.00  0.00    -0.237 OA
ATOM     57  O   UNL A   1      33.134  34.642  30.186  1.00  0.00    -0.744 OA
ENDBRANCH  53  54
ENDBRANCH  25  48
BRANCH  37  58
ATOM     58  C   UNL A   1      41.949  29.704  33.669  1.00  0.00    -0.014 A 
ATOM     59  C   UNL A   1      41.635  28.372  33.339  1.00  0.00     0.010 A 
ATOM     60  C   UNL A   1      42.148  30.033  35.022  1.00  0.00     0.010 A 
ATOM     61  C   UNL A   1      41.527  27.395  34.341  1.00  0.00     0.020 A 
ATOM     62  C   UNL A   1      42.058  29.063  36.021  1.00  0.00     0.020 A 
ATOM     63  C   UNL A   1      41.748  27.747  35.677  1.00  0.00     0.054 A 
BRANCH  63  64
ATOM     64  S   UNL A   1      41.711  26.461  36.957  1.00  0.00     0.124 S 
ATOM     65  O   UNL A   1      40.453  26.734  37.646  1.00  0.00    -0.237 OA
ATOM     66  O   UNL A   1      41.747  25.225  36.179  1.00  0.00    -0.237 OA
ATOM     67  O   UNL A   1      42.916  26.719  37.745  1.00  0.00    -0.744 OA
ENDBRANCH  63  64
ENDBRANCH  37  58
ENDBRANCH  11  12
ENDBRANCH   4   6
ENDBRANCH   1   2
BRANCH   1  68
ATOM     68  C   UNL A   1      39.946  22.062  26.895  1.00  0.00     0.023 C 
BRANCH  68  69
ATOM     69  C   UNL A   1      38.805  21.862  25.888  1.00  0.00     0.023 C 
BRANCH  69  70
ATOM     70  C   UNL A   1      37.831  23.025  25.720  1.00  0.00     0.116 C 
BRANCH  70  71
ATOM     71  N   UNL A   1      37.389  23.232  24.350  1.00  0.00    -0.351 N 
ATOM     72  C   UNL A   1      36.186  22.895  23.748  1.00  0.00     0.269 C 
ATOM     73  H   UNL A   1      38.042  23.676  23.761  1.00  0.00     0.163 HD
ATOM     74  O   UNL A   1      35.991  23.168  22.577  1.00  0.00    -0.268 OA
BRANCH  72  75
ATOM     75  C   UNL A   1      35.131  22.209  24.553  1.00  0.00     0.130 A 
ATOM     76  C   UNL A   1      35.047  20.823  24.551  1.00  0.00     0.060 A 
ATOM     77  N   UNL A   1      34.249  23.020  25.189  1.00  0.00    -0.251 NA
ATOM     78  C   UNL A   1      33.909  20.252  25.120  1.00  0.00     0.050 A 
ATOM     79  C   UNL A   1      33.199  22.428  25.790  1.00  0.00     0.114 A 
ATOM     80  C   UNL A   1      32.963  21.064  25.751  1.00  0.00     0.047 A 
BRANCH  78  81
ATOM     81  N   UNL A   1      33.685  18.861  25.001  1.00  0.00    -0.306 N 
ATOM     82  C   UNL A   1      34.493  17.938  24.380  1.00  0.00     0.113 A 
ATOM     83  C   UNL A   1      32.582  18.165  25.443  1.00  0.00     0.204 A 
ATOM     84  C   UNL A   1      33.849  16.729  24.513  1.00  0.00     0.131 A 
ATOM     85  N   UNL A   1      32.659  16.881  25.169  1.00  0.00    -0.245 NA
ENDBRANCH  78  81
ENDBRANCH  72  75
ENDBRANCH  70  71
ENDBRANCH  69  70
ENDBRANCH  68  69
ENDBRANCH   1  68
TORSDOF 15
ENDMDL
