MODEL 1
REMARK VINA RESULT:     -11.3      0.000      0.000
REMARK SMILES CC(=O)c1ccccc1S(=O)(=O)N1CCC(C(=O)NCCCCNC(=O)c2ccc(-c3c4nc(c(-c5ccc(S(=O)(=O)[O-])cc5)c5ccc([nH]5)c(-c5ccc(S(=O)(=O)[O-])cc5)c5nc(c(-c6ccc(S(=O)(=O)[O-])cc6)c6ccc3[nH]6)C=C5)C=C4)cc2)CC1
REMARK SMILES IDX 21 1 20 2 19 3 17 4 18 5 16 7 13 8 14 9 88 10 15 11 87 12
REMARK SMILES IDX 10 13 11 14 12 15 9 16 4 17 5 18 6 19 8 20 7 21 2 22 1 23
REMARK SMILES IDX 3 24 22 25 23 26 24 27 25 28 26 30 27 31 28 32 86 33 29 34
REMARK SMILES IDX 85 35 30 36 31 37 32 38 79 39 33 40 84 41 78 42 80 43 34 44
REMARK SMILES IDX 83 45 77 46 76 47 35 49 65 50 46 51 64 52 47 53 50 54 63 55
REMARK SMILES IDX 81 56 48 57 49 58 62 60 82 61 51 62 36 63 37 64 45 65 38 66
REMARK SMILES IDX 44 67 39 68 40 69 41 70 42 71 43 72 66 73 67 74 75 75 68 76
REMARK SMILES IDX 74 77 69 78 70 79 71 80 72 81 73 82 52 83 53 84 61 85 54 86
REMARK SMILES IDX 60 87 55 88 56 89 57 90 58 91 59 92
REMARK H PARENT 19 6 24 29 80 48 50 59
REMARK Flexibility Score: inf
ROOT
ATOM      1  C   UNL A   1      35.765  21.603  25.192  1.00  0.00     0.023 C 
ENDROOT
BRANCH   1   2
ATOM      2  C   UNL A   1      34.585  21.595  26.161  1.00  0.00     0.116 C 
BRANCH   2   3
ATOM      3  N   UNL A   1      33.665  20.515  25.869  1.00  0.00    -0.356 N 
ATOM      4  C   UNL A   1      32.529  20.512  25.121  1.00  0.00     0.223 C 
ATOM      5  O   UNL A   1      31.864  19.476  25.074  1.00  0.00    -0.275 OA
ATOM      6  H   UNL A   1      33.898  19.649  26.275  1.00  0.00     0.163 HD
BRANCH   4   7
ATOM      7  C   UNL A   1      32.103  21.750  24.344  1.00  0.00     0.081 C 
ATOM      8  N   UNL A   1      32.375  24.279  23.115  1.00  0.00    -0.198 NA
ATOM      9  C   UNL A   1      32.798  24.220  24.531  1.00  0.00     0.103 C 
ATOM     10  C   UNL A   1      32.927  23.153  22.308  1.00  0.00     0.103 C 
ATOM     11  C   UNL A   1      32.170  23.013  25.207  1.00  0.00     0.030 C 
ATOM     12  C   UNL A   1      32.800  21.793  22.983  1.00  0.00     0.030 C 
BRANCH   8  13
ATOM     13  S   UNL A   1      32.576  25.804  22.364  1.00  0.00     0.243 S 
ATOM     14  O   UNL A   1      31.469  26.036  21.471  1.00  0.00    -0.207 OA
ATOM     15  O   UNL A   1      33.947  25.882  21.884  1.00  0.00    -0.207 OA
BRANCH  13  16
ATOM     16  C   UNL A   1      32.471  27.053  23.617  1.00  0.00     0.093 A 
ATOM     17  C   UNL A   1      31.307  27.514  24.223  1.00  0.00     0.037 A 
ATOM     18  C   UNL A   1      31.380  28.502  25.220  1.00  0.00     0.013 A 
ATOM     19  C   UNL A   1      32.613  29.009  25.629  1.00  0.00     0.001 A 
ATOM     20  C   UNL A   1      33.711  27.573  24.036  1.00  0.00     0.022 A 
ATOM     21  C   UNL A   1      33.781  28.540  25.039  1.00  0.00     0.001 A 
BRANCH  17  22
ATOM     22  C   UNL A   1      29.952  27.037  23.934  1.00  0.00     0.161 C 
ATOM     23  C   UNL A   1      29.475  25.861  24.740  1.00  0.00     0.093 C 
ATOM     24  O   UNL A   1      29.234  27.687  23.184  1.00  0.00    -0.294 OA
ENDBRANCH  17  22
ENDBRANCH  13  16
ENDBRANCH   8  13
ENDBRANCH   4   7
ENDBRANCH   2   3
ENDBRANCH   1   2
BRANCH   1  25
ATOM     25  C   UNL A   1      36.111  22.986  24.646  1.00  0.00     0.023 C 
BRANCH  25  26
ATOM     26  C   UNL A   1      37.275  23.665  25.352  1.00  0.00     0.116 C 
BRANCH  26  27
ATOM     27  N   UNL A   1      38.394  22.762  25.584  1.00  0.00    -0.352 N 
ATOM     28  C   UNL A   1      39.591  23.034  26.200  1.00  0.00     0.251 C 
ATOM     29  H   UNL A   1      38.278  21.841  25.257  1.00  0.00     0.163 HD
ATOM     30  O   UNL A   1      40.498  22.210  26.197  1.00  0.00    -0.269 OA
BRANCH  28  31
ATOM     31  C   UNL A   1      39.765  24.353  26.830  1.00  0.00     0.039 A 
ATOM     32  C   UNL A   1      39.304  24.548  28.133  1.00  0.00     0.014 A 
ATOM     33  C   UNL A   1      40.470  25.356  26.159  1.00  0.00     0.014 A 
ATOM     34  C   UNL A   1      39.607  25.738  28.790  1.00  0.00     0.010 A 
ATOM     35  C   UNL A   1      40.845  26.502  26.847  1.00  0.00     0.010 A 
ATOM     36  C   UNL A   1      40.411  26.708  28.165  1.00  0.00    -0.014 A 
BRANCH  36  37
ATOM     37  C   UNL A   1      40.799  27.953  28.870  1.00  0.00     0.031 A 
ATOM     38  C   UNL A   1      42.154  28.053  29.514  1.00  0.00     0.074 A 
ATOM     39  C   UNL A   1      39.913  28.963  28.981  1.00  0.00     0.049 A 
ATOM     40  N   UNL A   1      42.661  29.031  30.217  1.00  0.00    -0.248 NA
ATOM     41  C   UNL A   1      43.046  26.889  29.374  1.00  0.00     0.031 C 
ATOM     42  C   UNL A   1      38.550  28.961  28.439  1.00  0.00     0.029 A 
ATOM     43  N   UNL A   1      40.023  30.186  29.591  1.00  0.00    -0.354 N 
ATOM     44  C   UNL A   1      43.919  28.595  30.616  1.00  0.00     0.074 A 
ATOM     45  C   UNL A   1      44.075  27.244  30.128  1.00  0.00     0.031 C 
ATOM     46  C   UNL A   1      37.967  30.140  28.712  1.00  0.00     0.029 A 
ATOM     47  C   UNL A   1      38.894  30.962  29.483  1.00  0.00     0.049 A 
ATOM     48  H   UNL A   1      40.836  30.482  30.062  1.00  0.00     0.167 HD
ATOM     49  C   UNL A   1      44.869  29.269  31.305  1.00  0.00     0.031 A 
ATOM     50  C   UNL A   1      38.632  32.196  29.956  1.00  0.00     0.031 A 
ATOM     51  C   UNL A   1      44.712  30.619  31.774  1.00  0.00     0.049 A 
ATOM     52  C   UNL A   1      39.703  32.923  30.726  1.00  0.00     0.074 A 
ATOM     53  C   UNL A   1      45.635  31.413  32.430  1.00  0.00     0.029 A 
ATOM     54  N   UNL A   1      43.557  31.374  31.636  1.00  0.00    -0.354 N 
ATOM     55  N   UNL A   1      40.914  32.520  31.031  1.00  0.00    -0.248 NA
ATOM     56  C   UNL A   1      39.375  34.273  31.204  1.00  0.00     0.031 C 
ATOM     57  C   UNL A   1      45.019  32.631  32.738  1.00  0.00     0.029 A 
ATOM     58  C   UNL A   1      43.735  32.618  32.218  1.00  0.00     0.049 A 
ATOM     59  H   UNL A   1      42.733  31.071  31.191  1.00  0.00     0.167 HD
ATOM     60  C   UNL A   1      41.502  33.580  31.713  1.00  0.00     0.074 A 
ATOM     61  C   UNL A   1      40.521  34.644  31.759  1.00  0.00     0.031 C 
ATOM     62  C   UNL A   1      42.744  33.664  32.254  1.00  0.00     0.031 A 
BRANCH  49  63
ATOM     63  C   UNL A   1      46.161  28.552  31.592  1.00  0.00    -0.014 A 
ATOM     64  C   UNL A   1      46.324  27.788  32.763  1.00  0.00     0.010 A 
ATOM     65  C   UNL A   1      47.216  28.612  30.664  1.00  0.00     0.010 A 
ATOM     66  C   UNL A   1      47.531  27.132  33.019  1.00  0.00     0.020 A 
ATOM     67  C   UNL A   1      48.413  27.931  30.901  1.00  0.00     0.020 A 
ATOM     68  C   UNL A   1      48.569  27.210  32.086  1.00  0.00     0.054 A 
BRANCH  68  69
ATOM     69  S   UNL A   1      50.113  26.324  32.432  1.00  0.00     0.124 S 
ATOM     70  O   UNL A   1      51.115  27.250  31.909  1.00  0.00    -0.237 OA
ATOM     71  O   UNL A   1      50.084  26.186  33.886  1.00  0.00    -0.237 OA
ATOM     72  O   UNL A   1      49.971  25.075  31.688  1.00  0.00    -0.744 OA
ENDBRANCH  68  69
ENDBRANCH  49  63
BRANCH  50  73
ATOM     73  C   UNL A   1      37.309  32.829  29.702  1.00  0.00    -0.014 A 
ATOM     74  C   UNL A   1      36.418  33.077  30.761  1.00  0.00     0.010 A 
ATOM     75  C   UNL A   1      36.933  33.196  28.396  1.00  0.00     0.010 A 
ATOM     76  C   UNL A   1      35.170  33.657  30.518  1.00  0.00     0.020 A 
ATOM     77  C   UNL A   1      35.698  33.804  28.153  1.00  0.00     0.020 A 
ATOM     78  C   UNL A   1      34.819  34.018  29.215  1.00  0.00     0.054 A 
BRANCH  78  79
ATOM     79  S   UNL A   1      33.212  34.812  28.930  1.00  0.00     0.124 S 
ATOM     80  O   UNL A   1      32.609  33.929  27.936  1.00  0.00    -0.237 OA
ATOM     81  O   UNL A   1      32.605  34.781  30.258  1.00  0.00    -0.237 OA
ATOM     82  O   UNL A   1      33.570  36.145  28.449  1.00  0.00    -0.744 OA
ENDBRANCH  78  79
ENDBRANCH  50  73
BRANCH  62  83
ATOM     83  C   UNL A   1      43.124  34.963  32.914  1.00  0.00    -0.014 A 
ATOM     84  C   UNL A   1      42.877  35.188  34.279  1.00  0.00     0.010 A 
ATOM     85  C   UNL A   1      43.794  35.949  32.165  1.00  0.00     0.010 A 
ATOM     86  C   UNL A   1      43.264  36.389  34.876  1.00  0.00     0.020 A 
ATOM     87  C   UNL A   1      44.209  37.139  32.766  1.00  0.00     0.020 A 
ATOM     88  C   UNL A   1      43.929  37.357  34.116  1.00  0.00     0.054 A 
BRANCH  88  89
ATOM     89  S   UNL A   1      44.460  38.890  34.927  1.00  0.00     0.124 S 
ATOM     90  O   UNL A   1      43.563  39.875  34.330  1.00  0.00    -0.237 OA
ATOM     91  O   UNL A   1      44.227  38.602  36.340  1.00  0.00    -0.237 OA
ATOM     92  O   UNL A   1      45.865  39.014  34.547  1.00  0.00    -0.744 OA
ENDBRANCH  88  89
ENDBRANCH  62  83
ENDBRANCH  36  37
ENDBRANCH  28  31
ENDBRANCH  26  27
ENDBRANCH  25  26
ENDBRANCH   1  25
TORSDOF 17
ENDMDL
MODEL 2
REMARK VINA RESULT:     -11.0      3.228      9.185
REMARK SMILES CC(=O)c1ccccc1S(=O)(=O)N1CCC(C(=O)NCCCCNC(=O)c2ccc(-c3c4nc(c(-c5ccc(S(=O)(=O)[O-])cc5)c5ccc([nH]5)c(-c5ccc(S(=O)(=O)[O-])cc5)c5nc(c(-c6ccc(S(=O)(=O)[O-])cc6)c6ccc3[nH]6)C=C5)C=C4)cc2)CC1
REMARK SMILES IDX 21 1 20 2 19 3 17 4 18 5 16 7 13 8 14 9 88 10 15 11 87 12
REMARK SMILES IDX 10 13 11 14 12 15 9 16 4 17 5 18 6 19 8 20 7 21 2 22 1 23
REMARK SMILES IDX 3 24 22 25 23 26 24 27 25 28 26 30 27 31 28 32 86 33 29 34
REMARK SMILES IDX 85 35 30 36 31 37 32 38 79 39 33 40 84 41 78 42 80 43 34 44
REMARK SMILES IDX 83 45 77 46 76 47 35 49 65 50 46 51 64 52 47 53 50 54 63 55
REMARK SMILES IDX 81 56 48 57 49 58 62 60 82 61 51 62 36 63 37 64 45 65 38 66
REMARK SMILES IDX 44 67 39 68 40 69 41 70 42 71 43 72 66 73 67 74 75 75 68 76
REMARK SMILES IDX 74 77 69 78 70 79 71 80 72 81 73 82 52 83 53 84 61 85 54 86
REMARK SMILES IDX 60 87 55 88 56 89 57 90 58 91 59 92
REMARK H PARENT 19 6 24 29 80 48 50 59
REMARK Flexibility Score: inf
ROOT
ATOM      1  C   UNL A   1      32.989  29.115  24.514  1.00  0.00     0.023 C 
ENDROOT
BRANCH   1   2
ATOM      2  C   UNL A   1      32.945  28.742  23.034  1.00  0.00     0.116 C 
BRANCH   2   3
ATOM      3  N   UNL A   1      31.683  29.117  22.430  1.00  0.00    -0.356 N 
ATOM      4  C   UNL A   1      30.504  28.441  22.377  1.00  0.00     0.223 C 
ATOM      5  O   UNL A   1      29.575  28.937  21.737  1.00  0.00    -0.275 OA
ATOM      6  H   UNL A   1      31.678  29.997  21.988  1.00  0.00     0.163 HD
BRANCH   4   7
ATOM      7  C   UNL A   1      30.330  27.117  23.108  1.00  0.00     0.081 C 
ATOM      8  N   UNL A   1      30.998  24.988  24.841  1.00  0.00    -0.198 NA
ATOM      9  C   UNL A   1      32.020  25.313  23.823  1.00  0.00     0.103 C 
ATOM     10  C   UNL A   1      30.487  26.200  25.543  1.00  0.00     0.103 C 
ATOM     11  C   UNL A   1      31.383  26.091  22.683  1.00  0.00     0.030 C 
ATOM     12  C   UNL A   1      30.149  27.355  24.608  1.00  0.00     0.030 C 
BRANCH   8  13
ATOM     13  S   UNL A   1      31.422  23.721  25.912  1.00  0.00     0.243 S 
ATOM     14  O   UNL A   1      30.586  22.580  25.642  1.00  0.00    -0.207 OA
ATOM     15  O   UNL A   1      31.503  24.285  27.251  1.00  0.00    -0.207 OA
BRANCH  13  16
ATOM     16  C   UNL A   1      33.080  23.219  25.540  1.00  0.00     0.093 A 
ATOM     17  C   UNL A   1      33.455  22.171  24.705  1.00  0.00     0.037 A 
ATOM     18  C   UNL A   1      34.816  21.898  24.490  1.00  0.00     0.013 A 
ATOM     19  C   UNL A   1      35.801  22.685  25.085  1.00  0.00     0.001 A 
ATOM     20  C   UNL A   1      34.083  24.006  26.138  1.00  0.00     0.022 A 
ATOM     21  C   UNL A   1      35.434  23.744  25.908  1.00  0.00     0.001 A 
BRANCH  17  22
ATOM     22  C   UNL A   1      32.533  21.297  23.973  1.00  0.00     0.161 C 
ATOM     23  C   UNL A   1      32.149  21.745  22.591  1.00  0.00     0.093 C 
ATOM     24  O   UNL A   1      32.246  20.202  24.442  1.00  0.00    -0.294 OA
ENDBRANCH  17  22
ENDBRANCH  13  16
ENDBRANCH   8  13
ENDBRANCH   4   7
ENDBRANCH   2   3
ENDBRANCH   1   2
BRANCH   1  25
ATOM     25  C   UNL A   1      33.916  28.234  25.348  1.00  0.00     0.023 C 
BRANCH  25  26
ATOM     26  C   UNL A   1      34.522  28.931  26.557  1.00  0.00     0.116 C 
BRANCH  26  27
ATOM     27  N   UNL A   1      34.033  30.292  26.724  1.00  0.00    -0.352 N 
ATOM     28  C   UNL A   1      34.452  31.241  27.625  1.00  0.00     0.251 C 
ATOM     29  H   UNL A   1      33.310  30.568  26.114  1.00  0.00     0.163 HD
ATOM     30  O   UNL A   1      33.849  32.301  27.743  1.00  0.00    -0.269 OA
BRANCH  28  31
ATOM     31  C   UNL A   1      35.621  30.934  28.465  1.00  0.00     0.039 A 
ATOM     32  C   UNL A   1      35.531  29.900  29.398  1.00  0.00     0.014 A 
ATOM     33  C   UNL A   1      36.825  31.610  28.254  1.00  0.00     0.014 A 
ATOM     34  C   UNL A   1      36.678  29.501  30.082  1.00  0.00     0.010 A 
ATOM     35  C   UNL A   1      37.982  31.152  28.870  1.00  0.00     0.010 A 
ATOM     36  C   UNL A   1      37.918  30.099  29.795  1.00  0.00    -0.014 A 
BRANCH  36  37
ATOM     37  C   UNL A   1      39.161  29.646  30.464  1.00  0.00     0.031 A 
ATOM     38  C   UNL A   1      39.623  30.332  31.720  1.00  0.00     0.074 A 
ATOM     39  C   UNL A   1      39.899  28.663  29.911  1.00  0.00     0.049 A 
ATOM     40  N   UNL A   1      40.704  30.120  32.423  1.00  0.00    -0.248 NA
ATOM     41  C   UNL A   1      38.774  31.420  32.236  1.00  0.00     0.031 C 
ATOM     42  C   UNL A   1      39.577  27.955  28.667  1.00  0.00     0.029 A 
ATOM     43  N   UNL A   1      41.077  28.091  30.320  1.00  0.00    -0.354 N 
ATOM     44  C   UNL A   1      40.673  31.055  33.451  1.00  0.00     0.074 A 
ATOM     45  C   UNL A   1      39.501  31.874  33.246  1.00  0.00     0.031 C 
ATOM     46  C   UNL A   1      40.516  27.022  28.436  1.00  0.00     0.029 A 
ATOM     47  C   UNL A   1      41.527  27.094  29.486  1.00  0.00     0.049 A 
ATOM     48  H   UNL A   1      41.556  28.368  31.134  1.00  0.00     0.167 HD
ATOM     49  C   UNL A   1      41.532  31.203  34.487  1.00  0.00     0.031 A 
ATOM     50  C   UNL A   1      42.631  26.327  29.558  1.00  0.00     0.031 A 
ATOM     51  C   UNL A   1      42.688  30.375  34.693  1.00  0.00     0.049 A 
ATOM     52  C   UNL A   1      43.574  26.514  30.716  1.00  0.00     0.074 A 
ATOM     53  C   UNL A   1      43.590  30.402  35.741  1.00  0.00     0.029 A 
ATOM     54  N   UNL A   1      43.104  29.369  33.832  1.00  0.00    -0.354 N 
ATOM     55  N   UNL A   1      43.489  27.357  31.718  1.00  0.00    -0.248 NA
ATOM     56  C   UNL A   1      44.754  25.640  30.759  1.00  0.00     0.031 C 
ATOM     57  C   UNL A   1      44.582  29.450  35.487  1.00  0.00     0.029 A 
ATOM     58  C   UNL A   1      44.264  28.786  34.313  1.00  0.00     0.049 A 
ATOM     59  H   UNL A   1      42.642  29.109  33.002  1.00  0.00     0.167 HD
ATOM     60  C   UNL A   1      44.591  27.095  32.526  1.00  0.00     0.074 A 
ATOM     61  C   UNL A   1      45.315  26.005  31.904  1.00  0.00     0.031 C 
ATOM     62  C   UNL A   1      44.970  27.702  33.678  1.00  0.00     0.031 A 
BRANCH  49  63
ATOM     63  C   UNL A   1      41.247  32.303  35.475  1.00  0.00    -0.014 A 
ATOM     64  C   UNL A   1      40.495  32.057  36.640  1.00  0.00     0.010 A 
ATOM     65  C   UNL A   1      41.765  33.591  35.255  1.00  0.00     0.010 A 
ATOM     66  C   UNL A   1      40.233  33.090  37.544  1.00  0.00     0.020 A 
ATOM     67  C   UNL A   1      41.533  34.619  36.174  1.00  0.00     0.020 A 
ATOM     68  C   UNL A   1      40.754  34.365  37.304  1.00  0.00     0.054 A 
BRANCH  68  69
ATOM     69  S   UNL A   1      40.421  35.677  38.511  1.00  0.00     0.124 S 
ATOM     70  O   UNL A   1      39.329  35.099  39.291  1.00  0.00    -0.237 OA
ATOM     71  O   UNL A   1      41.697  35.798  39.212  1.00  0.00    -0.237 OA
ATOM     72  O   UNL A   1      40.057  36.825  37.685  1.00  0.00    -0.744 OA
ENDBRANCH  68  69
ENDBRANCH  49  63
BRANCH  50  73
ATOM     73  C   UNL A   1      42.898  25.301  28.512  1.00  0.00    -0.014 A 
ATOM     74  C   UNL A   1      42.348  24.011  28.618  1.00  0.00     0.010 A 
ATOM     75  C   UNL A   1      43.700  25.610  27.398  1.00  0.00     0.010 A 
ATOM     76  C   UNL A   1      42.612  23.045  27.643  1.00  0.00     0.020 A 
ATOM     77  C   UNL A   1      43.942  24.656  26.406  1.00  0.00     0.020 A 
ATOM     78  C   UNL A   1      43.406  23.374  26.542  1.00  0.00     0.054 A 
BRANCH  78  79
ATOM     79  S   UNL A   1      43.698  22.117  25.266  1.00  0.00     0.124 S 
ATOM     80  O   UNL A   1      42.739  21.082  25.635  1.00  0.00    -0.237 OA
ATOM     81  O   UNL A   1      43.404  22.845  24.034  1.00  0.00    -0.237 OA
ATOM     82  O   UNL A   1      45.105  21.764  25.450  1.00  0.00    -0.744 OA
ENDBRANCH  78  79
ENDBRANCH  50  73
BRANCH  62  83
ATOM     83  C   UNL A   1      46.206  27.181  34.361  1.00  0.00    -0.014 A 
ATOM     84  C   UNL A   1      47.472  27.732  34.100  1.00  0.00     0.010 A 
ATOM     85  C   UNL A   1      46.086  26.160  35.324  1.00  0.00     0.010 A 
ATOM     86  C   UNL A   1      48.602  27.251  34.765  1.00  0.00     0.020 A 
ATOM     87  C   UNL A   1      47.209  25.698  36.013  1.00  0.00     0.020 A 
ATOM     88  C   UNL A   1      48.462  26.237  35.719  1.00  0.00     0.054 A 
BRANCH  88  89
ATOM     89  S   UNL A   1      49.939  25.662  36.601  1.00  0.00     0.124 S 
ATOM     90  O   UNL A   1      50.085  24.300  36.092  1.00  0.00    -0.237 OA
ATOM     91  O   UNL A   1      50.961  26.609  36.166  1.00  0.00    -0.237 OA
ATOM     92  O   UNL A   1      49.563  25.763  38.009  1.00  0.00    -0.744 OA
ENDBRANCH  88  89
ENDBRANCH  62  83
ENDBRANCH  36  37
ENDBRANCH  28  31
ENDBRANCH  26  27
ENDBRANCH  25  26
ENDBRANCH   1  25
TORSDOF 17
ENDMDL
MODEL 3
REMARK VINA RESULT:     -11.0      4.182     10.258
REMARK SMILES CC(=O)c1ccccc1S(=O)(=O)N1CCC(C(=O)NCCCCNC(=O)c2ccc(-c3c4nc(c(-c5ccc(S(=O)(=O)[O-])cc5)c5ccc([nH]5)c(-c5ccc(S(=O)(=O)[O-])cc5)c5nc(c(-c6ccc(S(=O)(=O)[O-])cc6)c6ccc3[nH]6)C=C5)C=C4)cc2)CC1
REMARK SMILES IDX 21 1 20 2 19 3 17 4 18 5 16 7 13 8 14 9 88 10 15 11 87 12
REMARK SMILES IDX 10 13 11 14 12 15 9 16 4 17 5 18 6 19 8 20 7 21 2 22 1 23
REMARK SMILES IDX 3 24 22 25 23 26 24 27 25 28 26 30 27 31 28 32 86 33 29 34
REMARK SMILES IDX 85 35 30 36 31 37 32 38 79 39 33 40 84 41 78 42 80 43 34 44
REMARK SMILES IDX 83 45 77 46 76 47 35 49 65 50 46 51 64 52 47 53 50 54 63 55
REMARK SMILES IDX 81 56 48 57 49 58 62 60 82 61 51 62 36 63 37 64 45 65 38 66
REMARK SMILES IDX 44 67 39 68 40 69 41 70 42 71 43 72 66 73 67 74 75 75 68 76
REMARK SMILES IDX 74 77 69 78 70 79 71 80 72 81 73 82 52 83 53 84 61 85 54 86
REMARK SMILES IDX 60 87 55 88 56 89 57 90 58 91 59 92
REMARK H PARENT 19 6 24 29 80 48 50 59
REMARK Flexibility Score: inf
ROOT
ATOM      1  C   UNL A   1      33.260  30.622  27.218  1.00  0.00     0.023 C 
ENDROOT
BRANCH   1   2
ATOM      2  C   UNL A   1      33.492  29.432  26.290  1.00  0.00     0.116 C 
BRANCH   2   3
ATOM      3  N   UNL A   1      33.037  29.712  24.943  1.00  0.00    -0.356 N 
ATOM      4  C   UNL A   1      32.926  28.886  23.868  1.00  0.00     0.223 C 
ATOM      5  O   UNL A   1      32.577  29.373  22.792  1.00  0.00    -0.275 OA
ATOM      6  H   UNL A   1      32.767  30.646  24.780  1.00  0.00     0.163 HD
BRANCH   4   7
ATOM      7  C   UNL A   1      33.203  27.395  23.998  1.00  0.00     0.081 C 
ATOM      8  N   UNL A   1      32.815  24.626  23.599  1.00  0.00    -0.198 NA
ATOM      9  C   UNL A   1      31.636  25.358  24.109  1.00  0.00     0.103 C 
ATOM     10  C   UNL A   1      33.460  25.317  22.446  1.00  0.00     0.103 C 
ATOM     11  C   UNL A   1      32.077  26.670  24.737  1.00  0.00     0.030 C 
ATOM     12  C   UNL A   1      33.647  26.815  22.654  1.00  0.00     0.030 C 
BRANCH   8  13
ATOM     13  S   UNL A   1      32.565  22.954  23.324  1.00  0.00     0.243 S 
ATOM     14  O   UNL A   1      32.623  22.698  21.907  1.00  0.00    -0.207 OA
ATOM     15  O   UNL A   1      31.407  22.548  24.106  1.00  0.00    -0.207 OA
BRANCH  13  16
ATOM     16  C   UNL A   1      33.920  22.070  24.043  1.00  0.00     0.093 A 
ATOM     17  C   UNL A   1      33.903  20.748  24.477  1.00  0.00     0.037 A 
ATOM     18  C   UNL A   1      35.065  20.170  25.015  1.00  0.00     0.013 A 
ATOM     19  C   UNL A   1      36.250  20.901  25.095  1.00  0.00     0.001 A 
ATOM     20  C   UNL A   1      35.122  22.800  24.131  1.00  0.00     0.022 A 
ATOM     21  C   UNL A   1      36.279  22.218  24.648  1.00  0.00     0.001 A 
BRANCH  17  22
ATOM     22  C   UNL A   1      32.749  19.845  24.406  1.00  0.00     0.161 C 
ATOM     23  C   UNL A   1      32.525  19.157  23.088  1.00  0.00     0.093 C 
ATOM     24  O   UNL A   1      32.129  19.582  25.429  1.00  0.00    -0.294 OA
ENDBRANCH  17  22
ENDBRANCH  13  16
ENDBRANCH   8  13
ENDBRANCH   4   7
ENDBRANCH   2   3
ENDBRANCH   1   2
BRANCH   1  25
ATOM     25  C   UNL A   1      34.542  31.323  27.659  1.00  0.00     0.023 C 
BRANCH  25  26
ATOM     26  C   UNL A   1      35.551  30.413  28.345  1.00  0.00     0.116 C 
BRANCH  26  27
ATOM     27  N   UNL A   1      35.518  30.534  29.796  1.00  0.00    -0.352 N 
ATOM     28  C   UNL A   1      36.452  30.103  30.705  1.00  0.00     0.251 C 
ATOM     29  H   UNL A   1      34.724  30.979  30.173  1.00  0.00     0.163 HD
ATOM     30  O   UNL A   1      36.222  30.147  31.908  1.00  0.00    -0.269 OA
BRANCH  28  31
ATOM     31  C   UNL A   1      37.720  29.556  30.194  1.00  0.00     0.039 A 
ATOM     32  C   UNL A   1      38.055  29.761  28.855  1.00  0.00     0.014 A 
ATOM     33  C   UNL A   1      38.609  28.928  31.070  1.00  0.00     0.014 A 
ATOM     34  C   UNL A   1      39.320  29.387  28.406  1.00  0.00     0.010 A 
ATOM     35  C   UNL A   1      39.898  28.639  30.642  1.00  0.00     0.010 A 
ATOM     36  C   UNL A   1      40.263  28.858  29.305  1.00  0.00    -0.014 A 
BRANCH  36  37
ATOM     37  C   UNL A   1      41.635  28.513  28.863  1.00  0.00     0.031 A 
ATOM     38  C   UNL A   1      42.692  29.582  28.813  1.00  0.00     0.074 A 
ATOM     39  C   UNL A   1      41.910  27.259  28.451  1.00  0.00     0.049 A 
ATOM     40  N   UNL A   1      43.932  29.495  28.408  1.00  0.00    -0.248 NA
ATOM     41  C   UNL A   1      42.295  30.933  29.247  1.00  0.00     0.031 C 
ATOM     42  C   UNL A   1      40.953  26.149  28.409  1.00  0.00     0.029 A 
ATOM     43  N   UNL A   1      43.076  26.707  27.985  1.00  0.00    -0.354 N 
ATOM     44  C   UNL A   1      44.455  30.777  28.522  1.00  0.00     0.074 A 
ATOM     45  C   UNL A   1      43.385  31.635  28.976  1.00  0.00     0.031 C 
ATOM     46  C   UNL A   1      41.581  25.044  27.975  1.00  0.00     0.029 A 
ATOM     47  C   UNL A   1      42.969  25.374  27.668  1.00  0.00     0.049 A 
ATOM     48  H   UNL A   1      43.912  27.218  27.887  1.00  0.00     0.167 HD
ATOM     49  C   UNL A   1      45.721  31.198  28.294  1.00  0.00     0.031 A 
ATOM     50  C   UNL A   1      43.885  24.515  27.181  1.00  0.00     0.031 A 
ATOM     51  C   UNL A   1      46.785  30.336  27.856  1.00  0.00     0.049 A 
ATOM     52  C   UNL A   1      45.284  25.008  26.928  1.00  0.00     0.074 A 
ATOM     53  C   UNL A   1      48.116  30.650  27.651  1.00  0.00     0.029 A 
ATOM     54  N   UNL A   1      46.638  28.990  27.556  1.00  0.00    -0.354 N 
ATOM     55  N   UNL A   1      45.779  26.210  27.111  1.00  0.00    -0.248 NA
ATOM     56  C   UNL A   1      46.251  24.028  26.415  1.00  0.00     0.031 C 
ATOM     57  C   UNL A   1      48.764  29.506  27.175  1.00  0.00     0.029 A 
ATOM     58  C   UNL A   1      47.850  28.464  27.143  1.00  0.00     0.049 A 
ATOM     59  H   UNL A   1      45.797  28.483  27.626  1.00  0.00     0.167 HD
ATOM     60  C   UNL A   1      47.122  26.122  26.761  1.00  0.00     0.074 A 
ATOM     61  C   UNL A   1      47.364  24.747  26.374  1.00  0.00     0.031 C 
ATOM     62  C   UNL A   1      48.070  27.092  26.760  1.00  0.00     0.031 A 
BRANCH  49  63
ATOM     63  C   UNL A   1      46.019  32.658  28.513  1.00  0.00    -0.014 A 
ATOM     64  C   UNL A   1      45.902  33.589  27.464  1.00  0.00     0.010 A 
ATOM     65  C   UNL A   1      46.388  33.112  29.791  1.00  0.00     0.010 A 
ATOM     66  C   UNL A   1      46.189  34.940  27.681  1.00  0.00     0.020 A 
ATOM     67  C   UNL A   1      46.644  34.467  30.020  1.00  0.00     0.020 A 
ATOM     68  C   UNL A   1      46.560  35.369  28.958  1.00  0.00     0.054 A 
BRANCH  68  69
ATOM     69  S   UNL A   1      46.896  37.132  29.215  1.00  0.00     0.124 S 
ATOM     70  O   UNL A   1      45.831  37.510  30.142  1.00  0.00    -0.237 OA
ATOM     71  O   UNL A   1      48.244  37.123  29.777  1.00  0.00    -0.237 OA
ATOM     72  O   UNL A   1      46.787  37.705  27.875  1.00  0.00    -0.744 OA
ENDBRANCH  68  69
ENDBRANCH  49  63
BRANCH  50  73
ATOM     73  C   UNL A   1      43.513  23.097  26.916  1.00  0.00    -0.014 A 
ATOM     74  C   UNL A   1      43.783  22.507  25.668  1.00  0.00     0.010 A 
ATOM     75  C   UNL A   1      42.892  22.324  27.915  1.00  0.00     0.010 A 
ATOM     76  C   UNL A   1      43.419  21.182  25.417  1.00  0.00     0.020 A 
ATOM     77  C   UNL A   1      42.555  20.989  27.678  1.00  0.00     0.020 A 
ATOM     78  C   UNL A   1      42.809  20.430  26.424  1.00  0.00     0.054 A 
BRANCH  78  79
ATOM     79  S   UNL A   1      42.387  18.697  26.090  1.00  0.00     0.124 S 
ATOM     80  O   UNL A   1      42.614  18.073  27.389  1.00  0.00    -0.237 OA
ATOM     81  O   UNL A   1      40.992  18.788  25.665  1.00  0.00    -0.237 OA
ATOM     82  O   UNL A   1      43.326  18.314  25.037  1.00  0.00    -0.744 OA
ENDBRANCH  78  79
ENDBRANCH  50  73
BRANCH  62  83
ATOM     83  C   UNL A   1      49.466  26.695  26.358  1.00  0.00    -0.014 A 
ATOM     84  C   UNL A   1      50.350  26.107  27.278  1.00  0.00     0.010 A 
ATOM     85  C   UNL A   1      49.875  26.862  25.022  1.00  0.00     0.010 A 
ATOM     86  C   UNL A   1      51.631  25.721  26.876  1.00  0.00     0.020 A 
ATOM     87  C   UNL A   1      51.143  26.450  24.609  1.00  0.00     0.020 A 
ATOM     88  C   UNL A   1      52.019  25.895  25.543  1.00  0.00     0.054 A 
BRANCH  88  89
ATOM     89  S   UNL A   1      53.672  25.344  25.037  1.00  0.00     0.124 S 
ATOM     90  O   UNL A   1      54.511  25.884  26.104  1.00  0.00    -0.237 OA
ATOM     91  O   UNL A   1      53.534  23.891  25.020  1.00  0.00    -0.237 OA
ATOM     92  O   UNL A   1      53.856  25.962  23.726  1.00  0.00    -0.744 OA
ENDBRANCH  88  89
ENDBRANCH  62  83
ENDBRANCH  36  37
ENDBRANCH  28  31
ENDBRANCH  26  27
ENDBRANCH  25  26
ENDBRANCH   1  25
TORSDOF 17
ENDMDL
