MODEL 1
REMARK VINA RESULT:     -10.7      0.000      0.000
REMARK SMILES O=C(NCCCCNC(=O)[C@@H]1CS[C@H](c2ncc(-c3ccccc3)s2)[NH2+]1)c1ccc(-c2c3nc(c(-c4ccc(S(=O)(=O)[O-])cc4)c4ccc([nH]4)c(-c4ccc(S(=O)(=O)[O-])cc4)c4nc(c(-c5ccc(S(=O)(=O)[O-])cc5)c5ccc2[nH]5)C=C4)C=C3)cc1
REMARK SMILES IDX 5 1 4 2 3 3 1 4 2 5 27 7 28 8 86 9 29 10 85 11 30 12 31 13
REMARK SMILES IDX 32 14 79 15 33 16 84 17 78 18 80 19 34 20 83 21 77 22 76 23
REMARK SMILES IDX 35 25 65 26 46 27 64 28 47 29 50 30 63 31 81 32 48 33 49 34
REMARK SMILES IDX 62 36 82 37 51 38 36 39 37 40 45 41 38 42 44 43 39 44 40 45
REMARK SMILES IDX 41 46 42 47 43 48 66 49 67 50 75 51 68 52 74 53 69 54 70 55
REMARK SMILES IDX 71 56 72 57 73 58 52 59 53 60 61 61 54 62 60 63 55 64 56 65
REMARK SMILES IDX 57 66 58 67 59 68 6 69 7 70 8 71 9 72 10 74 11 75 12 76
REMARK SMILES IDX 26 77 13 78 14 79 15 82 16 83 25 84 17 85 18 86 19 87 20 88
REMARK SMILES IDX 24 89 21 90 23 91 22 92
REMARK H PARENT 3 6 80 24 50 35 8 73 26 80 26 81
REMARK Flexibility Score: inf
ROOT
ATOM      1  C   UNL A   1      33.842  28.102  25.455  1.00  0.00     0.023 C 
ENDROOT
BRANCH   1   2
ATOM      2  C   UNL A   1      33.792  28.265  26.972  1.00  0.00     0.116 C 
BRANCH   2   3
ATOM      3  N   UNL A   1      33.592  29.640  27.413  1.00  0.00    -0.352 N 
ATOM      4  O   UNL A   1      34.164  31.580  28.426  1.00  0.00    -0.269 OA
ATOM      5  C   UNL A   1      34.495  30.469  28.041  1.00  0.00     0.251 C 
ATOM      6  H   UNL A   1      32.701  30.022  27.240  1.00  0.00     0.163 HD
BRANCH   5   7
ATOM      7  C   UNL A   1      35.862  29.964  28.268  1.00  0.00     0.039 A 
ATOM      8  C   UNL A   1      36.220  29.468  29.524  1.00  0.00     0.014 A 
ATOM      9  C   UNL A   1      36.807  30.072  27.245  1.00  0.00     0.014 A 
ATOM     10  C   UNL A   1      37.557  29.219  29.801  1.00  0.00     0.010 A 
ATOM     11  C   UNL A   1      38.139  29.744  27.505  1.00  0.00     0.010 A 
ATOM     12  C   UNL A   1      38.529  29.351  28.795  1.00  0.00    -0.014 A 
BRANCH  12  13
ATOM     13  C   UNL A   1      39.940  29.021  29.109  1.00  0.00     0.031 A 
ATOM     14  C   UNL A   1      40.537  27.694  28.727  1.00  0.00     0.074 A 
ATOM     15  C   UNL A   1      40.693  29.957  29.718  1.00  0.00     0.049 A 
ATOM     16  N   UNL A   1      41.758  27.262  28.917  1.00  0.00    -0.248 NA
ATOM     17  C   UNL A   1      39.658  26.728  28.051  1.00  0.00     0.031 C 
ATOM     18  C   UNL A   1      40.216  31.279  30.137  1.00  0.00     0.029 A 
ATOM     19  N   UNL A   1      42.016  29.955  30.073  1.00  0.00    -0.354 N 
ATOM     20  C   UNL A   1      41.789  25.967  28.409  1.00  0.00     0.074 A 
ATOM     21  C   UNL A   1      40.460  25.679  27.913  1.00  0.00     0.031 C 
ATOM     22  C   UNL A   1      41.242  31.976  30.644  1.00  0.00     0.029 A 
ATOM     23  C   UNL A   1      42.431  31.132  30.647  1.00  0.00     0.049 A 
ATOM     24  H   UNL A   1      42.612  29.184  29.928  1.00  0.00     0.167 HD
ATOM     25  C   UNL A   1      42.831  25.102  28.362  1.00  0.00     0.031 A 
ATOM     26  C   UNL A   1      43.630  31.491  31.141  1.00  0.00     0.031 A 
ATOM     27  C   UNL A   1      44.152  25.401  28.850  1.00  0.00     0.049 A 
ATOM     28  C   UNL A   1      44.762  30.508  31.087  1.00  0.00     0.074 A 
ATOM     29  C   UNL A   1      45.281  24.599  28.825  1.00  0.00     0.029 A 
ATOM     30  N   UNL A   1      44.524  26.594  29.452  1.00  0.00    -0.354 N 
ATOM     31  N   UNL A   1      44.771  29.295  30.588  1.00  0.00    -0.248 NA
ATOM     32  C   UNL A   1      46.039  30.941  31.665  1.00  0.00     0.031 C 
ATOM     33  C   UNL A   1      46.324  25.292  29.450  1.00  0.00     0.029 A 
ATOM     34  C   UNL A   1      45.858  26.543  29.821  1.00  0.00     0.049 A 
ATOM     35  H   UNL A   1      43.927  27.363  29.598  1.00  0.00     0.167 HD
ATOM     36  C   UNL A   1      46.061  28.820  30.783  1.00  0.00     0.074 A 
ATOM     37  C   UNL A   1      46.807  29.885  31.425  1.00  0.00     0.031 C 
ATOM     38  C   UNL A   1      46.579  27.610  30.465  1.00  0.00     0.031 A 
BRANCH  25  39
ATOM     39  C   UNL A   1      42.583  23.733  27.784  1.00  0.00    -0.014 A 
ATOM     40  C   UNL A   1      42.702  23.491  26.404  1.00  0.00     0.010 A 
ATOM     41  C   UNL A   1      42.292  22.658  28.645  1.00  0.00     0.010 A 
ATOM     42  C   UNL A   1      42.506  22.205  25.892  1.00  0.00     0.020 A 
ATOM     43  C   UNL A   1      42.117  21.366  28.139  1.00  0.00     0.020 A 
ATOM     44  C   UNL A   1      42.211  21.151  26.764  1.00  0.00     0.054 A 
BRANCH  44  45
ATOM     45  S   UNL A   1      41.991  19.485  26.076  1.00  0.00     0.124 S 
ATOM     46  O   UNL A   1      42.823  19.545  24.876  1.00  0.00    -0.237 OA
ATOM     47  O   UNL A   1      42.493  18.626  27.145  1.00  0.00    -0.237 OA
ATOM     48  O   UNL A   1      40.553  19.397  25.833  1.00  0.00    -0.744 OA
ENDBRANCH  44  45
ENDBRANCH  25  39
BRANCH  26  49
ATOM     49  C   UNL A   1      43.800  32.838  31.744  1.00  0.00    -0.014 A 
ATOM     50  C   UNL A   1      44.130  33.944  30.944  1.00  0.00     0.010 A 
ATOM     51  C   UNL A   1      43.587  33.024  33.123  1.00  0.00     0.010 A 
ATOM     52  C   UNL A   1      44.252  35.214  31.515  1.00  0.00     0.020 A 
ATOM     53  C   UNL A   1      43.682  34.297  33.691  1.00  0.00     0.020 A 
ATOM     54  C   UNL A   1      44.025  35.382  32.884  1.00  0.00     0.054 A 
BRANCH  54  55
ATOM     55  S   UNL A   1      44.123  37.048  33.594  1.00  0.00     0.124 S 
ATOM     56  O   UNL A   1      42.729  37.310  33.942  1.00  0.00    -0.237 OA
ATOM     57  O   UNL A   1      45.033  36.861  34.722  1.00  0.00    -0.237 OA
ATOM     58  O   UNL A   1      44.659  37.853  32.499  1.00  0.00    -0.744 OA
ENDBRANCH  54  55
ENDBRANCH  26  49
BRANCH  38  59
ATOM     59  C   UNL A   1      48.030  27.384  30.790  1.00  0.00    -0.014 A 
ATOM     60  C   UNL A   1      48.418  26.853  32.033  1.00  0.00     0.010 A 
ATOM     61  C   UNL A   1      49.012  27.678  29.829  1.00  0.00     0.010 A 
ATOM     62  C   UNL A   1      49.769  26.650  32.321  1.00  0.00     0.020 A 
ATOM     63  C   UNL A   1      50.363  27.455  30.103  1.00  0.00     0.020 A 
ATOM     64  C   UNL A   1      50.733  26.956  31.355  1.00  0.00     0.054 A 
BRANCH  64  65
ATOM     65  S   UNL A   1      52.481  26.654  31.736  1.00  0.00     0.124 S 
ATOM     66  O   UNL A   1      52.601  27.221  33.076  1.00  0.00    -0.237 OA
ATOM     67  O   UNL A   1      52.582  25.199  31.657  1.00  0.00    -0.237 OA
ATOM     68  O   UNL A   1      53.193  27.380  30.686  1.00  0.00    -0.744 OA
ENDBRANCH  64  65
ENDBRANCH  38  59
ENDBRANCH  12  13
ENDBRANCH   5   7
ENDBRANCH   2   3
ENDBRANCH   1   2
BRANCH   1  69
ATOM     69  C   UNL A   1      33.149  29.202  24.654  1.00  0.00     0.023 C 
BRANCH  69  70
ATOM     70  C   UNL A   1      32.360  28.699  23.451  1.00  0.00     0.116 C 
BRANCH  70  71
ATOM     71  N   UNL A   1      32.776  27.375  23.036  1.00  0.00    -0.351 N 
ATOM     72  C   UNL A   1      32.156  26.176  22.909  1.00  0.00     0.279 C 
ATOM     73  H   UNL A   1      33.728  27.337  22.789  1.00  0.00     0.163 HD
ATOM     74  O   UNL A   1      32.840  25.304  22.349  1.00  0.00    -0.268 OA
BRANCH  72  75
ATOM     75  C   UNL A   1      30.787  25.779  23.507  1.00  0.00     0.284 C 
ATOM     76  C   UNL A   1      30.662  26.302  24.955  1.00  0.00     0.151 C 
ATOM     77  N   UNL A   1      30.377  24.376  23.503  1.00  0.00    -0.319 N 
ATOM     78  S   UNL A   1      30.440  24.858  26.043  1.00  0.00    -0.085 SA
ATOM     79  C   UNL A   1      30.784  23.680  24.714  1.00  0.00     0.303 C 
ATOM     80  H   UNL A   1      30.800  23.913  22.699  1.00  0.00     0.348 HD
ATOM     81  H   UNL A   1      29.358  24.349  23.453  1.00  0.00     0.348 HD
BRANCH  79  82
ATOM     82  C   UNL A   1      32.196  23.108  24.698  1.00  0.00     0.162 A 
ATOM     83  N   UNL A   1      32.553  22.072  23.959  1.00  0.00    -0.242 NA
ATOM     84  S   UNL A   1      33.481  23.774  25.631  1.00  0.00    -0.112 S 
ATOM     85  C   UNL A   1      33.896  21.785  24.154  1.00  0.00     0.132 A 
ATOM     86  C   UNL A   1      34.600  22.637  24.990  1.00  0.00     0.055 A 
BRANCH  86  87
ATOM     87  C   UNL A   1      36.037  22.678  25.338  1.00  0.00    -0.007 A 
ATOM     88  C   UNL A   1      36.887  21.571  25.154  1.00  0.00     0.009 A 
ATOM     89  C   UNL A   1      36.601  23.838  25.898  1.00  0.00     0.009 A 
ATOM     90  C   UNL A   1      38.235  21.615  25.523  1.00  0.00     0.001 A 
ATOM     91  C   UNL A   1      37.951  23.884  26.266  1.00  0.00     0.001 A 
ATOM     92  C   UNL A   1      38.767  22.771  26.081  1.00  0.00     0.000 A 
ENDBRANCH  86  87
ENDBRANCH  79  82
ENDBRANCH  72  75
ENDBRANCH  70  71
ENDBRANCH  69  70
ENDBRANCH   1  69
TORSDOF 16
ENDMDL
MODEL 2
REMARK VINA RESULT:     -10.6      1.475      3.575
REMARK SMILES O=C(NCCCCNC(=O)[C@@H]1CS[C@H](c2ncc(-c3ccccc3)s2)[NH2+]1)c1ccc(-c2c3nc(c(-c4ccc(S(=O)(=O)[O-])cc4)c4ccc([nH]4)c(-c4ccc(S(=O)(=O)[O-])cc4)c4nc(c(-c5ccc(S(=O)(=O)[O-])cc5)c5ccc2[nH]5)C=C4)C=C3)cc1
REMARK SMILES IDX 5 1 4 2 3 3 1 4 2 5 27 7 28 8 86 9 29 10 85 11 30 12 31 13
REMARK SMILES IDX 32 14 79 15 33 16 84 17 78 18 80 19 34 20 83 21 77 22 76 23
REMARK SMILES IDX 35 25 65 26 46 27 64 28 47 29 50 30 63 31 81 32 48 33 49 34
REMARK SMILES IDX 62 36 82 37 51 38 36 39 37 40 45 41 38 42 44 43 39 44 40 45
REMARK SMILES IDX 41 46 42 47 43 48 66 49 67 50 75 51 68 52 74 53 69 54 70 55
REMARK SMILES IDX 71 56 72 57 73 58 52 59 53 60 61 61 54 62 60 63 55 64 56 65
REMARK SMILES IDX 57 66 58 67 59 68 6 69 7 70 8 71 9 72 10 74 11 75 12 76
REMARK SMILES IDX 26 77 13 78 14 79 15 82 16 83 25 84 17 85 18 86 19 87 20 88
REMARK SMILES IDX 24 89 21 90 23 91 22 92
REMARK H PARENT 3 6 80 24 50 35 8 73 26 80 26 81
REMARK Flexibility Score: inf
ROOT
ATOM      1  C   UNL A   1      33.069  28.103  25.847  1.00  0.00     0.023 C 
ENDROOT
BRANCH   1   2
ATOM      2  C   UNL A   1      33.748  28.415  27.178  1.00  0.00     0.116 C 
BRANCH   2   3
ATOM      3  N   UNL A   1      33.577  29.794  27.620  1.00  0.00    -0.352 N 
ATOM      4  O   UNL A   1      34.202  31.731  28.607  1.00  0.00    -0.269 OA
ATOM      5  C   UNL A   1      34.508  30.616  28.215  1.00  0.00     0.251 C 
ATOM      6  H   UNL A   1      32.684  30.185  27.476  1.00  0.00     0.163 HD
BRANCH   5   7
ATOM      7  C   UNL A   1      35.878  30.098  28.397  1.00  0.00     0.039 A 
ATOM      8  C   UNL A   1      36.277  29.617  29.647  1.00  0.00     0.014 A 
ATOM      9  C   UNL A   1      36.784  30.179  27.338  1.00  0.00     0.014 A 
ATOM     10  C   UNL A   1      37.621  29.356  29.876  1.00  0.00     0.010 A 
ATOM     11  C   UNL A   1      38.121  29.839  27.553  1.00  0.00     0.010 A 
ATOM     12  C   UNL A   1      38.555  29.461  28.833  1.00  0.00    -0.014 A 
BRANCH  12  13
ATOM     13  C   UNL A   1      39.974  29.119  29.099  1.00  0.00     0.031 A 
ATOM     14  C   UNL A   1      40.542  27.781  28.710  1.00  0.00     0.074 A 
ATOM     15  C   UNL A   1      40.758  30.053  29.669  1.00  0.00     0.049 A 
ATOM     16  N   UNL A   1      41.764  27.337  28.859  1.00  0.00    -0.248 NA
ATOM     17  C   UNL A   1      39.627  26.817  28.078  1.00  0.00     0.031 C 
ATOM     18  C   UNL A   1      40.312  31.385  30.089  1.00  0.00     0.029 A 
ATOM     19  N   UNL A   1      42.094  30.040  29.974  1.00  0.00    -0.354 N 
ATOM     20  C   UNL A   1      41.762  26.037  28.366  1.00  0.00     0.074 A 
ATOM     21  C   UNL A   1      40.413  25.758  27.923  1.00  0.00     0.031 C 
ATOM     22  C   UNL A   1      41.364  32.076  30.550  1.00  0.00     0.029 A 
ATOM     23  C   UNL A   1      42.542  31.219  30.518  1.00  0.00     0.049 A 
ATOM     24  H   UNL A   1      42.676  29.261  29.816  1.00  0.00     0.167 HD
ATOM     25  C   UNL A   1      42.792  25.160  28.291  1.00  0.00     0.031 A 
ATOM     26  C   UNL A   1      43.763  31.569  30.963  1.00  0.00     0.031 A 
ATOM     27  C   UNL A   1      44.134  25.449  28.726  1.00  0.00     0.049 A 
ATOM     28  C   UNL A   1      44.881  30.574  30.879  1.00  0.00     0.074 A 
ATOM     29  C   UNL A   1      45.252  24.634  28.669  1.00  0.00     0.029 A 
ATOM     30  N   UNL A   1      44.541  26.644  29.301  1.00  0.00    -0.354 N 
ATOM     31  N   UNL A   1      44.859  29.355  30.394  1.00  0.00    -0.248 NA
ATOM     32  C   UNL A   1      46.184  30.998  31.404  1.00  0.00     0.031 C 
ATOM     33  C   UNL A   1      46.325  25.322  29.247  1.00  0.00     0.029 A 
ATOM     34  C   UNL A   1      45.887  26.583  29.620  1.00  0.00     0.049 A 
ATOM     35  H   UNL A   1      43.958  27.421  29.458  1.00  0.00     0.167 HD
ATOM     36  C   UNL A   1      46.150  28.868  30.548  1.00  0.00     0.074 A 
ATOM     37  C   UNL A   1      46.930  29.932  31.149  1.00  0.00     0.031 C 
ATOM     38  C   UNL A   1      46.643  27.648  30.225  1.00  0.00     0.031 A 
BRANCH  25  39
ATOM     39  C   UNL A   1      42.508  23.786  27.739  1.00  0.00    -0.014 A 
ATOM     40  C   UNL A   1      42.684  23.499  26.374  1.00  0.00     0.010 A 
ATOM     41  C   UNL A   1      42.124  22.752  28.612  1.00  0.00     0.010 A 
ATOM     42  C   UNL A   1      42.452  22.208  25.887  1.00  0.00     0.020 A 
ATOM     43  C   UNL A   1      41.913  21.455  28.134  1.00  0.00     0.020 A 
ATOM     44  C   UNL A   1      42.064  21.195  26.771  1.00  0.00     0.054 A 
BRANCH  44  45
ATOM     45  S   UNL A   1      41.800  19.522  26.119  1.00  0.00     0.124 S 
ATOM     46  O   UNL A   1      42.722  19.494  24.985  1.00  0.00    -0.237 OA
ATOM     47  O   UNL A   1      42.169  18.674  27.248  1.00  0.00    -0.237 OA
ATOM     48  O   UNL A   1      40.381  19.507  25.769  1.00  0.00    -0.744 OA
ENDBRANCH  44  45
ENDBRANCH  25  39
BRANCH  26  49
ATOM     49  C   UNL A   1      43.969  32.921  31.544  1.00  0.00    -0.014 A 
ATOM     50  C   UNL A   1      44.347  34.001  30.728  1.00  0.00     0.010 A 
ATOM     51  C   UNL A   1      43.745  33.140  32.916  1.00  0.00     0.010 A 
ATOM     52  C   UNL A   1      44.504  35.277  31.278  1.00  0.00     0.020 A 
ATOM     53  C   UNL A   1      43.874  34.420  33.462  1.00  0.00     0.020 A 
ATOM     54  C   UNL A   1      44.265  35.477  32.640  1.00  0.00     0.054 A 
BRANCH  54  55
ATOM     55  S   UNL A   1      44.408  37.152  33.321  1.00  0.00     0.124 S 
ATOM     56  O   UNL A   1      44.287  37.977  32.124  1.00  0.00    -0.237 OA
ATOM     57  O   UNL A   1      43.283  37.216  34.251  1.00  0.00    -0.237 OA
ATOM     58  O   UNL A   1      45.726  37.150  33.952  1.00  0.00    -0.744 OA
ENDBRANCH  54  55
ENDBRANCH  26  49
BRANCH  38  59
ATOM     59  C   UNL A   1      48.102  27.410  30.498  1.00  0.00    -0.014 A 
ATOM     60  C   UNL A   1      48.535  26.947  31.753  1.00  0.00     0.010 A 
ATOM     61  C   UNL A   1      49.045  27.622  29.478  1.00  0.00     0.010 A 
ATOM     62  C   UNL A   1      49.894  26.732  31.993  1.00  0.00     0.020 A 
ATOM     63  C   UNL A   1      50.402  27.386  29.706  1.00  0.00     0.020 A 
ATOM     64  C   UNL A   1      50.819  26.956  30.968  1.00  0.00     0.054 A 
BRANCH  64  65
ATOM     65  S   UNL A   1      52.576  26.638  31.289  1.00  0.00     0.124 S 
ATOM     66  O   UNL A   1      52.514  25.553  32.264  1.00  0.00    -0.237 OA
ATOM     67  O   UNL A   1      53.085  26.271  29.970  1.00  0.00    -0.237 OA
ATOM     68  O   UNL A   1      53.067  27.914  31.807  1.00  0.00    -0.744 OA
ENDBRANCH  64  65
ENDBRANCH  38  59
ENDBRANCH  12  13
ENDBRANCH   5   7
ENDBRANCH   2   3
ENDBRANCH   1   2
BRANCH   1  69
ATOM     69  C   UNL A   1      33.784  27.075  24.971  1.00  0.00     0.023 C 
BRANCH  69  70
ATOM     70  C   UNL A   1      33.861  25.680  25.579  1.00  0.00     0.116 C 
BRANCH  70  71
ATOM     71  N   UNL A   1      32.653  25.325  26.295  1.00  0.00    -0.351 N 
ATOM     72  C   UNL A   1      31.910  24.196  26.412  1.00  0.00     0.279 C 
ATOM     73  H   UNL A   1      32.288  26.074  26.818  1.00  0.00     0.163 HD
ATOM     74  O   UNL A   1      31.020  24.258  27.276  1.00  0.00    -0.268 OA
BRANCH  72  75
ATOM     75  C   UNL A   1      31.977  22.950  25.501  1.00  0.00     0.284 C 
ATOM     76  C   UNL A   1      33.393  22.801  24.900  1.00  0.00     0.151 C 
ATOM     77  N   UNL A   1      31.013  22.798  24.414  1.00  0.00    -0.319 N 
ATOM     78  S   UNL A   1      33.231  22.892  23.087  1.00  0.00    -0.085 SA
ATOM     79  C   UNL A   1      31.491  23.379  23.168  1.00  0.00     0.303 C 
ATOM     80  H   UNL A   1      30.144  23.259  24.679  1.00  0.00     0.348 HD
ATOM     81  H   UNL A   1      30.872  21.799  24.259  1.00  0.00     0.348 HD
BRANCH  79  82
ATOM     82  C   UNL A   1      31.221  24.869  22.994  1.00  0.00     0.162 A 
ATOM     83  N   UNL A   1      31.989  25.667  22.273  1.00  0.00    -0.242 NA
ATOM     84  S   UNL A   1      29.866  25.658  23.704  1.00  0.00    -0.112 S 
ATOM     85  C   UNL A   1      31.492  26.962  22.301  1.00  0.00     0.132 A 
ATOM     86  C   UNL A   1      30.301  27.157  22.983  1.00  0.00     0.055 A 
BRANCH  86  87
ATOM     87  C   UNL A   1      29.461  28.365  23.130  1.00  0.00    -0.007 A 
ATOM     88  C   UNL A   1      30.006  29.630  23.421  1.00  0.00     0.009 A 
ATOM     89  C   UNL A   1      28.063  28.279  23.006  1.00  0.00     0.009 A 
ATOM     90  C   UNL A   1      29.192  30.754  23.593  1.00  0.00     0.001 A 
ATOM     91  C   UNL A   1      27.248  29.404  23.175  1.00  0.00     0.001 A 
ATOM     92  C   UNL A   1      27.813  30.641  23.472  1.00  0.00     0.000 A 
ENDBRANCH  86  87
ENDBRANCH  79  82
ENDBRANCH  72  75
ENDBRANCH  70  71
ENDBRANCH  69  70
ENDBRANCH   1  69
TORSDOF 16
ENDMDL
MODEL 3
REMARK VINA RESULT:     -10.5      2.943      8.782
REMARK SMILES O=C(NCCCCNC(=O)[C@@H]1CS[C@H](c2ncc(-c3ccccc3)s2)[NH2+]1)c1ccc(-c2c3nc(c(-c4ccc(S(=O)(=O)[O-])cc4)c4ccc([nH]4)c(-c4ccc(S(=O)(=O)[O-])cc4)c4nc(c(-c5ccc(S(=O)(=O)[O-])cc5)c5ccc2[nH]5)C=C4)C=C3)cc1
REMARK SMILES IDX 5 1 4 2 3 3 1 4 2 5 27 7 28 8 86 9 29 10 85 11 30 12 31 13
REMARK SMILES IDX 32 14 79 15 33 16 84 17 78 18 80 19 34 20 83 21 77 22 76 23
REMARK SMILES IDX 35 25 65 26 46 27 64 28 47 29 50 30 63 31 81 32 48 33 49 34
REMARK SMILES IDX 62 36 82 37 51 38 36 39 37 40 45 41 38 42 44 43 39 44 40 45
REMARK SMILES IDX 41 46 42 47 43 48 66 49 67 50 75 51 68 52 74 53 69 54 70 55
REMARK SMILES IDX 71 56 72 57 73 58 52 59 53 60 61 61 54 62 60 63 55 64 56 65
REMARK SMILES IDX 57 66 58 67 59 68 6 69 7 70 8 71 9 72 10 74 11 75 12 76
REMARK SMILES IDX 26 77 13 78 14 79 15 82 16 83 25 84 17 85 18 86 19 87 20 88
REMARK SMILES IDX 24 89 21 90 23 91 22 92
REMARK H PARENT 3 6 80 24 50 35 8 73 26 80 26 81
REMARK Flexibility Score: inf
ROOT
ATOM      1  C   UNL A   1      34.706  30.644  27.486  1.00  0.00     0.023 C 
ENDROOT
BRANCH   1   2
ATOM      2  C   UNL A   1      35.878  31.071  28.366  1.00  0.00     0.116 C 
BRANCH   2   3
ATOM      3  N   UNL A   1      35.679  30.805  29.785  1.00  0.00    -0.352 N 
ATOM      4  O   UNL A   1      36.178  29.904  31.800  1.00  0.00    -0.269 OA
ATOM      5  C   UNL A   1      36.510  30.119  30.644  1.00  0.00     0.251 C 
ATOM      6  H   UNL A   1      34.848  31.159  30.178  1.00  0.00     0.163 HD
BRANCH   5   7
ATOM      7  C   UNL A   1      37.795  29.622  30.119  1.00  0.00     0.039 A 
ATOM      8  C   UNL A   1      38.746  29.094  30.998  1.00  0.00     0.014 A 
ATOM      9  C   UNL A   1      38.080  29.766  28.760  1.00  0.00     0.014 A 
ATOM     10  C   UNL A   1      40.033  28.850  30.540  1.00  0.00     0.010 A 
ATOM     11  C   UNL A   1      39.353  29.444  28.288  1.00  0.00     0.010 A 
ATOM     12  C   UNL A   1      40.349  29.019  29.182  1.00  0.00    -0.014 A 
BRANCH  12  13
ATOM     13  C   UNL A   1      41.719  28.694  28.715  1.00  0.00     0.031 A 
ATOM     14  C   UNL A   1      42.813  29.728  28.721  1.00  0.00     0.074 A 
ATOM     15  C   UNL A   1      41.974  27.434  28.315  1.00  0.00     0.049 A 
ATOM     16  N   UNL A   1      44.064  29.596  28.360  1.00  0.00    -0.248 NA
ATOM     17  C   UNL A   1      42.463  31.079  29.186  1.00  0.00     0.031 C 
ATOM     18  C   UNL A   1      40.988  26.351  28.265  1.00  0.00     0.029 A 
ATOM     19  N   UNL A   1      43.137  26.843  27.895  1.00  0.00    -0.354 N 
ATOM     20  C   UNL A   1      44.645  30.848  28.529  1.00  0.00     0.074 A 
ATOM     21  C   UNL A   1      43.606  31.731  29.014  1.00  0.00     0.031 C 
ATOM     22  C   UNL A   1      41.597  25.218  27.888  1.00  0.00     0.029 A 
ATOM     23  C   UNL A   1      42.998  25.507  27.608  1.00  0.00     0.049 A 
ATOM     24  H   UNL A   1      43.989  27.328  27.810  1.00  0.00     0.167 HD
ATOM     25  C   UNL A   1      45.927  31.223  28.300  1.00  0.00     0.031 A 
ATOM     26  C   UNL A   1      43.893  24.612  27.150  1.00  0.00     0.031 A 
ATOM     27  C   UNL A   1      46.956  30.335  27.825  1.00  0.00     0.049 A 
ATOM     28  C   UNL A   1      45.301  25.058  26.893  1.00  0.00     0.074 A 
ATOM     29  C   UNL A   1      48.291  30.615  27.586  1.00  0.00     0.029 A 
ATOM     30  N   UNL A   1      46.769  28.996  27.517  1.00  0.00    -0.354 N 
ATOM     31  N   UNL A   1      45.831  26.244  27.075  1.00  0.00    -0.248 NA
ATOM     32  C   UNL A   1      46.228  24.049  26.369  1.00  0.00     0.031 C 
ATOM     33  C   UNL A   1      48.900  29.455  27.093  1.00  0.00     0.029 A 
ATOM     34  C   UNL A   1      47.956  28.441  27.072  1.00  0.00     0.049 A 
ATOM     35  H   UNL A   1      45.916  28.512  27.602  1.00  0.00     0.167 HD
ATOM     36  C   UNL A   1      47.160  26.122  26.694  1.00  0.00     0.074 A 
ATOM     37  C   UNL A   1      47.357  24.742  26.294  1.00  0.00     0.031 C 
ATOM     38  C   UNL A   1      48.129  27.069  26.671  1.00  0.00     0.031 A 
BRANCH  25  39
ATOM     39  C   UNL A   1      46.290  32.667  28.533  1.00  0.00    -0.014 A 
ATOM     40  C   UNL A   1      46.765  33.107  29.781  1.00  0.00     0.010 A 
ATOM     41  C   UNL A   1      46.217  33.583  27.467  1.00  0.00     0.010 A 
ATOM     42  C   UNL A   1      47.134  34.443  29.966  1.00  0.00     0.020 A 
ATOM     43  C   UNL A   1      46.605  34.915  27.642  1.00  0.00     0.020 A 
ATOM     44  C   UNL A   1      47.048  35.339  28.896  1.00  0.00     0.054 A 
BRANCH  44  45
ATOM     45  S   UNL A   1      47.561  37.061  29.155  1.00  0.00     0.124 S 
ATOM     46  O   UNL A   1      46.295  37.776  29.016  1.00  0.00    -0.237 OA
ATOM     47  O   UNL A   1      48.119  37.031  30.505  1.00  0.00    -0.237 OA
ATOM     48  O   UNL A   1      48.532  37.297  28.089  1.00  0.00    -0.744 OA
ENDBRANCH  44  45
ENDBRANCH  25  39
BRANCH  26  49
ATOM     49  C   UNL A   1      43.462  23.213  26.891  1.00  0.00    -0.014 A 
ATOM     50  C   UNL A   1      43.523  22.674  25.595  1.00  0.00     0.010 A 
ATOM     51  C   UNL A   1      43.028  22.401  27.955  1.00  0.00     0.010 A 
ATOM     52  C   UNL A   1      43.150  21.347  25.367  1.00  0.00     0.020 A 
ATOM     53  C   UNL A   1      42.681  21.067  27.734  1.00  0.00     0.020 A 
ATOM     54  C   UNL A   1      42.733  20.552  26.438  1.00  0.00     0.054 A 
BRANCH  54  55
ATOM     55  S   UNL A   1      42.317  18.813  26.135  1.00  0.00     0.124 S 
ATOM     56  O   UNL A   1      43.297  18.440  25.119  1.00  0.00    -0.237 OA
ATOM     57  O   UNL A   1      42.505  18.205  27.450  1.00  0.00    -0.237 OA
ATOM     58  O   UNL A   1      40.930  18.871  25.678  1.00  0.00    -0.744 OA
ENDBRANCH  54  55
ENDBRANCH  26  49
BRANCH  38  59
ATOM     59  C   UNL A   1      49.495  26.634  26.218  1.00  0.00    -0.014 A 
ATOM     60  C   UNL A   1      49.906  26.817  24.886  1.00  0.00     0.010 A 
ATOM     61  C   UNL A   1      50.387  26.064  27.143  1.00  0.00     0.010 A 
ATOM     62  C   UNL A   1      51.178  26.407  24.479  1.00  0.00     0.020 A 
ATOM     63  C   UNL A   1      51.667  25.673  26.746  1.00  0.00     0.020 A 
ATOM     64  C   UNL A   1      52.049  25.833  25.411  1.00  0.00     0.054 A 
BRANCH  64  65
ATOM     65  S   UNL A   1      53.708  25.337  24.870  1.00  0.00     0.124 S 
ATOM     66  O   UNL A   1      53.808  25.987  23.567  1.00  0.00    -0.237 OA
ATOM     67  O   UNL A   1      54.567  25.889  25.916  1.00  0.00    -0.237 OA
ATOM     68  O   UNL A   1      53.636  23.878  24.836  1.00  0.00    -0.744 OA
ENDBRANCH  64  65
ENDBRANCH  38  59
ENDBRANCH  12  13
ENDBRANCH   5   7
ENDBRANCH   2   3
ENDBRANCH   1   2
BRANCH   1  69
ATOM     69  C   UNL A   1      34.567  29.138  27.264  1.00  0.00     0.023 C 
BRANCH  69  70
ATOM     70  C   UNL A   1      33.367  28.738  26.414  1.00  0.00     0.116 C 
BRANCH  70  71
ATOM     71  N   UNL A   1      32.779  27.488  26.846  1.00  0.00    -0.351 N 
ATOM     72  C   UNL A   1      32.087  26.495  26.233  1.00  0.00     0.279 C 
ATOM     73  H   UNL A   1      32.912  27.318  27.806  1.00  0.00     0.163 HD
ATOM     74  O   UNL A   1      31.901  25.491  26.937  1.00  0.00    -0.268 OA
BRANCH  72  75
ATOM     75  C   UNL A   1      31.413  26.565  24.844  1.00  0.00     0.284 C 
ATOM     76  C   UNL A   1      30.207  25.602  24.783  1.00  0.00     0.151 C 
ATOM     77  N   UNL A   1      32.215  26.352  23.641  1.00  0.00    -0.319 N 
ATOM     78  S   UNL A   1      30.536  24.392  23.462  1.00  0.00    -0.085 SA
ATOM     79  C   UNL A   1      32.241  24.954  23.238  1.00  0.00     0.303 C 
ATOM     80  H   UNL A   1      33.169  26.660  23.824  1.00  0.00     0.348 HD
ATOM     81  H   UNL A   1      31.790  26.888  22.884  1.00  0.00     0.348 HD
BRANCH  79  82
ATOM     82  C   UNL A   1      33.305  24.097  23.913  1.00  0.00     0.162 A 
ATOM     83  N   UNL A   1      33.122  22.828  24.232  1.00  0.00    -0.242 NA
ATOM     84  S   UNL A   1      34.870  24.697  24.309  1.00  0.00    -0.112 S 
ATOM     85  C   UNL A   1      34.264  22.316  24.831  1.00  0.00     0.132 A 
ATOM     86  C   UNL A   1      35.357  23.163  24.915  1.00  0.00     0.055 A 
BRANCH  86  87
ATOM     87  C   UNL A   1      36.732  22.918  25.398  1.00  0.00    -0.007 A 
ATOM     88  C   UNL A   1      37.385  21.683  25.219  1.00  0.00     0.009 A 
ATOM     89  C   UNL A   1      37.434  23.922  26.088  1.00  0.00     0.009 A 
ATOM     90  C   UNL A   1      38.672  21.457  25.715  1.00  0.00     0.001 A 
ATOM     91  C   UNL A   1      38.724  23.698  26.583  1.00  0.00     0.001 A 
ATOM     92  C   UNL A   1      39.341  22.464  26.399  1.00  0.00     0.000 A 
ENDBRANCH  86  87
ENDBRANCH  79  82
ENDBRANCH  72  75
ENDBRANCH  70  71
ENDBRANCH  69  70
ENDBRANCH   1  69
TORSDOF 16
ENDMDL
