MODEL 1
REMARK VINA RESULT:     -11.1      0.000      0.000
REMARK SMILES CCC[NH+]1CCN(C(=O)N[C@H]2C=C[C@@H](C(=O)NCCCCNC(=O)c3ccc(-c4c5nc(c(-c6ccc(S(=O)(=O)[O-])cc6)c6ccc([nH]6)c(-c6ccc(S(=O)(=O)[O-])cc6)c6nc(c(-c7ccc(S(=O)(=O)[O-])cc7)c7ccc4[nH]7)C=C6)C=C5)cc3)C2)CC1
REMARK SMILES IDX 19 1 18 2 17 3 15 4 16 5 14 7 11 8 12 9 85 10 13 11 10 12
REMARK SMILES IDX 4 13 5 14 87 15 6 17 86 18 7 19 8 20 9 21 3 23 2 24 1 25
REMARK SMILES IDX 20 26 21 27 22 28 23 29 24 31 25 32 26 33 84 34 27 35 83 36
REMARK SMILES IDX 28 37 29 38 30 39 77 40 31 41 82 42 76 43 78 44 32 45 81 46
REMARK SMILES IDX 75 47 74 48 33 50 63 51 44 52 62 53 45 54 48 55 61 56 79 57
REMARK SMILES IDX 46 58 47 59 60 61 80 62 49 63 34 64 35 65 43 66 36 67 42 68
REMARK SMILES IDX 37 69 38 70 39 71 40 72 41 73 64 74 65 75 73 76 66 77 72 78
REMARK SMILES IDX 67 79 68 80 69 81 70 82 71 83 50 84 51 85 59 86 52 87 58 88
REMARK SMILES IDX 53 89 54 90 55 91 56 92 57 93
REMARK H PARENT 17 6 4 16 10 22 22 30 78 49 48 60
REMARK Flexibility Score: inf
ROOT
ATOM      1  C   UNL A   1      31.685  28.945  25.697  1.00  0.00     0.023 C 
ENDROOT
BRANCH   1   2
ATOM      2  C   UNL A   1      32.336  29.005  24.320  1.00  0.00     0.116 C 
BRANCH   2   3
ATOM      3  N   UNL A   1      31.417  29.450  23.292  1.00  0.00    -0.356 N 
ATOM      4  C   UNL A   1      30.595  28.738  22.471  1.00  0.00     0.227 C 
ATOM      5  O   UNL A   1      29.866  29.371  21.701  1.00  0.00    -0.274 OA
ATOM      6  H   UNL A   1      31.379  30.426  23.166  1.00  0.00     0.163 HD
BRANCH   4   7
ATOM      7  C   UNL A   1      30.569  27.206  22.459  1.00  0.00     0.103 C 
ATOM      8  C   UNL A   1      31.917  25.401  23.442  1.00  0.00     0.107 C 
ATOM      9  C   UNL A   1      30.637  25.619  24.188  1.00  0.00    -0.006 C 
ATOM     10  C   UNL A   1      31.962  26.568  22.443  1.00  0.00     0.047 C 
ATOM     11  C   UNL A   1      29.892  26.587  23.642  1.00  0.00    -0.016 C 
BRANCH   8  12
ATOM     12  N   UNL A   1      33.021  25.450  24.369  1.00  0.00    -0.332 N 
ATOM     13  N   UNL A   1      32.971  20.691  25.239  1.00  0.00    -0.332 N 
ATOM     14  C   UNL A   1      34.016  21.442  26.001  1.00  0.00     0.284 C 
ATOM     15  C   UNL A   1      32.235  21.639  24.362  1.00  0.00     0.284 C 
ATOM     16  H   UNL A   1      32.319  20.271  25.901  1.00  0.00     0.348 HD
ATOM     17  C   UNL A   1      34.898  22.393  25.150  1.00  0.00     0.183 C 
ATOM     18  C   UNL A   1      33.154  22.526  23.498  1.00  0.00     0.183 C 
ATOM     19  N   UNL A   1      34.037  23.290  24.372  1.00  0.00    -0.314 N 
ATOM     20  C   UNL A   1      33.975  24.592  24.770  1.00  0.00     0.318 C 
ATOM     21  O   UNL A   1      34.788  25.065  25.569  1.00  0.00    -0.249 OA
ATOM     22  H   UNL A   1      33.095  26.324  24.816  1.00  0.00     0.165 HD
BRANCH  13  23
ATOM     23  C   UNL A   1      33.553  19.584  24.463  1.00  0.00     0.262 C 
BRANCH  23  24
ATOM     24  C   UNL A   1      32.531  18.473  24.186  1.00  0.00     0.058 C 
ATOM     25  C   UNL A   1      32.345  18.211  22.697  1.00  0.00     0.010 C 
ENDBRANCH  23  24
ENDBRANCH  13  23
ENDBRANCH   8  12
ENDBRANCH   4   7
ENDBRANCH   2   3
ENDBRANCH   1   2
BRANCH   1  26
ATOM     26  C   UNL A   1      32.396  28.038  26.699  1.00  0.00     0.023 C 
BRANCH  26  27
ATOM     27  C   UNL A   1      33.712  28.578  27.247  1.00  0.00     0.116 C 
BRANCH  27  28
ATOM     28  N   UNL A   1      33.649  29.983  27.621  1.00  0.00    -0.352 N 
ATOM     29  C   UNL A   1      34.616  30.760  28.216  1.00  0.00     0.251 C 
ATOM     30  H   UNL A   1      32.799  30.439  27.420  1.00  0.00     0.163 HD
ATOM     31  O   UNL A   1      34.360  31.906  28.562  1.00  0.00    -0.269 OA
BRANCH  29  32
ATOM     32  C   UNL A   1      35.953  30.184  28.469  1.00  0.00     0.039 A 
ATOM     33  C   UNL A   1      36.904  30.212  27.446  1.00  0.00     0.014 A 
ATOM     34  C   UNL A   1      36.279  29.654  29.720  1.00  0.00     0.014 A 
ATOM     35  C   UNL A   1      38.203  29.771  27.700  1.00  0.00     0.010 A 
ATOM     36  C   UNL A   1      37.593  29.287  29.994  1.00  0.00     0.010 A 
ATOM     37  C   UNL A   1      38.569  29.339  28.986  1.00  0.00    -0.014 A 
BRANCH  37  38
ATOM     38  C   UNL A   1      39.966  28.942  29.296  1.00  0.00     0.031 A 
ATOM     39  C   UNL A   1      40.901  29.917  29.960  1.00  0.00     0.074 A 
ATOM     40  C   UNL A   1      40.412  27.725  28.926  1.00  0.00     0.049 A 
ATOM     41  N   UNL A   1      42.162  29.768  30.272  1.00  0.00    -0.248 NA
ATOM     42  C   UNL A   1      40.353  31.244  30.291  1.00  0.00     0.031 C 
ATOM     43  C   UNL A   1      39.620  26.707  28.229  1.00  0.00     0.029 A 
ATOM     44  N   UNL A   1      41.642  27.137  29.078  1.00  0.00    -0.354 N 
ATOM     45  C   UNL A   1      42.563  30.981  30.818  1.00  0.00     0.074 A 
ATOM     46  C   UNL A   1      41.427  31.873  30.746  1.00  0.00     0.031 C 
ATOM     47  C   UNL A   1      40.376  25.613  28.043  1.00  0.00     0.029 A 
ATOM     48  C   UNL A   1      41.714  25.861  28.571  1.00  0.00     0.049 A 
ATOM     49  H   UNL A   1      42.404  27.587  29.512  1.00  0.00     0.167 HD
ATOM     50  C   UNL A   1      43.762  31.319  31.349  1.00  0.00     0.031 A 
ATOM     51  C   UNL A   1      42.739  24.988  28.533  1.00  0.00     0.031 A 
ATOM     52  C   UNL A   1      44.886  30.424  31.434  1.00  0.00     0.049 A 
ATOM     53  C   UNL A   1      44.058  25.381  29.140  1.00  0.00     0.074 A 
ATOM     54  C   UNL A   1      46.124  30.649  32.010  1.00  0.00     0.029 A 
ATOM     55  N   UNL A   1      44.911  29.134  30.927  1.00  0.00    -0.354 N 
ATOM     56  N   UNL A   1      44.396  26.510  29.716  1.00  0.00    -0.248 NA
ATOM     57  C   UNL A   1      45.129  24.376  29.105  1.00  0.00     0.031 C 
ATOM     58  C   UNL A   1      46.913  29.513  31.808  1.00  0.00     0.029 A 
ATOM     59  C   UNL A   1      46.149  28.558  31.158  1.00  0.00     0.049 A 
ATOM     60  H   UNL A   1      44.159  28.691  30.470  1.00  0.00     0.167 HD
ATOM     61  C   UNL A   1      45.711  26.340  30.137  1.00  0.00     0.074 A 
ATOM     62  C   UNL A   1      46.099  24.996  29.763  1.00  0.00     0.031 C 
ATOM     63  C   UNL A   1      46.522  27.219  30.777  1.00  0.00     0.031 A 
BRANCH  50  64
ATOM     64  C   UNL A   1      43.918  32.719  31.882  1.00  0.00    -0.014 A 
ATOM     65  C   UNL A   1      43.599  33.029  33.217  1.00  0.00     0.010 A 
ATOM     66  C   UNL A   1      44.421  33.733  31.046  1.00  0.00     0.010 A 
ATOM     67  C   UNL A   1      43.739  34.335  33.694  1.00  0.00     0.020 A 
ATOM     68  C   UNL A   1      44.590  35.034  31.529  1.00  0.00     0.020 A 
ATOM     69  C   UNL A   1      44.230  35.330  32.845  1.00  0.00     0.054 A 
BRANCH  69  70
ATOM     70  S   UNL A   1      44.420  37.013  33.496  1.00  0.00     0.124 S 
ATOM     71  O   UNL A   1      43.288  37.702  32.880  1.00  0.00    -0.237 OA
ATOM     72  O   UNL A   1      44.322  36.810  34.939  1.00  0.00    -0.237 OA
ATOM     73  O   UNL A   1      45.735  37.425  33.015  1.00  0.00    -0.744 OA
ENDBRANCH  69  70
ENDBRANCH  50  64
BRANCH  51  74
ATOM     74  C   UNL A   1      42.549  23.646  27.917  1.00  0.00    -0.014 A 
ATOM     75  C   UNL A   1      42.831  23.439  26.556  1.00  0.00     0.010 A 
ATOM     76  C   UNL A   1      42.098  22.564  28.695  1.00  0.00     0.010 A 
ATOM     77  C   UNL A   1      42.647  22.179  25.977  1.00  0.00     0.020 A 
ATOM     78  C   UNL A   1      41.940  21.296  28.126  1.00  0.00     0.020 A 
ATOM     79  C   UNL A   1      42.204  21.114  26.768  1.00  0.00     0.054 A 
BRANCH  79  80
ATOM     80  S   UNL A   1      42.024  19.476  26.009  1.00  0.00     0.124 S 
ATOM     81  O   UNL A   1      40.585  19.407  25.775  1.00  0.00    -0.237 OA
ATOM     82  O   UNL A   1      42.855  19.588  24.813  1.00  0.00    -0.237 OA
ATOM     83  O   UNL A   1      42.538  18.568  27.032  1.00  0.00    -0.744 OA
ENDBRANCH  79  80
ENDBRANCH  51  74
BRANCH  63  84
ATOM     84  C   UNL A   1      47.902  26.743  31.145  1.00  0.00    -0.014 A 
ATOM     85  C   UNL A   1      48.141  26.050  32.344  1.00  0.00     0.010 A 
ATOM     86  C   UNL A   1      48.968  26.954  30.250  1.00  0.00     0.010 A 
ATOM     87  C   UNL A   1      49.430  25.610  32.659  1.00  0.00     0.020 A 
ATOM     88  C   UNL A   1      50.251  26.491  30.548  1.00  0.00     0.020 A 
ATOM     89  C   UNL A   1      50.476  25.835  31.760  1.00  0.00     0.054 A 
BRANCH  89  90
ATOM     90  S   UNL A   1      52.133  25.224  32.176  1.00  0.00     0.124 S 
ATOM     91  O   UNL A   1      52.921  25.678  31.033  1.00  0.00    -0.237 OA
ATOM     92  O   UNL A   1      52.416  25.898  33.441  1.00  0.00    -0.237 OA
ATOM     93  O   UNL A   1      51.955  23.777  32.274  1.00  0.00    -0.744 OA
ENDBRANCH  89  90
ENDBRANCH  63  84
ENDBRANCH  37  38
ENDBRANCH  29  32
ENDBRANCH  27  28
ENDBRANCH  26  27
ENDBRANCH   1  26
TORSDOF 17
ENDMDL
MODEL 2
REMARK VINA RESULT:     -10.7      3.304      4.382
REMARK SMILES CCC[NH+]1CCN(C(=O)N[C@H]2C=C[C@@H](C(=O)NCCCCNC(=O)c3ccc(-c4c5nc(c(-c6ccc(S(=O)(=O)[O-])cc6)c6ccc([nH]6)c(-c6ccc(S(=O)(=O)[O-])cc6)c6nc(c(-c7ccc(S(=O)(=O)[O-])cc7)c7ccc4[nH]7)C=C6)C=C5)cc3)C2)CC1
REMARK SMILES IDX 19 1 18 2 17 3 15 4 16 5 14 7 11 8 12 9 85 10 13 11 10 12
REMARK SMILES IDX 4 13 5 14 87 15 6 17 86 18 7 19 8 20 9 21 3 23 2 24 1 25
REMARK SMILES IDX 20 26 21 27 22 28 23 29 24 31 25 32 26 33 84 34 27 35 83 36
REMARK SMILES IDX 28 37 29 38 30 39 77 40 31 41 82 42 76 43 78 44 32 45 81 46
REMARK SMILES IDX 75 47 74 48 33 50 63 51 44 52 62 53 45 54 48 55 61 56 79 57
REMARK SMILES IDX 46 58 47 59 60 61 80 62 49 63 34 64 35 65 43 66 36 67 42 68
REMARK SMILES IDX 37 69 38 70 39 71 40 72 41 73 64 74 65 75 73 76 66 77 72 78
REMARK SMILES IDX 67 79 68 80 69 81 70 82 71 83 50 84 51 85 59 86 52 87 58 88
REMARK SMILES IDX 53 89 54 90 55 91 56 92 57 93
REMARK H PARENT 17 6 4 16 10 22 22 30 78 49 48 60
REMARK Flexibility Score: inf
ROOT
ATOM      1  C   UNL A   1      35.863  33.068  28.068  1.00  0.00     0.023 C 
ENDROOT
BRANCH   1   2
ATOM      2  C   UNL A   1      35.307  31.655  27.943  1.00  0.00     0.116 C 
BRANCH   2   3
ATOM      3  N   UNL A   1      33.908  31.642  27.564  1.00  0.00    -0.356 N 
ATOM      4  C   UNL A   1      33.160  30.665  26.978  1.00  0.00     0.227 C 
ATOM      5  O   UNL A   1      31.959  30.894  26.800  1.00  0.00    -0.274 OA
ATOM      6  H   UNL A   1      33.419  32.472  27.763  1.00  0.00     0.163 HD
BRANCH   4   7
ATOM      7  C   UNL A   1      33.758  29.332  26.519  1.00  0.00     0.103 C 
ATOM      8  C   UNL A   1      32.921  27.054  26.123  1.00  0.00     0.107 C 
ATOM      9  C   UNL A   1      33.116  27.814  24.847  1.00  0.00    -0.006 C 
ATOM     10  C   UNL A   1      33.147  28.112  27.216  1.00  0.00     0.047 C 
ATOM     11  C   UNL A   1      33.591  29.046  25.059  1.00  0.00    -0.016 C 
BRANCH   8  12
ATOM     12  N   UNL A   1      31.579  26.526  26.161  1.00  0.00    -0.332 N 
ATOM     13  N   UNL A   1      32.907  22.076  24.808  1.00  0.00    -0.332 N 
ATOM     14  C   UNL A   1      31.437  22.235  25.030  1.00  0.00     0.284 C 
ATOM     15  C   UNL A   1      33.586  23.362  25.114  1.00  0.00     0.284 C 
ATOM     16  H   UNL A   1      33.069  21.835  23.830  1.00  0.00     0.348 HD
ATOM     17  C   UNL A   1      31.041  22.901  26.374  1.00  0.00     0.183 C 
ATOM     18  C   UNL A   1      33.200  23.958  26.482  1.00  0.00     0.183 C 
ATOM     19  N   UNL A   1      31.757  24.173  26.518  1.00  0.00    -0.314 N 
ATOM     20  C   UNL A   1      31.031  25.316  26.364  1.00  0.00     0.318 C 
ATOM     21  O   UNL A   1      29.796  25.305  26.368  1.00  0.00    -0.249 OA
ATOM     22  H   UNL A   1      30.900  27.220  26.000  1.00  0.00     0.165 HD
BRANCH  13  23
ATOM     23  C   UNL A   1      33.462  20.973  25.609  1.00  0.00     0.262 C 
BRANCH  23  24
ATOM     24  C   UNL A   1      33.645  19.693  24.780  1.00  0.00     0.058 C 
ATOM     25  C   UNL A   1      32.863  18.516  25.346  1.00  0.00     0.010 C 
ENDBRANCH  23  24
ENDBRANCH  13  23
ENDBRANCH   8  12
ENDBRANCH   4   7
ENDBRANCH   2   3
ENDBRANCH   1   2
BRANCH   1  26
ATOM     26  C   UNL A   1      35.748  33.677  29.464  1.00  0.00     0.023 C 
BRANCH  26  27
ATOM     27  C   UNL A   1      36.738  33.142  30.492  1.00  0.00     0.116 C 
BRANCH  27  28
ATOM     28  N   UNL A   1      36.250  31.975  31.211  1.00  0.00    -0.352 N 
ATOM     29  C   UNL A   1      36.837  30.737  31.342  1.00  0.00     0.251 C 
ATOM     30  H   UNL A   1      35.384  32.087  31.666  1.00  0.00     0.163 HD
ATOM     31  O   UNL A   1      36.237  29.826  31.898  1.00  0.00    -0.269 OA
BRANCH  29  32
ATOM     32  C   UNL A   1      38.180  30.508  30.770  1.00  0.00     0.039 A 
ATOM     33  C   UNL A   1      39.262  30.342  31.638  1.00  0.00     0.014 A 
ATOM     34  C   UNL A   1      38.364  30.420  29.388  1.00  0.00     0.014 A 
ATOM     35  C   UNL A   1      40.518  30.019  31.120  1.00  0.00     0.010 A 
ATOM     36  C   UNL A   1      39.597  30.022  28.880  1.00  0.00     0.010 A 
ATOM     37  C   UNL A   1      40.688  29.820  29.740  1.00  0.00    -0.014 A 
BRANCH  37  38
ATOM     38  C   UNL A   1      41.996  29.398  29.179  1.00  0.00     0.031 A 
ATOM     39  C   UNL A   1      43.115  30.395  29.036  1.00  0.00     0.074 A 
ATOM     40  C   UNL A   1      42.160  28.133  28.743  1.00  0.00     0.049 A 
ATOM     41  N   UNL A   1      44.311  30.226  28.535  1.00  0.00    -0.248 NA
ATOM     42  C   UNL A   1      42.845  31.769  29.492  1.00  0.00     0.031 C 
ATOM     43  C   UNL A   1      41.137  27.085  28.777  1.00  0.00     0.029 A 
ATOM     44  N   UNL A   1      43.247  27.513  28.179  1.00  0.00    -0.354 N 
ATOM     45  C   UNL A   1      44.928  31.470  28.597  1.00  0.00     0.074 A 
ATOM     46  C   UNL A   1      43.957  32.396  29.136  1.00  0.00     0.031 C 
ATOM     47  C   UNL A   1      41.654  25.948  28.286  1.00  0.00     0.029 A 
ATOM     48  C   UNL A   1      43.031  26.192  27.868  1.00  0.00     0.049 A 
ATOM     49  H   UNL A   1      44.103  27.972  28.014  1.00  0.00     0.167 HD
ATOM     50  C   UNL A   1      46.194  31.808  28.256  1.00  0.00     0.031 A 
ATOM     51  C   UNL A   1      43.847  25.278  27.307  1.00  0.00     0.031 A 
ATOM     52  C   UNL A   1      47.163  30.881  27.735  1.00  0.00     0.049 A 
ATOM     53  C   UNL A   1      45.252  25.674  26.947  1.00  0.00     0.074 A 
ATOM     54  C   UNL A   1      48.490  31.111  27.416  1.00  0.00     0.029 A 
ATOM     55  N   UNL A   1      46.911  29.547  27.453  1.00  0.00    -0.354 N 
ATOM     56  N   UNL A   1      45.839  26.840  27.081  1.00  0.00    -0.248 NA
ATOM     57  C   UNL A   1      46.110  24.627  26.376  1.00  0.00     0.031 C 
ATOM     58  C   UNL A   1      49.026  29.929  26.897  1.00  0.00     0.029 A 
ATOM     59  C   UNL A   1      48.051  28.947  26.946  1.00  0.00     0.049 A 
ATOM     60  H   UNL A   1      46.048  29.093  27.593  1.00  0.00     0.167 HD
ATOM     61  C   UNL A   1      47.144  26.659  26.634  1.00  0.00     0.074 A 
ATOM     62  C   UNL A   1      47.264  25.269  26.243  1.00  0.00     0.031 C 
ATOM     63  C   UNL A   1      48.153  27.563  26.558  1.00  0.00     0.031 A 
BRANCH  50  64
ATOM     64  C   UNL A   1      46.602  33.247  28.437  1.00  0.00    -0.014 A 
ATOM     65  C   UNL A   1      47.141  33.702  29.655  1.00  0.00     0.010 A 
ATOM     66  C   UNL A   1      46.476  34.150  27.365  1.00  0.00     0.010 A 
ATOM     67  C   UNL A   1      47.505  35.042  29.811  1.00  0.00     0.020 A 
ATOM     68  C   UNL A   1      46.868  35.484  27.509  1.00  0.00     0.020 A 
ATOM     69  C   UNL A   1      47.363  35.926  28.738  1.00  0.00     0.054 A 
BRANCH  69  70
ATOM     70  S   UNL A   1      47.862  37.655  28.963  1.00  0.00     0.124 S 
ATOM     71  O   UNL A   1      47.505  37.891  30.361  1.00  0.00    -0.237 OA
ATOM     72  O   UNL A   1      49.293  37.615  28.679  1.00  0.00    -0.237 OA
ATOM     73  O   UNL A   1      47.055  38.379  27.985  1.00  0.00    -0.744 OA
ENDBRANCH  69  70
ENDBRANCH  50  64
BRANCH  51  74
ATOM     74  C   UNL A   1      43.360  23.890  27.075  1.00  0.00    -0.014 A 
ATOM     75  C   UNL A   1      43.299  22.969  28.135  1.00  0.00     0.010 A 
ATOM     76  C   UNL A   1      42.943  23.488  25.793  1.00  0.00     0.010 A 
ATOM     77  C   UNL A   1      42.846  21.664  27.914  1.00  0.00     0.020 A 
ATOM     78  C   UNL A   1      42.463  22.192  25.575  1.00  0.00     0.020 A 
ATOM     79  C   UNL A   1      42.429  21.285  26.635  1.00  0.00     0.054 A 
BRANCH  79  80
ATOM     80  S   UNL A   1      41.795  19.603  26.383  1.00  0.00     0.124 S 
ATOM     81  O   UNL A   1      42.451  19.215  25.138  1.00  0.00    -0.237 OA
ATOM     82  O   UNL A   1      42.253  18.909  27.583  1.00  0.00    -0.237 OA
ATOM     83  O   UNL A   1      40.349  19.794  26.297  1.00  0.00    -0.744 OA
ENDBRANCH  79  80
ENDBRANCH  51  74
BRANCH  63  84
ATOM     84  C   UNL A   1      49.486  27.069  26.061  1.00  0.00    -0.014 A 
ATOM     85  C   UNL A   1      50.405  26.451  26.926  1.00  0.00     0.010 A 
ATOM     86  C   UNL A   1      49.801  27.186  24.695  1.00  0.00     0.010 A 
ATOM     87  C   UNL A   1      51.633  25.992  26.441  1.00  0.00     0.020 A 
ATOM     88  C   UNL A   1      51.016  26.703  24.200  1.00  0.00     0.020 A 
ATOM     89  C   UNL A   1      51.930  26.123  25.081  1.00  0.00     0.054 A 
BRANCH  89  90
ATOM     90  S   UNL A   1      53.516  25.489  24.468  1.00  0.00     0.124 S 
ATOM     91  O   UNL A   1      53.468  25.864  23.058  1.00  0.00    -0.237 OA
ATOM     92  O   UNL A   1      54.488  26.218  25.279  1.00  0.00    -0.237 OA
ATOM     93  O   UNL A   1      53.442  24.055  24.734  1.00  0.00    -0.744 OA
ENDBRANCH  89  90
ENDBRANCH  63  84
ENDBRANCH  37  38
ENDBRANCH  29  32
ENDBRANCH  27  28
ENDBRANCH  26  27
ENDBRANCH   1  26
TORSDOF 17
ENDMDL
MODEL 3
REMARK VINA RESULT:     -10.3      3.431      9.042
REMARK SMILES CCC[NH+]1CCN(C(=O)N[C@H]2C=C[C@@H](C(=O)NCCCCNC(=O)c3ccc(-c4c5nc(c(-c6ccc(S(=O)(=O)[O-])cc6)c6ccc([nH]6)c(-c6ccc(S(=O)(=O)[O-])cc6)c6nc(c(-c7ccc(S(=O)(=O)[O-])cc7)c7ccc4[nH]7)C=C6)C=C5)cc3)C2)CC1
REMARK SMILES IDX 19 1 18 2 17 3 15 4 16 5 14 7 11 8 12 9 85 10 13 11 10 12
REMARK SMILES IDX 4 13 5 14 87 15 6 17 86 18 7 19 8 20 9 21 3 23 2 24 1 25
REMARK SMILES IDX 20 26 21 27 22 28 23 29 24 31 25 32 26 33 84 34 27 35 83 36
REMARK SMILES IDX 28 37 29 38 30 39 77 40 31 41 82 42 76 43 78 44 32 45 81 46
REMARK SMILES IDX 75 47 74 48 33 50 63 51 44 52 62 53 45 54 48 55 61 56 79 57
REMARK SMILES IDX 46 58 47 59 60 61 80 62 49 63 34 64 35 65 43 66 36 67 42 68
REMARK SMILES IDX 37 69 38 70 39 71 40 72 41 73 64 74 65 75 73 76 66 77 72 78
REMARK SMILES IDX 67 79 68 80 69 81 70 82 71 83 50 84 51 85 59 86 52 87 58 88
REMARK SMILES IDX 53 89 54 90 55 91 56 92 57 93
REMARK H PARENT 17 6 4 16 10 22 22 30 78 49 48 60
REMARK Flexibility Score: inf
ROOT
ATOM      1  C   UNL A   1      35.551  32.808  28.012  1.00  0.00     0.023 C 
ENDROOT
BRANCH   1   2
ATOM      2  C   UNL A   1      34.762  31.518  28.200  1.00  0.00     0.116 C 
BRANCH   2   3
ATOM      3  N   UNL A   1      33.493  31.537  27.499  1.00  0.00    -0.356 N 
ATOM      4  C   UNL A   1      32.927  30.614  26.672  1.00  0.00     0.227 C 
ATOM      5  O   UNL A   1      31.798  30.857  26.233  1.00  0.00    -0.274 OA
ATOM      6  H   UNL A   1      32.954  32.347  27.644  1.00  0.00     0.163 HD
BRANCH   4   7
ATOM      7  C   UNL A   1      33.645  29.326  26.259  1.00  0.00     0.103 C 
ATOM      8  C   UNL A   1      33.056  26.946  26.080  1.00  0.00     0.107 C 
ATOM      9  C   UNL A   1      33.073  27.624  24.745  1.00  0.00    -0.006 C 
ATOM     10  C   UNL A   1      33.231  28.101  27.080  1.00  0.00     0.047 C 
ATOM     11  C   UNL A   1      33.414  28.915  24.837  1.00  0.00    -0.016 C 
BRANCH   8  12
ATOM     12  N   UNL A   1      31.792  26.274  26.256  1.00  0.00    -0.332 N 
ATOM     13  N   UNL A   1      33.234  22.213  24.059  1.00  0.00    -0.332 N 
ATOM     14  C   UNL A   1      31.818  22.181  24.537  1.00  0.00     0.284 C 
ATOM     15  C   UNL A   1      33.845  23.513  24.439  1.00  0.00     0.284 C 
ATOM     16  H   UNL A   1      33.241  22.122  23.044  1.00  0.00     0.348 HD
ATOM     17  C   UNL A   1      31.608  22.616  26.012  1.00  0.00     0.183 C 
ATOM     18  C   UNL A   1      33.655  23.878  25.925  1.00  0.00     0.183 C 
ATOM     19  N   UNL A   1      32.228  23.928  26.225  1.00  0.00    -0.314 N 
ATOM     20  C   UNL A   1      31.393  24.996  26.363  1.00  0.00     0.318 C 
ATOM     21  O   UNL A   1      30.183  24.850  26.565  1.00  0.00    -0.249 OA
ATOM     22  H   UNL A   1      31.039  26.905  26.312  1.00  0.00     0.165 HD
BRANCH  13  23
ATOM     23  C   UNL A   1      34.012  21.080  24.587  1.00  0.00     0.262 C 
BRANCH  23  24
ATOM     24  C   UNL A   1      33.295  19.739  24.376  1.00  0.00     0.058 C 
ATOM     25  C   UNL A   1      34.220  18.546  24.577  1.00  0.00     0.010 C 
ENDBRANCH  23  24
ENDBRANCH  13  23
ENDBRANCH   8  12
ENDBRANCH   4   7
ENDBRANCH   2   3
ENDBRANCH   1   2
BRANCH   1  26
ATOM     26  C   UNL A   1      35.736  33.633  29.284  1.00  0.00     0.023 C 
BRANCH  26  27
ATOM     27  C   UNL A   1      36.742  33.074  30.283  1.00  0.00     0.116 C 
BRANCH  27  28
ATOM     28  N   UNL A   1      36.274  31.876  30.965  1.00  0.00    -0.352 N 
ATOM     29  C   UNL A   1      36.888  30.650  31.068  1.00  0.00     0.251 C 
ATOM     30  H   UNL A   1      35.401  31.956  31.414  1.00  0.00     0.163 HD
ATOM     31  O   UNL A   1      36.303  29.710  31.594  1.00  0.00    -0.269 OA
BRANCH  29  32
ATOM     32  C   UNL A   1      38.241  30.466  30.505  1.00  0.00     0.039 A 
ATOM     33  C   UNL A   1      39.326  30.358  31.378  1.00  0.00     0.014 A 
ATOM     34  C   UNL A   1      38.434  30.365  29.125  1.00  0.00     0.014 A 
ATOM     35  C   UNL A   1      40.596  30.079  30.869  1.00  0.00     0.010 A 
ATOM     36  C   UNL A   1      39.684  30.010  28.626  1.00  0.00     0.010 A 
ATOM     37  C   UNL A   1      40.778  29.866  29.492  1.00  0.00    -0.014 A 
BRANCH  37  38
ATOM     38  C   UNL A   1      42.105  29.489  28.943  1.00  0.00     0.031 A 
ATOM     39  C   UNL A   1      42.357  28.082  28.470  1.00  0.00     0.074 A 
ATOM     40  C   UNL A   1      43.103  30.395  28.924  1.00  0.00     0.049 A 
ATOM     41  N   UNL A   1      43.457  27.555  27.998  1.00  0.00    -0.248 NA
ATOM     42  C   UNL A   1      41.232  27.136  28.566  1.00  0.00     0.031 C 
ATOM     43  C   UNL A   1      43.003  31.777  29.402  1.00  0.00     0.029 A 
ATOM     44  N   UNL A   1      44.401  30.290  28.491  1.00  0.00    -0.354 N 
ATOM     45  C   UNL A   1      43.165  26.217  27.759  1.00  0.00     0.074 A 
ATOM     46  C   UNL A   1      41.800  26.001  28.186  1.00  0.00     0.031 C 
ATOM     47  C   UNL A   1      44.178  32.397  29.207  1.00  0.00     0.029 A 
ATOM     48  C   UNL A   1      45.126  31.450  28.627  1.00  0.00     0.049 A 
ATOM     49  H   UNL A   1      44.778  29.461  28.117  1.00  0.00     0.167 HD
ATOM     50  C   UNL A   1      43.952  25.260  27.214  1.00  0.00     0.031 A 
ATOM     51  C   UNL A   1      46.409  31.725  28.322  1.00  0.00     0.031 A 
ATOM     52  C   UNL A   1      45.304  25.483  26.775  1.00  0.00     0.049 A 
ATOM     53  C   UNL A   1      47.261  30.648  27.707  1.00  0.00     0.074 A 
ATOM     54  C   UNL A   1      46.164  24.594  26.154  1.00  0.00     0.029 A 
ATOM     55  N   UNL A   1      45.995  26.677  26.912  1.00  0.00    -0.354 N 
ATOM     56  N   UNL A   1      46.942  29.408  27.422  1.00  0.00    -0.248 NA
ATOM     57  C   UNL A   1      48.641  31.013  27.358  1.00  0.00     0.031 C 
ATOM     58  C   UNL A   1      47.391  25.238  25.959  1.00  0.00     0.029 A 
ATOM     59  C   UNL A   1      47.276  26.544  26.406  1.00  0.00     0.049 A 
ATOM     60  H   UNL A   1      45.627  27.500  27.310  1.00  0.00     0.167 HD
ATOM     61  C   UNL A   1      48.075  28.852  26.836  1.00  0.00     0.074 A 
ATOM     62  C   UNL A   1      49.078  29.896  26.793  1.00  0.00     0.031 C 
ATOM     63  C   UNL A   1      48.265  27.592  26.373  1.00  0.00     0.031 A 
BRANCH  50  64
ATOM     64  C   UNL A   1      43.366  23.880  27.063  1.00  0.00    -0.014 A 
ATOM     65  C   UNL A   1      43.239  23.019  28.168  1.00  0.00     0.010 A 
ATOM     66  C   UNL A   1      42.905  23.451  25.805  1.00  0.00     0.010 A 
ATOM     67  C   UNL A   1      42.703  21.738  28.011  1.00  0.00     0.020 A 
ATOM     68  C   UNL A   1      42.341  22.181  25.649  1.00  0.00     0.020 A 
ATOM     69  C   UNL A   1      42.261  21.326  26.750  1.00  0.00     0.054 A 
BRANCH  69  70
ATOM     70  S   UNL A   1      41.551  19.665  26.579  1.00  0.00     0.124 S 
ATOM     71  O   UNL A   1      42.094  19.239  25.291  1.00  0.00    -0.237 OA
ATOM     72  O   UNL A   1      42.083  18.968  27.747  1.00  0.00    -0.237 OA
ATOM     73  O   UNL A   1      40.110  19.900  26.599  1.00  0.00    -0.744 OA
ENDBRANCH  69  70
ENDBRANCH  50  64
BRANCH  51  74
ATOM     74  C   UNL A   1      46.958  33.086  28.572  1.00  0.00    -0.014 A 
ATOM     75  C   UNL A   1      46.862  34.085  27.588  1.00  0.00     0.010 A 
ATOM     76  C   UNL A   1      47.569  33.392  29.801  1.00  0.00     0.010 A 
ATOM     77  C   UNL A   1      47.382  35.362  27.822  1.00  0.00     0.020 A 
ATOM     78  C   UNL A   1      48.066  34.676  30.049  1.00  0.00     0.020 A 
ATOM     79  C   UNL A   1      47.980  35.650  29.053  1.00  0.00     0.054 A 
BRANCH  79  80
ATOM     80  S   UNL A   1      48.601  37.328  29.354  1.00  0.00     0.124 S 
ATOM     81  O   UNL A   1      47.363  38.092  29.475  1.00  0.00    -0.237 OA
ATOM     82  O   UNL A   1      49.368  37.165  30.587  1.00  0.00    -0.237 OA
ATOM     83  O   UNL A   1      49.402  37.613  28.166  1.00  0.00    -0.744 OA
ENDBRANCH  79  80
ENDBRANCH  51  74
BRANCH  63  84
ATOM     84  C   UNL A   1      49.599  27.279  25.748  1.00  0.00    -0.014 A 
ATOM     85  C   UNL A   1      49.824  27.467  24.374  1.00  0.00     0.010 A 
ATOM     86  C   UNL A   1      50.657  26.834  26.563  1.00  0.00     0.010 A 
ATOM     87  C   UNL A   1      51.074  27.179  23.818  1.00  0.00     0.020 A 
ATOM     88  C   UNL A   1      51.915  26.572  26.016  1.00  0.00     0.020 A 
ATOM     89  C   UNL A   1      52.111  26.732  24.643  1.00  0.00     0.054 A 
BRANCH  89  90
ATOM     90  S   UNL A   1      53.733  26.397  23.904  1.00  0.00     0.124 S 
ATOM     91  O   UNL A   1      54.119  25.155  24.568  1.00  0.00    -0.237 OA
ATOM     92  O   UNL A   1      53.420  26.277  22.482  1.00  0.00    -0.237 OA
ATOM     93  O   UNL A   1      54.527  27.569  24.264  1.00  0.00    -0.744 OA
ENDBRANCH  89  90
ENDBRANCH  63  84
ENDBRANCH  37  38
ENDBRANCH  29  32
ENDBRANCH  27  28
ENDBRANCH  26  27
ENDBRANCH   1  26
TORSDOF 17
ENDMDL
