MODEL 1
REMARK VINA RESULT:     -12.1      0.000      0.000
REMARK SMILES Cc1ccc2c(c1)OCCN2c1sc(C(=O)NCCCCNC(=O)c2ccc(-c3c4nc(c(-c5ccc(S(=O)(=O)[O-])cc5)c5ccc([nH]5)c(-c5ccc(S(=O)(=O)[O-])cc5)c5nc(c(-c6ccc(S(=O)(=O)[O-])cc6)c6ccc3[nH]6)C=C5)C=C4)cc2)cc1C
REMARK SMILES IDX 20 1 19 2 18 3 17 4 15 5 16 6 14 8 12 9 13 10 86 11 85 12
REMARK SMILES IDX 87 13 11 14 1 15 2 16 3 17 7 18 4 19 6 20 5 21 8 22 9 23
REMARK SMILES IDX 10 24 21 25 22 26 23 27 24 29 25 30 26 31 84 32 27 33 83 34
REMARK SMILES IDX 28 35 29 36 30 37 77 38 31 39 82 40 76 41 78 42 32 43 81 44
REMARK SMILES IDX 75 45 74 46 33 48 63 49 44 50 62 51 45 52 48 53 61 54 79 55
REMARK SMILES IDX 46 56 47 57 60 59 80 60 49 61 34 62 35 63 43 64 36 65 42 66
REMARK SMILES IDX 37 67 38 68 39 69 40 70 41 71 64 72 65 73 73 74 66 75 72 76
REMARK SMILES IDX 67 77 68 78 69 79 70 80 71 81 50 82 51 83 59 84 52 85 58 86
REMARK SMILES IDX 53 87 54 88 55 89 56 90 57 91
REMARK H PARENT 17 7 22 28 78 47 48 58
REMARK Flexibility Score: inf
ROOT
ATOM      1  C   UNL A   1      33.779  28.160  25.816  1.00  0.00     0.023 C 
ENDROOT
BRANCH   1   2
ATOM      2  C   UNL A   1      33.275  29.146  24.757  1.00  0.00     0.023 C 
BRANCH   2   3
ATOM      3  C   UNL A   1      33.550  28.708  23.318  1.00  0.00     0.116 C 
BRANCH   3   4
ATOM      4  N   UNL A   1      32.314  28.493  22.593  1.00  0.00    -0.351 N 
ATOM      5  C   UNL A   1      31.475  27.412  22.481  1.00  0.00     0.261 C 
ATOM      6  O   UNL A   1      30.468  27.608  21.792  1.00  0.00    -0.268 OA
ATOM      7  H   UNL A   1      32.017  29.278  22.079  1.00  0.00     0.163 HD
BRANCH   5   8
ATOM      8  C   UNL A   1      31.681  26.142  23.162  1.00  0.00     0.094 A 
ATOM      9  C   UNL A   1      32.451  23.935  24.012  1.00  0.00     0.099 A 
ATOM     10  S   UNL A   1      32.405  24.750  22.500  1.00  0.00    -0.112 S 
ATOM     11  C   UNL A   1      31.652  24.586  24.939  1.00  0.00    -0.015 A 
ATOM     12  C   UNL A   1      31.220  25.856  24.437  1.00  0.00     0.031 A 
ATOM     13  C   UNL A   1      31.324  24.110  26.314  1.00  0.00     0.047 C 
BRANCH   9  14
ATOM     14  N   UNL A   1      33.147  22.778  24.197  1.00  0.00    -0.327 N 
ATOM     15  C   UNL A   1      38.614  22.283  25.964  1.00  0.00     0.044 C 
ATOM     16  C   UNL A   1      37.187  22.406  25.521  1.00  0.00    -0.047 A 
ATOM     17  C   UNL A   1      36.648  23.663  25.234  1.00  0.00     0.006 A 
ATOM     18  C   UNL A   1      36.380  21.278  25.360  1.00  0.00     0.052 A 
ATOM     19  C   UNL A   1      35.318  23.790  24.813  1.00  0.00     0.030 A 
ATOM     20  C   UNL A   1      35.051  21.409  24.938  1.00  0.00     0.143 A 
ATOM     21  C   UNL A   1      34.492  22.670  24.634  1.00  0.00     0.085 A 
ATOM     22  O   UNL A   1      34.349  20.226  24.849  1.00  0.00    -0.490 OA
ATOM     23  C   UNL A   1      32.934  20.439  24.827  1.00  0.00     0.251 C 
ATOM     24  C   UNL A   1      32.547  21.503  23.807  1.00  0.00     0.165 C 
ENDBRANCH   9  14
ENDBRANCH   5   8
ENDBRANCH   3   4
ENDBRANCH   2   3
ENDBRANCH   1   2
BRANCH   1  25
ATOM     25  C   UNL A   1      33.347  28.463  27.248  1.00  0.00     0.116 C 
BRANCH  25  26
ATOM     26  N   UNL A   1      33.283  29.886  27.546  1.00  0.00    -0.352 N 
ATOM     27  C   UNL A   1      34.267  30.702  28.057  1.00  0.00     0.251 C 
ATOM     28  H   UNL A   1      32.421  30.323  27.359  1.00  0.00     0.163 HD
ATOM     29  O   UNL A   1      34.011  31.867  28.345  1.00  0.00    -0.269 OA
BRANCH  27  30
ATOM     30  C   UNL A   1      35.618  30.151  28.296  1.00  0.00     0.039 A 
ATOM     31  C   UNL A   1      35.964  29.632  29.544  1.00  0.00     0.014 A 
ATOM     32  C   UNL A   1      36.562  30.190  27.264  1.00  0.00     0.014 A 
ATOM     33  C   UNL A   1      37.288  29.304  29.808  1.00  0.00     0.010 A 
ATOM     34  C   UNL A   1      37.876  29.781  27.510  1.00  0.00     0.010 A 
ATOM     35  C   UNL A   1      38.262  29.378  28.796  1.00  0.00    -0.014 A 
BRANCH  35  36
ATOM     36  C   UNL A   1      39.664  29.010  29.119  1.00  0.00     0.031 A 
ATOM     37  C   UNL A   1      40.528  29.907  29.964  1.00  0.00     0.074 A 
ATOM     38  C   UNL A   1      40.130  27.812  28.710  1.00  0.00     0.049 A 
ATOM     39  N   UNL A   1      41.736  29.685  30.419  1.00  0.00    -0.248 NA
ATOM     40  C   UNL A   1      39.977  31.216  30.349  1.00  0.00     0.031 C 
ATOM     41  C   UNL A   1      39.381  26.858  27.890  1.00  0.00     0.029 A 
ATOM     42  N   UNL A   1      41.319  27.175  28.961  1.00  0.00    -0.354 N 
ATOM     43  C   UNL A   1      42.091  30.824  31.132  1.00  0.00     0.074 A 
ATOM     44  C   UNL A   1      40.985  31.749  31.027  1.00  0.00     0.031 C 
ATOM     45  C   UNL A   1      40.093  25.729  27.770  1.00  0.00     0.029 A 
ATOM     46  C   UNL A   1      41.374  25.899  28.450  1.00  0.00     0.049 A 
ATOM     47  H   UNL A   1      42.060  27.589  29.457  1.00  0.00     0.167 HD
ATOM     48  C   UNL A   1      43.229  31.066  31.824  1.00  0.00     0.031 A 
ATOM     49  C   UNL A   1      42.340  24.962  28.517  1.00  0.00     0.031 A 
ATOM     50  C   UNL A   1      44.320  30.133  31.940  1.00  0.00     0.049 A 
ATOM     51  C   UNL A   1      43.603  25.267  29.266  1.00  0.00     0.074 A 
ATOM     52  C   UNL A   1      45.500  30.282  32.648  1.00  0.00     0.029 A 
ATOM     53  N   UNL A   1      44.368  28.884  31.340  1.00  0.00    -0.354 N 
ATOM     54  N   UNL A   1      43.911  26.343  29.948  1.00  0.00    -0.248 NA
ATOM     55  C   UNL A   1      44.652  24.238  29.252  1.00  0.00     0.031 C 
ATOM     56  C   UNL A   1      46.287  29.148  32.428  1.00  0.00     0.029 A 
ATOM     57  C   UNL A   1      45.572  28.265  31.635  1.00  0.00     0.049 A 
ATOM     58  H   UNL A   1      43.654  28.494  30.787  1.00  0.00     0.167 HD
ATOM     59  C   UNL A   1      45.192  26.127  30.439  1.00  0.00     0.074 A 
ATOM     60  C   UNL A   1      45.590  24.803  30.003  1.00  0.00     0.031 C 
ATOM     61  C   UNL A   1      45.969  26.957  31.175  1.00  0.00     0.031 A 
BRANCH  48  62
ATOM     62  C   UNL A   1      43.374  32.392  32.525  1.00  0.00    -0.014 A 
ATOM     63  C   UNL A   1      42.883  32.546  33.836  1.00  0.00     0.010 A 
ATOM     64  C   UNL A   1      43.877  33.515  31.847  1.00  0.00     0.010 A 
ATOM     65  C   UNL A   1      42.864  33.805  34.443  1.00  0.00     0.020 A 
ATOM     66  C   UNL A   1      43.882  34.773  32.461  1.00  0.00     0.020 A 
ATOM     67  C   UNL A   1      43.353  34.912  33.747  1.00  0.00     0.054 A 
BRANCH  67  68
ATOM     68  S   UNL A   1      43.293  36.544  34.538  1.00  0.00     0.124 S 
ATOM     69  O   UNL A   1      43.467  37.445  33.404  1.00  0.00    -0.237 OA
ATOM     70  O   UNL A   1      41.967  36.553  35.154  1.00  0.00    -0.237 OA
ATOM     71  O   UNL A   1      44.406  36.505  35.485  1.00  0.00    -0.744 OA
ENDBRANCH  67  68
ENDBRANCH  48  62
BRANCH  49  72
ATOM     72  C   UNL A   1      42.115  23.646  27.861  1.00  0.00    -0.014 A 
ATOM     73  C   UNL A   1      41.623  22.558  28.608  1.00  0.00     0.010 A 
ATOM     74  C   UNL A   1      42.491  23.443  26.523  1.00  0.00     0.010 A 
ATOM     75  C   UNL A   1      41.574  21.279  28.049  1.00  0.00     0.020 A 
ATOM     76  C   UNL A   1      42.415  22.168  25.950  1.00  0.00     0.020 A 
ATOM     77  C   UNL A   1      41.988  21.089  26.730  1.00  0.00     0.054 A 
BRANCH  77  78
ATOM     78  S   UNL A   1      41.980  19.410  26.043  1.00  0.00     0.124 S 
ATOM     79  O   UNL A   1      42.469  18.625  27.173  1.00  0.00    -0.237 OA
ATOM     80  O   UNL A   1      40.574  19.209  25.700  1.00  0.00    -0.237 OA
ATOM     81  O   UNL A   1      42.890  19.504  24.905  1.00  0.00    -0.744 OA
ENDBRANCH  77  78
ENDBRANCH  49  72
BRANCH  61  82
ATOM     82  C   UNL A   1      47.352  26.488  31.540  1.00  0.00    -0.014 A 
ATOM     83  C   UNL A   1      48.416  26.664  30.639  1.00  0.00     0.010 A 
ATOM     84  C   UNL A   1      47.571  25.771  32.730  1.00  0.00     0.010 A 
ATOM     85  C   UNL A   1      49.669  26.106  30.904  1.00  0.00     0.020 A 
ATOM     86  C   UNL A   1      48.830  25.234  33.012  1.00  0.00     0.020 A 
ATOM     87  C   UNL A   1      49.865  25.385  32.085  1.00  0.00     0.054 A 
BRANCH  87  88
ATOM     88  S   UNL A   1      51.492  24.650  32.407  1.00  0.00     0.124 S 
ATOM     89  O   UNL A   1      52.336  25.338  31.434  1.00  0.00    -0.237 OA
ATOM     90  O   UNL A   1      51.731  24.997  33.806  1.00  0.00    -0.237 OA
ATOM     91  O   UNL A   1      51.278  23.227  32.154  1.00  0.00    -0.744 OA
ENDBRANCH  87  88
ENDBRANCH  61  82
ENDBRANCH  35  36
ENDBRANCH  27  30
ENDBRANCH  25  26
ENDBRANCH   1  25
TORSDOF 15
ENDMDL
MODEL 2
REMARK VINA RESULT:     -12.0      2.531      9.485
REMARK SMILES Cc1ccc2c(c1)OCCN2c1sc(C(=O)NCCCCNC(=O)c2ccc(-c3c4nc(c(-c5ccc(S(=O)(=O)[O-])cc5)c5ccc([nH]5)c(-c5ccc(S(=O)(=O)[O-])cc5)c5nc(c(-c6ccc(S(=O)(=O)[O-])cc6)c6ccc3[nH]6)C=C5)C=C4)cc2)cc1C
REMARK SMILES IDX 20 1 19 2 18 3 17 4 15 5 16 6 14 8 12 9 13 10 86 11 85 12
REMARK SMILES IDX 87 13 11 14 1 15 2 16 3 17 7 18 4 19 6 20 5 21 8 22 9 23
REMARK SMILES IDX 10 24 21 25 22 26 23 27 24 29 25 30 26 31 84 32 27 33 83 34
REMARK SMILES IDX 28 35 29 36 30 37 77 38 31 39 82 40 76 41 78 42 32 43 81 44
REMARK SMILES IDX 75 45 74 46 33 48 63 49 44 50 62 51 45 52 48 53 61 54 79 55
REMARK SMILES IDX 46 56 47 57 60 59 80 60 49 61 34 62 35 63 43 64 36 65 42 66
REMARK SMILES IDX 37 67 38 68 39 69 40 70 41 71 64 72 65 73 73 74 66 75 72 76
REMARK SMILES IDX 67 77 68 78 69 79 70 80 71 81 50 82 51 83 59 84 52 85 58 86
REMARK SMILES IDX 53 87 54 88 55 89 56 90 57 91
REMARK H PARENT 17 7 22 28 78 47 48 58
REMARK Flexibility Score: inf
ROOT
ATOM      1  C   UNL A   1      35.723  23.504  25.935  1.00  0.00     0.023 C 
ENDROOT
BRANCH   1   2
ATOM      2  C   UNL A   1      35.487  22.093  26.484  1.00  0.00     0.023 C 
BRANCH   2   3
ATOM      3  C   UNL A   1      34.186  21.941  27.273  1.00  0.00     0.116 C 
BRANCH   3   4
ATOM      4  N   UNL A   1      33.216  21.158  26.534  1.00  0.00    -0.351 N 
ATOM      5  C   UNL A   1      32.325  21.474  25.539  1.00  0.00     0.261 C 
ATOM      6  O   UNL A   1      31.669  20.520  25.109  1.00  0.00    -0.268 OA
ATOM      7  H   UNL A   1      33.191  20.210  26.799  1.00  0.00     0.163 HD
BRANCH   5   8
ATOM      8  C   UNL A   1      32.185  22.802  24.957  1.00  0.00     0.094 A 
ATOM      9  C   UNL A   1      31.781  25.202  24.444  1.00  0.00     0.099 A 
ATOM     10  S   UNL A   1      31.048  23.986  25.411  1.00  0.00    -0.112 S 
ATOM     11  C   UNL A   1      32.685  24.637  23.557  1.00  0.00    -0.015 A 
ATOM     12  C   UNL A   1      32.910  23.257  23.868  1.00  0.00     0.031 A 
ATOM     13  C   UNL A   1      33.412  25.345  22.464  1.00  0.00     0.047 C 
BRANCH   9  14
ATOM     14  N   UNL A   1      31.435  26.517  24.538  1.00  0.00    -0.327 N 
ATOM     15  C   UNL A   1      34.249  30.623  27.449  1.00  0.00     0.044 C 
ATOM     16  C   UNL A   1      33.524  29.563  26.676  1.00  0.00    -0.047 A 
ATOM     17  C   UNL A   1      33.912  28.225  26.788  1.00  0.00     0.006 A 
ATOM     18  C   UNL A   1      32.438  29.879  25.857  1.00  0.00     0.052 A 
ATOM     19  C   UNL A   1      33.238  27.224  26.077  1.00  0.00     0.030 A 
ATOM     20  C   UNL A   1      31.767  28.876  25.148  1.00  0.00     0.143 A 
ATOM     21  C   UNL A   1      32.138  27.518  25.257  1.00  0.00     0.085 A 
ATOM     22  O   UNL A   1      30.733  29.319  24.349  1.00  0.00    -0.490 OA
ATOM     23  C   UNL A   1      30.367  28.354  23.358  1.00  0.00     0.251 C 
ATOM     24  C   UNL A   1      30.168  26.974  23.971  1.00  0.00     0.165 C 
ENDBRANCH   9  14
ENDBRANCH   5   8
ENDBRANCH   3   4
ENDBRANCH   2   3
ENDBRANCH   1   2
BRANCH   1  25
ATOM     25  C   UNL A   1      36.972  23.669  25.075  1.00  0.00     0.116 C 
BRANCH  25  26
ATOM     26  N   UNL A   1      38.018  22.703  25.378  1.00  0.00    -0.352 N 
ATOM     27  C   UNL A   1      39.173  22.886  26.104  1.00  0.00     0.251 C 
ATOM     28  H   UNL A   1      37.882  21.798  25.015  1.00  0.00     0.163 HD
ATOM     29  O   UNL A   1      40.002  21.985  26.179  1.00  0.00    -0.269 OA
BRANCH  27  30
ATOM     30  C   UNL A   1      39.425  24.190  26.754  1.00  0.00     0.039 A 
ATOM     31  C   UNL A   1      40.134  25.191  26.090  1.00  0.00     0.014 A 
ATOM     32  C   UNL A   1      38.974  24.398  28.061  1.00  0.00     0.014 A 
ATOM     33  C   UNL A   1      40.531  26.328  26.783  1.00  0.00     0.010 A 
ATOM     34  C   UNL A   1      39.305  25.580  28.731  1.00  0.00     0.010 A 
ATOM     35  C   UNL A   1      40.125  26.535  28.114  1.00  0.00    -0.014 A 
BRANCH  35  36
ATOM     36  C   UNL A   1      40.565  27.768  28.816  1.00  0.00     0.031 A 
ATOM     37  C   UNL A   1      41.997  27.951  29.243  1.00  0.00     0.074 A 
ATOM     38  C   UNL A   1      39.674  28.764  28.994  1.00  0.00     0.049 A 
ATOM     39  N   UNL A   1      42.562  29.006  29.775  1.00  0.00    -0.248 NA
ATOM     40  C   UNL A   1      42.913  26.814  29.055  1.00  0.00     0.031 C 
ATOM     41  C   UNL A   1      38.260  28.701  28.617  1.00  0.00     0.029 A 
ATOM     42  N   UNL A   1      39.829  30.033  29.493  1.00  0.00    -0.354 N 
ATOM     43  C   UNL A   1      43.890  28.659  29.991  1.00  0.00     0.074 A 
ATOM     44  C   UNL A   1      44.043  27.286  29.563  1.00  0.00     0.031 C 
ATOM     45  C   UNL A   1      37.697  29.900  28.824  1.00  0.00     0.029 A 
ATOM     46  C   UNL A   1      38.690  30.798  29.407  1.00  0.00     0.049 A 
ATOM     47  H   UNL A   1      40.673  30.364  29.876  1.00  0.00     0.167 HD
ATOM     48  C   UNL A   1      44.892  29.423  30.487  1.00  0.00     0.031 A 
ATOM     49  C   UNL A   1      38.459  32.079  29.753  1.00  0.00     0.031 A 
ATOM     50  C   UNL A   1      44.737  30.795  30.897  1.00  0.00     0.049 A 
ATOM     51  C   UNL A   1      39.579  32.896  30.327  1.00  0.00     0.074 A 
ATOM     52  C   UNL A   1      45.706  31.657  31.381  1.00  0.00     0.029 A 
ATOM     53  N   UNL A   1      43.547  31.507  30.867  1.00  0.00    -0.354 N 
ATOM     54  N   UNL A   1      40.831  32.553  30.507  1.00  0.00    -0.248 NA
ATOM     55  C   UNL A   1      39.258  34.265  30.750  1.00  0.00     0.031 C 
ATOM     56  C   UNL A   1      45.090  32.870  31.702  1.00  0.00     0.029 A 
ATOM     57  C   UNL A   1      43.751  32.786  31.357  1.00  0.00     0.049 A 
ATOM     58  H   UNL A   1      42.686  31.155  30.546  1.00  0.00     0.167 HD
ATOM     59  C   UNL A   1      41.449  33.662  31.072  1.00  0.00     0.074 A 
ATOM     60  C   UNL A   1      40.440  34.697  31.174  1.00  0.00     0.031 C 
ATOM     61  C   UNL A   1      42.734  33.801  31.478  1.00  0.00     0.031 A 
BRANCH  48  62
ATOM     62  C   UNL A   1      46.262  28.810  30.623  1.00  0.00    -0.014 A 
ATOM     63  C   UNL A   1      47.172  28.894  29.552  1.00  0.00     0.010 A 
ATOM     64  C   UNL A   1      46.602  28.046  31.752  1.00  0.00     0.010 A 
ATOM     65  C   UNL A   1      48.384  28.199  29.595  1.00  0.00     0.020 A 
ATOM     66  C   UNL A   1      47.825  27.368  31.808  1.00  0.00     0.020 A 
ATOM     67  C   UNL A   1      48.698  27.430  30.719  1.00  0.00     0.054 A 
BRANCH  67  68
ATOM     68  S   UNL A   1      50.261  26.510  30.745  1.00  0.00     0.124 S 
ATOM     69  O   UNL A   1      49.819  25.142  30.498  1.00  0.00    -0.237 OA
ATOM     70  O   UNL A   1      51.019  27.135  29.663  1.00  0.00    -0.237 OA
ATOM     71  O   UNL A   1      50.785  26.767  32.086  1.00  0.00    -0.744 OA
ENDBRANCH  67  68
ENDBRANCH  48  62
BRANCH  49  72
ATOM     72  C   UNL A   1      37.102  32.652  29.536  1.00  0.00    -0.014 A 
ATOM     73  C   UNL A   1      36.773  33.243  28.301  1.00  0.00     0.010 A 
ATOM     74  C   UNL A   1      36.176  32.707  30.590  1.00  0.00     0.010 A 
ATOM     75  C   UNL A   1      35.571  33.935  28.145  1.00  0.00     0.020 A 
ATOM     76  C   UNL A   1      34.957  33.375  30.428  1.00  0.00     0.020 A 
ATOM     77  C   UNL A   1      34.679  34.014  29.216  1.00  0.00     0.054 A 
BRANCH  77  78
ATOM     78  S   UNL A   1      33.153  34.974  29.015  1.00  0.00     0.124 S 
ATOM     79  O   UNL A   1      32.595  34.929  30.364  1.00  0.00    -0.237 OA
ATOM     80  O   UNL A   1      33.648  36.279  28.584  1.00  0.00    -0.237 OA
ATOM     81  O   UNL A   1      32.411  34.226  28.004  1.00  0.00    -0.744 OA
ENDBRANCH  77  78
ENDBRANCH  49  72
BRANCH  61  82
ATOM     82  C   UNL A   1      43.136  35.109  32.107  1.00  0.00    -0.014 A 
ATOM     83  C   UNL A   1      42.853  35.355  33.462  1.00  0.00     0.010 A 
ATOM     84  C   UNL A   1      43.691  36.136  31.323  1.00  0.00     0.010 A 
ATOM     85  C   UNL A   1      43.089  36.614  34.017  1.00  0.00     0.020 A 
ATOM     86  C   UNL A   1      43.955  37.389  31.883  1.00  0.00     0.020 A 
ATOM     87  C   UNL A   1      43.630  37.627  33.221  1.00  0.00     0.054 A 
BRANCH  87  88
ATOM     88  S   UNL A   1      43.914  39.263  33.951  1.00  0.00     0.124 S 
ATOM     89  O   UNL A   1      44.025  38.949  35.373  1.00  0.00    -0.237 OA
ATOM     90  O   UNL A   1      45.151  39.695  33.303  1.00  0.00    -0.237 OA
ATOM     91  O   UNL A   1      42.723  40.019  33.569  1.00  0.00    -0.744 OA
ENDBRANCH  87  88
ENDBRANCH  61  82
ENDBRANCH  35  36
ENDBRANCH  27  30
ENDBRANCH  25  26
ENDBRANCH   1  25
TORSDOF 15
ENDMDL
MODEL 3
REMARK VINA RESULT:     -12.0      0.713      8.127
REMARK SMILES Cc1ccc2c(c1)OCCN2c1sc(C(=O)NCCCCNC(=O)c2ccc(-c3c4nc(c(-c5ccc(S(=O)(=O)[O-])cc5)c5ccc([nH]5)c(-c5ccc(S(=O)(=O)[O-])cc5)c5nc(c(-c6ccc(S(=O)(=O)[O-])cc6)c6ccc3[nH]6)C=C5)C=C4)cc2)cc1C
REMARK SMILES IDX 20 1 19 2 18 3 17 4 15 5 16 6 14 8 12 9 13 10 86 11 85 12
REMARK SMILES IDX 87 13 11 14 1 15 2 16 3 17 7 18 4 19 6 20 5 21 8 22 9 23
REMARK SMILES IDX 10 24 21 25 22 26 23 27 24 29 25 30 26 31 84 32 27 33 83 34
REMARK SMILES IDX 28 35 29 36 30 37 77 38 31 39 82 40 76 41 78 42 32 43 81 44
REMARK SMILES IDX 75 45 74 46 33 48 63 49 44 50 62 51 45 52 48 53 61 54 79 55
REMARK SMILES IDX 46 56 47 57 60 59 80 60 49 61 34 62 35 63 43 64 36 65 42 66
REMARK SMILES IDX 37 67 38 68 39 69 40 70 41 71 64 72 65 73 73 74 66 75 72 76
REMARK SMILES IDX 67 77 68 78 69 79 70 80 71 81 50 82 51 83 59 84 52 85 58 86
REMARK SMILES IDX 53 87 54 88 55 89 56 90 57 91
REMARK H PARENT 17 7 22 28 78 47 48 58
REMARK Flexibility Score: inf
ROOT
ATOM      1  C   UNL A   1      33.774  28.164  25.731  1.00  0.00     0.023 C 
ENDROOT
BRANCH   1   2
ATOM      2  C   UNL A   1      33.258  29.217  24.744  1.00  0.00     0.023 C 
BRANCH   2   3
ATOM      3  C   UNL A   1      33.471  28.850  23.275  1.00  0.00     0.116 C 
BRANCH   3   4
ATOM      4  N   UNL A   1      32.205  28.653  22.598  1.00  0.00    -0.351 N 
ATOM      5  C   UNL A   1      31.364  27.573  22.488  1.00  0.00     0.261 C 
ATOM      6  O   UNL A   1      30.328  27.787  21.850  1.00  0.00    -0.268 OA
ATOM      7  H   UNL A   1      31.883  29.453  22.123  1.00  0.00     0.163 HD
BRANCH   5   8
ATOM      8  C   UNL A   1      31.603  26.282  23.119  1.00  0.00     0.094 A 
ATOM      9  C   UNL A   1      32.455  24.085  23.915  1.00  0.00     0.099 A 
ATOM     10  S   UNL A   1      32.470  24.979  22.448  1.00  0.00    -0.112 S 
ATOM     11  C   UNL A   1      31.543  24.631  24.806  1.00  0.00    -0.015 A 
ATOM     12  C   UNL A   1      31.065  25.897  24.335  1.00  0.00     0.031 A 
ATOM     13  C   UNL A   1      31.142  24.058  26.124  1.00  0.00     0.047 C 
BRANCH   9  14
ATOM     14  N   UNL A   1      33.211  22.967  24.098  1.00  0.00    -0.327 N 
ATOM     15  C   UNL A   1      38.579  22.736  26.193  1.00  0.00     0.044 C 
ATOM     16  C   UNL A   1      37.177  22.789  25.664  1.00  0.00    -0.047 A 
ATOM     17  C   UNL A   1      36.576  24.022  25.395  1.00  0.00     0.006 A 
ATOM     18  C   UNL A   1      36.457  21.621  25.406  1.00  0.00     0.052 A 
ATOM     19  C   UNL A   1      35.270  24.085  24.894  1.00  0.00     0.030 A 
ATOM     20  C   UNL A   1      35.151  21.688  24.904  1.00  0.00     0.143 A 
ATOM     21  C   UNL A   1      34.531  22.924  24.616  1.00  0.00     0.085 A 
ATOM     22  O   UNL A   1      34.534  20.468  24.722  1.00  0.00    -0.490 OA
ATOM     23  C   UNL A   1      33.113  20.594  24.617  1.00  0.00     0.251 C 
ATOM     24  C   UNL A   1      32.721  21.676  23.619  1.00  0.00     0.165 C 
ENDBRANCH   9  14
ENDBRANCH   5   8
ENDBRANCH   3   4
ENDBRANCH   2   3
ENDBRANCH   1   2
BRANCH   1  25
ATOM     25  C   UNL A   1      33.479  28.447  27.201  1.00  0.00     0.116 C 
BRANCH  25  26
ATOM     26  N   UNL A   1      33.410  29.866  27.517  1.00  0.00    -0.352 N 
ATOM     27  C   UNL A   1      34.378  30.671  28.071  1.00  0.00     0.251 C 
ATOM     28  H   UNL A   1      32.556  30.309  27.307  1.00  0.00     0.163 HD
ATOM     29  O   UNL A   1      34.118  31.833  28.366  1.00  0.00    -0.269 OA
BRANCH  27  30
ATOM     30  C   UNL A   1      35.719  30.113  28.347  1.00  0.00     0.039 A 
ATOM     31  C   UNL A   1      36.033  29.607  29.609  1.00  0.00     0.014 A 
ATOM     32  C   UNL A   1      36.686  30.129  27.337  1.00  0.00     0.014 A 
ATOM     33  C   UNL A   1      37.347  29.271  29.907  1.00  0.00     0.010 A 
ATOM     34  C   UNL A   1      37.991  29.712  27.617  1.00  0.00     0.010 A 
ATOM     35  C   UNL A   1      38.344  29.323  28.917  1.00  0.00    -0.014 A 
BRANCH  35  36
ATOM     36  C   UNL A   1      39.736  28.947  29.275  1.00  0.00     0.031 A 
ATOM     37  C   UNL A   1      40.312  27.617  28.867  1.00  0.00     0.074 A 
ATOM     38  C   UNL A   1      40.510  29.854  29.904  1.00  0.00     0.049 A 
ATOM     39  N   UNL A   1      41.537  27.179  29.013  1.00  0.00    -0.248 NA
ATOM     40  C   UNL A   1      39.408  26.656  28.215  1.00  0.00     0.031 C 
ATOM     41  C   UNL A   1      40.061  31.177  30.344  1.00  0.00     0.029 A 
ATOM     42  N   UNL A   1      41.839  29.824  30.243  1.00  0.00    -0.354 N 
ATOM     43  C   UNL A   1      41.549  25.894  28.483  1.00  0.00     0.074 A 
ATOM     44  C   UNL A   1      40.202  25.609  28.038  1.00  0.00     0.031 C 
ATOM     45  C   UNL A   1      41.110  31.860  30.823  1.00  0.00     0.029 A 
ATOM     46  C   UNL A   1      42.293  31.004  30.783  1.00  0.00     0.049 A 
ATOM     47  H   UNL A   1      42.412  29.035  30.114  1.00  0.00     0.167 HD
ATOM     48  C   UNL A   1      42.591  25.039  28.364  1.00  0.00     0.031 A 
ATOM     49  C   UNL A   1      43.520  31.370  31.200  1.00  0.00     0.031 A 
ATOM     50  C   UNL A   1      43.934  25.336  28.794  1.00  0.00     0.049 A 
ATOM     51  C   UNL A   1      44.653  30.393  31.084  1.00  0.00     0.074 A 
ATOM     52  C   UNL A   1      45.061  24.540  28.684  1.00  0.00     0.029 A 
ATOM     53  N   UNL A   1      44.333  26.512  29.409  1.00  0.00    -0.354 N 
ATOM     54  N   UNL A   1      44.646  29.190  30.564  1.00  0.00    -0.248 NA
ATOM     55  C   UNL A   1      45.956  30.816  31.615  1.00  0.00     0.031 C 
ATOM     56  C   UNL A   1      46.129  25.211  29.287  1.00  0.00     0.029 A 
ATOM     57  C   UNL A   1      45.683  26.450  29.714  1.00  0.00     0.049 A 
ATOM     58  H   UNL A   1      43.745  27.278  29.600  1.00  0.00     0.167 HD
ATOM     59  C   UNL A   1      45.940  28.706  30.711  1.00  0.00     0.074 A 
ATOM     60  C   UNL A   1      46.712  29.759  31.339  1.00  0.00     0.031 C 
ATOM     61  C   UNL A   1      46.436  27.495  30.364  1.00  0.00     0.031 A 
BRANCH  48  62
ATOM     62  C   UNL A   1      42.345  23.689  27.742  1.00  0.00    -0.014 A 
ATOM     63  C   UNL A   1      41.991  22.599  28.560  1.00  0.00     0.010 A 
ATOM     64  C   UNL A   1      42.589  23.468  26.376  1.00  0.00     0.010 A 
ATOM     65  C   UNL A   1      41.915  21.308  28.028  1.00  0.00     0.020 A 
ATOM     66  C   UNL A   1      42.490  22.181  25.835  1.00  0.00     0.020 A 
ATOM     67  C   UNL A   1      42.177  21.106  26.671  1.00  0.00     0.054 A 
BRANCH  67  68
ATOM     68  S   UNL A   1      42.103  19.420  26.003  1.00  0.00     0.124 S 
ATOM     69  O   UNL A   1      42.650  18.630  27.100  1.00  0.00    -0.237 OA
ATOM     70  O   UNL A   1      40.676  19.241  25.745  1.00  0.00    -0.237 OA
ATOM     71  O   UNL A   1      42.937  19.492  24.805  1.00  0.00    -0.744 OA
ENDBRANCH  67  68
ENDBRANCH  48  62
BRANCH  49  72
ATOM     72  C   UNL A   1      43.719  32.740  31.746  1.00  0.00    -0.014 A 
ATOM     73  C   UNL A   1      43.568  32.982  33.125  1.00  0.00     0.010 A 
ATOM     74  C   UNL A   1      43.952  33.823  30.883  1.00  0.00     0.010 A 
ATOM     75  C   UNL A   1      43.579  34.286  33.621  1.00  0.00     0.020 A 
ATOM     76  C   UNL A   1      43.993  35.130  31.381  1.00  0.00     0.020 A 
ATOM     77  C   UNL A   1      43.772  35.354  32.743  1.00  0.00     0.054 A 
BRANCH  77  78
ATOM     78  S   UNL A   1      43.717  37.045  33.396  1.00  0.00     0.124 S 
ATOM     79  O   UNL A   1      44.928  37.088  34.211  1.00  0.00    -0.237 OA
ATOM     80  O   UNL A   1      43.747  37.860  32.184  1.00  0.00    -0.237 OA
ATOM     81  O   UNL A   1      42.460  37.083  34.138  1.00  0.00    -0.744 OA
ENDBRANCH  77  78
ENDBRANCH  49  72
BRANCH  61  82
ATOM     82  C   UNL A   1      47.880  27.209  30.680  1.00  0.00    -0.014 A 
ATOM     83  C   UNL A   1      48.875  27.466  29.720  1.00  0.00     0.010 A 
ATOM     84  C   UNL A   1      48.235  26.579  31.887  1.00  0.00     0.010 A 
ATOM     85  C   UNL A   1      50.196  27.071  29.947  1.00  0.00     0.020 A 
ATOM     86  C   UNL A   1      49.560  26.208  32.128  1.00  0.00     0.020 A 
ATOM     87  C   UNL A   1      50.528  26.435  31.147  1.00  0.00     0.054 A 
BRANCH  87  88
ATOM     88  S   UNL A   1      52.243  25.912  31.419  1.00  0.00     0.124 S 
ATOM     89  O   UNL A   1      52.814  26.024  30.080  1.00  0.00    -0.237 OA
ATOM     90  O   UNL A   1      52.727  26.887  32.394  1.00  0.00    -0.237 OA
ATOM     91  O   UNL A   1      52.107  24.549  31.928  1.00  0.00    -0.744 OA
ENDBRANCH  87  88
ENDBRANCH  61  82
ENDBRANCH  35  36
ENDBRANCH  27  30
ENDBRANCH  25  26
ENDBRANCH   1  25
TORSDOF 15
ENDMDL
