MODEL 1
REMARK VINA RESULT:     -13.5      0.000      0.000
REMARK SMILES Cc1c(CC(=O)NCCCCNC(=O)c2ccc(-c3c4nc(c(-c5ccc(S(=O)(=O)[O-])cc5)c5ccc([nH]5)c(-c5ccc(S(=O)(=O)[O-])cc5)c5nc(c(-c6ccc(S(=O)(=O)[O-])cc6)c6ccc3[nH]6)C=C5)C=C4)cc2)cc(-c2ccccc2)cc1-c1ccccc1
REMARK SMILES IDX 10 1 9 2 8 3 7 4 5 5 6 6 4 8 3 9 1 10 2 11 84 12 75 13 83 14
REMARK SMILES IDX 76 15 85 16 86 17 90 18 87 19 89 20 88 21 77 22 78 23 82 24
REMARK SMILES IDX 79 25 81 26 80 27 11 28 12 29 13 30 14 32 15 33 16 34 74 35
REMARK SMILES IDX 17 36 73 37 18 38 19 39 20 40 67 41 21 42 72 43 66 44 68 45
REMARK SMILES IDX 22 46 71 47 65 48 64 49 23 51 53 52 34 53 52 54 35 55 38 56
REMARK SMILES IDX 51 57 69 58 36 59 37 60 50 62 70 63 39 64 24 65 25 66 33 67
REMARK SMILES IDX 26 68 32 69 27 70 28 71 29 72 30 73 31 74 54 75 55 76 63 77
REMARK SMILES IDX 56 78 62 79 57 80 58 81 59 82 60 83 61 84 40 85 41 86 49 87
REMARK SMILES IDX 42 88 48 89 43 90 44 91 45 92 46 93 47 94
REMARK H PARENT 7 7 12 31 68 50 38 61
REMARK Flexibility Score: inf
ROOT
ATOM      1  C   UNL A   1      35.923  22.917  26.062  1.00  0.00     0.023 C 
ENDROOT
BRANCH   1   2
ATOM      2  C   UNL A   1      35.234  24.273  25.881  1.00  0.00     0.023 C 
BRANCH   2   3
ATOM      3  C   UNL A   1      33.851  24.231  25.213  1.00  0.00     0.116 C 
BRANCH   3   4
ATOM      4  N   UNL A   1      32.745  24.299  26.155  1.00  0.00    -0.356 N 
ATOM      5  C   UNL A   1      31.500  24.840  26.001  1.00  0.00     0.224 C 
ATOM      6  O   UNL A   1      30.705  24.765  26.942  1.00  0.00    -0.275 OA
ATOM      7  H   UNL A   1      32.919  23.896  27.036  1.00  0.00     0.163 HD
BRANCH   5   8
ATOM      8  C   UNL A   1      31.103  25.517  24.693  1.00  0.00     0.135 C 
BRANCH   8   9
ATOM      9  C   UNL A   1      31.059  27.029  24.800  1.00  0.00    -0.035 A 
ATOM     10  C   UNL A   1      29.023  27.238  23.274  1.00  0.00     0.045 C 
ATOM     11  C   UNL A   1      30.158  27.843  24.071  1.00  0.00    -0.040 A 
ATOM     12  C   UNL A   1      30.314  29.253  24.123  1.00  0.00    -0.015 A 
ATOM     13  C   UNL A   1      32.030  27.635  25.626  1.00  0.00     0.013 A 
ATOM     14  C   UNL A   1      31.326  29.812  24.933  1.00  0.00     0.017 A 
ATOM     15  C   UNL A   1      32.188  29.022  25.700  1.00  0.00    -0.017 A 
BRANCH  12  16
ATOM     16  C   UNL A   1      29.517  30.166  23.285  1.00  0.00    -0.018 A 
ATOM     17  C   UNL A   1      28.708  31.144  23.889  1.00  0.00     0.009 A 
ATOM     18  C   UNL A   1      29.572  30.114  21.885  1.00  0.00     0.009 A 
ATOM     19  C   UNL A   1      27.984  32.052  23.115  1.00  0.00     0.001 A 
ATOM     20  C   UNL A   1      28.852  31.027  21.110  1.00  0.00     0.001 A 
ATOM     21  C   UNL A   1      28.058  31.994  21.726  1.00  0.00     0.000 A 
ENDBRANCH  12  16
BRANCH  15  22
ATOM     22  C   UNL A   1      33.256  29.617  26.519  1.00  0.00    -0.018 A 
ATOM     23  C   UNL A   1      33.120  30.911  27.053  1.00  0.00     0.009 A 
ATOM     24  C   UNL A   1      34.442  28.916  26.788  1.00  0.00     0.009 A 
ATOM     25  C   UNL A   1      34.135  31.485  27.823  1.00  0.00     0.001 A 
ATOM     26  C   UNL A   1      35.459  29.489  27.557  1.00  0.00     0.001 A 
ATOM     27  C   UNL A   1      35.305  30.774  28.072  1.00  0.00     0.000 A 
ENDBRANCH  15  22
ENDBRANCH   8   9
ENDBRANCH   5   8
ENDBRANCH   3   4
ENDBRANCH   2   3
ENDBRANCH   1   2
BRANCH   1  28
ATOM     28  C   UNL A   1      37.287  22.835  25.392  1.00  0.00     0.116 C 
BRANCH  28  29
ATOM     29  N   UNL A   1      38.316  22.170  26.168  1.00  0.00    -0.352 N 
ATOM     30  C   UNL A   1      39.554  22.725  26.456  1.00  0.00     0.251 C 
ATOM     31  H   UNL A   1      38.123  21.268  26.512  1.00  0.00     0.163 HD
ATOM     32  O   UNL A   1      40.593  22.083  26.460  1.00  0.00    -0.269 OA
BRANCH  30  33
ATOM     33  C   UNL A   1      39.530  24.131  26.926  1.00  0.00     0.039 A 
ATOM     34  C   UNL A   1      40.191  25.093  26.156  1.00  0.00     0.014 A 
ATOM     35  C   UNL A   1      39.079  24.434  28.208  1.00  0.00     0.014 A 
ATOM     36  C   UNL A   1      40.520  26.326  26.727  1.00  0.00     0.010 A 
ATOM     37  C   UNL A   1      39.486  25.620  28.799  1.00  0.00     0.010 A 
ATOM     38  C   UNL A   1      40.237  26.561  28.076  1.00  0.00    -0.014 A 
BRANCH  38  39
ATOM     39  C   UNL A   1      40.793  27.684  28.839  1.00  0.00     0.031 A 
ATOM     40  C   UNL A   1      39.962  28.854  29.237  1.00  0.00     0.074 A 
ATOM     41  C   UNL A   1      42.083  27.680  29.249  1.00  0.00     0.049 A 
ATOM     42  N   UNL A   1      40.434  30.053  29.397  1.00  0.00    -0.248 NA
ATOM     43  C   UNL A   1      38.521  28.772  29.462  1.00  0.00     0.031 C 
ATOM     44  C   UNL A   1      42.659  28.553  30.272  1.00  0.00     0.029 A 
ATOM     45  N   UNL A   1      43.194  27.043  28.694  1.00  0.00    -0.354 N 
ATOM     46  C   UNL A   1      39.455  30.802  30.007  1.00  0.00     0.074 A 
ATOM     47  C   UNL A   1      38.260  29.987  29.955  1.00  0.00     0.031 C 
ATOM     48  C   UNL A   1      43.980  28.642  30.068  1.00  0.00     0.029 A 
ATOM     49  C   UNL A   1      44.282  27.919  28.846  1.00  0.00     0.049 A 
ATOM     50  H   UNL A   1      43.211  26.151  28.276  1.00  0.00     0.167 HD
ATOM     51  C   UNL A   1      39.746  31.972  30.644  1.00  0.00     0.031 A 
ATOM     52  C   UNL A   1      45.101  28.352  27.846  1.00  0.00     0.031 A 
ATOM     53  C   UNL A   1      41.165  32.297  30.637  1.00  0.00     0.049 A 
ATOM     54  C   UNL A   1      45.248  29.853  27.780  1.00  0.00     0.074 A 
ATOM     55  C   UNL A   1      42.158  32.158  31.593  1.00  0.00     0.029 A 
ATOM     56  N   UNL A   1      41.800  32.650  29.455  1.00  0.00    -0.354 N 
ATOM     57  N   UNL A   1      44.494  30.681  28.444  1.00  0.00    -0.248 NA
ATOM     58  C   UNL A   1      46.186  30.545  26.897  1.00  0.00     0.031 C 
ATOM     59  C   UNL A   1      43.405  32.414  30.977  1.00  0.00     0.029 A 
ATOM     60  C   UNL A   1      43.168  32.703  29.646  1.00  0.00     0.049 A 
ATOM     61  H   UNL A   1      41.342  32.836  28.603  1.00  0.00     0.167 HD
ATOM     62  C   UNL A   1      44.777  31.966  28.063  1.00  0.00     0.074 A 
ATOM     63  C   UNL A   1      45.868  31.833  27.117  1.00  0.00     0.031 C 
ATOM     64  C   UNL A   1      44.059  33.022  28.542  1.00  0.00     0.031 A 
BRANCH  51  65
ATOM     65  C   UNL A   1      38.751  32.650  31.557  1.00  0.00    -0.014 A 
ATOM     66  C   UNL A   1      38.428  32.068  32.799  1.00  0.00     0.010 A 
ATOM     67  C   UNL A   1      38.074  33.839  31.221  1.00  0.00     0.010 A 
ATOM     68  C   UNL A   1      37.393  32.561  33.602  1.00  0.00     0.020 A 
ATOM     69  C   UNL A   1      37.010  34.324  31.999  1.00  0.00     0.020 A 
ATOM     70  C   UNL A   1      36.664  33.667  33.177  1.00  0.00     0.054 A 
BRANCH  70  71
ATOM     71  S   UNL A   1      35.229  34.192  34.153  1.00  0.00     0.124 S 
ATOM     72  O   UNL A   1      35.660  33.917  35.523  1.00  0.00    -0.237 OA
ATOM     73  O   UNL A   1      35.112  35.604  33.802  1.00  0.00    -0.237 OA
ATOM     74  O   UNL A   1      34.149  33.335  33.668  1.00  0.00    -0.744 OA
ENDBRANCH  70  71
ENDBRANCH  51  65
BRANCH  52  75
ATOM     75  C   UNL A   1      45.173  27.453  26.669  1.00  0.00    -0.014 A 
ATOM     76  C   UNL A   1      46.256  26.553  26.604  1.00  0.00     0.010 A 
ATOM     77  C   UNL A   1      44.020  27.201  25.906  1.00  0.00     0.010 A 
ATOM     78  C   UNL A   1      46.120  25.337  25.935  1.00  0.00     0.020 A 
ATOM     79  C   UNL A   1      43.884  25.982  25.231  1.00  0.00     0.020 A 
ATOM     80  C   UNL A   1      44.908  25.033  25.315  1.00  0.00     0.054 A 
BRANCH  80  81
ATOM     81  S   UNL A   1      44.623  23.313  24.802  1.00  0.00     0.124 S 
ATOM     82  O   UNL A   1      43.175  23.275  24.617  1.00  0.00    -0.237 OA
ATOM     83  O   UNL A   1      45.419  23.230  23.577  1.00  0.00    -0.237 OA
ATOM     84  O   UNL A   1      45.137  22.539  25.928  1.00  0.00    -0.744 OA
ENDBRANCH  80  81
ENDBRANCH  52  75
BRANCH  64  85
ATOM     85  C   UNL A   1      44.169  34.456  28.091  1.00  0.00    -0.014 A 
ATOM     86  C   UNL A   1      43.243  35.089  27.248  1.00  0.00     0.010 A 
ATOM     87  C   UNL A   1      45.200  35.262  28.633  1.00  0.00     0.010 A 
ATOM     88  C   UNL A   1      43.370  36.447  26.913  1.00  0.00     0.020 A 
ATOM     89  C   UNL A   1      45.316  36.624  28.335  1.00  0.00     0.020 A 
ATOM     90  C   UNL A   1      44.409  37.205  27.455  1.00  0.00     0.054 A 
BRANCH  90  91
ATOM     91  S   UNL A   1      44.536  38.973  27.080  1.00  0.00     0.124 S 
ATOM     92  O   UNL A   1      45.675  39.007  26.168  1.00  0.00    -0.237 OA
ATOM     93  O   UNL A   1      43.241  39.278  26.472  1.00  0.00    -0.237 OA
ATOM     94  O   UNL A   1      44.758  39.580  28.389  1.00  0.00    -0.744 OA
ENDBRANCH  90  91
ENDBRANCH  64  85
ENDBRANCH  38  39
ENDBRANCH  30  33
ENDBRANCH  28  29
ENDBRANCH   1  28
TORSDOF 17
ENDMDL
MODEL 2
REMARK VINA RESULT:     -13.4      3.987     10.940
REMARK SMILES Cc1c(CC(=O)NCCCCNC(=O)c2ccc(-c3c4nc(c(-c5ccc(S(=O)(=O)[O-])cc5)c5ccc([nH]5)c(-c5ccc(S(=O)(=O)[O-])cc5)c5nc(c(-c6ccc(S(=O)(=O)[O-])cc6)c6ccc3[nH]6)C=C5)C=C4)cc2)cc(-c2ccccc2)cc1-c1ccccc1
REMARK SMILES IDX 10 1 9 2 8 3 7 4 5 5 6 6 4 8 3 9 1 10 2 11 84 12 75 13 83 14
REMARK SMILES IDX 76 15 85 16 86 17 90 18 87 19 89 20 88 21 77 22 78 23 82 24
REMARK SMILES IDX 79 25 81 26 80 27 11 28 12 29 13 30 14 32 15 33 16 34 74 35
REMARK SMILES IDX 17 36 73 37 18 38 19 39 20 40 67 41 21 42 72 43 66 44 68 45
REMARK SMILES IDX 22 46 71 47 65 48 64 49 23 51 53 52 34 53 52 54 35 55 38 56
REMARK SMILES IDX 51 57 69 58 36 59 37 60 50 62 70 63 39 64 24 65 25 66 33 67
REMARK SMILES IDX 26 68 32 69 27 70 28 71 29 72 30 73 31 74 54 75 55 76 63 77
REMARK SMILES IDX 56 78 62 79 57 80 58 81 59 82 60 83 61 84 40 85 41 86 49 87
REMARK SMILES IDX 42 88 48 89 43 90 44 91 45 92 46 93 47 94
REMARK H PARENT 7 7 12 31 68 50 38 61
REMARK Flexibility Score: inf
ROOT
ATOM      1  C   UNL A   1      32.928  29.104  25.428  1.00  0.00     0.023 C 
ENDROOT
BRANCH   1   2
ATOM      2  C   UNL A   1      33.661  27.872  24.888  1.00  0.00     0.023 C 
BRANCH   2   3
ATOM      3  C   UNL A   1      32.769  26.801  24.241  1.00  0.00     0.116 C 
BRANCH   3   4
ATOM      4  N   UNL A   1      32.355  25.752  25.162  1.00  0.00    -0.356 N 
ATOM      5  C   UNL A   1      32.476  24.396  25.051  1.00  0.00     0.224 C 
ATOM      6  O   UNL A   1      32.066  23.691  25.977  1.00  0.00    -0.275 OA
ATOM      7  H   UNL A   1      31.923  26.067  25.989  1.00  0.00     0.163 HD
BRANCH   5   8
ATOM      8  C   UNL A   1      33.108  23.771  23.811  1.00  0.00     0.135 C 
BRANCH   8   9
ATOM      9  C   UNL A   1      33.966  22.562  24.131  1.00  0.00    -0.035 A 
ATOM     10  C   UNL A   1      32.157  20.897  23.442  1.00  0.00     0.045 C 
ATOM     11  C   UNL A   1      33.502  21.227  24.053  1.00  0.00    -0.040 A 
ATOM     12  C   UNL A   1      34.337  20.182  24.532  1.00  0.00    -0.015 A 
ATOM     13  C   UNL A   1      35.274  22.817  24.597  1.00  0.00     0.013 A 
ATOM     14  C   UNL A   1      35.622  20.491  25.027  1.00  0.00     0.017 A 
ATOM     15  C   UNL A   1      36.114  21.800  25.060  1.00  0.00    -0.017 A 
BRANCH  12  16
ATOM     16  C   UNL A   1      33.879  18.785  24.624  1.00  0.00    -0.018 A 
ATOM     17  C   UNL A   1      34.459  17.802  23.804  1.00  0.00     0.009 A 
ATOM     18  C   UNL A   1      32.895  18.395  25.543  1.00  0.00     0.009 A 
ATOM     19  C   UNL A   1      34.077  16.464  23.910  1.00  0.00     0.001 A 
ATOM     20  C   UNL A   1      32.516  17.054  25.653  1.00  0.00     0.001 A 
ATOM     21  C   UNL A   1      33.107  16.091  24.836  1.00  0.00     0.000 A 
ENDBRANCH  12  16
BRANCH  15  22
ATOM     22  C   UNL A   1      37.446  22.110  25.603  1.00  0.00    -0.018 A 
ATOM     23  C   UNL A   1      38.456  21.132  25.640  1.00  0.00     0.009 A 
ATOM     24  C   UNL A   1      37.747  23.386  26.104  1.00  0.00     0.009 A 
ATOM     25  C   UNL A   1      39.719  21.418  26.165  1.00  0.00     0.001 A 
ATOM     26  C   UNL A   1      39.010  23.674  26.630  1.00  0.00     0.001 A 
ATOM     27  C   UNL A   1      39.994  22.689  26.661  1.00  0.00     0.000 A 
ENDBRANCH  15  22
ENDBRANCH   8   9
ENDBRANCH   5   8
ENDBRANCH   3   4
ENDBRANCH   2   3
ENDBRANCH   1   2
BRANCH   1  28
ATOM     28  C   UNL A   1      33.269  29.426  26.876  1.00  0.00     0.116 C 
BRANCH  28  29
ATOM     29  N   UNL A   1      33.748  30.775  27.111  1.00  0.00    -0.352 N 
ATOM     30  C   UNL A   1      34.614  31.126  28.136  1.00  0.00     0.251 C 
ATOM     31  H   UNL A   1      33.438  31.486  26.504  1.00  0.00     0.163 HD
ATOM     32  O   UNL A   1      34.514  32.162  28.774  1.00  0.00    -0.269 OA
BRANCH  30  33
ATOM     33  C   UNL A   1      35.788  30.238  28.311  1.00  0.00     0.039 A 
ATOM     34  C   UNL A   1      36.000  29.670  29.572  1.00  0.00     0.014 A 
ATOM     35  C   UNL A   1      36.772  30.173  27.329  1.00  0.00     0.014 A 
ATOM     36  C   UNL A   1      37.258  29.152  29.893  1.00  0.00     0.010 A 
ATOM     37  C   UNL A   1      38.042  29.743  27.680  1.00  0.00     0.010 A 
ATOM     38  C   UNL A   1      38.304  29.259  28.972  1.00  0.00    -0.014 A 
BRANCH  38  39
ATOM     39  C   UNL A   1      39.712  29.020  29.311  1.00  0.00     0.031 A 
ATOM     40  C   UNL A   1      40.424  27.781  28.890  1.00  0.00     0.074 A 
ATOM     41  C   UNL A   1      40.435  29.943  29.988  1.00  0.00     0.049 A 
ATOM     42  N   UNL A   1      41.403  27.250  29.558  1.00  0.00    -0.248 NA
ATOM     43  C   UNL A   1      40.071  27.023  27.693  1.00  0.00     0.031 C 
ATOM     44  C   UNL A   1      41.893  29.977  30.097  1.00  0.00     0.029 A 
ATOM     45  N   UNL A   1      40.012  30.919  30.893  1.00  0.00    -0.354 N 
ATOM     46  C   UNL A   1      41.974  26.291  28.755  1.00  0.00     0.074 A 
ATOM     47  C   UNL A   1      41.066  26.132  27.640  1.00  0.00     0.031 C 
ATOM     48  C   UNL A   1      42.227  30.663  31.199  1.00  0.00     0.029 A 
ATOM     49  C   UNL A   1      40.996  30.999  31.892  1.00  0.00     0.049 A 
ATOM     50  H   UNL A   1      39.184  31.448  30.840  1.00  0.00     0.167 HD
ATOM     51  C   UNL A   1      43.230  25.816  28.996  1.00  0.00     0.031 A 
ATOM     52  C   UNL A   1      40.781  30.882  33.233  1.00  0.00     0.031 A 
ATOM     53  C   UNL A   1      43.881  26.451  30.133  1.00  0.00     0.049 A 
ATOM     54  C   UNL A   1      41.665  29.862  33.910  1.00  0.00     0.074 A 
ATOM     55  C   UNL A   1      44.830  27.457  30.222  1.00  0.00     0.029 A 
ATOM     56  N   UNL A   1      43.424  26.223  31.422  1.00  0.00    -0.354 N 
ATOM     57  N   UNL A   1      42.397  29.001  33.264  1.00  0.00    -0.248 NA
ATOM     58  C   UNL A   1      41.727  29.666  35.357  1.00  0.00     0.031 C 
ATOM     59  C   UNL A   1      44.933  27.849  31.577  1.00  0.00     0.029 A 
ATOM     60  C   UNL A   1      44.042  27.085  32.308  1.00  0.00     0.049 A 
ATOM     61  H   UNL A   1      42.753  25.545  31.671  1.00  0.00     0.167 HD
ATOM     62  C   UNL A   1      42.965  28.125  34.151  1.00  0.00     0.074 A 
ATOM     63  C   UNL A   1      42.545  28.603  35.454  1.00  0.00     0.031 C 
ATOM     64  C   UNL A   1      43.707  27.063  33.723  1.00  0.00     0.031 A 
BRANCH  51  65
ATOM     65  C   UNL A   1      43.980  24.992  27.975  1.00  0.00    -0.014 A 
ATOM     66  C   UNL A   1      44.805  25.629  27.027  1.00  0.00     0.010 A 
ATOM     67  C   UNL A   1      43.871  23.591  27.878  1.00  0.00     0.010 A 
ATOM     68  C   UNL A   1      45.382  24.932  25.960  1.00  0.00     0.020 A 
ATOM     69  C   UNL A   1      44.414  22.885  26.793  1.00  0.00     0.020 A 
ATOM     70  C   UNL A   1      45.151  23.567  25.827  1.00  0.00     0.054 A 
BRANCH  70  71
ATOM     71  S   UNL A   1      45.777  22.716  24.354  1.00  0.00     0.124 S 
ATOM     72  O   UNL A   1      44.554  22.447  23.600  1.00  0.00    -0.237 OA
ATOM     73  O   UNL A   1      46.668  23.714  23.771  1.00  0.00    -0.237 OA
ATOM     74  O   UNL A   1      46.436  21.529  24.895  1.00  0.00    -0.744 OA
ENDBRANCH  70  71
ENDBRANCH  51  65
BRANCH  52  75
ATOM     75  C   UNL A   1      39.405  31.217  33.672  1.00  0.00    -0.014 A 
ATOM     76  C   UNL A   1      39.160  32.544  34.082  1.00  0.00     0.010 A 
ATOM     77  C   UNL A   1      38.326  30.403  33.288  1.00  0.00     0.010 A 
ATOM     78  C   UNL A   1      37.889  33.101  33.936  1.00  0.00     0.020 A 
ATOM     79  C   UNL A   1      37.049  30.960  33.144  1.00  0.00     0.020 A 
ATOM     80  C   UNL A   1      36.862  32.322  33.401  1.00  0.00     0.054 A 
BRANCH  80  81
ATOM     81  S   UNL A   1      35.348  33.169  32.859  1.00  0.00     0.124 S 
ATOM     82  O   UNL A   1      34.638  33.381  34.117  1.00  0.00    -0.237 OA
ATOM     83  O   UNL A   1      35.888  34.372  32.227  1.00  0.00    -0.237 OA
ATOM     84  O   UNL A   1      34.738  32.209  31.943  1.00  0.00    -0.744 OA
ENDBRANCH  80  81
ENDBRANCH  52  75
BRANCH  64  85
ATOM     85  C   UNL A   1      44.255  25.951  34.581  1.00  0.00    -0.014 A 
ATOM     86  C   UNL A   1      43.460  24.995  35.231  1.00  0.00     0.010 A 
ATOM     87  C   UNL A   1      45.658  25.776  34.652  1.00  0.00     0.010 A 
ATOM     88  C   UNL A   1      44.035  23.947  35.966  1.00  0.00     0.020 A 
ATOM     89  C   UNL A   1      46.242  24.716  35.352  1.00  0.00     0.020 A 
ATOM     90  C   UNL A   1      45.423  23.816  36.027  1.00  0.00     0.054 A 
BRANCH  90  91
ATOM     91  S   UNL A   1      46.168  22.426  36.918  1.00  0.00     0.124 S 
ATOM     92  O   UNL A   1      47.592  22.642  36.680  1.00  0.00    -0.237 OA
ATOM     93  O   UNL A   1      45.727  22.639  38.296  1.00  0.00    -0.237 OA
ATOM     94  O   UNL A   1      45.590  21.256  36.262  1.00  0.00    -0.744 OA
ENDBRANCH  90  91
ENDBRANCH  64  85
ENDBRANCH  38  39
ENDBRANCH  30  33
ENDBRANCH  28  29
ENDBRANCH   1  28
TORSDOF 17
ENDMDL
MODEL 3
REMARK VINA RESULT:     -12.2      4.362     10.886
REMARK SMILES Cc1c(CC(=O)NCCCCNC(=O)c2ccc(-c3c4nc(c(-c5ccc(S(=O)(=O)[O-])cc5)c5ccc([nH]5)c(-c5ccc(S(=O)(=O)[O-])cc5)c5nc(c(-c6ccc(S(=O)(=O)[O-])cc6)c6ccc3[nH]6)C=C5)C=C4)cc2)cc(-c2ccccc2)cc1-c1ccccc1
REMARK SMILES IDX 10 1 9 2 8 3 7 4 5 5 6 6 4 8 3 9 1 10 2 11 84 12 75 13 83 14
REMARK SMILES IDX 76 15 85 16 86 17 90 18 87 19 89 20 88 21 77 22 78 23 82 24
REMARK SMILES IDX 79 25 81 26 80 27 11 28 12 29 13 30 14 32 15 33 16 34 74 35
REMARK SMILES IDX 17 36 73 37 18 38 19 39 20 40 67 41 21 42 72 43 66 44 68 45
REMARK SMILES IDX 22 46 71 47 65 48 64 49 23 51 53 52 34 53 52 54 35 55 38 56
REMARK SMILES IDX 51 57 69 58 36 59 37 60 50 62 70 63 39 64 24 65 25 66 33 67
REMARK SMILES IDX 26 68 32 69 27 70 28 71 29 72 30 73 31 74 54 75 55 76 63 77
REMARK SMILES IDX 56 78 62 79 57 80 58 81 59 82 60 83 61 84 40 85 41 86 49 87
REMARK SMILES IDX 42 88 48 89 43 90 44 91 45 92 46 93 47 94
REMARK H PARENT 7 7 12 31 68 50 38 61
REMARK Flexibility Score: inf
ROOT
ATOM      1  C   UNL A   1      33.813  27.757  26.502  1.00  0.00     0.023 C 
ENDROOT
BRANCH   1   2
ATOM      2  C   UNL A   1      34.015  26.705  25.407  1.00  0.00     0.023 C 
BRANCH   2   3
ATOM      3  C   UNL A   1      32.907  26.634  24.344  1.00  0.00     0.116 C 
BRANCH   3   4
ATOM      4  N   UNL A   1      33.321  25.979  23.113  1.00  0.00    -0.356 N 
ATOM      5  C   UNL A   1      33.218  24.667  22.745  1.00  0.00     0.224 C 
ATOM      6  O   UNL A   1      33.623  24.336  21.627  1.00  0.00    -0.275 OA
ATOM      7  H   UNL A   1      33.739  26.568  22.444  1.00  0.00     0.163 HD
BRANCH   5   8
ATOM      8  C   UNL A   1      32.609  23.640  23.694  1.00  0.00     0.135 C 
BRANCH   8   9
ATOM      9  C   UNL A   1      33.584  22.543  24.080  1.00  0.00    -0.035 A 
ATOM     10  C   UNL A   1      31.990  20.667  23.401  1.00  0.00     0.045 C 
ATOM     11  C   UNL A   1      33.271  21.163  24.036  1.00  0.00    -0.040 A 
ATOM     12  C   UNL A   1      34.199  20.233  24.574  1.00  0.00    -0.015 A 
ATOM     13  C   UNL A   1      34.841  22.955  24.572  1.00  0.00     0.013 A 
ATOM     14  C   UNL A   1      35.428  20.697  25.093  1.00  0.00     0.017 A 
ATOM     15  C   UNL A   1      35.772  22.053  25.093  1.00  0.00    -0.017 A 
BRANCH  12  16
ATOM     16  C   UNL A   1      33.894  18.797  24.703  1.00  0.00    -0.018 A 
ATOM     17  C   UNL A   1      34.755  17.844  24.133  1.00  0.00     0.009 A 
ATOM     18  C   UNL A   1      32.776  18.346  25.420  1.00  0.00     0.009 A 
ATOM     19  C   UNL A   1      34.513  16.478  24.285  1.00  0.00     0.001 A 
ATOM     20  C   UNL A   1      32.537  16.978  25.577  1.00  0.00     0.001 A 
ATOM     21  C   UNL A   1      33.405  16.046  25.009  1.00  0.00     0.000 A 
ENDBRANCH  12  16
BRANCH  15  22
ATOM     22  C   UNL A   1      37.045  22.524  25.661  1.00  0.00    -0.018 A 
ATOM     23  C   UNL A   1      37.184  23.845  26.123  1.00  0.00     0.009 A 
ATOM     24  C   UNL A   1      38.158  21.674  25.754  1.00  0.00     0.009 A 
ATOM     25  C   UNL A   1      38.393  24.301  26.654  1.00  0.00     0.001 A 
ATOM     26  C   UNL A   1      39.369  22.129  26.283  1.00  0.00     0.001 A 
ATOM     27  C   UNL A   1      39.486  23.443  26.731  1.00  0.00     0.000 A 
ENDBRANCH  15  22
ENDBRANCH   8   9
ENDBRANCH   5   8
ENDBRANCH   3   4
ENDBRANCH   2   3
ENDBRANCH   1   2
BRANCH   1  28
ATOM     28  C   UNL A   1      34.979  28.726  26.635  1.00  0.00     0.116 C 
BRANCH  28  29
ATOM     29  N   UNL A   1      34.611  30.128  26.690  1.00  0.00    -0.352 N 
ATOM     30  C   UNL A   1      34.674  30.905  27.837  1.00  0.00     0.251 C 
ATOM     31  H   UNL A   1      34.297  30.555  25.860  1.00  0.00     0.163 HD
ATOM     32  O   UNL A   1      33.835  31.743  28.127  1.00  0.00    -0.269 OA
BRANCH  30  33
ATOM     33  C   UNL A   1      35.923  30.778  28.626  1.00  0.00     0.039 A 
ATOM     34  C   UNL A   1      36.871  31.802  28.526  1.00  0.00     0.014 A 
ATOM     35  C   UNL A   1      36.242  29.573  29.245  1.00  0.00     0.014 A 
ATOM     36  C   UNL A   1      38.187  31.564  28.929  1.00  0.00     0.010 A 
ATOM     37  C   UNL A   1      37.566  29.311  29.560  1.00  0.00     0.010 A 
ATOM     38  C   UNL A   1      38.555  30.291  29.375  1.00  0.00    -0.014 A 
BRANCH  38  39
ATOM     39  C   UNL A   1      39.947  29.859  29.541  1.00  0.00     0.031 A 
ATOM     40  C   UNL A   1      40.423  28.531  29.059  1.00  0.00     0.074 A 
ATOM     41  C   UNL A   1      40.870  30.674  30.104  1.00  0.00     0.049 A 
ATOM     42  N   UNL A   1      41.396  27.872  29.610  1.00  0.00    -0.248 NA
ATOM     43  C   UNL A   1      39.820  27.827  27.931  1.00  0.00     0.031 C 
ATOM     44  C   UNL A   1      42.321  30.505  30.029  1.00  0.00     0.029 A 
ATOM     45  N   UNL A   1      40.704  31.701  31.034  1.00  0.00    -0.354 N 
ATOM     46  C   UNL A   1      41.724  26.840  28.762  1.00  0.00     0.074 A 
ATOM     47  C   UNL A   1      40.669  26.806  27.773  1.00  0.00     0.031 C 
ATOM     48  C   UNL A   1      42.883  31.140  31.067  1.00  0.00     0.029 A 
ATOM     49  C   UNL A   1      41.808  31.646  31.901  1.00  0.00     0.049 A 
ATOM     50  H   UNL A   1      39.956  32.340  31.074  1.00  0.00     0.167 HD
ATOM     51  C   UNL A   1      42.923  26.196  28.853  1.00  0.00     0.031 A 
ATOM     52  C   UNL A   1      41.749  31.564  33.260  1.00  0.00     0.031 A 
ATOM     53  C   UNL A   1      43.793  26.737  29.888  1.00  0.00     0.049 A 
ATOM     54  C   UNL A   1      42.563  30.432  33.842  1.00  0.00     0.074 A 
ATOM     55  C   UNL A   1      44.875  27.601  29.838  1.00  0.00     0.029 A 
ATOM     56  N   UNL A   1      43.475  26.578  31.228  1.00  0.00    -0.354 N 
ATOM     57  N   UNL A   1      43.082  29.476  33.127  1.00  0.00    -0.248 NA
ATOM     58  C   UNL A   1      42.780  30.234  35.274  1.00  0.00     0.031 C 
ATOM     59  C   UNL A   1      45.201  27.979  31.161  1.00  0.00     0.029 A 
ATOM     60  C   UNL A   1      44.314  27.348  32.012  1.00  0.00     0.049 A 
ATOM     61  H   UNL A   1      42.755  26.000  31.572  1.00  0.00     0.167 HD
ATOM     62  C   UNL A   1      43.631  28.532  33.954  1.00  0.00     0.074 A 
ATOM     63  C   UNL A   1      43.449  29.067  35.289  1.00  0.00     0.031 C 
ATOM     64  C   UNL A   1      44.160  27.377  33.458  1.00  0.00     0.031 A 
BRANCH  51  65
ATOM     65  C   UNL A   1      43.417  25.273  27.764  1.00  0.00    -0.014 A 
ATOM     66  C   UNL A   1      42.594  24.994  26.654  1.00  0.00     0.010 A 
ATOM     67  C   UNL A   1      44.663  24.619  27.806  1.00  0.00     0.010 A 
ATOM     68  C   UNL A   1      42.931  24.019  25.709  1.00  0.00     0.020 A 
ATOM     69  C   UNL A   1      44.998  23.613  26.886  1.00  0.00     0.020 A 
ATOM     70  C   UNL A   1      44.116  23.305  25.852  1.00  0.00     0.054 A 
BRANCH  70  71
ATOM     71  S   UNL A   1      44.456  21.941  24.707  1.00  0.00     0.124 S 
ATOM     72  O   UNL A   1      44.318  22.582  23.401  1.00  0.00    -0.237 OA
ATOM     73  O   UNL A   1      45.814  21.554  25.077  1.00  0.00    -0.237 OA
ATOM     74  O   UNL A   1      43.419  20.961  25.022  1.00  0.00    -0.744 OA
ENDBRANCH  70  71
ENDBRANCH  51  65
BRANCH  52  75
ATOM     75  C   UNL A   1      40.499  32.089  33.861  1.00  0.00    -0.014 A 
ATOM     76  C   UNL A   1      39.436  31.181  34.042  1.00  0.00     0.010 A 
ATOM     77  C   UNL A   1      40.523  33.281  34.604  1.00  0.00     0.010 A 
ATOM     78  C   UNL A   1      38.515  31.374  35.072  1.00  0.00     0.020 A 
ATOM     79  C   UNL A   1      39.597  33.477  35.636  1.00  0.00     0.020 A 
ATOM     80  C   UNL A   1      38.649  32.485  35.905  1.00  0.00     0.054 A 
BRANCH  80  81
ATOM     81  S   UNL A   1      37.699  32.506  37.455  1.00  0.00     0.124 S 
ATOM     82  O   UNL A   1      37.465  31.086  37.700  1.00  0.00    -0.237 OA
ATOM     83  O   UNL A   1      38.634  33.159  38.370  1.00  0.00    -0.237 OA
ATOM     84  O   UNL A   1      36.516  33.291  37.111  1.00  0.00    -0.744 OA
ENDBRANCH  80  81
ENDBRANCH  52  75
BRANCH  64  85
ATOM     85  C   UNL A   1      44.653  26.202  34.263  1.00  0.00    -0.014 A 
ATOM     86  C   UNL A   1      44.201  25.886  35.554  1.00  0.00     0.010 A 
ATOM     87  C   UNL A   1      45.542  25.284  33.652  1.00  0.00     0.010 A 
ATOM     88  C   UNL A   1      44.655  24.741  36.226  1.00  0.00     0.020 A 
ATOM     89  C   UNL A   1      45.974  24.122  34.299  1.00  0.00     0.020 A 
ATOM     90  C   UNL A   1      45.544  23.868  35.597  1.00  0.00     0.054 A 
BRANCH  90  91
ATOM     91  S   UNL A   1      46.080  22.355  36.436  1.00  0.00     0.124 S 
ATOM     92  O   UNL A   1      45.389  21.323  35.668  1.00  0.00    -0.237 OA
ATOM     93  O   UNL A   1      47.533  22.382  36.276  1.00  0.00    -0.237 OA
ATOM     94  O   UNL A   1      45.609  22.543  37.805  1.00  0.00    -0.744 OA
ENDBRANCH  90  91
ENDBRANCH  64  85
ENDBRANCH  38  39
ENDBRANCH  30  33
ENDBRANCH  28  29
ENDBRANCH   1  28
TORSDOF 17
ENDMDL
