MODEL 1
REMARK VINA RESULT:     -10.5      0.000      0.000
REMARK SMILES CCCc1cc(OCC(=O)NCCCCNC(=O)c2ccc(-c3c4nc(c(-c5ccc(S(=O)(=O)[O-])cc5)c5ccc([nH]5)c(-c5ccc(S(=O)(=O)[O-])cc5)c5nc(c(-c6ccc(S(=O)(=O)[O-])cc6)c6ccc3[nH]6)C=C5)C=C4)cc2)nc(Nc2ccc(C#N)cc2)n1
REMARK SMILES IDX 12 1 11 2 9 3 10 4 8 6 7 7 6 8 4 9 5 10 90 11 80 12 79 13
REMARK SMILES IDX 3 14 2 15 1 16 81 17 82 19 83 20 89 21 84 22 88 23 85 24
REMARK SMILES IDX 86 25 87 26 13 27 14 28 15 29 16 30 17 31 18 33 19 34 20 35
REMARK SMILES IDX 78 36 21 37 77 38 22 39 23 40 24 41 71 42 25 43 76 44 70 45
REMARK SMILES IDX 72 46 26 47 75 48 69 49 68 50 27 52 57 53 38 54 56 55 39 56
REMARK SMILES IDX 42 57 55 58 73 59 40 60 41 61 54 63 74 64 43 65 28 66 29 67
REMARK SMILES IDX 37 68 30 69 36 70 31 71 32 72 33 73 34 74 35 75 58 76 59 77
REMARK SMILES IDX 67 78 60 79 66 80 61 81 62 82 63 83 64 84 65 85 44 86 45 87
REMARK SMILES IDX 53 88 46 89 52 90 47 91 48 92 49 93 50 94 51 95
REMARK H PARENT 11 5 81 18 16 32 72 51 42 62
REMARK Flexibility Score: inf
ROOT
ATOM      1  C   UNL A   1      37.664  21.585  25.218  1.00  0.00     0.116 C 
ENDROOT
BRANCH   1   2
ATOM      2  N   UNL A   1      36.616  21.984  26.137  1.00  0.00    -0.353 N 
ATOM      3  C   UNL A   1      35.813  23.084  26.068  1.00  0.00     0.258 C 
ATOM      4  O   UNL A   1      34.948  23.253  26.929  1.00  0.00    -0.271 OA
ATOM      5  H   UNL A   1      36.465  21.386  26.904  1.00  0.00     0.163 HD
BRANCH   3   6
ATOM      6  C   UNL A   1      35.991  24.080  24.914  1.00  0.00     0.331 C 
BRANCH   6   7
ATOM      7  O   UNL A   1      35.501  23.697  23.641  1.00  0.00    -0.467 OA
BRANCH   7   8
ATOM      8  C   UNL A   1      34.147  23.697  23.451  1.00  0.00     0.218 A 
ATOM      9  C   UNL A   1      32.020  24.635  23.199  1.00  0.00     0.050 A 
ATOM     10  C   UNL A   1      33.351  24.820  23.489  1.00  0.00     0.092 A 
ATOM     11  N   UNL A   1      31.533  23.422  22.917  1.00  0.00    -0.218 NA
ATOM     12  C   UNL A   1      32.348  22.361  22.980  1.00  0.00     0.230 A 
ATOM     13  N   UNL A   1      33.656  22.460  23.238  1.00  0.00    -0.177 NA
BRANCH   9  14
ATOM     14  C   UNL A   1      31.064  25.800  23.247  1.00  0.00     0.056 C 
BRANCH  14  15
ATOM     15  C   UNL A   1      29.883  25.663  24.217  1.00  0.00     0.003 C 
ATOM     16  C   UNL A   1      30.221  26.013  25.663  1.00  0.00     0.004 C 
ENDBRANCH  14  15
ENDBRANCH   9  14
BRANCH  12  17
ATOM     17  N   UNL A   1      31.788  21.085  22.897  1.00  0.00    -0.324 N 
ATOM     18  H   UNL A   1      30.908  21.022  22.460  1.00  0.00     0.170 HD
BRANCH  17  19
ATOM     19  C   UNL A   1      32.339  19.887  23.366  1.00  0.00     0.041 A 
ATOM     20  C   UNL A   1      32.549  19.700  24.737  1.00  0.00     0.027 A 
ATOM     21  C   UNL A   1      32.553  18.798  22.507  1.00  0.00     0.027 A 
ATOM     22  C   UNL A   1      32.952  18.454  25.235  1.00  0.00     0.021 A 
ATOM     23  C   UNL A   1      32.975  17.558  22.995  1.00  0.00     0.021 A 
ATOM     24  C   UNL A   1      33.166  17.380  24.365  1.00  0.00     0.052 A 
BRANCH  24  25
ATOM     25  C   UNL A   1      33.553  16.100  24.881  1.00  0.00     0.099 C 
ATOM     26  N   UNL A   1      33.853  15.064  25.314  1.00  0.00    -0.192 NA
ENDBRANCH  24  25
ENDBRANCH  17  19
ENDBRANCH  12  17
ENDBRANCH   7   8
ENDBRANCH   6   7
ENDBRANCH   3   6
ENDBRANCH   1   2
BRANCH   1  27
ATOM     27  C   UNL A   1      37.523  20.132  24.775  1.00  0.00     0.023 C 
BRANCH  27  28
ATOM     28  C   UNL A   1      38.581  19.182  25.343  1.00  0.00     0.023 C 
BRANCH  28  29
ATOM     29  C   UNL A   1      39.706  19.851  26.125  1.00  0.00     0.116 C 
BRANCH  29  30
ATOM     30  N   UNL A   1      40.929  19.063  26.144  1.00  0.00    -0.352 N 
ATOM     31  C   UNL A   1      42.234  19.489  26.227  1.00  0.00     0.251 C 
ATOM     32  H   UNL A   1      40.804  18.089  26.089  1.00  0.00     0.163 HD
ATOM     33  O   UNL A   1      43.149  18.685  26.073  1.00  0.00    -0.269 OA
BRANCH  31  34
ATOM     34  C   UNL A   1      42.529  20.917  26.471  1.00  0.00     0.039 A 
ATOM     35  C   UNL A   1      42.686  21.359  27.787  1.00  0.00     0.014 A 
ATOM     36  C   UNL A   1      42.671  21.814  25.409  1.00  0.00     0.014 A 
ATOM     37  C   UNL A   1      43.056  22.684  28.031  1.00  0.00     0.010 A 
ATOM     38  C   UNL A   1      43.124  23.108  25.651  1.00  0.00     0.010 A 
ATOM     39  C   UNL A   1      43.320  23.559  26.964  1.00  0.00    -0.014 A 
BRANCH  39  40
ATOM     40  C   UNL A   1      43.813  24.941  27.205  1.00  0.00     0.031 A 
ATOM     41  C   UNL A   1      45.263  25.281  26.983  1.00  0.00     0.074 A 
ATOM     42  C   UNL A   1      42.967  25.879  27.677  1.00  0.00     0.049 A 
ATOM     43  N   UNL A   1      45.882  26.417  27.181  1.00  0.00    -0.248 NA
ATOM     44  C   UNL A   1      46.137  24.200  26.496  1.00  0.00     0.031 C 
ATOM     45  C   UNL A   1      41.547  25.669  27.968  1.00  0.00     0.029 A 
ATOM     46  N   UNL A   1      43.176  27.197  27.999  1.00  0.00    -0.354 N 
ATOM     47  C   UNL A   1      47.214  26.186  26.855  1.00  0.00     0.074 A 
ATOM     48  C   UNL A   1      47.324  24.787  26.502  1.00  0.00     0.031 C 
ATOM     49  C   UNL A   1      41.006  26.823  28.391  1.00  0.00     0.029 A 
ATOM     50  C   UNL A   1      42.050  27.842  28.457  1.00  0.00     0.049 A 
ATOM     51  H   UNL A   1      44.051  27.641  27.911  1.00  0.00     0.167 HD
ATOM     52  C   UNL A   1      48.247  27.062  26.830  1.00  0.00     0.031 A 
ATOM     53  C   UNL A   1      41.874  29.104  28.893  1.00  0.00     0.031 A 
ATOM     54  C   UNL A   1      48.133  28.452  27.189  1.00  0.00     0.049 A 
ATOM     55  C   UNL A   1      43.047  30.047  28.898  1.00  0.00     0.074 A 
ATOM     56  C   UNL A   1      49.112  29.429  27.153  1.00  0.00     0.029 A 
ATOM     57  N   UNL A   1      46.978  29.060  27.656  1.00  0.00    -0.354 N 
ATOM     58  N   UNL A   1      44.284  29.827  28.518  1.00  0.00    -0.248 NA
ATOM     59  C   UNL A   1      42.800  31.413  29.379  1.00  0.00     0.031 C 
ATOM     60  C   UNL A   1      48.570  30.609  27.671  1.00  0.00     0.029 A 
ATOM     61  C   UNL A   1      47.229  30.391  27.948  1.00  0.00     0.049 A 
ATOM     62  H   UNL A   1      46.109  28.612  27.766  1.00  0.00     0.167 HD
ATOM     63  C   UNL A   1      44.952  31.035  28.683  1.00  0.00     0.074 A 
ATOM     64  C   UNL A   1      43.978  31.985  29.180  1.00  0.00     0.031 C 
ATOM     65  C   UNL A   1      46.254  31.330  28.443  1.00  0.00     0.031 A 
BRANCH  52  66
ATOM     66  C   UNL A   1      49.600  26.537  26.418  1.00  0.00    -0.014 A 
ATOM     67  C   UNL A   1      50.082  26.708  25.107  1.00  0.00     0.010 A 
ATOM     68  C   UNL A   1      50.425  25.908  27.369  1.00  0.00     0.010 A 
ATOM     69  C   UNL A   1      51.343  26.223  24.745  1.00  0.00     0.020 A 
ATOM     70  C   UNL A   1      51.700  25.454  27.021  1.00  0.00     0.020 A 
ATOM     71  C   UNL A   1      52.144  25.600  25.706  1.00  0.00     0.054 A 
BRANCH  71  72
ATOM     72  S   UNL A   1      53.785  25.006  25.212  1.00  0.00     0.124 S 
ATOM     73  O   UNL A   1      53.914  25.562  23.866  1.00  0.00    -0.237 OA
ATOM     74  O   UNL A   1      54.655  25.600  26.222  1.00  0.00    -0.237 OA
ATOM     75  O   UNL A   1      53.661  23.552  25.274  1.00  0.00    -0.744 OA
ENDBRANCH  71  72
ENDBRANCH  52  66
BRANCH  53  76
ATOM     76  C   UNL A   1      40.532  29.553  29.364  1.00  0.00    -0.014 A 
ATOM     77  C   UNL A   1      39.542  29.948  28.448  1.00  0.00     0.010 A 
ATOM     78  C   UNL A   1      40.239  29.583  30.740  1.00  0.00     0.010 A 
ATOM     79  C   UNL A   1      38.292  30.386  28.900  1.00  0.00     0.020 A 
ATOM     80  C   UNL A   1      38.979  29.985  31.193  1.00  0.00     0.020 A 
ATOM     81  C   UNL A   1      38.017  30.396  30.270  1.00  0.00     0.054 A 
BRANCH  81  82
ATOM     82  S   UNL A   1      36.374  30.922  30.827  1.00  0.00     0.124 S 
ATOM     83  O   UNL A   1      35.615  30.924  29.579  1.00  0.00    -0.237 OA
ATOM     84  O   UNL A   1      36.018  29.878  31.784  1.00  0.00    -0.237 OA
ATOM     85  O   UNL A   1      36.616  32.239  31.412  1.00  0.00    -0.744 OA
ENDBRANCH  81  82
ENDBRANCH  53  76
BRANCH  65  86
ATOM     86  C   UNL A   1      46.700  32.752  28.671  1.00  0.00    -0.014 A 
ATOM     87  C   UNL A   1      47.247  33.167  29.898  1.00  0.00     0.010 A 
ATOM     88  C   UNL A   1      46.623  33.677  27.611  1.00  0.00     0.010 A 
ATOM     89  C   UNL A   1      47.675  34.487  30.071  1.00  0.00     0.020 A 
ATOM     90  C   UNL A   1      47.085  34.986  27.768  1.00  0.00     0.020 A 
ATOM     91  C   UNL A   1      47.596  35.386  29.004  1.00  0.00     0.054 A 
BRANCH  91  92
ATOM     92  S   UNL A   1      48.204  37.078  29.243  1.00  0.00     0.124 S 
ATOM     93  O   UNL A   1      47.252  37.858  28.458  1.00  0.00    -0.237 OA
ATOM     94  O   UNL A   1      48.114  37.246  30.690  1.00  0.00    -0.237 OA
ATOM     95  O   UNL A   1      49.564  37.037  28.709  1.00  0.00    -0.744 OA
ENDBRANCH  91  92
ENDBRANCH  65  86
ENDBRANCH  39  40
ENDBRANCH  31  34
ENDBRANCH  29  30
ENDBRANCH  28  29
ENDBRANCH  27  28
ENDBRANCH   1  27
TORSDOF 21
ENDMDL
MODEL 2
REMARK VINA RESULT:      -9.7      3.049      9.583
REMARK SMILES CCCc1cc(OCC(=O)NCCCCNC(=O)c2ccc(-c3c4nc(c(-c5ccc(S(=O)(=O)[O-])cc5)c5ccc([nH]5)c(-c5ccc(S(=O)(=O)[O-])cc5)c5nc(c(-c6ccc(S(=O)(=O)[O-])cc6)c6ccc3[nH]6)C=C5)C=C4)cc2)nc(Nc2ccc(C#N)cc2)n1
REMARK SMILES IDX 12 1 11 2 9 3 10 4 8 6 7 7 6 8 4 9 5 10 90 11 80 12 79 13
REMARK SMILES IDX 3 14 2 15 1 16 81 17 82 19 83 20 89 21 84 22 88 23 85 24
REMARK SMILES IDX 86 25 87 26 13 27 14 28 15 29 16 30 17 31 18 33 19 34 20 35
REMARK SMILES IDX 78 36 21 37 77 38 22 39 23 40 24 41 71 42 25 43 76 44 70 45
REMARK SMILES IDX 72 46 26 47 75 48 69 49 68 50 27 52 57 53 38 54 56 55 39 56
REMARK SMILES IDX 42 57 55 58 73 59 40 60 41 61 54 63 74 64 43 65 28 66 29 67
REMARK SMILES IDX 37 68 30 69 36 70 31 71 32 72 33 73 34 74 35 75 58 76 59 77
REMARK SMILES IDX 67 78 60 79 66 80 61 81 62 82 63 83 64 84 65 85 44 86 45 87
REMARK SMILES IDX 53 88 46 89 52 90 47 91 48 92 49 93 50 94 51 95
REMARK H PARENT 11 5 81 18 16 32 72 51 42 62
REMARK Flexibility Score: inf
ROOT
ATOM      1  C   UNL A   1      33.612  31.193  27.410  1.00  0.00     0.116 C 
ENDROOT
BRANCH   1   2
ATOM      2  N   UNL A   1      33.959  30.229  26.384  1.00  0.00    -0.353 N 
ATOM      3  C   UNL A   1      33.272  29.109  26.018  1.00  0.00     0.258 C 
ATOM      4  O   UNL A   1      33.703  28.412  25.098  1.00  0.00    -0.271 OA
ATOM      5  H   UNL A   1      34.793  30.404  25.890  1.00  0.00     0.163 HD
BRANCH   3   6
ATOM      6  C   UNL A   1      31.971  28.748  26.746  1.00  0.00     0.331 C 
BRANCH   6   7
ATOM      7  O   UNL A   1      31.784  27.392  27.115  1.00  0.00    -0.467 OA
BRANCH   7   8
ATOM      8  C   UNL A   1      31.437  26.505  26.133  1.00  0.00     0.218 A 
ATOM      9  C   UNL A   1      31.461  24.472  24.979  1.00  0.00     0.050 A 
ATOM     10  C   UNL A   1      31.989  25.253  25.979  1.00  0.00     0.092 A 
ATOM     11  N   UNL A   1      30.478  24.922  24.193  1.00  0.00    -0.218 NA
ATOM     12  C   UNL A   1      30.046  26.181  24.344  1.00  0.00     0.230 A 
ATOM     13  N   UNL A   1      30.497  26.996  25.302  1.00  0.00    -0.177 NA
BRANCH   9  14
ATOM     14  C   UNL A   1      32.022  23.097  24.714  1.00  0.00     0.056 C 
BRANCH  14  15
ATOM     15  C   UNL A   1      33.388  23.051  24.015  1.00  0.00     0.003 C 
ATOM     16  C   UNL A   1      33.752  24.333  23.274  1.00  0.00     0.004 C 
ENDBRANCH  14  15
ENDBRANCH   9  14
BRANCH  12  17
ATOM     17  N   UNL A   1      29.179  26.707  23.385  1.00  0.00    -0.324 N 
ATOM     18  H   UNL A   1      28.664  26.055  22.857  1.00  0.00     0.170 HD
BRANCH  17  19
ATOM     19  C   UNL A   1      28.962  28.058  23.092  1.00  0.00     0.041 A 
ATOM     20  C   UNL A   1      29.948  28.801  22.432  1.00  0.00     0.027 A 
ATOM     21  C   UNL A   1      27.713  28.659  23.310  1.00  0.00     0.027 A 
ATOM     22  C   UNL A   1      29.687  30.107  21.995  1.00  0.00     0.021 A 
ATOM     23  C   UNL A   1      27.452  29.968  22.894  1.00  0.00     0.021 A 
ATOM     24  C   UNL A   1      28.438  30.693  22.224  1.00  0.00     0.052 A 
BRANCH  24  25
ATOM     25  C   UNL A   1      28.166  32.018  21.752  1.00  0.00     0.099 C 
ATOM     26  N   UNL A   1      27.925  33.090  21.372  1.00  0.00    -0.192 NA
ENDBRANCH  24  25
ENDBRANCH  17  19
ENDBRANCH  12  17
ENDBRANCH   7   8
ENDBRANCH   6   7
ENDBRANCH   3   6
ENDBRANCH   1   2
BRANCH   1  27
ATOM     27  C   UNL A   1      34.616  31.200  28.559  1.00  0.00     0.023 C 
BRANCH  27  28
ATOM     28  C   UNL A   1      35.818  32.125  28.356  1.00  0.00     0.023 C 
BRANCH  28  29
ATOM     29  C   UNL A   1      36.449  32.664  29.635  1.00  0.00     0.116 C 
BRANCH  29  30
ATOM     30  N   UNL A   1      36.138  31.856  30.804  1.00  0.00    -0.352 N 
ATOM     31  C   UNL A   1      36.875  30.851  31.386  1.00  0.00     0.251 C 
ATOM     32  H   UNL A   1      35.279  32.057  31.240  1.00  0.00     0.163 HD
ATOM     33  O   UNL A   1      36.381  30.172  32.281  1.00  0.00    -0.269 OA
BRANCH  31  34
ATOM     34  C   UNL A   1      38.247  30.573  30.909  1.00  0.00     0.039 A 
ATOM     35  C   UNL A   1      39.069  29.737  31.668  1.00  0.00     0.014 A 
ATOM     36  C   UNL A   1      38.715  31.117  29.710  1.00  0.00     0.014 A 
ATOM     37  C   UNL A   1      40.334  29.390  31.187  1.00  0.00     0.010 A 
ATOM     38  C   UNL A   1      39.939  30.701  29.193  1.00  0.00     0.010 A 
ATOM     39  C   UNL A   1      40.764  29.834  29.925  1.00  0.00    -0.014 A 
BRANCH  39  40
ATOM     40  C   UNL A   1      42.063  29.391  29.354  1.00  0.00     0.031 A 
ATOM     41  C   UNL A   1      43.205  30.363  29.218  1.00  0.00     0.074 A 
ATOM     42  C   UNL A   1      42.199  28.126  28.906  1.00  0.00     0.049 A 
ATOM     43  N   UNL A   1      44.394  30.170  28.706  1.00  0.00    -0.248 NA
ATOM     44  C   UNL A   1      42.976  31.735  29.699  1.00  0.00     0.031 C 
ATOM     45  C   UNL A   1      41.158  27.096  28.948  1.00  0.00     0.029 A 
ATOM     46  N   UNL A   1      43.268  27.489  28.325  1.00  0.00    -0.354 N 
ATOM     47  C   UNL A   1      45.048  31.394  28.793  1.00  0.00     0.074 A 
ATOM     48  C   UNL A   1      44.105  32.337  29.354  1.00  0.00     0.031 C 
ATOM     49  C   UNL A   1      41.650  25.951  28.449  1.00  0.00     0.029 A 
ATOM     50  C   UNL A   1      43.020  26.175  27.999  1.00  0.00     0.049 A 
ATOM     51  H   UNL A   1      44.132  27.930  28.158  1.00  0.00     0.167 HD
ATOM     52  C   UNL A   1      46.324  31.701  28.457  1.00  0.00     0.031 A 
ATOM     53  C   UNL A   1      43.798  25.256  27.395  1.00  0.00     0.031 A 
ATOM     54  C   UNL A   1      47.257  30.760  27.894  1.00  0.00     0.049 A 
ATOM     55  C   UNL A   1      45.198  25.634  26.991  1.00  0.00     0.074 A 
ATOM     56  C   UNL A   1      48.586  30.964  27.562  1.00  0.00     0.029 A 
ATOM     57  N   UNL A   1      46.962  29.445  27.569  1.00  0.00    -0.354 N 
ATOM     58  N   UNL A   1      45.821  26.778  27.147  1.00  0.00    -0.248 NA
ATOM     59  C   UNL A   1      46.005  24.593  26.340  1.00  0.00     0.031 C 
ATOM     60  C   UNL A   1      49.070  29.796  26.967  1.00  0.00     0.029 A 
ATOM     61  C   UNL A   1      48.072  28.835  27.008  1.00  0.00     0.049 A 
ATOM     62  H   UNL A   1      46.092  29.009  27.716  1.00  0.00     0.167 HD
ATOM     63  C   UNL A   1      47.103  26.584  26.644  1.00  0.00     0.074 A 
ATOM     64  C   UNL A   1      47.170  25.208  26.196  1.00  0.00     0.031 C 
ATOM     65  C   UNL A   1      48.130  27.465  26.563  1.00  0.00     0.031 A 
BRANCH  52  66
ATOM     66  C   UNL A   1      46.782  33.122  28.674  1.00  0.00    -0.014 A 
ATOM     67  C   UNL A   1      46.736  34.072  27.637  1.00  0.00     0.010 A 
ATOM     68  C   UNL A   1      47.218  33.528  29.950  1.00  0.00     0.010 A 
ATOM     69  C   UNL A   1      47.157  35.386  27.859  1.00  0.00     0.020 A 
ATOM     70  C   UNL A   1      47.605  34.850  30.185  1.00  0.00     0.020 A 
ATOM     71  C   UNL A   1      47.588  35.767  29.133  1.00  0.00     0.054 A 
BRANCH  71  72
ATOM     72  S   UNL A   1      48.101  37.487  29.396  1.00  0.00     0.124 S 
ATOM     73  O   UNL A   1      47.321  37.857  30.575  1.00  0.00    -0.237 OA
ATOM     74  O   UNL A   1      49.539  37.360  29.608  1.00  0.00    -0.237 OA
ATOM     75  O   UNL A   1      47.712  38.158  28.158  1.00  0.00    -0.744 OA
ENDBRANCH  71  72
ENDBRANCH  52  66
BRANCH  53  76
ATOM     76  C   UNL A   1      43.271  23.886  27.132  1.00  0.00    -0.014 A 
ATOM     77  C   UNL A   1      43.308  22.896  28.130  1.00  0.00     0.010 A 
ATOM     78  C   UNL A   1      42.725  23.566  25.876  1.00  0.00     0.010 A 
ATOM     79  C   UNL A   1      42.829  21.608  27.869  1.00  0.00     0.020 A 
ATOM     80  C   UNL A   1      42.212  22.291  25.623  1.00  0.00     0.020 A 
ATOM     81  C   UNL A   1      42.279  21.316  26.619  1.00  0.00     0.054 A 
BRANCH  81  82
ATOM     82  S   UNL A   1      41.622  19.652  26.321  1.00  0.00     0.124 S 
ATOM     83  O   UNL A   1      42.407  19.215  25.171  1.00  0.00    -0.237 OA
ATOM     84  O   UNL A   1      41.910  18.972  27.581  1.00  0.00    -0.237 OA
ATOM     85  O   UNL A   1      40.204  19.886  26.057  1.00  0.00    -0.744 OA
ENDBRANCH  81  82
ENDBRANCH  53  76
BRANCH  65  86
ATOM     86  C   UNL A   1      49.439  26.962  26.008  1.00  0.00    -0.014 A 
ATOM     87  C   UNL A   1      49.821  27.212  24.678  1.00  0.00     0.010 A 
ATOM     88  C   UNL A   1      50.329  26.274  26.856  1.00  0.00     0.010 A 
ATOM     89  C   UNL A   1      51.052  26.753  24.198  1.00  0.00     0.020 A 
ATOM     90  C   UNL A   1      51.575  25.848  26.391  1.00  0.00     0.020 A 
ATOM     91  C   UNL A   1      51.923  26.079  25.059  1.00  0.00     0.054 A 
BRANCH  91  92
ATOM     92  S   UNL A   1      53.533  25.539  24.423  1.00  0.00     0.124 S 
ATOM     93  O   UNL A   1      54.459  26.333  25.223  1.00  0.00    -0.237 OA
ATOM     94  O   UNL A   1      53.522  24.107  24.707  1.00  0.00    -0.237 OA
ATOM     95  O   UNL A   1      53.481  25.887  23.004  1.00  0.00    -0.744 OA
ENDBRANCH  91  92
ENDBRANCH  65  86
ENDBRANCH  39  40
ENDBRANCH  31  34
ENDBRANCH  29  30
ENDBRANCH  28  29
ENDBRANCH  27  28
ENDBRANCH   1  27
TORSDOF 21
ENDMDL
MODEL 3
REMARK VINA RESULT:      -9.6      6.590     12.347
REMARK SMILES CCCc1cc(OCC(=O)NCCCCNC(=O)c2ccc(-c3c4nc(c(-c5ccc(S(=O)(=O)[O-])cc5)c5ccc([nH]5)c(-c5ccc(S(=O)(=O)[O-])cc5)c5nc(c(-c6ccc(S(=O)(=O)[O-])cc6)c6ccc3[nH]6)C=C5)C=C4)cc2)nc(Nc2ccc(C#N)cc2)n1
REMARK SMILES IDX 12 1 11 2 9 3 10 4 8 6 7 7 6 8 4 9 5 10 90 11 80 12 79 13
REMARK SMILES IDX 3 14 2 15 1 16 81 17 82 19 83 20 89 21 84 22 88 23 85 24
REMARK SMILES IDX 86 25 87 26 13 27 14 28 15 29 16 30 17 31 18 33 19 34 20 35
REMARK SMILES IDX 78 36 21 37 77 38 22 39 23 40 24 41 71 42 25 43 76 44 70 45
REMARK SMILES IDX 72 46 26 47 75 48 69 49 68 50 27 52 57 53 38 54 56 55 39 56
REMARK SMILES IDX 42 57 55 58 73 59 40 60 41 61 54 63 74 64 43 65 28 66 29 67
REMARK SMILES IDX 37 68 30 69 36 70 31 71 32 72 33 73 34 74 35 75 58 76 59 77
REMARK SMILES IDX 67 78 60 79 66 80 61 81 62 82 63 83 64 84 65 85 44 86 45 87
REMARK SMILES IDX 53 88 46 89 52 90 47 91 48 92 49 93 50 94 51 95
REMARK H PARENT 11 5 81 18 16 32 72 51 42 62
REMARK Flexibility Score: inf
ROOT
ATOM      1  C   UNL A   1      33.247  30.100  26.650  1.00  0.00     0.116 C 
ENDROOT
BRANCH   1   2
ATOM      2  N   UNL A   1      32.933  29.311  27.825  1.00  0.00    -0.353 N 
ATOM      3  C   UNL A   1      32.245  28.135  27.887  1.00  0.00     0.258 C 
ATOM      4  O   UNL A   1      32.093  27.583  28.978  1.00  0.00    -0.271 OA
ATOM      5  H   UNL A   1      33.257  29.668  28.684  1.00  0.00     0.163 HD
BRANCH   3   6
ATOM      6  C   UNL A   1      31.689  27.514  26.599  1.00  0.00     0.331 C 
BRANCH   6   7
ATOM      7  O   UNL A   1      32.113  26.203  26.270  1.00  0.00    -0.467 OA
BRANCH   7   8
ATOM      8  C   UNL A   1      31.540  25.599  25.185  1.00  0.00     0.218 A 
ATOM      9  C   UNL A   1      31.287  23.972  23.525  1.00  0.00     0.050 A 
ATOM     10  C   UNL A   1      32.042  24.483  24.554  1.00  0.00     0.092 A 
ATOM     11  N   UNL A   1      30.140  24.549  23.153  1.00  0.00    -0.218 NA
ATOM     12  C   UNL A   1      29.753  25.681  23.756  1.00  0.00     0.230 A 
ATOM     13  N   UNL A   1      30.423  26.230  24.774  1.00  0.00    -0.177 NA
BRANCH   9  14
ATOM     14  C   UNL A   1      31.771  22.770  22.753  1.00  0.00     0.056 C 
BRANCH  14  15
ATOM     15  C   UNL A   1      32.775  21.864  23.478  1.00  0.00     0.003 C 
ATOM     16  C   UNL A   1      32.294  20.430  23.670  1.00  0.00     0.004 C 
ENDBRANCH  14  15
ENDBRANCH   9  14
BRANCH  12  17
ATOM     17  N   UNL A   1      28.675  26.386  23.219  1.00  0.00    -0.324 N 
ATOM     18  H   UNL A   1      27.897  25.851  22.941  1.00  0.00     0.170 HD
BRANCH  17  19
ATOM     19  C   UNL A   1      28.579  27.770  23.031  1.00  0.00     0.041 A 
ATOM     20  C   UNL A   1      29.632  28.473  22.433  1.00  0.00     0.027 A 
ATOM     21  C   UNL A   1      27.386  28.459  23.292  1.00  0.00     0.027 A 
ATOM     22  C   UNL A   1      29.490  29.826  22.098  1.00  0.00     0.021 A 
ATOM     23  C   UNL A   1      27.244  29.814  22.979  1.00  0.00     0.021 A 
ATOM     24  C   UNL A   1      28.295  30.499  22.370  1.00  0.00     0.052 A 
BRANCH  24  25
ATOM     25  C   UNL A   1      28.144  31.876  22.001  1.00  0.00     0.099 C 
ATOM     26  N   UNL A   1      28.002  32.992  21.711  1.00  0.00    -0.192 NA
ENDBRANCH  24  25
ENDBRANCH  17  19
ENDBRANCH  12  17
ENDBRANCH   7   8
ENDBRANCH   6   7
ENDBRANCH   3   6
ENDBRANCH   1   2
BRANCH   1  27
ATOM     27  C   UNL A   1      32.026  30.832  26.102  1.00  0.00     0.023 C 
BRANCH  27  28
ATOM     28  C   UNL A   1      31.694  32.148  26.810  1.00  0.00     0.023 C 
BRANCH  28  29
ATOM     29  C   UNL A   1      32.862  32.815  27.527  1.00  0.00     0.116 C 
BRANCH  29  30
ATOM     30  N   UNL A   1      32.614  34.216  27.831  1.00  0.00    -0.352 N 
ATOM     31  C   UNL A   1      33.186  35.008  28.798  1.00  0.00     0.251 C 
ATOM     32  H   UNL A   1      31.941  34.658  27.266  1.00  0.00     0.163 HD
ATOM     33  O   UNL A   1      32.740  36.131  29.010  1.00  0.00    -0.269 OA
BRANCH  31  34
ATOM     34  C   UNL A   1      34.318  34.492  29.599  1.00  0.00     0.039 A 
ATOM     35  C   UNL A   1      34.055  33.907  30.841  1.00  0.00     0.014 A 
ATOM     36  C   UNL A   1      35.629  34.563  29.121  1.00  0.00     0.014 A 
ATOM     37  C   UNL A   1      35.099  33.332  31.568  1.00  0.00     0.010 A 
ATOM     38  C   UNL A   1      36.652  33.913  29.807  1.00  0.00     0.010 A 
ATOM     39  C   UNL A   1      36.400  33.291  31.038  1.00  0.00    -0.014 A 
BRANCH  39  40
ATOM     40  C   UNL A   1      37.502  32.593  31.753  1.00  0.00     0.031 A 
ATOM     41  C   UNL A   1      38.002  33.114  33.074  1.00  0.00     0.074 A 
ATOM     42  C   UNL A   1      38.090  31.520  31.186  1.00  0.00     0.049 A 
ATOM     43  N   UNL A   1      38.979  32.664  33.819  1.00  0.00    -0.248 NA
ATOM     44  C   UNL A   1      37.334  34.308  33.618  1.00  0.00     0.031 C 
ATOM     45  C   UNL A   1      37.722  30.936  29.894  1.00  0.00     0.029 A 
ATOM     46  N   UNL A   1      39.124  30.728  31.622  1.00  0.00    -0.354 N 
ATOM     47  C   UNL A   1      39.049  33.523  34.911  1.00  0.00     0.074 A 
ATOM     48  C   UNL A   1      38.056  34.553  34.702  1.00  0.00     0.031 C 
ATOM     49  C   UNL A   1      38.493  29.862  29.659  1.00  0.00     0.029 A 
ATOM     50  C   UNL A   1      39.447  29.711  30.753  1.00  0.00     0.049 A 
ATOM     51  H   UNL A   1      39.590  30.874  32.476  1.00  0.00     0.167 HD
ATOM     52  C   UNL A   1      39.853  33.449  35.999  1.00  0.00     0.031 A 
ATOM     53  C   UNL A   1      40.409  28.770  30.818  1.00  0.00     0.031 A 
ATOM     54  C   UNL A   1      40.845  32.425  36.200  1.00  0.00     0.049 A 
ATOM     55  C   UNL A   1      41.319  28.735  32.017  1.00  0.00     0.074 A 
ATOM     56  C   UNL A   1      41.677  32.239  37.290  1.00  0.00     0.029 A 
ATOM     57  N   UNL A   1      41.148  31.422  35.291  1.00  0.00    -0.354 N 
ATOM     58  N   UNL A   1      41.322  29.515  33.072  1.00  0.00    -0.248 NA
ATOM     59  C   UNL A   1      42.348  27.687  32.040  1.00  0.00     0.031 C 
ATOM     60  C   UNL A   1      42.534  31.171  37.007  1.00  0.00     0.029 A 
ATOM     61  C   UNL A   1      42.179  30.636  35.780  1.00  0.00     0.049 A 
ATOM     62  H   UNL A   1      40.697  31.289  34.427  1.00  0.00     0.167 HD
ATOM     63  C   UNL A   1      42.330  29.029  33.899  1.00  0.00     0.074 A 
ATOM     64  C   UNL A   1      42.901  27.879  33.228  1.00  0.00     0.031 C 
ATOM     65  C   UNL A   1      42.742  29.493  35.105  1.00  0.00     0.031 A 
BRANCH  52  66
ATOM     66  C   UNL A   1      39.705  34.519  37.053  1.00  0.00    -0.014 A 
ATOM     67  C   UNL A   1      38.846  34.348  38.153  1.00  0.00     0.010 A 
ATOM     68  C   UNL A   1      40.477  35.693  36.969  1.00  0.00     0.010 A 
ATOM     69  C   UNL A   1      38.729  35.346  39.125  1.00  0.00     0.020 A 
ATOM     70  C   UNL A   1      40.389  36.678  37.956  1.00  0.00     0.020 A 
ATOM     71  C   UNL A   1      39.503  36.505  39.020  1.00  0.00     0.054 A 
BRANCH  71  72
ATOM     72  S   UNL A   1      39.348  37.770  40.311  1.00  0.00     0.124 S 
ATOM     73  O   UNL A   1      40.605  38.501  40.169  1.00  0.00    -0.237 OA
ATOM     74  O   UNL A   1      38.150  38.496  39.901  1.00  0.00    -0.237 OA
ATOM     75  O   UNL A   1      39.215  36.994  41.542  1.00  0.00    -0.744 OA
ENDBRANCH  71  72
ENDBRANCH  52  66
BRANCH  53  76
ATOM     76  C   UNL A   1      40.565  27.782  29.713  1.00  0.00    -0.014 A 
ATOM     77  C   UNL A   1      39.643  26.733  29.549  1.00  0.00     0.010 A 
ATOM     78  C   UNL A   1      41.641  27.889  28.813  1.00  0.00     0.010 A 
ATOM     79  C   UNL A   1      39.807  25.798  28.521  1.00  0.00     0.020 A 
ATOM     80  C   UNL A   1      41.788  26.979  27.763  1.00  0.00     0.020 A 
ATOM     81  C   UNL A   1      40.876  25.931  27.631  1.00  0.00     0.054 A 
BRANCH  81  82
ATOM     82  S   UNL A   1      41.039  24.734  26.278  1.00  0.00     0.124 S 
ATOM     83  O   UNL A   1      42.235  23.994  26.670  1.00  0.00    -0.237 OA
ATOM     84  O   UNL A   1      39.781  23.997  26.358  1.00  0.00    -0.237 OA
ATOM     85  O   UNL A   1      41.187  25.576  25.092  1.00  0.00    -0.744 OA
ENDBRANCH  81  82
ENDBRANCH  53  76
BRANCH  65  86
ATOM     86  C   UNL A   1      43.840  28.734  35.807  1.00  0.00    -0.014 A 
ATOM     87  C   UNL A   1      45.193  29.085  35.658  1.00  0.00     0.010 A 
ATOM     88  C   UNL A   1      43.500  27.682  36.680  1.00  0.00     0.010 A 
ATOM     89  C   UNL A   1      46.186  28.377  36.341  1.00  0.00     0.020 A 
ATOM     90  C   UNL A   1      44.486  26.997  37.393  1.00  0.00     0.020 A 
ATOM     91  C   UNL A   1      45.826  27.341  37.208  1.00  0.00     0.054 A 
BRANCH  91  92
ATOM     92  S   UNL A   1      47.133  26.473  38.118  1.00  0.00     0.124 S 
ATOM     93  O   UNL A   1      47.426  27.409  39.198  1.00  0.00    -0.237 OA
ATOM     94  O   UNL A   1      46.470  25.236  38.520  1.00  0.00    -0.237 OA
ATOM     95  O   UNL A   1      48.196  26.311  37.129  1.00  0.00    -0.744 OA
ENDBRANCH  91  92
ENDBRANCH  65  86
ENDBRANCH  39  40
ENDBRANCH  31  34
ENDBRANCH  29  30
ENDBRANCH  28  29
ENDBRANCH  27  28
ENDBRANCH   1  27
TORSDOF 21
ENDMDL
