MODEL 1
REMARK VINA RESULT:     -12.5      0.000      0.000
REMARK SMILES CCC[C@H]1CCc2c(sc(NC(=O)[C@H]3[C@@H](C(=O)NCCCCNC(=O)c4ccc(-c5c6nc(c(-c7ccc(S(=O)(=O)[O-])cc7)c7ccc([nH]7)c(-c7ccc(S(=O)(=O)[O-])cc7)c7nc(c(-c8ccc(S(=O)(=O)[O-])cc8)c8ccc5[nH]8)C=C7)C=C6)cc4)[C@H]4CC[C@@H]3O4)c2C(N)=O)C1
REMARK SMILES IDX 20 1 19 2 18 3 16 4 17 5 15 7 14 8 89 9 86 10 88 11 90 12
REMARK SMILES IDX 87 13 12 14 11 15 13 17 10 18 4 19 5 20 95 21 6 22 8 23 7 24
REMARK SMILES IDX 9 25 91 26 3 27 2 28 1 29 92 30 93 31 94 32 21 35 22 36
REMARK SMILES IDX 23 37 24 38 25 40 26 41 27 42 85 43 28 44 84 45 29 46 30 47
REMARK SMILES IDX 31 48 78 49 32 50 83 51 77 52 79 53 33 54 82 55 76 56 75 57
REMARK SMILES IDX 34 59 64 60 45 61 63 62 46 63 49 64 62 65 80 66 47 67 48 68
REMARK SMILES IDX 61 70 81 71 50 72 35 73 36 74 44 75 37 76 43 77 38 78 39 79
REMARK SMILES IDX 40 80 41 81 42 82 65 83 66 84 74 85 67 86 73 87 68 88 69 89
REMARK SMILES IDX 70 90 71 91 72 92 51 93 52 94 60 95 53 96 59 97 54 98 55 99
REMARK SMILES IDX 56 100 57 101 58 102
REMARK H PARENT 18 6 11 16 93 33 93 34 23 39 79 58 49 69
REMARK Flexibility Score: inf
ROOT
ATOM      1  C   UNL A   1      38.500  23.588  26.501  1.00  0.00     0.023 C 
ENDROOT
BRANCH   1   2
ATOM      2  C   UNL A   1      37.351  23.085  25.638  1.00  0.00     0.116 C 
BRANCH   2   3
ATOM      3  N   UNL A   1      36.294  22.411  26.366  1.00  0.00    -0.356 N 
ATOM      4  C   UNL A   1      34.937  22.522  26.223  1.00  0.00     0.226 C 
ATOM      5  O   UNL A   1      34.249  21.740  26.868  1.00  0.00    -0.275 OA
ATOM      6  H   UNL A   1      36.595  21.784  27.062  1.00  0.00     0.163 HD
BRANCH   4   7
ATOM      7  C   UNL A   1      34.375  23.627  25.345  1.00  0.00     0.122 C 
ATOM      8  C   UNL A   1      32.878  24.026  25.381  1.00  0.00     0.123 C 
ATOM      9  C   UNL A   1      32.438  23.650  23.960  1.00  0.00     0.132 C 
ATOM     10  C   UNL A   1      34.572  23.387  23.828  1.00  0.00     0.132 C 
ATOM     11  C   UNL A   1      32.579  22.157  23.647  1.00  0.00     0.035 C 
ATOM     12  O   UNL A   1      33.545  24.223  23.225  1.00  0.00    -0.373 OA
ATOM     13  C   UNL A   1      34.074  22.016  23.399  1.00  0.00     0.035 C 
BRANCH   8  14
ATOM     14  C   UNL A   1      31.787  23.729  26.392  1.00  0.00     0.231 C 
ATOM     15  N   UNL A   1      30.869  24.715  26.705  1.00  0.00    -0.317 N 
ATOM     16  H   UNL A   1      30.264  24.515  27.456  1.00  0.00     0.170 HD
ATOM     17  O   UNL A   1      31.611  22.628  26.905  1.00  0.00    -0.274 OA
BRANCH  15  18
ATOM     18  C   UNL A   1      30.688  25.945  26.103  1.00  0.00     0.108 A 
ATOM     19  C   UNL A   1      30.068  29.172  22.460  1.00  0.00    -0.006 C 
ATOM     20  C   UNL A   1      30.898  29.920  23.528  1.00  0.00     0.009 C 
ATOM     21  C   UNL A   1      29.290  27.954  23.045  1.00  0.00     0.050 C 
ATOM     22  C   UNL A   1      31.837  28.997  24.298  1.00  0.00     0.038 C 
ATOM     23  C   UNL A   1      29.989  27.322  24.210  1.00  0.00     0.011 A 
ATOM     24  C   UNL A   1      31.092  27.835  24.858  1.00  0.00    -0.019 A 
ATOM     25  S   UNL A   1      29.414  25.906  24.958  1.00  0.00    -0.122 S 
ATOM     26  C   UNL A   1      31.298  27.190  26.129  1.00  0.00     0.077 A 
BRANCH  19  27
ATOM     27  C   UNL A   1      29.101  30.072  21.637  1.00  0.00     0.004 C 
BRANCH  27  28
ATOM     28  C   UNL A   1      28.598  31.377  22.271  1.00  0.00    -0.003 C 
ATOM     29  C   UNL A   1      27.687  31.167  23.472  1.00  0.00     0.004 C 
ENDBRANCH  27  28
ENDBRANCH  19  27
BRANCH  26  30
ATOM     30  C   UNL A   1      32.005  27.786  27.250  1.00  0.00     0.251 C 
ATOM     31  N   UNL A   1      31.263  28.079  28.354  1.00  0.00    -0.365 N 
ATOM     32  O   UNL A   1      33.221  27.990  27.236  1.00  0.00    -0.269 OA
ATOM     33  H   UNL A   1      30.293  27.911  28.354  1.00  0.00     0.159 HD
ATOM     34  H   UNL A   1      31.697  28.457  29.153  1.00  0.00     0.159 HD
ENDBRANCH  26  30
ENDBRANCH  15  18
ENDBRANCH   8  14
ENDBRANCH   4   7
ENDBRANCH   2   3
ENDBRANCH   1   2
BRANCH   1  35
ATOM     35  C   UNL A   1      39.669  22.623  26.694  1.00  0.00     0.023 C 
BRANCH  35  36
ATOM     36  C   UNL A   1      41.020  23.263  26.996  1.00  0.00     0.116 C 
BRANCH  36  37
ATOM     37  N   UNL A   1      41.508  24.105  25.914  1.00  0.00    -0.352 N 
ATOM     38  C   UNL A   1      41.790  25.453  25.917  1.00  0.00     0.251 C 
ATOM     39  H   UNL A   1      41.659  23.646  25.056  1.00  0.00     0.163 HD
ATOM     40  O   UNL A   1      42.072  26.023  24.867  1.00  0.00    -0.269 OA
BRANCH  38  41
ATOM     41  C   UNL A   1      41.714  26.217  27.182  1.00  0.00     0.039 A 
ATOM     42  C   UNL A   1      42.709  27.154  27.470  1.00  0.00     0.014 A 
ATOM     43  C   UNL A   1      40.644  26.036  28.063  1.00  0.00     0.014 A 
ATOM     44  C   UNL A   1      42.584  27.972  28.597  1.00  0.00     0.010 A 
ATOM     45  C   UNL A   1      40.481  26.904  29.140  1.00  0.00     0.010 A 
ATOM     46  C   UNL A   1      41.445  27.886  29.416  1.00  0.00    -0.014 A 
BRANCH  46  47
ATOM     47  C   UNL A   1      41.235  28.822  30.551  1.00  0.00     0.031 A 
ATOM     48  C   UNL A   1      42.084  28.710  31.790  1.00  0.00     0.074 A 
ATOM     49  C   UNL A   1      40.228  29.719  30.504  1.00  0.00     0.049 A 
ATOM     50  N   UNL A   1      41.997  29.380  32.911  1.00  0.00    -0.248 NA
ATOM     51  C   UNL A   1      43.150  27.695  31.781  1.00  0.00     0.031 C 
ATOM     52  C   UNL A   1      39.294  29.891  29.386  1.00  0.00     0.029 A 
ATOM     53  N   UNL A   1      39.808  30.648  31.425  1.00  0.00    -0.354 N 
ATOM     54  C   UNL A   1      42.974  28.851  33.746  1.00  0.00     0.074 A 
ATOM     55  C   UNL A   1      43.617  27.779  33.019  1.00  0.00     0.031 C 
ATOM     56  C   UNL A   1      38.426  30.872  29.681  1.00  0.00     0.029 A 
ATOM     57  C   UNL A   1      38.714  31.377  31.020  1.00  0.00     0.049 A 
ATOM     58  H   UNL A   1      40.250  30.779  32.295  1.00  0.00     0.167 HD
ATOM     59  C   UNL A   1      43.317  29.232  34.999  1.00  0.00     0.031 A 
ATOM     60  C   UNL A   1      38.013  32.336  31.656  1.00  0.00     0.031 A 
ATOM     61  C   UNL A   1      42.701  30.322  35.708  1.00  0.00     0.049 A 
ATOM     62  C   UNL A   1      38.435  32.760  33.037  1.00  0.00     0.074 A 
ATOM     63  C   UNL A   1      43.038  30.837  36.949  1.00  0.00     0.029 A 
ATOM     64  N   UNL A   1      41.627  31.063  35.244  1.00  0.00    -0.354 N 
ATOM     65  N   UNL A   1      39.420  32.303  33.774  1.00  0.00    -0.248 NA
ATOM     66  C   UNL A   1      37.659  33.838  33.668  1.00  0.00     0.031 C 
ATOM     67  C   UNL A   1      42.137  31.862  37.254  1.00  0.00     0.029 A 
ATOM     68  C   UNL A   1      41.275  32.019  36.181  1.00  0.00     0.049 A 
ATOM     69  H   UNL A   1      41.181  30.931  34.376  1.00  0.00     0.167 HD
ATOM     70  C   UNL A   1      39.399  33.057  34.942  1.00  0.00     0.074 A 
ATOM     71  C   UNL A   1      38.316  34.010  34.808  1.00  0.00     0.031 C 
ATOM     72  C   UNL A   1      40.203  32.968  36.029  1.00  0.00     0.031 A 
BRANCH  59  73
ATOM     73  C   UNL A   1      44.417  28.473  35.692  1.00  0.00    -0.014 A 
ATOM     74  C   UNL A   1      45.755  28.896  35.603  1.00  0.00     0.010 A 
ATOM     75  C   UNL A   1      44.098  27.373  36.509  1.00  0.00     0.010 A 
ATOM     76  C   UNL A   1      46.757  28.218  36.302  1.00  0.00     0.020 A 
ATOM     77  C   UNL A   1      45.094  26.709  37.229  1.00  0.00     0.020 A 
ATOM     78  C   UNL A   1      46.420  27.131  37.113  1.00  0.00     0.054 A 
BRANCH  78  79
ATOM     79  S   UNL A   1      47.735  26.309  38.056  1.00  0.00     0.124 S 
ATOM     80  O   UNL A   1      46.996  25.771  39.195  1.00  0.00    -0.237 OA
ATOM     81  O   UNL A   1      48.235  25.316  37.108  1.00  0.00    -0.237 OA
ATOM     82  O   UNL A   1      48.664  27.390  38.370  1.00  0.00    -0.744 OA
ENDBRANCH  78  79
ENDBRANCH  59  73
BRANCH  60  83
ATOM     83  C   UNL A   1      36.835  32.968  30.999  1.00  0.00    -0.014 A 
ATOM     84  C   UNL A   1      36.992  33.739  29.834  1.00  0.00     0.010 A 
ATOM     85  C   UNL A   1      35.550  32.822  31.553  1.00  0.00     0.010 A 
ATOM     86  C   UNL A   1      35.893  34.382  29.256  1.00  0.00     0.020 A 
ATOM     87  C   UNL A   1      34.444  33.439  30.961  1.00  0.00     0.020 A 
ATOM     88  C   UNL A   1      34.626  34.231  29.826  1.00  0.00     0.054 A 
BRANCH  88  89
ATOM     89  S   UNL A   1      33.208  35.057  29.049  1.00  0.00     0.124 S 
ATOM     90  O   UNL A   1      32.773  34.059  28.078  1.00  0.00    -0.237 OA
ATOM     91  O   UNL A   1      32.310  35.275  30.179  1.00  0.00    -0.237 OA
ATOM     92  O   UNL A   1      33.792  36.272  28.483  1.00  0.00    -0.744 OA
ENDBRANCH  88  89
ENDBRANCH  60  83
BRANCH  72  93
ATOM     93  C   UNL A   1      39.976  33.952  37.145  1.00  0.00    -0.014 A 
ATOM     94  C   UNL A   1      40.591  35.216  37.138  1.00  0.00     0.010 A 
ATOM     95  C   UNL A   1      39.086  33.626  38.185  1.00  0.00     0.010 A 
ATOM     96  C   UNL A   1      40.343  36.125  38.169  1.00  0.00     0.020 A 
ATOM     97  C   UNL A   1      38.814  34.542  39.201  1.00  0.00     0.020 A 
ATOM     98  C   UNL A   1      39.456  35.783  39.195  1.00  0.00     0.054 A 
BRANCH  98  99
ATOM     99  S   UNL A   1      39.113  36.997  40.498  1.00  0.00     0.124 S 
ATOM    100  O   UNL A   1      40.455  37.448  40.853  1.00  0.00    -0.237 OA
ATOM    101  O   UNL A   1      38.281  37.981  39.810  1.00  0.00    -0.237 OA
ATOM    102  O   UNL A   1      38.425  36.218  41.524  1.00  0.00    -0.744 OA
ENDBRANCH  98  99
ENDBRANCH  72  93
ENDBRANCH  46  47
ENDBRANCH  38  41
ENDBRANCH  36  37
ENDBRANCH  35  36
ENDBRANCH   1  35
TORSDOF 19
ENDMDL
MODEL 2
REMARK VINA RESULT:     -12.1      5.719     10.096
REMARK SMILES CCC[C@H]1CCc2c(sc(NC(=O)[C@H]3[C@@H](C(=O)NCCCCNC(=O)c4ccc(-c5c6nc(c(-c7ccc(S(=O)(=O)[O-])cc7)c7ccc([nH]7)c(-c7ccc(S(=O)(=O)[O-])cc7)c7nc(c(-c8ccc(S(=O)(=O)[O-])cc8)c8ccc5[nH]8)C=C7)C=C6)cc4)[C@H]4CC[C@@H]3O4)c2C(N)=O)C1
REMARK SMILES IDX 20 1 19 2 18 3 16 4 17 5 15 7 14 8 89 9 86 10 88 11 90 12
REMARK SMILES IDX 87 13 12 14 11 15 13 17 10 18 4 19 5 20 95 21 6 22 8 23 7 24
REMARK SMILES IDX 9 25 91 26 3 27 2 28 1 29 92 30 93 31 94 32 21 35 22 36
REMARK SMILES IDX 23 37 24 38 25 40 26 41 27 42 85 43 28 44 84 45 29 46 30 47
REMARK SMILES IDX 31 48 78 49 32 50 83 51 77 52 79 53 33 54 82 55 76 56 75 57
REMARK SMILES IDX 34 59 64 60 45 61 63 62 46 63 49 64 62 65 80 66 47 67 48 68
REMARK SMILES IDX 61 70 81 71 50 72 35 73 36 74 44 75 37 76 43 77 38 78 39 79
REMARK SMILES IDX 40 80 41 81 42 82 65 83 66 84 74 85 67 86 73 87 68 88 69 89
REMARK SMILES IDX 70 90 71 91 72 92 51 93 52 94 60 95 53 96 59 97 54 98 55 99
REMARK SMILES IDX 56 100 57 101 58 102
REMARK H PARENT 18 6 11 16 93 33 93 34 23 39 79 58 49 69
REMARK Flexibility Score: inf
ROOT
ATOM      1  C   UNL A   1      39.148  22.889  26.433  1.00  0.00     0.023 C 
ENDROOT
BRANCH   1   2
ATOM      2  C   UNL A   1      37.761  23.467  26.188  1.00  0.00     0.116 C 
BRANCH   2   3
ATOM      3  N   UNL A   1      36.670  22.536  26.394  1.00  0.00    -0.356 N 
ATOM      4  C   UNL A   1      35.370  22.619  25.973  1.00  0.00     0.226 C 
ATOM      5  O   UNL A   1      34.666  21.632  26.157  1.00  0.00    -0.275 OA
ATOM      6  H   UNL A   1      36.896  21.729  26.910  1.00  0.00     0.163 HD
BRANCH   4   7
ATOM      7  C   UNL A   1      34.867  23.923  25.377  1.00  0.00     0.122 C 
ATOM      8  C   UNL A   1      33.385  24.361  25.486  1.00  0.00     0.123 C 
ATOM      9  C   UNL A   1      32.965  24.352  24.010  1.00  0.00     0.132 C 
ATOM     10  C   UNL A   1      35.091  24.043  23.848  1.00  0.00     0.132 C 
ATOM     11  C   UNL A   1      33.060  22.972  23.351  1.00  0.00     0.035 C 
ATOM     12  O   UNL A   1      34.109  25.039  23.449  1.00  0.00    -0.373 OA
ATOM     13  C   UNL A   1      34.554  22.834  23.098  1.00  0.00     0.035 C 
BRANCH   8  14
ATOM     14  C   UNL A   1      32.261  23.875  26.381  1.00  0.00     0.231 C 
ATOM     15  N   UNL A   1      31.204  24.724  26.658  1.00  0.00    -0.317 N 
ATOM     16  H   UNL A   1      30.570  24.408  27.343  1.00  0.00     0.170 HD
ATOM     17  O   UNL A   1      32.183  22.733  26.824  1.00  0.00    -0.274 OA
BRANCH  15  18
ATOM     18  C   UNL A   1      30.920  25.956  26.102  1.00  0.00     0.108 A 
ATOM     19  C   UNL A   1      29.997  29.246  22.582  1.00  0.00    -0.006 C 
ATOM     20  C   UNL A   1      30.784  30.019  23.664  1.00  0.00     0.009 C 
ATOM     21  C   UNL A   1      29.323  27.952  23.135  1.00  0.00     0.050 C 
ATOM     22  C   UNL A   1      31.804  29.146  24.389  1.00  0.00     0.038 C 
ATOM     23  C   UNL A   1      30.087  27.337  24.267  1.00  0.00     0.011 A 
ATOM     24  C   UNL A   1      31.159  27.912  24.918  1.00  0.00    -0.019 A 
ATOM     25  S   UNL A   1      29.635  25.857  24.973  1.00  0.00    -0.122 S 
ATOM     26  C   UNL A   1      31.433  27.242  26.163  1.00  0.00     0.077 A 
BRANCH  19  27
ATOM     27  C   UNL A   1      28.951  30.096  21.803  1.00  0.00     0.004 C 
BRANCH  27  28
ATOM     28  C   UNL A   1      27.586  30.354  22.456  1.00  0.00    -0.003 C 
ATOM     29  C   UNL A   1      27.587  31.505  23.452  1.00  0.00     0.004 C 
ENDBRANCH  27  28
ENDBRANCH  19  27
BRANCH  26  30
ATOM     30  C   UNL A   1      32.111  27.853  27.295  1.00  0.00     0.251 C 
ATOM     31  N   UNL A   1      31.356  28.086  28.404  1.00  0.00    -0.365 N 
ATOM     32  O   UNL A   1      33.314  28.120  27.284  1.00  0.00    -0.269 OA
ATOM     33  H   UNL A   1      30.396  27.869  28.401  1.00  0.00     0.159 HD
ATOM     34  H   UNL A   1      31.772  28.471  29.210  1.00  0.00     0.159 HD
ENDBRANCH  26  30
ENDBRANCH  15  18
ENDBRANCH   8  14
ENDBRANCH   4   7
ENDBRANCH   2   3
ENDBRANCH   1   2
BRANCH   1  35
ATOM     35  C   UNL A   1      39.367  21.448  25.975  1.00  0.00     0.023 C 
BRANCH  35  36
ATOM     36  C   UNL A   1      40.169  20.561  26.921  1.00  0.00     0.116 C 
BRANCH  36  37
ATOM     37  N   UNL A   1      41.058  19.641  26.228  1.00  0.00    -0.352 N 
ATOM     38  C   UNL A   1      42.342  19.844  25.775  1.00  0.00     0.251 C 
ATOM     39  H   UNL A   1      40.689  18.744  26.057  1.00  0.00     0.163 HD
ATOM     40  O   UNL A   1      42.895  18.987  25.091  1.00  0.00    -0.269 OA
BRANCH  38  41
ATOM     41  C   UNL A   1      43.038  21.114  26.082  1.00  0.00     0.039 A 
ATOM     42  C   UNL A   1      43.455  21.932  25.028  1.00  0.00     0.014 A 
ATOM     43  C   UNL A   1      43.245  21.514  27.404  1.00  0.00     0.014 A 
ATOM     44  C   UNL A   1      43.998  23.189  25.302  1.00  0.00     0.010 A 
ATOM     45  C   UNL A   1      43.712  22.798  27.673  1.00  0.00     0.010 A 
ATOM     46  C   UNL A   1      44.087  23.653  26.626  1.00  0.00    -0.014 A 
BRANCH  46  47
ATOM     47  C   UNL A   1      44.554  25.031  26.934  1.00  0.00     0.031 A 
ATOM     48  C   UNL A   1      43.598  26.041  27.513  1.00  0.00     0.074 A 
ATOM     49  C   UNL A   1      45.813  25.399  26.619  1.00  0.00     0.049 A 
ATOM     50  N   UNL A   1      43.796  27.308  27.772  1.00  0.00    -0.248 NA
ATOM     51  C   UNL A   1      42.233  25.576  27.812  1.00  0.00     0.031 C 
ATOM     52  C   UNL A   1      46.822  24.533  26.000  1.00  0.00     0.029 A 
ATOM     53  N   UNL A   1      46.459  26.603  26.760  1.00  0.00    -0.354 N 
ATOM     54  C   UNL A   1      42.580  27.796  28.236  1.00  0.00     0.074 A 
ATOM     55  C   UNL A   1      41.639  26.699  28.188  1.00  0.00     0.031 C 
ATOM     56  C   UNL A   1      47.958  25.229  25.831  1.00  0.00     0.029 A 
ATOM     57  C   UNL A   1      47.753  26.598  26.294  1.00  0.00     0.049 A 
ATOM     58  H   UNL A   1      46.034  27.397  27.159  1.00  0.00     0.167 HD
ATOM     59  C   UNL A   1      42.278  29.039  28.678  1.00  0.00     0.031 A 
ATOM     60  C   UNL A   1      48.669  27.584  26.235  1.00  0.00     0.031 A 
ATOM     61  C   UNL A   1      43.224  30.119  28.760  1.00  0.00     0.049 A 
ATOM     62  C   UNL A   1      48.314  28.949  26.760  1.00  0.00     0.074 A 
ATOM     63  C   UNL A   1      43.032  31.391  29.273  1.00  0.00     0.029 A 
ATOM     64  N   UNL A   1      44.536  30.059  28.319  1.00  0.00    -0.354 N 
ATOM     65  N   UNL A   1      47.182  29.363  27.277  1.00  0.00    -0.248 NA
ATOM     66  C   UNL A   1      49.365  29.976  26.707  1.00  0.00     0.031 C 
ATOM     67  C   UNL A   1      44.216  32.113  29.102  1.00  0.00     0.029 A 
ATOM     68  C   UNL A   1      45.160  31.276  28.531  1.00  0.00     0.049 A 
ATOM     69  H   UNL A   1      44.962  29.267  27.917  1.00  0.00     0.167 HD
ATOM     70  C   UNL A   1      47.394  30.690  27.635  1.00  0.00     0.074 A 
ATOM     71  C   UNL A   1      48.766  31.004  27.293  1.00  0.00     0.031 C 
ATOM     72  C   UNL A   1      46.530  31.570  28.197  1.00  0.00     0.031 A 
BRANCH  59  73
ATOM     73  C   UNL A   1      40.864  29.307  29.119  1.00  0.00    -0.014 A 
ATOM     74  C   UNL A   1      40.517  29.300  30.482  1.00  0.00     0.010 A 
ATOM     75  C   UNL A   1      39.889  29.651  28.165  1.00  0.00     0.010 A 
ATOM     76  C   UNL A   1      39.215  29.611  30.881  1.00  0.00     0.020 A 
ATOM     77  C   UNL A   1      38.592  29.987  28.563  1.00  0.00     0.020 A 
ATOM     78  C   UNL A   1      38.261  29.956  29.919  1.00  0.00     0.054 A 
BRANCH  78  79
ATOM     79  S   UNL A   1      36.595  30.414  30.472  1.00  0.00     0.124 S 
ATOM     80  O   UNL A   1      35.824  30.289  29.237  1.00  0.00    -0.237 OA
ATOM     81  O   UNL A   1      36.310  29.410  31.494  1.00  0.00    -0.237 OA
ATOM     82  O   UNL A   1      36.757  31.778  30.970  1.00  0.00    -0.744 OA
ENDBRANCH  78  79
ENDBRANCH  59  73
BRANCH  60  83
ATOM     83  C   UNL A   1      50.017  27.325  25.656  1.00  0.00    -0.014 A 
ATOM     84  C   UNL A   1      51.065  26.846  26.463  1.00  0.00     0.010 A 
ATOM     85  C   UNL A   1      50.267  27.581  24.295  1.00  0.00     0.010 A 
ATOM     86  C   UNL A   1      52.344  26.664  25.929  1.00  0.00     0.020 A 
ATOM     87  C   UNL A   1      51.537  27.371  23.751  1.00  0.00     0.020 A 
ATOM     88  C   UNL A   1      52.574  26.931  24.577  1.00  0.00     0.054 A 
BRANCH  88  89
ATOM     89  S   UNL A   1      54.236  26.669  23.899  1.00  0.00     0.124 S 
ATOM     90  O   UNL A   1      54.731  25.574  24.726  1.00  0.00    -0.237 OA
ATOM     91  O   UNL A   1      53.961  26.334  22.504  1.00  0.00    -0.237 OA
ATOM     92  O   UNL A   1      54.894  27.958  24.103  1.00  0.00    -0.744 OA
ENDBRANCH  88  89
ENDBRANCH  60  83
BRANCH  72  93
ATOM     93  C   UNL A   1      47.048  32.945  28.519  1.00  0.00    -0.014 A 
ATOM     94  C   UNL A   1      46.925  34.003  27.601  1.00  0.00     0.010 A 
ATOM     95  C   UNL A   1      47.613  33.194  29.783  1.00  0.00     0.010 A 
ATOM     96  C   UNL A   1      47.387  35.280  27.933  1.00  0.00     0.020 A 
ATOM     97  C   UNL A   1      48.050  34.474  30.128  1.00  0.00     0.020 A 
ATOM     98  C   UNL A   1      47.946  35.507  29.194  1.00  0.00     0.054 A 
BRANCH  98  99
ATOM     99  S   UNL A   1      48.496  37.182  29.619  1.00  0.00     0.124 S 
ATOM    100  O   UNL A   1      49.578  36.917  30.562  1.00  0.00    -0.237 OA
ATOM    101  O   UNL A   1      48.910  37.723  28.326  1.00  0.00    -0.237 OA
ATOM    102  O   UNL A   1      47.305  37.803  30.193  1.00  0.00    -0.744 OA
ENDBRANCH  98  99
ENDBRANCH  72  93
ENDBRANCH  46  47
ENDBRANCH  38  41
ENDBRANCH  36  37
ENDBRANCH  35  36
ENDBRANCH   1  35
TORSDOF 19
ENDMDL
MODEL 3
REMARK VINA RESULT:     -12.1      5.763      7.936
REMARK SMILES CCC[C@H]1CCc2c(sc(NC(=O)[C@H]3[C@@H](C(=O)NCCCCNC(=O)c4ccc(-c5c6nc(c(-c7ccc(S(=O)(=O)[O-])cc7)c7ccc([nH]7)c(-c7ccc(S(=O)(=O)[O-])cc7)c7nc(c(-c8ccc(S(=O)(=O)[O-])cc8)c8ccc5[nH]8)C=C7)C=C6)cc4)[C@H]4CC[C@@H]3O4)c2C(N)=O)C1
REMARK SMILES IDX 20 1 19 2 18 3 16 4 17 5 15 7 14 8 89 9 86 10 88 11 90 12
REMARK SMILES IDX 87 13 12 14 11 15 13 17 10 18 4 19 5 20 95 21 6 22 8 23 7 24
REMARK SMILES IDX 9 25 91 26 3 27 2 28 1 29 92 30 93 31 94 32 21 35 22 36
REMARK SMILES IDX 23 37 24 38 25 40 26 41 27 42 85 43 28 44 84 45 29 46 30 47
REMARK SMILES IDX 31 48 78 49 32 50 83 51 77 52 79 53 33 54 82 55 76 56 75 57
REMARK SMILES IDX 34 59 64 60 45 61 63 62 46 63 49 64 62 65 80 66 47 67 48 68
REMARK SMILES IDX 61 70 81 71 50 72 35 73 36 74 44 75 37 76 43 77 38 78 39 79
REMARK SMILES IDX 40 80 41 81 42 82 65 83 66 84 74 85 67 86 73 87 68 88 69 89
REMARK SMILES IDX 70 90 71 91 72 92 51 93 52 94 60 95 53 96 59 97 54 98 55 99
REMARK SMILES IDX 56 100 57 101 58 102
REMARK H PARENT 18 6 11 16 93 33 93 34 23 39 79 58 49 69
REMARK Flexibility Score: inf
ROOT
ATOM      1  C   UNL A   1      39.051  23.175  26.307  1.00  0.00     0.023 C 
ENDROOT
BRANCH   1   2
ATOM      2  C   UNL A   1      37.636  23.694  26.090  1.00  0.00     0.116 C 
BRANCH   2   3
ATOM      3  N   UNL A   1      36.586  22.776  26.485  1.00  0.00    -0.356 N 
ATOM      4  C   UNL A   1      35.268  22.757  26.116  1.00  0.00     0.226 C 
ATOM      5  O   UNL A   1      34.607  21.792  26.479  1.00  0.00    -0.275 OA
ATOM      6  H   UNL A   1      36.860  22.064  27.106  1.00  0.00     0.163 HD
BRANCH   4   7
ATOM      7  C   UNL A   1      34.698  23.940  25.352  1.00  0.00     0.122 C 
ATOM      8  C   UNL A   1      33.200  24.330  25.436  1.00  0.00     0.123 C 
ATOM      9  C   UNL A   1      32.751  24.091  23.988  1.00  0.00     0.132 C 
ATOM     10  C   UNL A   1      34.884  23.848  23.817  1.00  0.00     0.132 C 
ATOM     11  C   UNL A   1      32.892  22.636  23.532  1.00  0.00     0.035 C 
ATOM     12  O   UNL A   1      33.852  24.736  23.304  1.00  0.00    -0.373 OA
ATOM     13  C   UNL A   1      34.386  22.522  23.262  1.00  0.00     0.035 C 
BRANCH   8  14
ATOM     14  C   UNL A   1      32.117  23.935  26.421  1.00  0.00     0.231 C 
ATOM     15  N   UNL A   1      31.120  24.843  26.729  1.00  0.00    -0.317 N 
ATOM     16  H   UNL A   1      30.519  24.586  27.466  1.00  0.00     0.170 HD
ATOM     17  O   UNL A   1      32.017  22.816  26.916  1.00  0.00    -0.274 OA
BRANCH  15  18
ATOM     18  C   UNL A   1      30.856  26.064  26.140  1.00  0.00     0.108 A 
ATOM     19  C   UNL A   1      30.048  29.287  22.530  1.00  0.00    -0.006 C 
ATOM     20  C   UNL A   1      30.804  30.079  23.620  1.00  0.00     0.009 C 
ATOM     21  C   UNL A   1      29.355  28.005  23.087  1.00  0.00     0.050 C 
ATOM     22  C   UNL A   1      31.799  29.218  24.393  1.00  0.00     0.038 C 
ATOM     23  C   UNL A   1      30.082  27.411  24.254  1.00  0.00     0.011 A 
ATOM     24  C   UNL A   1      31.135  27.997  24.926  1.00  0.00    -0.019 A 
ATOM     25  S   UNL A   1      29.605  25.946  24.975  1.00  0.00    -0.122 S 
ATOM     26  C   UNL A   1      31.370  27.351  26.191  1.00  0.00     0.077 A 
BRANCH  19  27
ATOM     27  C   UNL A   1      29.028  30.123  21.704  1.00  0.00     0.004 C 
BRANCH  27  28
ATOM     28  C   UNL A   1      27.653  30.417  22.320  1.00  0.00    -0.003 C 
ATOM     29  C   UNL A   1      27.669  31.527  23.362  1.00  0.00     0.004 C 
ENDBRANCH  27  28
ENDBRANCH  19  27
BRANCH  26  30
ATOM     30  C   UNL A   1      32.015  27.983  27.331  1.00  0.00     0.251 C 
ATOM     31  N   UNL A   1      31.324  27.973  28.505  1.00  0.00    -0.365 N 
ATOM     32  O   UNL A   1      33.143  28.474  27.268  1.00  0.00    -0.269 OA
ATOM     33  H   UNL A   1      30.423  27.578  28.544  1.00  0.00     0.159 HD
ATOM     34  H   UNL A   1      31.726  28.361  29.315  1.00  0.00     0.159 HD
ENDBRANCH  26  30
ENDBRANCH  15  18
ENDBRANCH   8  14
ENDBRANCH   4   7
ENDBRANCH   2   3
ENDBRANCH   1   2
BRANCH   1  35
ATOM     35  C   UNL A   1      39.321  21.744  25.846  1.00  0.00     0.023 C 
BRANCH  35  36
ATOM     36  C   UNL A   1      40.026  20.841  26.852  1.00  0.00     0.116 C 
BRANCH  36  37
ATOM     37  N   UNL A   1      40.936  19.891  26.229  1.00  0.00    -0.352 N 
ATOM     38  C   UNL A   1      42.223  20.083  25.779  1.00  0.00     0.251 C 
ATOM     39  H   UNL A   1      40.580  18.981  26.112  1.00  0.00     0.163 HD
ATOM     40  O   UNL A   1      42.795  19.192  25.158  1.00  0.00    -0.269 OA
BRANCH  38  41
ATOM     41  C   UNL A   1      42.898  21.379  26.012  1.00  0.00     0.039 A 
ATOM     42  C   UNL A   1      43.013  22.284  24.954  1.00  0.00     0.014 A 
ATOM     43  C   UNL A   1      43.383  21.715  27.279  1.00  0.00     0.014 A 
ATOM     44  C   UNL A   1      43.534  23.560  25.189  1.00  0.00     0.010 A 
ATOM     45  C   UNL A   1      43.826  23.011  27.527  1.00  0.00     0.010 A 
ATOM     46  C   UNL A   1      43.901  23.951  26.488  1.00  0.00    -0.014 A 
BRANCH  46  47
ATOM     47  C   UNL A   1      44.347  25.338  26.783  1.00  0.00     0.031 A 
ATOM     48  C   UNL A   1      45.774  25.743  26.524  1.00  0.00     0.074 A 
ATOM     49  C   UNL A   1      43.493  26.209  27.359  1.00  0.00     0.049 A 
ATOM     50  N   UNL A   1      46.369  26.878  26.791  1.00  0.00    -0.248 NA
ATOM     51  C   UNL A   1      46.657  24.735  25.913  1.00  0.00     0.031 C 
ATOM     52  C   UNL A   1      42.100  25.924  27.716  1.00  0.00     0.029 A 
ATOM     53  N   UNL A   1      43.674  27.510  27.762  1.00  0.00    -0.354 N 
ATOM     54  C   UNL A   1      47.695  26.711  26.408  1.00  0.00     0.074 A 
ATOM     55  C   UNL A   1      47.828  25.355  25.925  1.00  0.00     0.031 C 
ATOM     56  C   UNL A   1      41.552  27.019  28.268  1.00  0.00     0.029 A 
ATOM     57  C   UNL A   1      42.558  28.073  28.339  1.00  0.00     0.049 A 
ATOM     58  H   UNL A   1      44.523  27.995  27.648  1.00  0.00     0.167 HD
ATOM     59  C   UNL A   1      48.706  27.610  26.439  1.00  0.00     0.031 A 
ATOM     60  C   UNL A   1      42.369  29.294  28.874  1.00  0.00     0.031 A 
ATOM     61  C   UNL A   1      48.565  28.970  26.885  1.00  0.00     0.049 A 
ATOM     62  C   UNL A   1      43.503  30.283  28.869  1.00  0.00     0.074 A 
ATOM     63  C   UNL A   1      49.513  29.980  26.874  1.00  0.00     0.029 A 
ATOM     64  N   UNL A   1      47.407  29.513  27.419  1.00  0.00    -0.354 N 
ATOM     65  N   UNL A   1      44.727  30.130  28.421  1.00  0.00    -0.248 NA
ATOM     66  C   UNL A   1      43.229  31.614  29.431  1.00  0.00     0.031 C 
ATOM     67  C   UNL A   1      48.940  31.121  27.444  1.00  0.00     0.029 A 
ATOM     68  C   UNL A   1      47.622  30.837  27.760  1.00  0.00     0.049 A 
ATOM     69  H   UNL A   1      46.558  29.028  27.538  1.00  0.00     0.167 HD
ATOM     70  C   UNL A   1      45.357  31.353  28.620  1.00  0.00     0.074 A 
ATOM     71  C   UNL A   1      44.377  32.240  29.213  1.00  0.00     0.031 C 
ATOM     72  C   UNL A   1      46.634  31.711  28.338  1.00  0.00     0.031 A 
BRANCH  59  73
ATOM     73  C   UNL A   1      50.065  27.161  25.971  1.00  0.00    -0.014 A 
ATOM     74  C   UNL A   1      50.526  27.475  24.680  1.00  0.00     0.010 A 
ATOM     75  C   UNL A   1      50.923  26.489  26.861  1.00  0.00     0.010 A 
ATOM     76  C   UNL A   1      51.812  27.105  24.280  1.00  0.00     0.020 A 
ATOM     77  C   UNL A   1      52.219  26.140  26.473  1.00  0.00     0.020 A 
ATOM     78  C   UNL A   1      52.652  26.443  25.181  1.00  0.00     0.054 A 
BRANCH  78  79
ATOM     79  S   UNL A   1      54.338  26.029  24.653  1.00  0.00     0.124 S 
ATOM     80  O   UNL A   1      54.291  26.337  23.226  1.00  0.00    -0.237 OA
ATOM     81  O   UNL A   1      55.156  26.930  25.463  1.00  0.00    -0.237 OA
ATOM     82  O   UNL A   1      54.467  24.612  24.981  1.00  0.00    -0.744 OA
ENDBRANCH  78  79
ENDBRANCH  59  73
BRANCH  60  83
ATOM     83  C   UNL A   1      41.051  29.660  29.465  1.00  0.00    -0.014 A 
ATOM     84  C   UNL A   1      40.871  29.678  30.860  1.00  0.00     0.010 A 
ATOM     85  C   UNL A   1      39.960  29.970  28.632  1.00  0.00     0.010 A 
ATOM     86  C   UNL A   1      39.616  29.961  31.409  1.00  0.00     0.020 A 
ATOM     87  C   UNL A   1      38.712  30.283  29.178  1.00  0.00     0.020 A 
ATOM     88  C   UNL A   1      38.543  30.259  30.564  1.00  0.00     0.054 A 
BRANCH  88  89
ATOM     89  S   UNL A   1      36.928  30.644  31.297  1.00  0.00     0.124 S 
ATOM     90  O   UNL A   1      36.380  31.594  30.336  1.00  0.00    -0.237 OA
ATOM     91  O   UNL A   1      36.278  29.337  31.336  1.00  0.00    -0.237 OA
ATOM     92  O   UNL A   1      37.273  31.200  32.604  1.00  0.00    -0.744 OA
ENDBRANCH  88  89
ENDBRANCH  60  83
BRANCH  72  93
ATOM     93  C   UNL A   1      47.039  33.131  28.626  1.00  0.00    -0.014 A 
ATOM     94  C   UNL A   1      47.609  33.490  29.859  1.00  0.00     0.010 A 
ATOM     95  C   UNL A   1      46.900  34.107  27.622  1.00  0.00     0.010 A 
ATOM     96  C   UNL A   1      48.005  34.809  30.094  1.00  0.00     0.020 A 
ATOM     97  C   UNL A   1      47.320  35.419  27.843  1.00  0.00     0.020 A 
ATOM     98  C   UNL A   1      47.858  35.766  29.085  1.00  0.00     0.054 A 
BRANCH  98  99
ATOM     99  S   UNL A   1      48.422  37.461  29.396  1.00  0.00     0.124 S 
ATOM    100  O   UNL A   1      49.086  37.328  30.689  1.00  0.00    -0.237 OA
ATOM    101  O   UNL A   1      49.306  37.719  28.261  1.00  0.00    -0.237 OA
ATOM    102  O   UNL A   1      47.187  38.241  29.404  1.00  0.00    -0.744 OA
ENDBRANCH  98  99
ENDBRANCH  72  93
ENDBRANCH  46  47
ENDBRANCH  38  41
ENDBRANCH  36  37
ENDBRANCH  35  36
ENDBRANCH   1  35
TORSDOF 19
ENDMDL
