MODEL 1
REMARK VINA RESULT:     -11.3      0.000      0.000
REMARK SMILES CC(=O)Nc1ccc2sc(C(=O)NCCCCNC(=O)c3ccc(-c4c5nc(c(-c6ccc(S(=O)(=O)[O-])cc6)c6ccc([nH]6)c(-c6ccc(S(=O)(=O)[O-])cc6)c6nc(c(-c7ccc(S(=O)(=O)[O-])cc7)c7ccc4[nH]7)C=C6)C=C5)cc3)cc2c1
REMARK SMILES IDX 16 1 15 2 14 3 13 4 11 5 12 6 10 8 5 9 6 10 83 11 7 12 82 13
REMARK SMILES IDX 8 14 81 15 9 16 4 17 1 18 2 19 3 20 17 22 18 23 19 24 20 26
REMARK SMILES IDX 21 27 22 28 80 29 23 30 79 31 24 32 25 33 26 34 73 35 27 36
REMARK SMILES IDX 78 37 72 38 74 39 28 40 77 41 71 42 70 43 29 45 59 46 40 47
REMARK SMILES IDX 58 48 41 49 44 50 57 51 75 52 42 53 43 54 56 56 76 57 45 58
REMARK SMILES IDX 30 59 31 60 39 61 32 62 38 63 33 64 34 65 35 66 36 67 37 68
REMARK SMILES IDX 60 69 61 70 69 71 62 72 68 73 63 74 64 75 65 76 66 77 67 78
REMARK SMILES IDX 46 79 47 80 55 81 48 82 54 83 49 84 50 85 51 86 52 87 53 88
REMARK H PARENT 13 7 4 21 18 25 74 44 44 55
REMARK Flexibility Score: inf
ROOT
ATOM      1  C   UNL A   1      33.412  28.138  25.712  1.00  0.00     0.023 C 
ENDROOT
BRANCH   1   2
ATOM      2  C   UNL A   1      31.984  28.322  25.183  1.00  0.00     0.023 C 
BRANCH   2   3
ATOM      3  C   UNL A   1      31.280  27.013  24.824  1.00  0.00     0.116 C 
BRANCH   3   4
ATOM      4  N   UNL A   1      31.318  26.772  23.395  1.00  0.00    -0.351 N 
ATOM      5  C   UNL A   1      31.828  25.752  22.630  1.00  0.00     0.261 C 
ATOM      6  O   UNL A   1      31.629  25.866  21.417  1.00  0.00    -0.268 OA
ATOM      7  H   UNL A   1      30.892  27.485  22.866  1.00  0.00     0.163 HD
BRANCH   5   8
ATOM      8  C   UNL A   1      32.502  24.575  23.169  1.00  0.00     0.093 A 
ATOM      9  C   UNL A   1      33.357  20.387  25.287  1.00  0.00     0.041 A 
ATOM     10  C   UNL A   1      34.630  20.918  25.471  1.00  0.00     0.027 A 
ATOM     11  C   UNL A   1      32.415  21.091  24.528  1.00  0.00     0.035 A 
ATOM     12  C   UNL A   1      34.972  22.164  24.937  1.00  0.00     0.022 A 
ATOM     13  C   UNL A   1      32.709  22.391  24.048  1.00  0.00    -0.005 A 
ATOM     14  C   UNL A   1      33.992  22.896  24.245  1.00  0.00     0.035 A 
ATOM     15  C   UNL A   1      31.878  23.357  23.397  1.00  0.00     0.034 A 
ATOM     16  S   UNL A   1      34.160  24.442  23.528  1.00  0.00    -0.130 S 
BRANCH   9  17
ATOM     17  N   UNL A   1      32.969  19.140  25.796  1.00  0.00    -0.326 N 
ATOM     18  C   UNL A   1      33.964  17.668  24.057  1.00  0.00     0.114 C 
ATOM     19  C   UNL A   1      33.065  17.891  25.246  1.00  0.00     0.221 C 
ATOM     20  O   UNL A   1      32.478  16.949  25.780  1.00  0.00    -0.275 OA
ATOM     21  H   UNL A   1      32.561  19.166  26.693  1.00  0.00     0.169 HD
ENDBRANCH   9  17
ENDBRANCH   5   8
ENDBRANCH   3   4
ENDBRANCH   2   3
ENDBRANCH   1   2
BRANCH   1  22
ATOM     22  C   UNL A   1      33.593  28.399  27.206  1.00  0.00     0.116 C 
BRANCH  22  23
ATOM     23  N   UNL A   1      33.499  29.807  27.561  1.00  0.00    -0.352 N 
ATOM     24  C   UNL A   1      34.465  30.608  28.123  1.00  0.00     0.251 C 
ATOM     25  H   UNL A   1      32.635  30.240  27.377  1.00  0.00     0.163 HD
ATOM     26  O   UNL A   1      34.199  31.757  28.460  1.00  0.00    -0.269 OA
BRANCH  24  27
ATOM     27  C   UNL A   1      35.815  30.053  28.352  1.00  0.00     0.039 A 
ATOM     28  C   UNL A   1      36.738  30.067  27.304  1.00  0.00     0.014 A 
ATOM     29  C   UNL A   1      36.176  29.560  29.608  1.00  0.00     0.014 A 
ATOM     30  C   UNL A   1      38.051  29.652  27.536  1.00  0.00     0.010 A 
ATOM     31  C   UNL A   1      37.498  29.202  29.853  1.00  0.00     0.010 A 
ATOM     32  C   UNL A   1      38.449  29.252  28.822  1.00  0.00    -0.014 A 
BRANCH  32  33
ATOM     33  C   UNL A   1      39.855  28.882  29.121  1.00  0.00     0.031 A 
ATOM     34  C   UNL A   1      40.789  29.903  29.709  1.00  0.00     0.074 A 
ATOM     35  C   UNL A   1      40.312  27.658  28.785  1.00  0.00     0.049 A 
ATOM     36  N   UNL A   1      42.077  29.819  29.916  1.00  0.00    -0.248 NA
ATOM     37  C   UNL A   1      40.200  31.197  30.091  1.00  0.00     0.031 C 
ATOM     38  C   UNL A   1      39.512  26.588  28.182  1.00  0.00     0.029 A 
ATOM     39  N   UNL A   1      41.568  27.113  28.887  1.00  0.00    -0.354 N 
ATOM     40  C   UNL A   1      42.458  31.053  30.431  1.00  0.00     0.074 A 
ATOM     41  C   UNL A   1      41.271  31.880  30.470  1.00  0.00     0.031 C 
ATOM     42  C   UNL A   1      40.294  25.514  27.980  1.00  0.00     0.029 A 
ATOM     43  C   UNL A   1      41.656  25.830  28.400  1.00  0.00     0.049 A 
ATOM     44  H   UNL A   1      42.333  27.596  29.273  1.00  0.00     0.167 HD
ATOM     45  C   UNL A   1      43.681  31.455  30.849  1.00  0.00     0.031 A 
ATOM     46  C   UNL A   1      42.716  25.006  28.290  1.00  0.00     0.031 A 
ATOM     47  C   UNL A   1      44.854  30.625  30.828  1.00  0.00     0.049 A 
ATOM     48  C   UNL A   1      44.065  25.478  28.760  1.00  0.00     0.074 A 
ATOM     49  C   UNL A   1      46.132  30.931  31.261  1.00  0.00     0.029 A 
ATOM     50  N   UNL A   1      44.891  29.320  30.361  1.00  0.00    -0.354 N 
ATOM     51  N   UNL A   1      44.397  26.639  29.274  1.00  0.00    -0.248 NA
ATOM     52  C   UNL A   1      45.180  24.528  28.646  1.00  0.00     0.031 C 
ATOM     53  C   UNL A   1      46.951  29.821  31.026  1.00  0.00     0.029 A 
ATOM     54  C   UNL A   1      46.170  28.809  30.491  1.00  0.00     0.049 A 
ATOM     55  H   UNL A   1      44.122  28.830  29.991  1.00  0.00     0.167 HD
ATOM     56  C   UNL A   1      45.751  26.543  29.578  1.00  0.00     0.074 A 
ATOM     57  C   UNL A   1      46.175  25.213  29.194  1.00  0.00     0.031 C 
ATOM     58  C   UNL A   1      46.568  27.474  30.126  1.00  0.00     0.031 A 
BRANCH  45  59
ATOM     59  C   UNL A   1      43.811  32.860  31.370  1.00  0.00    -0.014 A 
ATOM     60  C   UNL A   1      44.131  33.923  30.504  1.00  0.00     0.010 A 
ATOM     61  C   UNL A   1      43.563  33.132  32.727  1.00  0.00     0.010 A 
ATOM     62  C   UNL A   1      44.231  35.227  30.993  1.00  0.00     0.020 A 
ATOM     63  C   UNL A   1      43.637  34.440  33.215  1.00  0.00     0.020 A 
ATOM     64  C   UNL A   1      43.986  35.478  32.346  1.00  0.00     0.054 A 
BRANCH  64  65
ATOM     65  S   UNL A   1      44.091  37.185  32.948  1.00  0.00     0.124 S 
ATOM     66  O   UNL A   1      45.442  37.226  33.503  1.00  0.00    -0.237 OA
ATOM     67  O   UNL A   1      43.889  37.968  31.731  1.00  0.00    -0.237 OA
ATOM     68  O   UNL A   1      43.011  37.275  33.928  1.00  0.00    -0.744 OA
ENDBRANCH  64  65
ENDBRANCH  45  59
BRANCH  46  69
ATOM     69  C   UNL A   1      42.550  23.643  27.716  1.00  0.00    -0.014 A 
ATOM     70  C   UNL A   1      42.077  22.587  28.515  1.00  0.00     0.010 A 
ATOM     71  C   UNL A   1      42.874  23.391  26.371  1.00  0.00     0.010 A 
ATOM     72  C   UNL A   1      41.962  21.297  27.989  1.00  0.00     0.020 A 
ATOM     73  C   UNL A   1      42.735  22.108  25.834  1.00  0.00     0.020 A 
ATOM     74  C   UNL A   1      42.295  21.066  26.652  1.00  0.00     0.054 A 
BRANCH  74  75
ATOM     75  S   UNL A   1      42.112  19.390  25.980  1.00  0.00     0.124 S 
ATOM     76  O   UNL A   1      42.933  19.457  24.775  1.00  0.00    -0.237 OA
ATOM     77  O   UNL A   1      42.637  18.555  27.058  1.00  0.00    -0.237 OA
ATOM     78  O   UNL A   1      40.674  19.270  25.754  1.00  0.00    -0.744 OA
ENDBRANCH  74  75
ENDBRANCH  46  69
BRANCH  58  79
ATOM     79  C   UNL A   1      47.991  27.074  30.407  1.00  0.00    -0.014 A 
ATOM     80  C   UNL A   1      49.020  27.343  29.489  1.00  0.00     0.010 A 
ATOM     81  C   UNL A   1      48.307  26.487  31.646  1.00  0.00     0.010 A 
ATOM     82  C   UNL A   1      50.342  27.015  29.799  1.00  0.00     0.020 A 
ATOM     83  C   UNL A   1      49.631  26.178  31.968  1.00  0.00     0.020 A 
ATOM     84  C   UNL A   1      50.639  26.435  31.036  1.00  0.00     0.054 A 
BRANCH  84  85
ATOM     85  S   UNL A   1      52.371  26.077  31.442  1.00  0.00     0.124 S 
ATOM     86  O   UNL A   1      52.701  27.171  32.353  1.00  0.00    -0.237 OA
ATOM     87  O   UNL A   1      52.292  24.753  32.053  1.00  0.00    -0.237 OA
ATOM     88  O   UNL A   1      53.046  26.120  30.147  1.00  0.00    -0.744 OA
ENDBRANCH  84  85
ENDBRANCH  58  79
ENDBRANCH  32  33
ENDBRANCH  24  27
ENDBRANCH  22  23
ENDBRANCH   1  22
TORSDOF 15
ENDMDL
MODEL 2
REMARK VINA RESULT:     -11.1      2.856      3.516
REMARK SMILES CC(=O)Nc1ccc2sc(C(=O)NCCCCNC(=O)c3ccc(-c4c5nc(c(-c6ccc(S(=O)(=O)[O-])cc6)c6ccc([nH]6)c(-c6ccc(S(=O)(=O)[O-])cc6)c6nc(c(-c7ccc(S(=O)(=O)[O-])cc7)c7ccc4[nH]7)C=C6)C=C5)cc3)cc2c1
REMARK SMILES IDX 16 1 15 2 14 3 13 4 11 5 12 6 10 8 5 9 6 10 83 11 7 12 82 13
REMARK SMILES IDX 8 14 81 15 9 16 4 17 1 18 2 19 3 20 17 22 18 23 19 24 20 26
REMARK SMILES IDX 21 27 22 28 80 29 23 30 79 31 24 32 25 33 26 34 73 35 27 36
REMARK SMILES IDX 78 37 72 38 74 39 28 40 77 41 71 42 70 43 29 45 59 46 40 47
REMARK SMILES IDX 58 48 41 49 44 50 57 51 75 52 42 53 43 54 56 56 76 57 45 58
REMARK SMILES IDX 30 59 31 60 39 61 32 62 38 63 33 64 34 65 35 66 36 67 37 68
REMARK SMILES IDX 60 69 61 70 69 71 62 72 68 73 63 74 64 75 65 76 66 77 67 78
REMARK SMILES IDX 46 79 47 80 55 81 48 82 54 83 49 84 50 85 51 86 52 87 53 88
REMARK H PARENT 13 7 4 21 18 25 74 44 44 55
REMARK Flexibility Score: inf
ROOT
ATOM      1  C   UNL A   1      33.567  27.633  26.652  1.00  0.00     0.023 C 
ENDROOT
BRANCH   1   2
ATOM      2  C   UNL A   1      32.078  27.829  26.964  1.00  0.00     0.023 C 
BRANCH   2   3
ATOM      3  C   UNL A   1      31.138  27.178  25.949  1.00  0.00     0.116 C 
BRANCH   3   4
ATOM      4  N   UNL A   1      30.549  25.966  26.483  1.00  0.00    -0.351 N 
ATOM      5  C   UNL A   1      30.936  24.648  26.458  1.00  0.00     0.261 C 
ATOM      6  O   UNL A   1      30.190  23.879  27.074  1.00  0.00    -0.268 OA
ATOM      7  H   UNL A   1      29.702  26.118  26.959  1.00  0.00     0.163 HD
BRANCH   5   8
ATOM      8  C   UNL A   1      32.154  24.157  25.822  1.00  0.00     0.093 A 
ATOM      9  C   UNL A   1      36.713  23.042  24.965  1.00  0.00     0.041 A 
ATOM     10  C   UNL A   1      36.311  23.093  23.635  1.00  0.00     0.027 A 
ATOM     11  C   UNL A   1      35.760  23.176  25.982  1.00  0.00     0.035 A 
ATOM     12  C   UNL A   1      34.972  23.312  23.296  1.00  0.00     0.022 A 
ATOM     13  C   UNL A   1      34.413  23.481  25.667  1.00  0.00    -0.005 A 
ATOM     14  C   UNL A   1      34.040  23.524  24.326  1.00  0.00     0.035 A 
ATOM     15  C   UNL A   1      33.307  23.814  26.513  1.00  0.00     0.034 A 
ATOM     16  S   UNL A   1      32.363  23.833  24.165  1.00  0.00    -0.130 S 
BRANCH   9  17
ATOM     17  N   UNL A   1      38.041  22.820  25.355  1.00  0.00    -0.326 N 
ATOM     18  C   UNL A   1      38.107  20.342  25.160  1.00  0.00     0.114 C 
ATOM     19  C   UNL A   1      38.703  21.651  25.611  1.00  0.00     0.221 C 
ATOM     20  O   UNL A   1      39.817  21.690  26.136  1.00  0.00    -0.275 OA
ATOM     21  H   UNL A   1      38.584  23.635  25.462  1.00  0.00     0.169 HD
ENDBRANCH   9  17
ENDBRANCH   5   8
ENDBRANCH   3   4
ENDBRANCH   2   3
ENDBRANCH   1   2
BRANCH   1  22
ATOM     22  C   UNL A   1      34.253  28.818  25.974  1.00  0.00     0.116 C 
BRANCH  22  23
ATOM     23  N   UNL A   1      33.889  30.103  26.551  1.00  0.00    -0.352 N 
ATOM     24  C   UNL A   1      34.523  30.793  27.557  1.00  0.00     0.251 C 
ATOM     25  H   UNL A   1      33.088  30.532  26.173  1.00  0.00     0.163 HD
ATOM     26  O   UNL A   1      34.032  31.824  28.006  1.00  0.00    -0.269 OA
BRANCH  24  27
ATOM     27  C   UNL A   1      35.779  30.254  28.118  1.00  0.00     0.039 A 
ATOM     28  C   UNL A   1      36.971  30.456  27.418  1.00  0.00     0.014 A 
ATOM     29  C   UNL A   1      35.781  29.592  29.347  1.00  0.00     0.014 A 
ATOM     30  C   UNL A   1      38.181  30.054  27.988  1.00  0.00     0.010 A 
ATOM     31  C   UNL A   1      36.991  29.244  29.939  1.00  0.00     0.010 A 
ATOM     32  C   UNL A   1      38.202  29.479  29.269  1.00  0.00    -0.014 A 
BRANCH  32  33
ATOM     33  C   UNL A   1      39.477  29.115  29.937  1.00  0.00     0.031 A 
ATOM     34  C   UNL A   1      39.984  29.943  31.085  1.00  0.00     0.074 A 
ATOM     35  C   UNL A   1      40.217  28.094  29.457  1.00  0.00     0.049 A 
ATOM     36  N   UNL A   1      41.130  29.872  31.710  1.00  0.00    -0.248 NA
ATOM     37  C   UNL A   1      39.094  31.007  31.578  1.00  0.00     0.031 C 
ATOM     38  C   UNL A   1      39.848  27.233  28.331  1.00  0.00     0.029 A 
ATOM     39  N   UNL A   1      41.445  27.620  29.847  1.00  0.00    -0.354 N 
ATOM     40  C   UNL A   1      41.110  30.892  32.653  1.00  0.00     0.074 A 
ATOM     41  C   UNL A   1      39.853  31.592  32.494  1.00  0.00     0.031 C 
ATOM     42  C   UNL A   1      40.822  26.329  28.130  1.00  0.00     0.029 A 
ATOM     43  C   UNL A   1      41.901  26.571  29.083  1.00  0.00     0.049 A 
ATOM     44  H   UNL A   1      41.951  27.996  30.603  1.00  0.00     0.167 HD
ATOM     45  C   UNL A   1      42.046  31.209  33.579  1.00  0.00     0.031 A 
ATOM     46  C   UNL A   1      43.062  25.890  29.134  1.00  0.00     0.031 A 
ATOM     47  C   UNL A   1      43.285  30.499  33.748  1.00  0.00     0.049 A 
ATOM     48  C   UNL A   1      44.087  26.263  30.172  1.00  0.00     0.074 A 
ATOM     49  C   UNL A   1      44.283  30.723  34.681  1.00  0.00     0.029 A 
ATOM     50  N   UNL A   1      43.690  29.421  32.978  1.00  0.00    -0.354 N 
ATOM     51  N   UNL A   1      44.034  27.211  31.076  1.00  0.00    -0.248 NA
ATOM     52  C   UNL A   1      45.322  25.467  30.204  1.00  0.00     0.031 C 
ATOM     53  C   UNL A   1      45.308  29.798  34.453  1.00  0.00     0.029 A 
ATOM     54  C   UNL A   1      44.925  28.970  33.410  1.00  0.00     0.049 A 
ATOM     55  H   UNL A   1      43.176  29.033  32.233  1.00  0.00     0.167 HD
ATOM     56  C   UNL A   1      45.212  27.102  31.807  1.00  0.00     0.074 A 
ATOM     57  C   UNL A   1      45.955  25.995  31.243  1.00  0.00     0.031 C 
ATOM     58  C   UNL A   1      45.639  27.851  32.852  1.00  0.00     0.031 A 
BRANCH  45  59
ATOM     59  C   UNL A   1      41.762  32.375  34.486  1.00  0.00    -0.014 A 
ATOM     60  C   UNL A   1      41.002  32.207  35.658  1.00  0.00     0.010 A 
ATOM     61  C   UNL A   1      42.302  33.640  34.192  1.00  0.00     0.010 A 
ATOM     62  C   UNL A   1      40.760  33.292  36.503  1.00  0.00     0.020 A 
ATOM     63  C   UNL A   1      42.083  34.722  35.050  1.00  0.00     0.020 A 
ATOM     64  C   UNL A   1      41.300  34.544  36.193  1.00  0.00     0.054 A 
BRANCH  64  65
ATOM     65  S   UNL A   1      40.997  35.927  37.326  1.00  0.00     0.124 S 
ATOM     66  O   UNL A   1      39.786  36.519  36.761  1.00  0.00    -0.237 OA
ATOM     67  O   UNL A   1      40.826  35.257  38.613  1.00  0.00    -0.237 OA
ATOM     68  O   UNL A   1      42.204  36.743  37.208  1.00  0.00    -0.744 OA
ENDBRANCH  64  65
ENDBRANCH  45  59
BRANCH  46  69
ATOM     69  C   UNL A   1      43.323  24.779  28.179  1.00  0.00    -0.014 A 
ATOM     70  C   UNL A   1      43.998  25.024  26.970  1.00  0.00     0.010 A 
ATOM     71  C   UNL A   1      42.888  23.473  28.467  1.00  0.00     0.010 A 
ATOM     72  C   UNL A   1      44.206  23.990  26.053  1.00  0.00     0.020 A 
ATOM     73  C   UNL A   1      43.116  22.431  27.564  1.00  0.00     0.020 A 
ATOM     74  C   UNL A   1      43.760  22.701  26.355  1.00  0.00     0.054 A 
BRANCH  74  75
ATOM     75  S   UNL A   1      44.064  21.365  25.163  1.00  0.00     0.124 S 
ATOM     76  O   UNL A   1      42.940  20.471  25.419  1.00  0.00    -0.237 OA
ATOM     77  O   UNL A   1      44.034  22.069  23.883  1.00  0.00    -0.237 OA
ATOM     78  O   UNL A   1      45.376  20.854  25.554  1.00  0.00    -0.744 OA
ENDBRANCH  74  75
ENDBRANCH  46  69
BRANCH  58  79
ATOM     79  C   UNL A   1      46.939  27.465  33.501  1.00  0.00    -0.014 A 
ATOM     80  C   UNL A   1      48.156  28.039  33.096  1.00  0.00     0.010 A 
ATOM     81  C   UNL A   1      46.926  26.569  34.586  1.00  0.00     0.010 A 
ATOM     82  C   UNL A   1      49.343  27.707  33.754  1.00  0.00     0.020 A 
ATOM     83  C   UNL A   1      48.108  26.253  35.260  1.00  0.00     0.020 A 
ATOM     84  C   UNL A   1      49.312  26.818  34.832  1.00  0.00     0.054 A 
BRANCH  84  85
ATOM     85  S   UNL A   1      50.855  26.454  35.713  1.00  0.00     0.124 S 
ATOM     86  O   UNL A   1      51.388  27.792  35.958  1.00  0.00    -0.237 OA
ATOM     87  O   UNL A   1      50.390  25.737  36.897  1.00  0.00    -0.237 OA
ATOM     88  O   UNL A   1      51.615  25.646  34.761  1.00  0.00    -0.744 OA
ENDBRANCH  84  85
ENDBRANCH  58  79
ENDBRANCH  32  33
ENDBRANCH  24  27
ENDBRANCH  22  23
ENDBRANCH   1  22
TORSDOF 15
ENDMDL
MODEL 3
REMARK VINA RESULT:     -10.8      4.604      5.959
REMARK SMILES CC(=O)Nc1ccc2sc(C(=O)NCCCCNC(=O)c3ccc(-c4c5nc(c(-c6ccc(S(=O)(=O)[O-])cc6)c6ccc([nH]6)c(-c6ccc(S(=O)(=O)[O-])cc6)c6nc(c(-c7ccc(S(=O)(=O)[O-])cc7)c7ccc4[nH]7)C=C6)C=C5)cc3)cc2c1
REMARK SMILES IDX 16 1 15 2 14 3 13 4 11 5 12 6 10 8 5 9 6 10 83 11 7 12 82 13
REMARK SMILES IDX 8 14 81 15 9 16 4 17 1 18 2 19 3 20 17 22 18 23 19 24 20 26
REMARK SMILES IDX 21 27 22 28 80 29 23 30 79 31 24 32 25 33 26 34 73 35 27 36
REMARK SMILES IDX 78 37 72 38 74 39 28 40 77 41 71 42 70 43 29 45 59 46 40 47
REMARK SMILES IDX 58 48 41 49 44 50 57 51 75 52 42 53 43 54 56 56 76 57 45 58
REMARK SMILES IDX 30 59 31 60 39 61 32 62 38 63 33 64 34 65 35 66 36 67 37 68
REMARK SMILES IDX 60 69 61 70 69 71 62 72 68 73 63 74 64 75 65 76 66 77 67 78
REMARK SMILES IDX 46 79 47 80 55 81 48 82 54 83 49 84 50 85 51 86 52 87 53 88
REMARK H PARENT 13 7 4 21 18 25 74 44 44 55
REMARK Flexibility Score: inf
ROOT
ATOM      1  C   UNL A   1      31.947  31.984  26.826  1.00  0.00     0.023 C 
ENDROOT
BRANCH   1   2
ATOM      2  C   UNL A   1      32.002  30.462  27.000  1.00  0.00     0.023 C 
BRANCH   2   3
ATOM      3  C   UNL A   1      33.412  29.876  26.919  1.00  0.00     0.116 C 
BRANCH   3   4
ATOM      4  N   UNL A   1      33.768  29.557  25.550  1.00  0.00    -0.351 N 
ATOM      5  C   UNL A   1      33.614  28.430  24.781  1.00  0.00     0.261 C 
ATOM      6  O   UNL A   1      34.006  28.543  23.615  1.00  0.00    -0.268 OA
ATOM      7  H   UNL A   1      34.211  30.299  25.077  1.00  0.00     0.163 HD
BRANCH   5   8
ATOM      8  C   UNL A   1      32.984  27.196  25.241  1.00  0.00     0.093 A 
ATOM      9  C   UNL A   1      32.094  22.596  26.134  1.00  0.00     0.041 A 
ATOM     10  C   UNL A   1      30.773  23.028  26.203  1.00  0.00     0.027 A 
ATOM     11  C   UNL A   1      33.122  23.534  25.985  1.00  0.00     0.035 A 
ATOM     12  C   UNL A   1      30.454  24.384  26.092  1.00  0.00     0.022 A 
ATOM     13  C   UNL A   1      32.820  24.903  25.787  1.00  0.00    -0.005 A 
ATOM     14  C   UNL A   1      31.490  25.306  25.864  1.00  0.00     0.035 A 
ATOM     15  C   UNL A   1      33.668  26.010  25.462  1.00  0.00     0.034 A 
ATOM     16  S   UNL A   1      31.349  27.002  25.670  1.00  0.00    -0.130 S 
BRANCH   9  17
ATOM     17  N   UNL A   1      32.465  21.248  26.246  1.00  0.00    -0.326 N 
ATOM     18  C   UNL A   1      32.452  20.627  23.838  1.00  0.00     0.114 C 
ATOM     19  C   UNL A   1      32.507  20.262  25.300  1.00  0.00     0.221 C 
ATOM     20  O   UNL A   1      32.671  19.093  25.652  1.00  0.00    -0.275 OA
ATOM     21  H   UNL A   1      32.738  20.967  27.150  1.00  0.00     0.169 HD
ENDBRANCH   9  17
ENDBRANCH   5   8
ENDBRANCH   3   4
ENDBRANCH   2   3
ENDBRANCH   1   2
BRANCH   1  22
ATOM     22  C   UNL A   1      33.099  32.756  27.467  1.00  0.00     0.116 C 
BRANCH  22  23
ATOM     23  N   UNL A   1      32.756  34.126  27.811  1.00  0.00    -0.352 N 
ATOM     24  C   UNL A   1      33.275  34.906  28.817  1.00  0.00     0.251 C 
ATOM     25  H   UNL A   1      32.064  34.549  27.252  1.00  0.00     0.163 HD
ATOM     26  O   UNL A   1      32.805  36.017  29.046  1.00  0.00    -0.269 OA
BRANCH  24  27
ATOM     27  C   UNL A   1      34.375  34.372  29.645  1.00  0.00     0.039 A 
ATOM     28  C   UNL A   1      34.064  33.713  30.837  1.00  0.00     0.014 A 
ATOM     29  C   UNL A   1      35.701  34.487  29.223  1.00  0.00     0.014 A 
ATOM     30  C   UNL A   1      35.083  33.103  31.573  1.00  0.00     0.010 A 
ATOM     31  C   UNL A   1      36.706  33.830  29.926  1.00  0.00     0.010 A 
ATOM     32  C   UNL A   1      36.406  33.126  31.103  1.00  0.00    -0.014 A 
BRANCH  32  33
ATOM     33  C   UNL A   1      37.498  32.420  31.819  1.00  0.00     0.031 A 
ATOM     34  C   UNL A   1      37.986  32.943  33.142  1.00  0.00     0.074 A 
ATOM     35  C   UNL A   1      38.105  31.364  31.240  1.00  0.00     0.049 A 
ATOM     36  N   UNL A   1      39.010  32.553  33.855  1.00  0.00    -0.248 NA
ATOM     37  C   UNL A   1      37.239  34.069  33.726  1.00  0.00     0.031 C 
ATOM     38  C   UNL A   1      37.743  30.779  29.947  1.00  0.00     0.029 A 
ATOM     39  N   UNL A   1      39.169  30.604  31.660  1.00  0.00    -0.354 N 
ATOM     40  C   UNL A   1      39.044  33.397  34.959  1.00  0.00     0.074 A 
ATOM     41  C   UNL A   1      37.961  34.343  34.802  1.00  0.00     0.031 C 
ATOM     42  C   UNL A   1      38.562  29.746  29.686  1.00  0.00     0.029 A 
ATOM     43  C   UNL A   1      39.531  29.621  30.769  1.00  0.00     0.049 A 
ATOM     44  H   UNL A   1      39.629  30.751  32.517  1.00  0.00     0.167 HD
ATOM     45  C   UNL A   1      39.890  33.375  36.016  1.00  0.00     0.031 A 
ATOM     46  C   UNL A   1      40.539  28.728  30.814  1.00  0.00     0.031 A 
ATOM     47  C   UNL A   1      40.952  32.421  36.178  1.00  0.00     0.049 A 
ATOM     48  C   UNL A   1      41.467  28.725  31.999  1.00  0.00     0.074 A 
ATOM     49  C   UNL A   1      41.843  32.296  37.231  1.00  0.00     0.029 A 
ATOM     50  N   UNL A   1      41.262  31.419  35.272  1.00  0.00    -0.354 N 
ATOM     51  N   UNL A   1      41.462  29.512  33.049  1.00  0.00    -0.248 NA
ATOM     52  C   UNL A   1      42.529  27.710  32.012  1.00  0.00     0.031 C 
ATOM     53  C   UNL A   1      42.711  31.237  36.945  1.00  0.00     0.029 A 
ATOM     54  C   UNL A   1      42.331  30.674  35.738  1.00  0.00     0.049 A 
ATOM     55  H   UNL A   1      40.790  31.260  34.422  1.00  0.00     0.167 HD
ATOM     56  C   UNL A   1      42.496  29.062  33.863  1.00  0.00     0.074 A 
ATOM     57  C   UNL A   1      43.102  27.934  33.187  1.00  0.00     0.031 C 
ATOM     58  C   UNL A   1      42.905  29.539  35.063  1.00  0.00     0.031 A 
BRANCH  45  59
ATOM     59  C   UNL A   1      39.697  34.416  37.084  1.00  0.00    -0.014 A 
ATOM     60  C   UNL A   1      38.977  34.122  38.256  1.00  0.00     0.010 A 
ATOM     61  C   UNL A   1      40.284  35.687  36.940  1.00  0.00     0.010 A 
ATOM     62  C   UNL A   1      38.819  35.089  39.250  1.00  0.00     0.020 A 
ATOM     63  C   UNL A   1      40.149  36.649  37.945  1.00  0.00     0.020 A 
ATOM     64  C   UNL A   1      39.405  36.348  39.088  1.00  0.00     0.054 A 
BRANCH  64  65
ATOM     65  S   UNL A   1      39.212  37.575  40.410  1.00  0.00     0.124 S 
ATOM     66  O   UNL A   1      38.130  38.408  39.891  1.00  0.00    -0.237 OA
ATOM     67  O   UNL A   1      38.869  36.750  41.565  1.00  0.00    -0.237 OA
ATOM     68  O   UNL A   1      40.521  38.221  40.477  1.00  0.00    -0.744 OA
ENDBRANCH  64  65
ENDBRANCH  45  59
BRANCH  46  69
ATOM     69  C   UNL A   1      40.725  27.751  29.706  1.00  0.00    -0.014 A 
ATOM     70  C   UNL A   1      41.797  27.892  28.807  1.00  0.00     0.010 A 
ATOM     71  C   UNL A   1      39.826  26.683  29.538  1.00  0.00     0.010 A 
ATOM     72  C   UNL A   1      41.949  27.001  27.741  1.00  0.00     0.020 A 
ATOM     73  C   UNL A   1      39.989  25.775  28.488  1.00  0.00     0.020 A 
ATOM     74  C   UNL A   1      41.041  25.950  27.587  1.00  0.00     0.054 A 
BRANCH  74  75
ATOM     75  S   UNL A   1      41.271  24.787  26.212  1.00  0.00     0.124 S 
ATOM     76  O   UNL A   1      40.170  23.851  26.421  1.00  0.00    -0.237 OA
ATOM     77  O   UNL A   1      41.152  25.652  25.040  1.00  0.00    -0.237 OA
ATOM     78  O   UNL A   1      42.608  24.246  26.445  1.00  0.00    -0.744 OA
ENDBRANCH  74  75
ENDBRANCH  46  69
BRANCH  58  79
ATOM     79  C   UNL A   1      44.021  28.811  35.759  1.00  0.00    -0.014 A 
ATOM     80  C   UNL A   1      43.760  27.778  36.675  1.00  0.00     0.010 A 
ATOM     81  C   UNL A   1      45.354  29.120  35.429  1.00  0.00     0.010 A 
ATOM     82  C   UNL A   1      44.815  27.078  37.265  1.00  0.00     0.020 A 
ATOM     83  C   UNL A   1      46.410  28.406  35.999  1.00  0.00     0.020 A 
ATOM     84  C   UNL A   1      46.133  27.395  36.922  1.00  0.00     0.054 A 
BRANCH  84  85
ATOM     85  S   UNL A   1      47.485  26.428  37.650  1.00  0.00     0.124 S 
ATOM     86  O   UNL A   1      47.834  27.228  38.822  1.00  0.00    -0.237 OA
ATOM     87  O   UNL A   1      46.847  25.145  37.934  1.00  0.00    -0.237 OA
ATOM     88  O   UNL A   1      48.495  26.395  36.595  1.00  0.00    -0.744 OA
ENDBRANCH  84  85
ENDBRANCH  58  79
ENDBRANCH  32  33
ENDBRANCH  24  27
ENDBRANCH  22  23
ENDBRANCH   1  22
TORSDOF 15
ENDMDL
