MODEL 1
REMARK VINA RESULT:     -13.2      0.000      0.000
REMARK SMILES Cc1ccc(C(C)(C)C)c(OCC(=O)c2nc(C)c(C(=O)NCCCCNC(=O)c3ccc(-c4c5nc(c(-c6ccc(S(=O)(=O)[O-])cc6)c6ccc([nH]6)c(-c6ccc(S(=O)(=O)[O-])cc6)c6nc(c(-c7ccc(S(=O)(=O)[O-])cc7)c7ccc4[nH]7)C=C6)C=C5)cc3)s2)c1
REMARK SMILES IDX 23 1 22 2 20 3 21 4 19 6 15 7 16 8 90 9 17 10 18 11 13 12
REMARK SMILES IDX 14 13 12 14 11 15 10 16 1 17 2 18 3 19 91 20 4 21 5 22 6 23
REMARK SMILES IDX 7 24 8 25 9 26 24 27 25 28 26 29 27 30 28 31 29 33 30 34
REMARK SMILES IDX 31 35 89 36 32 37 88 38 33 39 34 40 35 41 82 42 36 43 87 44
REMARK SMILES IDX 81 45 83 46 37 47 86 48 80 49 79 50 38 52 68 53 49 54 67 55
REMARK SMILES IDX 50 56 53 57 66 58 84 59 51 60 52 61 65 63 85 64 54 65 39 66
REMARK SMILES IDX 40 67 48 68 41 69 47 70 42 71 43 72 44 73 45 74 46 75 69 76
REMARK SMILES IDX 70 77 78 78 71 79 77 80 72 81 73 82 74 83 75 84 76 85 55 86
REMARK SMILES IDX 56 87 64 88 57 89 63 90 58 91 59 92 60 93 61 94 62 95
REMARK H PARENT 22 5 27 32 83 51 53 62
REMARK Flexibility Score: inf
ROOT
ATOM      1  C   UNL A   1      34.785  21.441  26.235  1.00  0.00     0.116 C 
ENDROOT
BRANCH   1   2
ATOM      2  N   UNL A   1      33.960  20.752  25.267  1.00  0.00    -0.351 N 
ATOM      3  C   UNL A   1      33.095  21.144  24.282  1.00  0.00     0.263 C 
ATOM      4  O   UNL A   1      32.608  20.174  23.682  1.00  0.00    -0.268 OA
ATOM      5  H   UNL A   1      34.041  19.774  25.331  1.00  0.00     0.163 HD
BRANCH   3   6
ATOM      6  C   UNL A   1      32.749  22.522  23.928  1.00  0.00     0.115 A 
ATOM      7  C   UNL A   1      32.790  24.604  22.595  1.00  0.00     0.164 A 
ATOM      8  N   UNL A   1      31.993  24.731  23.626  1.00  0.00    -0.237 NA
ATOM      9  S   UNL A   1      33.553  23.100  22.477  1.00  0.00    -0.105 S 
ATOM     10  C   UNL A   1      31.930  23.557  24.378  1.00  0.00     0.062 A 
ATOM     11  C   UNL A   1      30.967  23.664  25.503  1.00  0.00     0.068 C 
BRANCH   7  12
ATOM     12  C   UNL A   1      32.978  25.700  21.655  1.00  0.00     0.228 C 
ATOM     13  O   UNL A   1      33.057  25.532  20.431  1.00  0.00    -0.288 OA
BRANCH  12  14
ATOM     14  C   UNL A   1      33.220  27.115  22.201  1.00  0.00     0.313 C 
BRANCH  14  15
ATOM     15  O   UNL A   1      32.159  27.962  22.582  1.00  0.00    -0.485 OA
BRANCH  15  16
ATOM     16  C   UNL A   1      32.189  28.613  23.781  1.00  0.00     0.123 A 
ATOM     17  C   UNL A   1      34.493  29.112  26.793  1.00  0.00     0.044 C 
ATOM     18  C   UNL A   1      33.321  29.228  25.865  1.00  0.00    -0.047 A 
ATOM     19  C   UNL A   1      32.271  30.088  26.165  1.00  0.00     0.004 A 
ATOM     20  C   UNL A   1      33.254  28.474  24.689  1.00  0.00     0.050 A 
ATOM     21  C   UNL A   1      31.183  30.193  25.298  1.00  0.00     0.008 A 
ATOM     22  C   UNL A   1      31.104  29.466  24.085  1.00  0.00    -0.000 A 
BRANCH  22  23
ATOM     23  C   UNL A   1      29.835  29.663  23.214  1.00  0.00    -0.010 C 
ATOM     24  C   UNL A   1      29.067  30.903  23.733  1.00  0.00     0.016 C 
ATOM     25  C   UNL A   1      30.247  29.903  21.740  1.00  0.00     0.016 C 
ATOM     26  C   UNL A   1      28.807  28.509  23.186  1.00  0.00     0.016 C 
ENDBRANCH  22  23
ENDBRANCH  15  16
ENDBRANCH  14  15
ENDBRANCH  12  14
ENDBRANCH   7  12
ENDBRANCH   3   6
ENDBRANCH   1   2
BRANCH   1  27
ATOM     27  C   UNL A   1      36.063  22.001  25.592  1.00  0.00     0.023 C 
BRANCH  27  28
ATOM     28  C   UNL A   1      36.610  23.266  26.256  1.00  0.00     0.023 C 
BRANCH  28  29
ATOM     29  C   UNL A   1      38.034  23.581  25.825  1.00  0.00     0.116 C 
BRANCH  29  30
ATOM     30  N   UNL A   1      39.073  23.109  26.720  1.00  0.00    -0.352 N 
ATOM     31  C   UNL A   1      39.965  23.887  27.453  1.00  0.00     0.251 C 
ATOM     32  H   UNL A   1      39.158  22.134  26.820  1.00  0.00     0.163 HD
ATOM     33  O   UNL A   1      40.992  23.443  27.907  1.00  0.00    -0.269 OA
BRANCH  31  34
ATOM     34  C   UNL A   1      39.528  25.273  27.768  1.00  0.00     0.039 A 
ATOM     35  C   UNL A   1      40.079  26.302  26.995  1.00  0.00     0.014 A 
ATOM     36  C   UNL A   1      38.854  25.554  28.952  1.00  0.00     0.014 A 
ATOM     37  C   UNL A   1      40.111  27.600  27.502  1.00  0.00     0.010 A 
ATOM     38  C   UNL A   1      38.984  26.816  29.501  1.00  0.00     0.010 A 
ATOM     39  C   UNL A   1      39.644  27.834  28.795  1.00  0.00    -0.014 A 
BRANCH  39  40
ATOM     40  C   UNL A   1      39.861  29.081  29.523  1.00  0.00     0.031 A 
ATOM     41  C   UNL A   1      38.837  30.155  29.481  1.00  0.00     0.074 A 
ATOM     42  C   UNL A   1      40.956  29.258  30.298  1.00  0.00     0.049 A 
ATOM     43  N   UNL A   1      39.093  31.412  29.642  1.00  0.00    -0.248 NA
ATOM     44  C   UNL A   1      37.428  29.883  29.211  1.00  0.00     0.031 C 
ATOM     45  C   UNL A   1      41.143  30.300  31.307  1.00  0.00     0.029 A 
ATOM     46  N   UNL A   1      42.213  28.661  30.196  1.00  0.00    -0.354 N 
ATOM     47  C   UNL A   1      37.886  32.055  29.802  1.00  0.00     0.074 A 
ATOM     48  C   UNL A   1      36.881  31.080  29.446  1.00  0.00     0.031 C 
ATOM     49  C   UNL A   1      42.458  30.479  31.501  1.00  0.00     0.029 A 
ATOM     50  C   UNL A   1      43.153  29.654  30.528  1.00  0.00     0.049 A 
ATOM     51  H   UNL A   1      42.405  27.730  29.940  1.00  0.00     0.167 HD
ATOM     52  C   UNL A   1      37.828  33.292  30.372  1.00  0.00     0.031 A 
ATOM     53  C   UNL A   1      44.163  30.075  29.714  1.00  0.00     0.031 A 
ATOM     54  C   UNL A   1      39.147  33.809  30.716  1.00  0.00     0.049 A 
ATOM     55  C   UNL A   1      44.147  31.565  29.455  1.00  0.00     0.074 A 
ATOM     56  C   UNL A   1      39.849  33.869  31.910  1.00  0.00     0.029 A 
ATOM     57  N   UNL A   1      40.054  34.116  29.710  1.00  0.00    -0.354 N 
ATOM     58  N   UNL A   1      43.138  32.338  29.739  1.00  0.00    -0.248 NA
ATOM     59  C   UNL A   1      45.227  32.287  28.787  1.00  0.00     0.031 C 
ATOM     60  C   UNL A   1      41.202  34.164  31.611  1.00  0.00     0.029 A 
ATOM     61  C   UNL A   1      41.317  34.296  30.240  1.00  0.00     0.049 A 
ATOM     62  H   UNL A   1      39.829  34.195  28.755  1.00  0.00     0.167 HD
ATOM     63  C   UNL A   1      43.383  33.604  29.274  1.00  0.00     0.074 A 
ATOM     64  C   UNL A   1      44.717  33.529  28.711  1.00  0.00     0.031 C 
ATOM     65  C   UNL A   1      42.449  34.595  29.373  1.00  0.00     0.031 A 
BRANCH  52  66
ATOM     66  C   UNL A   1      36.537  33.867  30.910  1.00  0.00    -0.014 A 
ATOM     67  C   UNL A   1      35.426  34.008  30.056  1.00  0.00     0.010 A 
ATOM     68  C   UNL A   1      36.378  34.341  32.227  1.00  0.00     0.010 A 
ATOM     69  C   UNL A   1      34.270  34.697  30.446  1.00  0.00     0.020 A 
ATOM     70  C   UNL A   1      35.245  35.070  32.619  1.00  0.00     0.020 A 
ATOM     71  C   UNL A   1      34.201  35.258  31.718  1.00  0.00     0.054 A 
BRANCH  71  72
ATOM     72  S   UNL A   1      32.754  36.253  32.160  1.00  0.00     0.124 S 
ATOM     73  O   UNL A   1      32.475  36.976  30.920  1.00  0.00    -0.237 OA
ATOM     74  O   UNL A   1      31.775  35.235  32.528  1.00  0.00    -0.237 OA
ATOM     75  O   UNL A   1      33.231  37.088  33.261  1.00  0.00    -0.744 OA
ENDBRANCH  71  72
ENDBRANCH  52  66
BRANCH  53  76
ATOM     76  C   UNL A   1      44.626  29.060  28.732  1.00  0.00    -0.014 A 
ATOM     77  C   UNL A   1      44.100  29.133  27.425  1.00  0.00     0.010 A 
ATOM     78  C   UNL A   1      45.833  28.373  28.950  1.00  0.00     0.010 A 
ATOM     79  C   UNL A   1      44.854  28.693  26.337  1.00  0.00     0.020 A 
ATOM     80  C   UNL A   1      46.589  27.927  27.858  1.00  0.00     0.020 A 
ATOM     81  C   UNL A   1      46.124  28.156  26.560  1.00  0.00     0.054 A 
BRANCH  81  82
ATOM     82  S   UNL A   1      47.229  27.973  25.130  1.00  0.00     0.124 S 
ATOM     83  O   UNL A   1      46.613  28.853  24.143  1.00  0.00    -0.237 OA
ATOM     84  O   UNL A   1      48.502  28.438  25.681  1.00  0.00    -0.237 OA
ATOM     85  O   UNL A   1      47.159  26.546  24.835  1.00  0.00    -0.744 OA
ENDBRANCH  81  82
ENDBRANCH  53  76
BRANCH  65  86
ATOM     86  C   UNL A   1      42.529  35.963  28.740  1.00  0.00    -0.014 A 
ATOM     87  C   UNL A   1      41.992  36.287  27.485  1.00  0.00     0.010 A 
ATOM     88  C   UNL A   1      43.075  37.030  29.496  1.00  0.00     0.010 A 
ATOM     89  C   UNL A   1      42.052  37.596  26.980  1.00  0.00     0.020 A 
ATOM     90  C   UNL A   1      43.102  38.345  29.023  1.00  0.00     0.020 A 
ATOM     91  C   UNL A   1      42.612  38.615  27.751  1.00  0.00     0.054 A 
BRANCH  91  92
ATOM     92  S   UNL A   1      42.632  40.313  27.120  1.00  0.00     0.124 S 
ATOM     93  O   UNL A   1      43.045  40.114  25.733  1.00  0.00    -0.237 OA
ATOM     94  O   UNL A   1      41.250  40.750  27.304  1.00  0.00    -0.237 OA
ATOM     95  O   UNL A   1      43.608  40.983  27.976  1.00  0.00    -0.744 OA
ENDBRANCH  91  92
ENDBRANCH  65  86
ENDBRANCH  39  40
ENDBRANCH  31  34
ENDBRANCH  29  30
ENDBRANCH  28  29
ENDBRANCH  27  28
ENDBRANCH   1  27
TORSDOF 19
ENDMDL
MODEL 2
REMARK VINA RESULT:     -12.3      1.322      2.432
REMARK SMILES Cc1ccc(C(C)(C)C)c(OCC(=O)c2nc(C)c(C(=O)NCCCCNC(=O)c3ccc(-c4c5nc(c(-c6ccc(S(=O)(=O)[O-])cc6)c6ccc([nH]6)c(-c6ccc(S(=O)(=O)[O-])cc6)c6nc(c(-c7ccc(S(=O)(=O)[O-])cc7)c7ccc4[nH]7)C=C6)C=C5)cc3)s2)c1
REMARK SMILES IDX 23 1 22 2 20 3 21 4 19 6 15 7 16 8 90 9 17 10 18 11 13 12
REMARK SMILES IDX 14 13 12 14 11 15 10 16 1 17 2 18 3 19 91 20 4 21 5 22 6 23
REMARK SMILES IDX 7 24 8 25 9 26 24 27 25 28 26 29 27 30 28 31 29 33 30 34
REMARK SMILES IDX 31 35 89 36 32 37 88 38 33 39 34 40 35 41 82 42 36 43 87 44
REMARK SMILES IDX 81 45 83 46 37 47 86 48 80 49 79 50 38 52 68 53 49 54 67 55
REMARK SMILES IDX 50 56 53 57 66 58 84 59 51 60 52 61 65 63 85 64 54 65 39 66
REMARK SMILES IDX 40 67 48 68 41 69 47 70 42 71 43 72 44 73 45 74 46 75 69 76
REMARK SMILES IDX 70 77 78 78 71 79 77 80 72 81 73 82 74 83 75 84 76 85 55 86
REMARK SMILES IDX 56 87 64 88 57 89 63 90 58 91 59 92 60 93 61 94 62 95
REMARK H PARENT 22 5 27 32 83 51 53 62
REMARK Flexibility Score: inf
ROOT
ATOM      1  C   UNL A   1      35.944  20.709  24.649  1.00  0.00     0.116 C 
ENDROOT
BRANCH   1   2
ATOM      2  N   UNL A   1      34.809  20.163  25.360  1.00  0.00    -0.351 N 
ATOM      3  C   UNL A   1      33.452  20.315  25.276  1.00  0.00     0.263 C 
ATOM      4  O   UNL A   1      32.857  19.620  26.114  1.00  0.00    -0.268 OA
ATOM      5  H   UNL A   1      35.076  19.536  26.070  1.00  0.00     0.163 HD
BRANCH   3   6
ATOM      6  C   UNL A   1      32.731  21.172  24.334  1.00  0.00     0.115 A 
ATOM      7  C   UNL A   1      31.685  23.250  23.495  1.00  0.00     0.164 A 
ATOM      8  N   UNL A   1      31.564  22.284  22.618  1.00  0.00    -0.237 NA
ATOM      9  S   UNL A   1      32.487  22.811  24.917  1.00  0.00    -0.105 S 
ATOM     10  C   UNL A   1      32.174  21.108  23.057  1.00  0.00     0.062 A 
ATOM     11  C   UNL A   1      32.113  20.032  22.037  1.00  0.00     0.068 C 
BRANCH   7  12
ATOM     12  C   UNL A   1      31.150  24.577  23.225  1.00  0.00     0.228 C 
ATOM     13  O   UNL A   1      31.627  25.336  22.372  1.00  0.00    -0.288 OA
BRANCH  12  14
ATOM     14  C   UNL A   1      30.028  25.121  24.122  1.00  0.00     0.313 C 
BRANCH  14  15
ATOM     15  O   UNL A   1      30.211  26.250  24.946  1.00  0.00    -0.485 OA
BRANCH  15  16
ATOM     16  C   UNL A   1      30.189  27.507  24.413  1.00  0.00     0.123 A 
ATOM     17  C   UNL A   1      28.088  29.660  22.052  1.00  0.00     0.044 C 
ATOM     18  C   UNL A   1      29.157  29.231  23.013  1.00  0.00    -0.047 A 
ATOM     19  C   UNL A   1      30.103  30.144  23.462  1.00  0.00     0.004 A 
ATOM     20  C   UNL A   1      29.228  27.912  23.470  1.00  0.00     0.050 A 
ATOM     21  C   UNL A   1      31.096  29.740  24.357  1.00  0.00     0.008 A 
ATOM     22  C   UNL A   1      31.173  28.418  24.861  1.00  0.00    -0.000 A 
BRANCH  22  23
ATOM     23  C   UNL A   1      32.331  28.094  25.842  1.00  0.00    -0.010 C 
ATOM     24  C   UNL A   1      33.266  27.055  25.176  1.00  0.00     0.016 C 
ATOM     25  C   UNL A   1      33.136  29.381  26.142  1.00  0.00     0.016 C 
ATOM     26  C   UNL A   1      31.949  27.499  27.217  1.00  0.00     0.016 C 
ENDBRANCH  22  23
ENDBRANCH  15  16
ENDBRANCH  14  15
ENDBRANCH  12  14
ENDBRANCH   7  12
ENDBRANCH   3   6
ENDBRANCH   1   2
BRANCH   1  27
ATOM     27  C   UNL A   1      36.932  21.397  25.604  1.00  0.00     0.023 C 
BRANCH  27  28
ATOM     28  C   UNL A   1      37.602  22.650  25.036  1.00  0.00     0.023 C 
BRANCH  28  29
ATOM     29  C   UNL A   1      38.045  23.617  26.122  1.00  0.00     0.116 C 
BRANCH  29  30
ATOM     30  N   UNL A   1      39.270  23.260  26.811  1.00  0.00    -0.352 N 
ATOM     31  C   UNL A   1      40.244  24.129  27.296  1.00  0.00     0.251 C 
ATOM     32  H   UNL A   1      39.432  22.299  26.951  1.00  0.00     0.163 HD
ATOM     33  O   UNL A   1      41.366  23.767  27.555  1.00  0.00    -0.269 OA
BRANCH  31  34
ATOM     34  C   UNL A   1      39.797  25.512  27.608  1.00  0.00     0.039 A 
ATOM     35  C   UNL A   1      40.396  26.550  26.884  1.00  0.00     0.014 A 
ATOM     36  C   UNL A   1      39.059  25.778  28.757  1.00  0.00     0.014 A 
ATOM     37  C   UNL A   1      40.406  27.840  27.413  1.00  0.00     0.010 A 
ATOM     38  C   UNL A   1      39.164  27.031  29.332  1.00  0.00     0.010 A 
ATOM     39  C   UNL A   1      39.869  28.056  28.681  1.00  0.00    -0.014 A 
BRANCH  39  40
ATOM     40  C   UNL A   1      40.051  29.290  29.440  1.00  0.00     0.031 A 
ATOM     41  C   UNL A   1      38.993  30.331  29.433  1.00  0.00     0.074 A 
ATOM     42  C   UNL A   1      41.145  29.482  30.212  1.00  0.00     0.049 A 
ATOM     43  N   UNL A   1      39.209  31.592  29.624  1.00  0.00    -0.248 NA
ATOM     44  C   UNL A   1      37.591  30.022  29.165  1.00  0.00     0.031 C 
ATOM     45  C   UNL A   1      41.306  30.503  31.247  1.00  0.00     0.029 A 
ATOM     46  N   UNL A   1      42.420  28.929  30.086  1.00  0.00    -0.354 N 
ATOM     47  C   UNL A   1      37.984  32.191  29.809  1.00  0.00     0.074 A 
ATOM     48  C   UNL A   1      37.008  31.193  29.434  1.00  0.00     0.031 C 
ATOM     49  C   UNL A   1      42.615  30.719  31.437  1.00  0.00     0.029 A 
ATOM     50  C   UNL A   1      43.330  29.942  30.439  1.00  0.00     0.049 A 
ATOM     51  H   UNL A   1      42.639  28.011  29.805  1.00  0.00     0.167 HD
ATOM     52  C   UNL A   1      37.890  33.410  30.411  1.00  0.00     0.031 A 
ATOM     53  C   UNL A   1      44.320  30.417  29.629  1.00  0.00     0.031 A 
ATOM     54  C   UNL A   1      39.195  33.960  30.761  1.00  0.00     0.049 A 
ATOM     55  C   UNL A   1      44.254  31.911  29.409  1.00  0.00     0.074 A 
ATOM     56  C   UNL A   1      39.903  34.012  31.951  1.00  0.00     0.029 A 
ATOM     57  N   UNL A   1      40.084  34.322  29.757  1.00  0.00    -0.354 N 
ATOM     58  N   UNL A   1      43.223  32.644  29.721  1.00  0.00    -0.248 NA
ATOM     59  C   UNL A   1      45.306  32.685  28.754  1.00  0.00     0.031 C 
ATOM     60  C   UNL A   1      41.243  34.357  31.652  1.00  0.00     0.029 A 
ATOM     61  C   UNL A   1      41.345  34.529  30.284  1.00  0.00     0.049 A 
ATOM     62  H   UNL A   1      39.849  34.418  28.806  1.00  0.00     0.167 HD
ATOM     63  C   UNL A   1      43.424  33.929  29.287  1.00  0.00     0.074 A 
ATOM     64  C   UNL A   1      44.756  33.911  28.714  1.00  0.00     0.031 C 
ATOM     65  C   UNL A   1      42.460  34.887  29.418  1.00  0.00     0.031 A 
BRANCH  52  66
ATOM     66  C   UNL A   1      36.585  33.929  30.973  1.00  0.00    -0.014 A 
ATOM     67  C   UNL A   1      35.448  34.000  30.144  1.00  0.00     0.010 A 
ATOM     68  C   UNL A   1      36.435  34.417  32.285  1.00  0.00     0.010 A 
ATOM     69  C   UNL A   1      34.269  34.637  30.553  1.00  0.00     0.020 A 
ATOM     70  C   UNL A   1      35.276  35.096  32.695  1.00  0.00     0.020 A 
ATOM     71  C   UNL A   1      34.203  35.216  31.817  1.00  0.00     0.054 A 
BRANCH  71  72
ATOM     72  S   UNL A   1      32.719  36.145  32.279  1.00  0.00     0.124 S 
ATOM     73  O   UNL A   1      33.163  36.888  33.457  1.00  0.00    -0.237 OA
ATOM     74  O   UNL A   1      32.469  36.949  31.086  1.00  0.00    -0.237 OA
ATOM     75  O   UNL A   1      31.729  35.104  32.549  1.00  0.00    -0.744 OA
ENDBRANCH  71  72
ENDBRANCH  52  66
BRANCH  53  76
ATOM     76  C   UNL A   1      44.808  29.442  28.618  1.00  0.00    -0.014 A 
ATOM     77  C   UNL A   1      45.708  28.449  29.055  1.00  0.00     0.010 A 
ATOM     78  C   UNL A   1      44.079  29.238  27.433  1.00  0.00     0.010 A 
ATOM     79  C   UNL A   1      45.741  27.203  28.426  1.00  0.00     0.020 A 
ATOM     80  C   UNL A   1      44.115  27.989  26.800  1.00  0.00     0.020 A 
ATOM     81  C   UNL A   1      44.891  26.963  27.345  1.00  0.00     0.054 A 
BRANCH  81  82
ATOM     82  S   UNL A   1      44.662  25.241  26.815  1.00  0.00     0.124 S 
ATOM     83  O   UNL A   1      45.950  24.927  26.205  1.00  0.00    -0.237 OA
ATOM     84  O   UNL A   1      44.390  24.574  28.089  1.00  0.00    -0.237 OA
ATOM     85  O   UNL A   1      43.531  25.321  25.898  1.00  0.00    -0.744 OA
ENDBRANCH  81  82
ENDBRANCH  53  76
BRANCH  65  86
ATOM     86  C   UNL A   1      42.492  36.272  28.820  1.00  0.00    -0.014 A 
ATOM     87  C   UNL A   1      43.006  37.403  29.472  1.00  0.00     0.010 A 
ATOM     88  C   UNL A   1      42.092  36.439  27.472  1.00  0.00     0.010 A 
ATOM     89  C   UNL A   1      43.058  38.653  28.835  1.00  0.00     0.020 A 
ATOM     90  C   UNL A   1      42.179  37.668  26.812  1.00  0.00     0.020 A 
ATOM     91  C   UNL A   1      42.640  38.778  27.510  1.00  0.00     0.054 A 
BRANCH  91  92
ATOM     92  S   UNL A   1      42.766  40.379  26.673  1.00  0.00     0.124 S 
ATOM     93  O   UNL A   1      43.207  41.253  27.758  1.00  0.00    -0.237 OA
ATOM     94  O   UNL A   1      43.759  40.129  25.629  1.00  0.00    -0.237 OA
ATOM     95  O   UNL A   1      41.410  40.618  26.186  1.00  0.00    -0.744 OA
ENDBRANCH  91  92
ENDBRANCH  65  86
ENDBRANCH  39  40
ENDBRANCH  31  34
ENDBRANCH  29  30
ENDBRANCH  28  29
ENDBRANCH  27  28
ENDBRANCH   1  27
TORSDOF 19
ENDMDL
MODEL 3
REMARK VINA RESULT:     -11.6      5.150     13.295
REMARK SMILES Cc1ccc(C(C)(C)C)c(OCC(=O)c2nc(C)c(C(=O)NCCCCNC(=O)c3ccc(-c4c5nc(c(-c6ccc(S(=O)(=O)[O-])cc6)c6ccc([nH]6)c(-c6ccc(S(=O)(=O)[O-])cc6)c6nc(c(-c7ccc(S(=O)(=O)[O-])cc7)c7ccc4[nH]7)C=C6)C=C5)cc3)s2)c1
REMARK SMILES IDX 23 1 22 2 20 3 21 4 19 6 15 7 16 8 90 9 17 10 18 11 13 12
REMARK SMILES IDX 14 13 12 14 11 15 10 16 1 17 2 18 3 19 91 20 4 21 5 22 6 23
REMARK SMILES IDX 7 24 8 25 9 26 24 27 25 28 26 29 27 30 28 31 29 33 30 34
REMARK SMILES IDX 31 35 89 36 32 37 88 38 33 39 34 40 35 41 82 42 36 43 87 44
REMARK SMILES IDX 81 45 83 46 37 47 86 48 80 49 79 50 38 52 68 53 49 54 67 55
REMARK SMILES IDX 50 56 53 57 66 58 84 59 51 60 52 61 65 63 85 64 54 65 39 66
REMARK SMILES IDX 40 67 48 68 41 69 47 70 42 71 43 72 44 73 45 74 46 75 69 76
REMARK SMILES IDX 70 77 78 78 71 79 77 80 72 81 73 82 74 83 75 84 76 85 55 86
REMARK SMILES IDX 56 87 64 88 57 89 63 90 58 91 59 92 60 93 61 94 62 95
REMARK H PARENT 22 5 27 32 83 51 53 62
REMARK Flexibility Score: inf
ROOT
ATOM      1  C   UNL A   1      39.869  34.702  29.463  1.00  0.00     0.116 C 
ENDROOT
BRANCH   1   2
ATOM      2  N   UNL A   1      41.035  34.739  30.317  1.00  0.00    -0.351 N 
ATOM      3  C   UNL A   1      42.382  34.597  30.119  1.00  0.00     0.263 C 
ATOM      4  O   UNL A   1      43.019  34.718  31.177  1.00  0.00    -0.268 OA
ATOM      5  H   UNL A   1      40.808  34.907  31.259  1.00  0.00     0.163 HD
BRANCH   3   6
ATOM      6  C   UNL A   1      43.050  34.338  28.843  1.00  0.00     0.115 A 
ATOM      7  C   UNL A   1      44.485  33.126  27.234  1.00  0.00     0.164 A 
ATOM      8  N   UNL A   1      43.971  34.197  26.681  1.00  0.00    -0.237 NA
ATOM      9  S   UNL A   1      44.044  32.890  28.849  1.00  0.00    -0.105 S 
ATOM     10  C   UNL A   1      43.132  34.882  27.561  1.00  0.00     0.062 A 
ATOM     11  C   UNL A   1      42.482  36.051  26.918  1.00  0.00     0.068 C 
BRANCH   7  12
ATOM     12  C   UNL A   1      45.364  32.244  26.481  1.00  0.00     0.228 C 
ATOM     13  O   UNL A   1      45.276  32.088  25.256  1.00  0.00    -0.288 OA
BRANCH  12  14
ATOM     14  C   UNL A   1      46.364  31.363  27.245  1.00  0.00     0.313 C 
BRANCH  14  15
ATOM     15  O   UNL A   1      45.980  30.149  27.852  1.00  0.00    -0.485 OA
BRANCH  15  16
ATOM     16  C   UNL A   1      45.319  29.195  27.133  1.00  0.00     0.123 A 
ATOM     17  C   UNL A   1      41.867  28.513  25.635  1.00  0.00     0.044 C 
ATOM     18  C   UNL A   1      43.314  28.361  26.001  1.00  0.00    -0.047 A 
ATOM     19  C   UNL A   1      44.047  27.280  25.528  1.00  0.00     0.004 A 
ATOM     20  C   UNL A   1      43.951  29.293  26.826  1.00  0.00     0.050 A 
ATOM     21  C   UNL A   1      45.393  27.143  25.871  1.00  0.00     0.008 A 
ATOM     22  C   UNL A   1      46.072  28.088  26.678  1.00  0.00    -0.000 A 
BRANCH  22  23
ATOM     23  C   UNL A   1      47.566  27.816  26.997  1.00  0.00    -0.010 C 
ATOM     24  C   UNL A   1      48.437  28.715  26.086  1.00  0.00     0.016 C 
ATOM     25  C   UNL A   1      47.855  28.163  28.477  1.00  0.00     0.016 C 
ATOM     26  C   UNL A   1      48.084  26.373  26.788  1.00  0.00     0.016 C 
ENDBRANCH  22  23
ENDBRANCH  15  16
ENDBRANCH  14  15
ENDBRANCH  12  14
ENDBRANCH   7  12
ENDBRANCH   3   6
ENDBRANCH   1   2
BRANCH   1  27
ATOM     27  C   UNL A   1      39.009  33.457  29.736  1.00  0.00     0.023 C 
BRANCH  27  28
ATOM     28  C   UNL A   1      37.522  33.627  29.420  1.00  0.00     0.023 C 
BRANCH  28  29
ATOM     29  C   UNL A   1      36.635  32.781  30.320  1.00  0.00     0.116 C 
BRANCH  29  30
ATOM     30  N   UNL A   1      35.346  32.420  29.762  1.00  0.00    -0.352 N 
ATOM     31  C   UNL A   1      35.086  31.417  28.832  1.00  0.00     0.251 C 
ATOM     32  H   UNL A   1      34.571  32.941  30.073  1.00  0.00     0.163 HD
ATOM     33  O   UNL A   1      34.073  31.388  28.176  1.00  0.00    -0.269 OA
BRANCH  31  34
ATOM     34  C   UNL A   1      36.064  30.299  28.776  1.00  0.00     0.039 A 
ATOM     35  C   UNL A   1      36.354  29.651  29.983  1.00  0.00     0.014 A 
ATOM     36  C   UNL A   1      36.867  30.113  27.656  1.00  0.00     0.014 A 
ATOM     37  C   UNL A   1      37.555  28.956  30.117  1.00  0.00     0.010 A 
ATOM     38  C   UNL A   1      38.104  29.518  27.824  1.00  0.00     0.010 A 
ATOM     39  C   UNL A   1      38.468  28.971  29.063  1.00  0.00    -0.014 A 
BRANCH  39  40
ATOM     40  C   UNL A   1      39.848  28.506  29.178  1.00  0.00     0.031 A 
ATOM     41  C   UNL A   1      40.206  27.128  28.761  1.00  0.00     0.074 A 
ATOM     42  C   UNL A   1      40.832  29.334  29.599  1.00  0.00     0.049 A 
ATOM     43  N   UNL A   1      41.201  26.456  29.241  1.00  0.00    -0.248 NA
ATOM     44  C   UNL A   1      39.426  26.379  27.779  1.00  0.00     0.031 C 
ATOM     45  C   UNL A   1      42.270  29.106  29.464  1.00  0.00     0.029 A 
ATOM     46  N   UNL A   1      40.747  30.458  30.421  1.00  0.00    -0.354 N 
ATOM     47  C   UNL A   1      41.373  25.352  28.437  1.00  0.00     0.074 A 
ATOM     48  C   UNL A   1      40.199  25.305  27.596  1.00  0.00     0.031 C 
ATOM     49  C   UNL A   1      42.909  29.834  30.392  1.00  0.00     0.029 A 
ATOM     50  C   UNL A   1      41.895  30.446  31.233  1.00  0.00     0.049 A 
ATOM     51  H   UNL A   1      40.024  31.127  30.432  1.00  0.00     0.167 HD
ATOM     52  C   UNL A   1      42.553  24.670  28.435  1.00  0.00     0.031 A 
ATOM     53  C   UNL A   1      41.886  30.428  32.597  1.00  0.00     0.031 A 
ATOM     54  C   UNL A   1      43.517  25.222  29.381  1.00  0.00     0.049 A 
ATOM     55  C   UNL A   1      42.652  29.267  33.190  1.00  0.00     0.074 A 
ATOM     56  C   UNL A   1      44.607  26.063  29.225  1.00  0.00     0.029 A 
ATOM     57  N   UNL A   1      43.267  25.148  30.745  1.00  0.00    -0.354 N 
ATOM     58  N   UNL A   1      43.054  28.237  32.501  1.00  0.00    -0.248 NA
ATOM     59  C   UNL A   1      42.961  29.137  34.612  1.00  0.00     0.031 C 
ATOM     60  C   UNL A   1      44.982  26.539  30.505  1.00  0.00     0.029 A 
ATOM     61  C   UNL A   1      44.130  25.977  31.437  1.00  0.00     0.049 A 
ATOM     62  H   UNL A   1      42.575  24.585  31.160  1.00  0.00     0.167 HD
ATOM     63  C   UNL A   1      43.609  27.308  33.343  1.00  0.00     0.074 A 
ATOM     64  C   UNL A   1      43.553  27.930  34.651  1.00  0.00     0.031 C 
ATOM     65  C   UNL A   1      44.040  26.096  32.885  1.00  0.00     0.031 A 
BRANCH  52  66
ATOM     66  C   UNL A   1      42.924  23.712  27.326  1.00  0.00    -0.014 A 
ATOM     67  C   UNL A   1      42.833  22.323  27.543  1.00  0.00     0.010 A 
ATOM     68  C   UNL A   1      43.425  24.118  26.074  1.00  0.00     0.010 A 
ATOM     69  C   UNL A   1      43.332  21.392  26.623  1.00  0.00     0.020 A 
ATOM     70  C   UNL A   1      43.968  23.200  25.161  1.00  0.00     0.020 A 
ATOM     71  C   UNL A   1      43.933  21.839  25.450  1.00  0.00     0.054 A 
BRANCH  71  72
ATOM     72  S   UNL A   1      44.686  20.628  24.334  1.00  0.00     0.124 S 
ATOM     73  O   UNL A   1      43.847  19.448  24.532  1.00  0.00    -0.237 OA
ATOM     74  O   UNL A   1      44.558  21.279  23.034  1.00  0.00    -0.237 OA
ATOM     75  O   UNL A   1      46.053  20.499  24.835  1.00  0.00    -0.744 OA
ENDBRANCH  71  72
ENDBRANCH  52  66
BRANCH  53  76
ATOM     76  C   UNL A   1      40.674  31.032  33.212  1.00  0.00    -0.014 A 
ATOM     77  C   UNL A   1      39.606  30.167  33.527  1.00  0.00     0.010 A 
ATOM     78  C   UNL A   1      40.762  32.279  33.855  1.00  0.00     0.010 A 
ATOM     79  C   UNL A   1      38.752  30.460  34.591  1.00  0.00     0.020 A 
ATOM     80  C   UNL A   1      39.904  32.575  34.921  1.00  0.00     0.020 A 
ATOM     81  C   UNL A   1      38.954  31.631  35.323  1.00  0.00     0.054 A 
BRANCH  81  82
ATOM     82  S   UNL A   1      38.108  31.786  36.923  1.00  0.00     0.124 S 
ATOM     83  O   UNL A   1      37.673  30.418  37.181  1.00  0.00    -0.237 OA
ATOM     84  O   UNL A   1      39.188  32.276  37.781  1.00  0.00    -0.237 OA
ATOM     85  O   UNL A   1      37.045  32.746  36.647  1.00  0.00    -0.744 OA
ENDBRANCH  81  82
ENDBRANCH  53  76
BRANCH  65  86
ATOM     86  C   UNL A   1      44.493  24.933  33.733  1.00  0.00    -0.014 A 
ATOM     87  C   UNL A   1      43.625  24.038  34.377  1.00  0.00     0.010 A 
ATOM     88  C   UNL A   1      45.877  24.639  33.799  1.00  0.00     0.010 A 
ATOM     89  C   UNL A   1      44.114  22.941  35.105  1.00  0.00     0.020 A 
ATOM     90  C   UNL A   1      46.374  23.526  34.484  1.00  0.00     0.020 A 
ATOM     91  C   UNL A   1      45.486  22.696  35.158  1.00  0.00     0.054 A 
BRANCH  91  92
ATOM     92  S   UNL A   1      46.107  21.245  36.047  1.00  0.00     0.124 S 
ATOM     93  O   UNL A   1      47.552  21.392  35.890  1.00  0.00    -0.237 OA
ATOM     94  O   UNL A   1      45.602  21.448  37.404  1.00  0.00    -0.237 OA
ATOM     95  O   UNL A   1      45.508  20.123  35.330  1.00  0.00    -0.744 OA
ENDBRANCH  91  92
ENDBRANCH  65  86
ENDBRANCH  39  40
ENDBRANCH  31  34
ENDBRANCH  29  30
ENDBRANCH  28  29
ENDBRANCH  27  28
ENDBRANCH   1  27
TORSDOF 19
ENDMDL
