MODEL 1
REMARK VINA RESULT:     -10.7      0.000      0.000
REMARK SMILES Cc1cccc(CN(C)c2nc(C)c(C(=O)NCCCCNC(=O)c3ccc(-c4c5nc(c(-c6ccc(S(=O)(=O)[O-])cc6)c6ccc([nH]6)c(-c6ccc(S(=O)(=O)[O-])cc6)c6nc(c(-c7ccc(S(=O)(=O)[O-])cc7)c7ccc4[nH]7)C=C6)C=C5)cc3)s2)n1
REMARK SMILES IDX 19 1 18 2 17 3 15 4 16 5 14 7 10 8 11 9 85 10 12 11 13 12
REMARK SMILES IDX 8 13 9 14 7 15 6 16 1 17 2 18 3 19 86 20 4 21 5 22 20 23
REMARK SMILES IDX 21 24 22 25 23 26 24 28 25 29 26 30 84 31 27 32 83 33 28 34
REMARK SMILES IDX 29 35 30 36 77 37 31 38 82 39 76 40 78 41 32 42 81 43 75 44
REMARK SMILES IDX 74 45 33 47 63 48 44 49 62 50 45 51 48 52 61 53 79 54 46 55
REMARK SMILES IDX 47 56 60 58 80 59 49 60 34 61 35 62 43 63 36 64 42 65 37 66
REMARK SMILES IDX 38 67 39 68 40 69 41 70 64 71 65 72 73 73 66 74 72 75 67 76
REMARK SMILES IDX 68 77 69 78 70 79 71 80 50 81 51 82 59 83 52 84 58 85 53 86
REMARK SMILES IDX 54 87 55 88 56 89 57 90
REMARK H PARENT 17 6 22 27 78 46 48 57
REMARK Flexibility Score: inf
ROOT
ATOM      1  C   UNL A   1      31.947  28.438  24.736  1.00  0.00     0.023 C 
ENDROOT
BRANCH   1   2
ATOM      2  C   UNL A   1      31.321  28.325  23.347  1.00  0.00     0.116 C 
BRANCH   2   3
ATOM      3  N   UNL A   1      32.306  27.846  22.414  1.00  0.00    -0.351 N 
ATOM      4  C   UNL A   1      32.867  26.617  22.197  1.00  0.00     0.263 C 
ATOM      5  O   UNL A   1      33.783  26.656  21.364  1.00  0.00    -0.268 OA
ATOM      6  H   UNL A   1      32.645  28.545  21.809  1.00  0.00     0.163 HD
BRANCH   4   7
ATOM      7  C   UNL A   1      32.425  25.370  22.814  1.00  0.00     0.117 A 
ATOM      8  C   UNL A   1      32.636  23.054  23.692  1.00  0.00     0.186 A 
ATOM      9  N   UNL A   1      31.405  23.490  23.789  1.00  0.00    -0.225 NA
ATOM     10  S   UNL A   1      33.689  24.193  22.976  1.00  0.00    -0.091 S 
ATOM     11  C   UNL A   1      31.278  24.817  23.379  1.00  0.00     0.063 A 
ATOM     12  C   UNL A   1      29.941  25.385  23.677  1.00  0.00     0.068 C 
BRANCH   8  13
ATOM     13  N   UNL A   1      33.014  21.807  24.089  1.00  0.00    -0.345 N 
ATOM     14  C   UNL A   1      32.344  20.679  23.469  1.00  0.00     0.146 C 
BRANCH  13  15
ATOM     15  C   UNL A   1      33.712  21.580  25.358  1.00  0.00     0.174 C 
BRANCH  15  16
ATOM     16  C   UNL A   1      35.225  21.536  25.231  1.00  0.00     0.060 A 
ATOM     17  C   UNL A   1      37.978  23.822  26.052  1.00  0.00     0.067 C 
ATOM     18  C   UNL A   1      37.264  22.588  25.595  1.00  0.00     0.038 A 
ATOM     19  C   UNL A   1      37.961  21.412  25.335  1.00  0.00     0.023 A 
ATOM     20  N   UNL A   1      35.916  22.669  25.518  1.00  0.00    -0.256 NA
ATOM     21  C   UNL A   1      37.247  20.276  24.972  1.00  0.00     0.004 A 
ATOM     22  C   UNL A   1      35.860  20.334  24.915  1.00  0.00     0.026 A 
ENDBRANCH  15  16
ENDBRANCH  13  15
ENDBRANCH   8  13
ENDBRANCH   4   7
ENDBRANCH   2   3
ENDBRANCH   1   2
BRANCH   1  23
ATOM     23  C   UNL A   1      33.424  28.830  24.736  1.00  0.00     0.023 C 
BRANCH  23  24
ATOM     24  C   UNL A   1      34.074  28.830  26.113  1.00  0.00     0.116 C 
BRANCH  24  25
ATOM     25  N   UNL A   1      33.804  30.035  26.884  1.00  0.00    -0.352 N 
ATOM     26  C   UNL A   1      34.597  30.630  27.837  1.00  0.00     0.251 C 
ATOM     27  H   UNL A   1      32.945  30.480  26.699  1.00  0.00     0.163 HD
ATOM     28  O   UNL A   1      34.199  31.600  28.463  1.00  0.00    -0.269 OA
BRANCH  26  29
ATOM     29  C   UNL A   1      35.916  30.033  28.123  1.00  0.00     0.039 A 
ATOM     30  C   UNL A   1      36.907  30.099  27.143  1.00  0.00     0.014 A 
ATOM     31  C   UNL A   1      36.190  29.490  29.381  1.00  0.00     0.014 A 
ATOM     32  C   UNL A   1      38.202  29.684  27.451  1.00  0.00     0.010 A 
ATOM     33  C   UNL A   1      37.496  29.149  29.709  1.00  0.00     0.010 A 
ATOM     34  C   UNL A   1      38.513  29.244  28.748  1.00  0.00    -0.014 A 
BRANCH  34  35
ATOM     35  C   UNL A   1      39.901  28.881  29.123  1.00  0.00     0.031 A 
ATOM     36  C   UNL A   1      40.778  29.888  29.813  1.00  0.00     0.074 A 
ATOM     37  C   UNL A   1      40.390  27.674  28.778  1.00  0.00     0.049 A 
ATOM     38  N   UNL A   1      42.031  29.779  30.171  1.00  0.00    -0.248 NA
ATOM     39  C   UNL A   1      40.180  31.200  30.109  1.00  0.00     0.031 C 
ATOM     40  C   UNL A   1      39.653  26.634  28.053  1.00  0.00     0.029 A 
ATOM     41  N   UNL A   1      41.626  27.119  28.984  1.00  0.00    -0.354 N 
ATOM     42  C   UNL A   1      42.376  31.010  30.715  1.00  0.00     0.074 A 
ATOM     43  C   UNL A   1      41.217  31.867  30.592  1.00  0.00     0.031 C 
ATOM     44  C   UNL A   1      40.443  25.559  27.902  1.00  0.00     0.029 A 
ATOM     45  C   UNL A   1      41.748  25.843  28.487  1.00  0.00     0.049 A 
ATOM     46  H   UNL A   1      42.359  27.590  29.444  1.00  0.00     0.167 HD
ATOM     47  C   UNL A   1      43.544  31.387  31.284  1.00  0.00     0.031 A 
ATOM     48  C   UNL A   1      42.795  24.994  28.505  1.00  0.00     0.031 A 
ATOM     49  C   UNL A   1      44.684  30.524  31.426  1.00  0.00     0.049 A 
ATOM     50  C   UNL A   1      44.073  25.424  29.169  1.00  0.00     0.074 A 
ATOM     51  C   UNL A   1      45.893  30.788  32.046  1.00  0.00     0.029 A 
ATOM     52  N   UNL A   1      44.757  29.226  30.942  1.00  0.00    -0.354 N 
ATOM     53  N   UNL A   1      44.356  26.570  29.743  1.00  0.00    -0.248 NA
ATOM     54  C   UNL A   1      45.166  24.444  29.203  1.00  0.00     0.031 C 
ATOM     55  C   UNL A   1      46.710  29.660  31.905  1.00  0.00     0.029 A 
ATOM     56  C   UNL A   1      45.993  28.680  31.237  1.00  0.00     0.049 A 
ATOM     57  H   UNL A   1      44.034  28.762  30.459  1.00  0.00     0.167 HD
ATOM     58  C   UNL A   1      45.652  26.438  30.229  1.00  0.00     0.074 A 
ATOM     59  C   UNL A   1      46.091  25.099  29.891  1.00  0.00     0.031 C 
ATOM     60  C   UNL A   1      46.409  27.344  30.895  1.00  0.00     0.031 A 
BRANCH  47  61
ATOM     61  C   UNL A   1      43.638  32.799  31.797  1.00  0.00    -0.014 A 
ATOM     62  C   UNL A   1      43.164  33.137  33.078  1.00  0.00     0.010 A 
ATOM     63  C   UNL A   1      44.223  33.797  30.998  1.00  0.00     0.010 A 
ATOM     64  C   UNL A   1      43.228  34.458  33.530  1.00  0.00     0.020 A 
ATOM     65  C   UNL A   1      44.314  35.114  31.457  1.00  0.00     0.020 A 
ATOM     66  C   UNL A   1      43.796  35.438  32.714  1.00  0.00     0.054 A 
BRANCH  66  67
ATOM     67  S   UNL A   1      43.877  37.143  33.328  1.00  0.00     0.124 S 
ATOM     68  O   UNL A   1      43.895  37.909  32.084  1.00  0.00    -0.237 OA
ATOM     69  O   UNL A   1      42.653  37.259  34.118  1.00  0.00    -0.237 OA
ATOM     70  O   UNL A   1      45.118  37.176  34.099  1.00  0.00    -0.744 OA
ENDBRANCH  66  67
ENDBRANCH  47  61
BRANCH  48  71
ATOM     71  C   UNL A   1      42.662  23.641  27.902  1.00  0.00    -0.014 A 
ATOM     72  C   UNL A   1      42.158  22.571  28.661  1.00  0.00     0.010 A 
ATOM     73  C   UNL A   1      43.017  23.421  26.558  1.00  0.00     0.010 A 
ATOM     74  C   UNL A   1      42.025  21.300  28.094  1.00  0.00     0.020 A 
ATOM     75  C   UNL A   1      42.864  22.157  25.981  1.00  0.00     0.020 A 
ATOM     76  C   UNL A   1      42.378  21.102  26.756  1.00  0.00     0.054 A 
BRANCH  76  77
ATOM     77  S   UNL A   1      42.143  19.459  26.022  1.00  0.00     0.124 S 
ATOM     78  O   UNL A   1      42.581  18.579  27.101  1.00  0.00    -0.237 OA
ATOM     79  O   UNL A   1      40.710  19.443  25.733  1.00  0.00    -0.237 OA
ATOM     80  O   UNL A   1      43.007  19.485  24.844  1.00  0.00    -0.744 OA
ENDBRANCH  76  77
ENDBRANCH  48  71
BRANCH  60  81
ATOM     81  C   UNL A   1      47.780  26.908  31.334  1.00  0.00    -0.014 A 
ATOM     82  C   UNL A   1      47.975  26.259  32.566  1.00  0.00     0.010 A 
ATOM     83  C   UNL A   1      48.875  27.097  30.473  1.00  0.00     0.010 A 
ATOM     84  C   UNL A   1      49.251  25.829  32.940  1.00  0.00     0.020 A 
ATOM     85  C   UNL A   1      50.148  26.647  30.834  1.00  0.00     0.020 A 
ATOM     86  C   UNL A   1      50.330  26.027  32.072  1.00  0.00     0.054 A 
BRANCH  86  87
ATOM     87  S   UNL A   1      51.967  25.416  32.557  1.00  0.00     0.124 S 
ATOM     88  O   UNL A   1      51.882  24.003  32.199  1.00  0.00    -0.237 OA
ATOM     89  O   UNL A   1      52.868  26.220  31.735  1.00  0.00    -0.237 OA
ATOM     90  O   UNL A   1      52.027  25.693  33.991  1.00  0.00    -0.744 OA
ENDBRANCH  86  87
ENDBRANCH  60  81
ENDBRANCH  34  35
ENDBRANCH  26  29
ENDBRANCH  24  25
ENDBRANCH  23  24
ENDBRANCH   1  23
TORSDOF 17
ENDMDL
MODEL 2
REMARK VINA RESULT:     -10.6      3.734      6.627
REMARK SMILES Cc1cccc(CN(C)c2nc(C)c(C(=O)NCCCCNC(=O)c3ccc(-c4c5nc(c(-c6ccc(S(=O)(=O)[O-])cc6)c6ccc([nH]6)c(-c6ccc(S(=O)(=O)[O-])cc6)c6nc(c(-c7ccc(S(=O)(=O)[O-])cc7)c7ccc4[nH]7)C=C6)C=C5)cc3)s2)n1
REMARK SMILES IDX 19 1 18 2 17 3 15 4 16 5 14 7 10 8 11 9 85 10 12 11 13 12
REMARK SMILES IDX 8 13 9 14 7 15 6 16 1 17 2 18 3 19 86 20 4 21 5 22 20 23
REMARK SMILES IDX 21 24 22 25 23 26 24 28 25 29 26 30 84 31 27 32 83 33 28 34
REMARK SMILES IDX 29 35 30 36 77 37 31 38 82 39 76 40 78 41 32 42 81 43 75 44
REMARK SMILES IDX 74 45 33 47 63 48 44 49 62 50 45 51 48 52 61 53 79 54 46 55
REMARK SMILES IDX 47 56 60 58 80 59 49 60 34 61 35 62 43 63 36 64 42 65 37 66
REMARK SMILES IDX 38 67 39 68 40 69 41 70 64 71 65 72 73 73 66 74 72 75 67 76
REMARK SMILES IDX 68 77 69 78 70 79 71 80 50 81 51 82 59 83 52 84 58 85 53 86
REMARK SMILES IDX 54 87 55 88 56 89 57 90
REMARK H PARENT 17 6 22 27 78 46 48 57
REMARK Flexibility Score: inf
ROOT
ATOM      1  C   UNL A   1      33.163  34.582  28.845  1.00  0.00     0.023 C 
ENDROOT
BRANCH   1   2
ATOM      2  C   UNL A   1      34.076  34.952  30.013  1.00  0.00     0.116 C 
BRANCH   2   3
ATOM      3  N   UNL A   1      33.730  34.160  31.164  1.00  0.00    -0.351 N 
ATOM      4  C   UNL A   1      34.470  33.414  32.041  1.00  0.00     0.263 C 
ATOM      5  O   UNL A   1      33.762  32.777  32.833  1.00  0.00    -0.268 OA
ATOM      6  H   UNL A   1      32.766  34.154  31.359  1.00  0.00     0.163 HD
BRANCH   4   7
ATOM      7  C   UNL A   1      35.928  33.392  32.104  1.00  0.00     0.117 A 
ATOM      8  C   UNL A   1      38.166  33.215  33.171  1.00  0.00     0.186 A 
ATOM      9  N   UNL A   1      38.267  33.445  31.885  1.00  0.00    -0.225 NA
ATOM     10  S   UNL A   1      36.545  33.138  33.705  1.00  0.00    -0.091 S 
ATOM     11  C   UNL A   1      37.026  33.465  31.251  1.00  0.00     0.063 A 
ATOM     12  C   UNL A   1      37.138  33.516  29.772  1.00  0.00     0.068 C 
BRANCH   8  13
ATOM     13  N   UNL A   1      39.248  33.093  33.990  1.00  0.00    -0.345 N 
ATOM     14  C   UNL A   1      40.393  33.940  33.712  1.00  0.00     0.146 C 
BRANCH  13  15
ATOM     15  C   UNL A   1      39.459  31.900  34.815  1.00  0.00     0.174 C 
BRANCH  15  16
ATOM     16  C   UNL A   1      40.044  30.722  34.057  1.00  0.00     0.060 A 
ATOM     17  C   UNL A   1      43.361  29.165  33.817  1.00  0.00     0.067 C 
ATOM     18  C   UNL A   1      41.896  29.391  33.607  1.00  0.00     0.038 A 
ATOM     19  C   UNL A   1      41.104  28.433  32.984  1.00  0.00     0.023 A 
ATOM     20  N   UNL A   1      41.389  30.539  34.115  1.00  0.00    -0.256 NA
ATOM     21  C   UNL A   1      39.739  28.664  32.868  1.00  0.00     0.004 A 
ATOM     22  C   UNL A   1      39.196  29.823  33.408  1.00  0.00     0.026 A 
ENDBRANCH  15  16
ENDBRANCH  13  15
ENDBRANCH   8  13
ENDBRANCH   4   7
ENDBRANCH   2   3
ENDBRANCH   1   2
BRANCH   1  23
ATOM     23  C   UNL A   1      33.774  33.597  27.850  1.00  0.00     0.023 C 
BRANCH  23  24
ATOM     24  C   UNL A   1      34.444  32.389  28.491  1.00  0.00     0.116 C 
BRANCH  24  25
ATOM     25  N   UNL A   1      33.872  31.117  28.072  1.00  0.00    -0.352 N 
ATOM     26  C   UNL A   1      34.509  29.906  27.927  1.00  0.00     0.251 C 
ATOM     27  H   UNL A   1      32.909  31.126  27.867  1.00  0.00     0.163 HD
ATOM     28  O   UNL A   1      33.911  28.937  27.486  1.00  0.00    -0.269 OA
BRANCH  26  29
ATOM     29  C   UNL A   1      35.943  29.824  28.265  1.00  0.00     0.039 A 
ATOM     30  C   UNL A   1      36.305  29.445  29.558  1.00  0.00     0.014 A 
ATOM     31  C   UNL A   1      36.915  30.038  27.285  1.00  0.00     0.014 A 
ATOM     32  C   UNL A   1      37.647  29.209  29.851  1.00  0.00     0.010 A 
ATOM     33  C   UNL A   1      38.241  29.727  27.557  1.00  0.00     0.010 A 
ATOM     34  C   UNL A   1      38.619  29.309  28.842  1.00  0.00    -0.014 A 
BRANCH  34  35
ATOM     35  C   UNL A   1      40.039  28.977  29.108  1.00  0.00     0.031 A 
ATOM     36  C   UNL A   1      40.948  30.007  29.718  1.00  0.00     0.074 A 
ATOM     37  C   UNL A   1      40.523  27.776  28.736  1.00  0.00     0.049 A 
ATOM     38  N   UNL A   1      42.227  29.926  29.977  1.00  0.00    -0.248 NA
ATOM     39  C   UNL A   1      40.348  31.311  30.049  1.00  0.00     0.031 C 
ATOM     40  C   UNL A   1      39.751  26.715  28.081  1.00  0.00     0.029 A 
ATOM     41  N   UNL A   1      41.783  27.247  28.848  1.00  0.00    -0.354 N 
ATOM     42  C   UNL A   1      42.589  31.169  30.481  1.00  0.00     0.074 A 
ATOM     43  C   UNL A   1      41.408  32.003  30.442  1.00  0.00     0.031 C 
ATOM     44  C   UNL A   1      40.548  25.653  27.877  1.00  0.00     0.029 A 
ATOM     45  C   UNL A   1      41.890  25.968  28.355  1.00  0.00     0.049 A 
ATOM     46  H   UNL A   1      42.539  27.736  29.244  1.00  0.00     0.167 HD
ATOM     47  C   UNL A   1      43.791  31.574  30.952  1.00  0.00     0.031 A 
ATOM     48  C   UNL A   1      42.952  25.139  28.297  1.00  0.00     0.031 A 
ATOM     49  C   UNL A   1      44.956  30.735  31.010  1.00  0.00     0.049 A 
ATOM     50  C   UNL A   1      44.269  25.601  28.854  1.00  0.00     0.074 A 
ATOM     51  C   UNL A   1      46.204  31.028  31.531  1.00  0.00     0.029 A 
ATOM     52  N   UNL A   1      45.015  29.434  30.534  1.00  0.00    -0.354 N 
ATOM     53  N   UNL A   1      44.574  26.758  29.393  1.00  0.00    -0.248 NA
ATOM     54  C   UNL A   1      45.381  24.642  28.809  1.00  0.00     0.031 C 
ATOM     55  C   UNL A   1      47.029  29.915  31.334  1.00  0.00     0.029 A 
ATOM     56  C   UNL A   1      46.282  28.914  30.734  1.00  0.00     0.049 A 
ATOM     57  H   UNL A   1      44.266  28.950  30.114  1.00  0.00     0.167 HD
ATOM     58  C   UNL A   1      45.907  26.655  29.776  1.00  0.00     0.074 A 
ATOM     59  C   UNL A   1      46.344  25.322  29.416  1.00  0.00     0.031 C 
ATOM     60  C   UNL A   1      46.696  27.583  30.372  1.00  0.00     0.031 A 
BRANCH  47  61
ATOM     61  C   UNL A   1      43.897  32.993  31.444  1.00  0.00    -0.014 A 
ATOM     62  C   UNL A   1      43.981  34.068  30.541  1.00  0.00     0.010 A 
ATOM     63  C   UNL A   1      43.897  33.257  32.825  1.00  0.00     0.010 A 
ATOM     64  C   UNL A   1      44.112  35.377  31.010  1.00  0.00     0.020 A 
ATOM     65  C   UNL A   1      44.000  34.568  33.299  1.00  0.00     0.020 A 
ATOM     66  C   UNL A   1      44.127  35.618  32.386  1.00  0.00     0.054 A 
BRANCH  66  67
ATOM     67  S   UNL A   1      44.288  37.328  32.969  1.00  0.00     0.124 S 
ATOM     68  O   UNL A   1      43.854  37.212  34.360  1.00  0.00    -0.237 OA
ATOM     69  O   UNL A   1      45.710  37.602  32.776  1.00  0.00    -0.237 OA
ATOM     70  O   UNL A   1      43.388  38.078  32.096  1.00  0.00    -0.744 OA
ENDBRANCH  66  67
ENDBRANCH  47  61
BRANCH  48  71
ATOM     71  C   UNL A   1      42.798  23.779  27.718  1.00  0.00    -0.014 A 
ATOM     72  C   UNL A   1      42.531  22.678  28.550  1.00  0.00     0.010 A 
ATOM     73  C   UNL A   1      42.895  23.579  26.328  1.00  0.00     0.010 A 
ATOM     74  C   UNL A   1      42.380  21.398  28.007  1.00  0.00     0.020 A 
ATOM     75  C   UNL A   1      42.721  22.305  25.780  1.00  0.00     0.020 A 
ATOM     76  C   UNL A   1      42.474  21.220  26.625  1.00  0.00     0.054 A 
BRANCH  76  77
ATOM     77  S   UNL A   1      42.216  19.562  25.934  1.00  0.00     0.124 S 
ATOM     78  O   UNL A   1      40.841  19.647  25.450  1.00  0.00    -0.237 OA
ATOM     79  O   UNL A   1      43.248  19.484  24.903  1.00  0.00    -0.237 OA
ATOM     80  O   UNL A   1      42.424  18.680  27.080  1.00  0.00    -0.744 OA
ENDBRANCH  76  77
ENDBRANCH  48  71
BRANCH  60  81
ATOM     81  C   UNL A   1      48.106  27.177  30.705  1.00  0.00    -0.014 A 
ATOM     82  C   UNL A   1      49.171  27.476  29.837  1.00  0.00     0.010 A 
ATOM     83  C   UNL A   1      48.372  26.544  31.932  1.00  0.00     0.010 A 
ATOM     84  C   UNL A   1      50.478  27.124  30.181  1.00  0.00     0.020 A 
ATOM     85  C   UNL A   1      49.682  26.212  32.290  1.00  0.00     0.020 A 
ATOM     86  C   UNL A   1      50.725  26.492  31.405  1.00  0.00     0.054 A 
BRANCH  86  87
ATOM     87  S   UNL A   1      52.436  26.089  31.853  1.00  0.00     0.124 S 
ATOM     88  O   UNL A   1      52.280  24.794  32.510  1.00  0.00    -0.237 OA
ATOM     89  O   UNL A   1      53.110  26.060  30.557  1.00  0.00    -0.237 OA
ATOM     90  O   UNL A   1      52.832  27.189  32.729  1.00  0.00    -0.744 OA
ENDBRANCH  86  87
ENDBRANCH  60  81
ENDBRANCH  34  35
ENDBRANCH  26  29
ENDBRANCH  24  25
ENDBRANCH  23  24
ENDBRANCH   1  23
TORSDOF 17
ENDMDL
MODEL 3
REMARK VINA RESULT:     -10.4      3.869     10.799
REMARK SMILES Cc1cccc(CN(C)c2nc(C)c(C(=O)NCCCCNC(=O)c3ccc(-c4c5nc(c(-c6ccc(S(=O)(=O)[O-])cc6)c6ccc([nH]6)c(-c6ccc(S(=O)(=O)[O-])cc6)c6nc(c(-c7ccc(S(=O)(=O)[O-])cc7)c7ccc4[nH]7)C=C6)C=C5)cc3)s2)n1
REMARK SMILES IDX 19 1 18 2 17 3 15 4 16 5 14 7 10 8 11 9 85 10 12 11 13 12
REMARK SMILES IDX 8 13 9 14 7 15 6 16 1 17 2 18 3 19 86 20 4 21 5 22 20 23
REMARK SMILES IDX 21 24 22 25 23 26 24 28 25 29 26 30 84 31 27 32 83 33 28 34
REMARK SMILES IDX 29 35 30 36 77 37 31 38 82 39 76 40 78 41 32 42 81 43 75 44
REMARK SMILES IDX 74 45 33 47 63 48 44 49 62 50 45 51 48 52 61 53 79 54 46 55
REMARK SMILES IDX 47 56 60 58 80 59 49 60 34 61 35 62 43 63 36 64 42 65 37 66
REMARK SMILES IDX 38 67 39 68 40 69 41 70 64 71 65 72 73 73 66 74 72 75 67 76
REMARK SMILES IDX 68 77 69 78 70 79 71 80 50 81 51 82 59 83 52 84 58 85 53 86
REMARK SMILES IDX 54 87 55 88 56 89 57 90
REMARK H PARENT 17 6 22 27 78 46 48 57
REMARK Flexibility Score: inf
ROOT
ATOM      1  C   UNL A   1      33.776  34.055  27.981  1.00  0.00     0.023 C 
ENDROOT
BRANCH   1   2
ATOM      2  C   UNL A   1      34.067  35.424  28.596  1.00  0.00     0.116 C 
BRANCH   2   3
ATOM      3  N   UNL A   1      32.912  35.879  29.324  1.00  0.00    -0.351 N 
ATOM      4  C   UNL A   1      32.625  35.968  30.659  1.00  0.00     0.263 C 
ATOM      5  O   UNL A   1      31.451  36.304  30.868  1.00  0.00    -0.268 OA
ATOM      6  H   UNL A   1      32.179  36.187  28.743  1.00  0.00     0.163 HD
BRANCH   4   7
ATOM      7  C   UNL A   1      33.582  35.759  31.741  1.00  0.00     0.117 A 
ATOM      8  C   UNL A   1      35.209  34.505  33.141  1.00  0.00     0.186 A 
ATOM      9  N   UNL A   1      35.035  35.724  33.587  1.00  0.00    -0.225 NA
ATOM     10  S   UNL A   1      34.252  34.159  31.768  1.00  0.00    -0.091 S 
ATOM     11  C   UNL A   1      34.190  36.473  32.770  1.00  0.00     0.063 A 
ATOM     12  C   UNL A   1      34.150  37.907  33.146  1.00  0.00     0.068 C 
BRANCH   8  13
ATOM     13  N   UNL A   1      36.038  33.606  33.742  1.00  0.00    -0.345 N 
ATOM     14  C   UNL A   1      36.363  33.829  35.137  1.00  0.00     0.146 C 
BRANCH  13  15
ATOM     15  C   UNL A   1      36.916  32.728  32.963  1.00  0.00     0.174 C 
BRANCH  15  16
ATOM     16  C   UNL A   1      37.917  33.470  32.093  1.00  0.00     0.060 A 
ATOM     17  C   UNL A   1      41.305  34.802  32.575  1.00  0.00     0.067 C 
ATOM     18  C   UNL A   1      40.025  34.428  31.894  1.00  0.00     0.038 A 
ATOM     19  C   UNL A   1      39.894  34.521  30.513  1.00  0.00     0.023 A 
ATOM     20  N   UNL A   1      39.044  33.939  32.688  1.00  0.00    -0.256 NA
ATOM     21  C   UNL A   1      38.707  34.104  29.922  1.00  0.00     0.004 A 
ATOM     22  C   UNL A   1      37.700  33.573  30.719  1.00  0.00     0.026 A 
ENDBRANCH  15  16
ENDBRANCH  13  15
ENDBRANCH   8  13
ENDBRANCH   4   7
ENDBRANCH   2   3
ENDBRANCH   1   2
BRANCH   1  23
ATOM     23  C   UNL A   1      34.970  33.102  27.963  1.00  0.00     0.023 C 
BRANCH  23  24
ATOM     24  C   UNL A   1      34.859  31.937  28.937  1.00  0.00     0.116 C 
BRANCH  24  25
ATOM     25  N   UNL A   1      34.372  30.710  28.322  1.00  0.00    -0.352 N 
ATOM     26  C   UNL A   1      35.091  29.589  27.977  1.00  0.00     0.251 C 
ATOM     27  H   UNL A   1      33.407  30.679  28.130  1.00  0.00     0.163 HD
ATOM     28  O   UNL A   1      34.555  28.662  27.390  1.00  0.00    -0.269 OA
BRANCH  26  29
ATOM     29  C   UNL A   1      36.534  29.561  28.284  1.00  0.00     0.039 A 
ATOM     30  C   UNL A   1      36.943  29.100  29.535  1.00  0.00     0.014 A 
ATOM     31  C   UNL A   1      37.472  29.908  27.308  1.00  0.00     0.014 A 
ATOM     32  C   UNL A   1      38.303  28.917  29.785  1.00  0.00     0.010 A 
ATOM     33  C   UNL A   1      38.819  29.652  27.532  1.00  0.00     0.010 A 
ATOM     34  C   UNL A   1      39.246  29.154  28.772  1.00  0.00    -0.014 A 
BRANCH  34  35
ATOM     35  C   UNL A   1      40.688  28.882  28.987  1.00  0.00     0.031 A 
ATOM     36  C   UNL A   1      41.262  27.545  28.612  1.00  0.00     0.074 A 
ATOM     37  C   UNL A   1      41.459  29.812  29.584  1.00  0.00     0.049 A 
ATOM     38  N   UNL A   1      42.481  27.099  28.770  1.00  0.00    -0.248 NA
ATOM     39  C   UNL A   1      40.338  26.568  28.010  1.00  0.00     0.031 C 
ATOM     40  C   UNL A   1      41.001  31.125  30.046  1.00  0.00     0.029 A 
ATOM     41  N   UNL A   1      42.790  29.793  29.910  1.00  0.00    -0.354 N 
ATOM     42  C   UNL A   1      42.466  25.789  28.309  1.00  0.00     0.074 A 
ATOM     43  C   UNL A   1      41.107  25.494  27.913  1.00  0.00     0.031 C 
ATOM     44  C   UNL A   1      42.041  31.794  30.570  1.00  0.00     0.029 A 
ATOM     45  C   UNL A   1      43.228  30.949  30.511  1.00  0.00     0.049 A 
ATOM     46  H   UNL A   1      43.377  29.023  29.732  1.00  0.00     0.167 HD
ATOM     47  C   UNL A   1      43.495  24.916  28.205  1.00  0.00     0.031 A 
ATOM     48  C   UNL A   1      44.451  31.292  30.960  1.00  0.00     0.031 A 
ATOM     49  C   UNL A   1      44.849  25.222  28.577  1.00  0.00     0.049 A 
ATOM     50  C   UNL A   1      45.585  30.317  30.806  1.00  0.00     0.074 A 
ATOM     51  C   UNL A   1      45.977  24.431  28.449  1.00  0.00     0.029 A 
ATOM     52  N   UNL A   1      45.259  26.417  29.148  1.00  0.00    -0.354 N 
ATOM     53  N   UNL A   1      45.566  29.106  30.300  1.00  0.00    -0.248 NA
ATOM     54  C   UNL A   1      46.907  30.759  31.269  1.00  0.00     0.031 C 
ATOM     55  C   UNL A   1      47.065  25.135  28.979  1.00  0.00     0.029 A 
ATOM     56  C   UNL A   1      46.621  26.381  29.393  1.00  0.00     0.049 A 
ATOM     57  H   UNL A   1      44.669  27.179  29.351  1.00  0.00     0.167 HD
ATOM     58  C   UNL A   1      46.879  28.653  30.360  1.00  0.00     0.074 A 
ATOM     59  C   UNL A   1      47.666  29.722  30.940  1.00  0.00     0.031 C 
ATOM     60  C   UNL A   1      47.385  27.458  29.968  1.00  0.00     0.031 A 
BRANCH  47  61
ATOM     61  C   UNL A   1      43.187  23.547  27.661  1.00  0.00    -0.014 A 
ATOM     62  C   UNL A   1      43.667  23.142  26.402  1.00  0.00     0.010 A 
ATOM     63  C   UNL A   1      42.422  22.646  28.424  1.00  0.00     0.010 A 
ATOM     64  C   UNL A   1      43.347  21.880  25.895  1.00  0.00     0.020 A 
ATOM     65  C   UNL A   1      42.123  21.372  27.933  1.00  0.00     0.020 A 
ATOM     66  C   UNL A   1      42.571  21.006  26.661  1.00  0.00     0.054 A 
BRANCH  66  67
ATOM     67  S   UNL A   1      42.179  19.370  25.985  1.00  0.00     0.124 S 
ATOM     68  O   UNL A   1      40.721  19.425  25.895  1.00  0.00    -0.237 OA
ATOM     69  O   UNL A   1      42.887  19.371  24.707  1.00  0.00    -0.237 OA
ATOM     70  O   UNL A   1      42.706  18.445  26.985  1.00  0.00    -0.744 OA
ENDBRANCH  66  67
ENDBRANCH  47  61
BRANCH  48  71
ATOM     71  C   UNL A   1      44.669  32.632  31.567  1.00  0.00    -0.014 A 
ATOM     72  C   UNL A   1      44.963  33.740  30.755  1.00  0.00     0.010 A 
ATOM     73  C   UNL A   1      44.560  32.811  32.958  1.00  0.00     0.010 A 
ATOM     74  C   UNL A   1      45.162  35.003  31.322  1.00  0.00     0.020 A 
ATOM     75  C   UNL A   1      44.734  34.077  33.527  1.00  0.00     0.020 A 
ATOM     76  C   UNL A   1      45.044  35.163  32.705  1.00  0.00     0.054 A 
BRANCH  76  77
ATOM     77  S   UNL A   1      45.246  36.820  33.416  1.00  0.00     0.124 S 
ATOM     78  O   UNL A   1      45.825  37.560  32.300  1.00  0.00    -0.237 OA
ATOM     79  O   UNL A   1      43.876  37.181  33.774  1.00  0.00    -0.237 OA
ATOM     80  O   UNL A   1      46.139  36.597  34.552  1.00  0.00    -0.744 OA
ENDBRANCH  76  77
ENDBRANCH  48  71
BRANCH  60  81
ATOM     81  C   UNL A   1      48.868  27.253  30.123  1.00  0.00    -0.014 A 
ATOM     82  C   UNL A   1      49.406  26.700  31.298  1.00  0.00     0.010 A 
ATOM     83  C   UNL A   1      49.725  27.563  29.052  1.00  0.00     0.010 A 
ATOM     84  C   UNL A   1      50.782  26.484  31.408  1.00  0.00     0.020 A 
ATOM     85  C   UNL A   1      51.098  27.327  29.149  1.00  0.00     0.020 A 
ATOM     86  C   UNL A   1      51.619  26.801  30.333  1.00  0.00     0.054 A 
BRANCH  86  87
ATOM     87  S   UNL A   1      53.396  26.466  30.480  1.00  0.00     0.124 S 
ATOM     88  O   UNL A   1      53.418  25.361  31.435  1.00  0.00    -0.237 OA
ATOM     89  O   UNL A   1      53.774  26.122  29.111  1.00  0.00    -0.237 OA
ATOM     90  O   UNL A   1      53.945  27.727  30.973  1.00  0.00    -0.744 OA
ENDBRANCH  86  87
ENDBRANCH  60  81
ENDBRANCH  34  35
ENDBRANCH  26  29
ENDBRANCH  24  25
ENDBRANCH  23  24
ENDBRANCH   1  23
TORSDOF 17
ENDMDL
