MODEL 1
REMARK VINA RESULT:     -10.2      0.000      0.000
REMARK SMILES CC(C)[C@@H]([NH2+][C@H](C)C[C@@H]1CCC[NH2+]1)C(=O)NCCCCNC(=O)c1ccc(-c2c3nc(c(-c4ccc(S(=O)(=O)[O-])cc4)c4ccc([nH]4)c(-c4ccc(S(=O)(=O)[O-])cc4)c4nc(c(-c5ccc(S(=O)(=O)[O-])cc5)c5ccc2[nH]5)C=C4)C=C3)cc1
REMARK SMILES IDX 18 1 17 2 16 3 14 4 15 5 4 7 2 8 1 9 3 10 5 11 6 14 7 15
REMARK SMILES IDX 8 16 9 17 10 18 13 19 11 20 12 21 19 24 20 25 21 26 22 27
REMARK SMILES IDX 23 29 24 30 25 31 83 32 26 33 82 34 27 35 28 36 29 37 76 38
REMARK SMILES IDX 30 39 81 40 75 41 77 42 31 43 80 44 74 45 73 46 32 48 62 49
REMARK SMILES IDX 43 50 61 51 44 52 47 53 60 54 78 55 45 56 46 57 59 59 79 60
REMARK SMILES IDX 48 61 33 62 34 63 42 64 35 65 41 66 36 67 37 68 38 69 39 70
REMARK SMILES IDX 40 71 63 72 64 73 72 74 65 75 71 76 66 77 67 78 68 79 69 80
REMARK SMILES IDX 70 81 49 82 50 83 58 84 51 85 57 86 52 87 53 88 54 89 55 90
REMARK SMILES IDX 56 91
REMARK H PARENT 16 6 5 12 5 13 13 22 13 23 21 28 77 47 47 58
REMARK Flexibility Score: inf
ROOT
ATOM      1  C   UNL A   1      32.083  27.323  25.398  1.00  0.00     0.023 C 
ENDROOT
BRANCH   1   2
ATOM      2  C   UNL A   1      31.283  26.062  25.086  1.00  0.00     0.116 C 
BRANCH   2   3
ATOM      3  N   UNL A   1      31.160  25.238  26.274  1.00  0.00    -0.351 N 
ATOM      4  C   UNL A   1      31.750  24.040  26.560  1.00  0.00     0.278 C 
ATOM      5  O   UNL A   1      31.458  23.490  27.626  1.00  0.00    -0.268 OA
ATOM      6  H   UNL A   1      30.567  25.593  26.974  1.00  0.00     0.163 HD
BRANCH   4   7
ATOM      7  C   UNL A   1      32.751  23.387  25.584  1.00  0.00     0.275 C 
BRANCH   7   8
ATOM      8  C   UNL A   1      34.174  23.990  25.821  1.00  0.00     0.051 C 
ATOM      9  C   UNL A   1      35.139  23.016  26.502  1.00  0.00     0.014 C 
ATOM     10  C   UNL A   1      34.801  24.462  24.499  1.00  0.00     0.014 C 
ENDBRANCH   7   8
BRANCH   7  11
ATOM     11  N   UNL A   1      32.711  21.896  25.678  1.00  0.00    -0.333 N 
ATOM     12  H   UNL A   1      31.802  21.639  26.059  1.00  0.00     0.347 HD
ATOM     13  H   UNL A   1      33.514  21.651  26.259  1.00  0.00     0.347 HD
BRANCH  11  14
ATOM     14  C   UNL A   1      32.904  21.125  24.418  1.00  0.00     0.185 C 
ATOM     15  C   UNL A   1      32.324  21.850  23.203  1.00  0.00     0.075 C 
BRANCH  14  16
ATOM     16  C   UNL A   1      32.458  19.650  24.519  1.00  0.00     0.129 C 
BRANCH  16  17
ATOM     17  C   UNL A   1      33.537  18.586  24.293  1.00  0.00     0.188 C 
ATOM     18  C   UNL A   1      33.206  17.722  23.080  1.00  0.00     0.071 C 
ATOM     19  N   UNL A   1      33.663  17.598  25.375  1.00  0.00    -0.344 N 
ATOM     20  C   UNL A   1      34.132  16.538  23.257  1.00  0.00     0.067 C 
ATOM     21  C   UNL A   1      34.303  16.418  24.765  1.00  0.00     0.260 C 
ATOM     22  H   UNL A   1      32.744  17.354  25.744  1.00  0.00     0.346 HD
ATOM     23  H   UNL A   1      34.211  17.962  26.155  1.00  0.00     0.346 HD
ENDBRANCH  16  17
ENDBRANCH  14  16
ENDBRANCH  11  14
ENDBRANCH   7  11
ENDBRANCH   4   7
ENDBRANCH   2   3
ENDBRANCH   1   2
BRANCH   1  24
ATOM     24  C   UNL A   1      32.303  27.558  26.893  1.00  0.00     0.023 C 
BRANCH  24  25
ATOM     25  C   UNL A   1      33.631  28.221  27.244  1.00  0.00     0.116 C 
BRANCH  25  26
ATOM     26  N   UNL A   1      33.489  29.643  27.513  1.00  0.00    -0.352 N 
ATOM     27  C   UNL A   1      34.390  30.513  28.071  1.00  0.00     0.251 C 
ATOM     28  H   UNL A   1      32.623  30.036  27.260  1.00  0.00     0.163 HD
ATOM     29  O   UNL A   1      34.029  31.645  28.387  1.00  0.00    -0.269 OA
BRANCH  27  30
ATOM     30  C   UNL A   1      35.781  30.078  28.315  1.00  0.00     0.039 A 
ATOM     31  C   UNL A   1      36.681  30.086  27.249  1.00  0.00     0.014 A 
ATOM     32  C   UNL A   1      36.198  29.669  29.586  1.00  0.00     0.014 A 
ATOM     33  C   UNL A   1      38.013  29.734  27.471  1.00  0.00     0.010 A 
ATOM     34  C   UNL A   1      37.545  29.401  29.822  1.00  0.00     0.010 A 
ATOM     35  C   UNL A   1      38.465  29.424  28.766  1.00  0.00    -0.014 A 
BRANCH  35  36
ATOM     36  C   UNL A   1      39.906  29.155  29.011  1.00  0.00     0.031 A 
ATOM     37  C   UNL A   1      40.517  27.828  28.652  1.00  0.00     0.074 A 
ATOM     38  C   UNL A   1      40.662  30.114  29.581  1.00  0.00     0.049 A 
ATOM     39  N   UNL A   1      41.769  27.454  28.728  1.00  0.00    -0.248 NA
ATOM     40  C   UNL A   1      39.607  26.778  28.168  1.00  0.00     0.031 C 
ATOM     41  C   UNL A   1      40.171  31.417  30.039  1.00  0.00     0.029 A 
ATOM     42  N   UNL A   1      42.004  30.149  29.863  1.00  0.00    -0.354 N 
ATOM     43  C   UNL A   1      41.796  26.128  28.309  1.00  0.00     0.074 A 
ATOM     44  C   UNL A   1      40.428  25.746  28.035  1.00  0.00     0.031 C 
ATOM     45  C   UNL A   1      41.204  32.141  30.497  1.00  0.00     0.029 A 
ATOM     46  C   UNL A   1      42.422  31.345  30.400  1.00  0.00     0.049 A 
ATOM     47  H   UNL A   1      42.610  29.392  29.696  1.00  0.00     0.167 HD
ATOM     48  C   UNL A   1      42.865  25.310  28.147  1.00  0.00     0.031 A 
ATOM     49  C   UNL A   1      43.651  31.760  30.766  1.00  0.00     0.031 A 
ATOM     50  C   UNL A   1      44.224  25.696  28.426  1.00  0.00     0.049 A 
ATOM     51  C   UNL A   1      44.823  30.844  30.557  1.00  0.00     0.074 A 
ATOM     52  C   UNL A   1      45.382  24.963  28.237  1.00  0.00     0.029 A 
ATOM     53  N   UNL A   1      44.608  26.916  28.964  1.00  0.00    -0.354 N 
ATOM     54  N   UNL A   1      44.840  29.624  30.074  1.00  0.00    -0.248 NA
ATOM     55  C   UNL A   1      46.144  31.368  30.923  1.00  0.00     0.031 C 
ATOM     56  C   UNL A   1      46.460  25.715  28.719  1.00  0.00     0.029 A 
ATOM     57  C   UNL A   1      45.983  26.946  29.139  1.00  0.00     0.049 A 
ATOM     58  H   UNL A   1      43.994  27.653  29.187  1.00  0.00     0.167 HD
ATOM     59  C   UNL A   1      46.177  29.243  30.053  1.00  0.00     0.074 A 
ATOM     60  C   UNL A   1      46.937  30.374  30.550  1.00  0.00     0.031 C 
ATOM     61  C   UNL A   1      46.727  28.068  29.655  1.00  0.00     0.031 A 
BRANCH  48  62
ATOM     62  C   UNL A   1      42.602  23.907  27.659  1.00  0.00    -0.014 A 
ATOM     63  C   UNL A   1      42.623  23.594  26.286  1.00  0.00     0.010 A 
ATOM     64  C   UNL A   1      42.367  22.877  28.588  1.00  0.00     0.010 A 
ATOM     65  C   UNL A   1      42.370  22.290  25.852  1.00  0.00     0.020 A 
ATOM     66  C   UNL A   1      42.145  21.565  28.159  1.00  0.00     0.020 A 
ATOM     67  C   UNL A   1      42.131  21.284  26.792  1.00  0.00     0.054 A 
BRANCH  67  68
ATOM     68  S   UNL A   1      41.822  19.597  26.200  1.00  0.00     0.124 S 
ATOM     69  O   UNL A   1      42.656  19.542  25.001  1.00  0.00    -0.237 OA
ATOM     70  O   UNL A   1      42.279  18.777  27.319  1.00  0.00    -0.237 OA
ATOM     71  O   UNL A   1      40.382  19.571  25.958  1.00  0.00    -0.744 OA
ENDBRANCH  67  68
ENDBRANCH  48  62
BRANCH  49  72
ATOM     72  C   UNL A   1      43.829  33.124  31.337  1.00  0.00    -0.014 A 
ATOM     73  C   UNL A   1      44.029  34.235  30.500  1.00  0.00     0.010 A 
ATOM     74  C   UNL A   1      43.765  33.319  32.729  1.00  0.00     0.010 A 
ATOM     75  C   UNL A   1      44.180  35.515  31.045  1.00  0.00     0.020 A 
ATOM     76  C   UNL A   1      43.883  34.600  33.275  1.00  0.00     0.020 A 
ATOM     77  C   UNL A   1      44.101  35.689  32.429  1.00  0.00     0.054 A 
BRANCH  77  78
ATOM     78  S   UNL A   1      44.235  37.365  33.110  1.00  0.00     0.124 S 
ATOM     79  O   UNL A   1      43.012  37.473  33.899  1.00  0.00    -0.237 OA
ATOM     80  O   UNL A   1      45.478  37.296  33.874  1.00  0.00    -0.237 OA
ATOM     81  O   UNL A   1      44.291  38.213  31.921  1.00  0.00    -0.744 OA
ENDBRANCH  77  78
ENDBRANCH  49  72
BRANCH  61  82
ATOM     82  C   UNL A   1      48.228  27.960  29.714  1.00  0.00    -0.014 A 
ATOM     83  C   UNL A   1      49.038  28.337  28.626  1.00  0.00     0.010 A 
ATOM     84  C   UNL A   1      48.842  27.477  30.886  1.00  0.00     0.010 A 
ATOM     85  C   UNL A   1      50.424  28.173  28.686  1.00  0.00     0.020 A 
ATOM     86  C   UNL A   1      50.231  27.345  30.962  1.00  0.00     0.020 A 
ATOM     87  C   UNL A   1      51.011  27.670  29.851  1.00  0.00     0.054 A 
BRANCH  87  88
ATOM     88  S   UNL A   1      52.811  27.459  29.902  1.00  0.00     0.124 S 
ATOM     89  O   UNL A   1      53.201  28.431  30.920  1.00  0.00    -0.237 OA
ATOM     90  O   UNL A   1      52.960  26.056  30.283  1.00  0.00    -0.237 OA
ATOM     91  O   UNL A   1      53.237  27.777  28.541  1.00  0.00    -0.744 OA
ENDBRANCH  87  88
ENDBRANCH  61  82
ENDBRANCH  35  36
ENDBRANCH  27  30
ENDBRANCH  25  26
ENDBRANCH  24  25
ENDBRANCH   1  24
TORSDOF 19
ENDMDL
MODEL 2
REMARK VINA RESULT:      -9.8      3.250      7.732
REMARK SMILES CC(C)[C@@H]([NH2+][C@H](C)C[C@@H]1CCC[NH2+]1)C(=O)NCCCCNC(=O)c1ccc(-c2c3nc(c(-c4ccc(S(=O)(=O)[O-])cc4)c4ccc([nH]4)c(-c4ccc(S(=O)(=O)[O-])cc4)c4nc(c(-c5ccc(S(=O)(=O)[O-])cc5)c5ccc2[nH]5)C=C4)C=C3)cc1
REMARK SMILES IDX 18 1 17 2 16 3 14 4 15 5 4 7 2 8 1 9 3 10 5 11 6 14 7 15
REMARK SMILES IDX 8 16 9 17 10 18 13 19 11 20 12 21 19 24 20 25 21 26 22 27
REMARK SMILES IDX 23 29 24 30 25 31 83 32 26 33 82 34 27 35 28 36 29 37 76 38
REMARK SMILES IDX 30 39 81 40 75 41 77 42 31 43 80 44 74 45 73 46 32 48 62 49
REMARK SMILES IDX 43 50 61 51 44 52 47 53 60 54 78 55 45 56 46 57 59 59 79 60
REMARK SMILES IDX 48 61 33 62 34 63 42 64 35 65 41 66 36 67 37 68 38 69 39 70
REMARK SMILES IDX 40 71 63 72 64 73 72 74 65 75 71 76 66 77 67 78 68 79 69 80
REMARK SMILES IDX 70 81 49 82 50 83 58 84 51 85 57 86 52 87 53 88 54 89 55 90
REMARK SMILES IDX 56 91
REMARK H PARENT 16 6 5 12 5 13 13 22 13 23 21 28 77 47 47 58
REMARK Flexibility Score: inf
ROOT
ATOM      1  C   UNL A   1      38.881  23.599  26.463  1.00  0.00     0.023 C 
ENDROOT
BRANCH   1   2
ATOM      2  C   UNL A   1      37.448  23.709  25.952  1.00  0.00     0.116 C 
BRANCH   2   3
ATOM      3  N   UNL A   1      37.398  23.422  24.530  1.00  0.00    -0.351 N 
ATOM      4  C   UNL A   1      36.312  23.234  23.725  1.00  0.00     0.278 C 
ATOM      5  O   UNL A   1      36.511  22.951  22.539  1.00  0.00    -0.268 OA
ATOM      6  H   UNL A   1      38.271  23.355  24.082  1.00  0.00     0.163 HD
BRANCH   4   7
ATOM      7  C   UNL A   1      34.875  23.368  24.272  1.00  0.00     0.275 C 
BRANCH   7   8
ATOM      8  C   UNL A   1      34.402  24.852  24.128  1.00  0.00     0.051 C 
ATOM      9  C   UNL A   1      33.209  25.018  23.184  1.00  0.00     0.014 C 
ATOM     10  C   UNL A   1      34.036  25.450  25.496  1.00  0.00     0.014 C 
ENDBRANCH   7   8
BRANCH   7  11
ATOM     11  N   UNL A   1      33.953  22.383  23.632  1.00  0.00    -0.333 N 
ATOM     12  H   UNL A   1      34.476  21.905  22.899  1.00  0.00     0.347 HD
ATOM     13  H   UNL A   1      33.160  22.940  23.310  1.00  0.00     0.347 HD
BRANCH  11  14
ATOM     14  C   UNL A   1      33.351  21.338  24.506  1.00  0.00     0.185 C 
ATOM     15  C   UNL A   1      32.588  21.942  25.686  1.00  0.00     0.075 C 
BRANCH  14  16
ATOM     16  C   UNL A   1      34.344  20.232  24.925  1.00  0.00     0.129 C 
BRANCH  16  17
ATOM     17  C   UNL A   1      33.998  18.800  24.504  1.00  0.00     0.188 C 
ATOM     18  C   UNL A   1      32.894  18.223  25.385  1.00  0.00     0.071 C 
ATOM     19  N   UNL A   1      35.090  17.829  24.670  1.00  0.00    -0.344 N 
ATOM     20  C   UNL A   1      32.975  16.742  25.088  1.00  0.00     0.067 C 
ATOM     21  C   UNL A   1      34.441  16.507  24.749  1.00  0.00     0.260 C 
ATOM     22  H   UNL A   1      35.611  18.021  25.526  1.00  0.00     0.346 HD
ATOM     23  H   UNL A   1      35.756  17.876  23.898  1.00  0.00     0.346 HD
ENDBRANCH  16  17
ENDBRANCH  14  16
ENDBRANCH  11  14
ENDBRANCH   7  11
ENDBRANCH   4   7
ENDBRANCH   2   3
ENDBRANCH   1   2
BRANCH   1  24
ATOM     24  C   UNL A   1      39.280  22.182  26.877  1.00  0.00     0.023 C 
BRANCH  24  25
ATOM     25  C   UNL A   1      39.236  21.154  25.751  1.00  0.00     0.116 C 
BRANCH  25  26
ATOM     26  N   UNL A   1      40.121  20.026  25.993  1.00  0.00    -0.352 N 
ATOM     27  C   UNL A   1      41.461  20.023  26.281  1.00  0.00     0.251 C 
ATOM     28  H   UNL A   1      39.698  19.138  25.941  1.00  0.00     0.163 HD
ATOM     29  O   UNL A   1      42.084  18.963  26.278  1.00  0.00    -0.269 OA
BRANCH  27  30
ATOM     30  C   UNL A   1      42.157  21.295  26.568  1.00  0.00     0.039 A 
ATOM     31  C   UNL A   1      42.462  22.146  25.505  1.00  0.00     0.014 A 
ATOM     32  C   UNL A   1      42.504  21.650  27.876  1.00  0.00     0.014 A 
ATOM     33  C   UNL A   1      43.066  23.377  25.760  1.00  0.00     0.010 A 
ATOM     34  C   UNL A   1      43.031  22.914  28.135  1.00  0.00     0.010 A 
ATOM     35  C   UNL A   1      43.323  23.788  27.081  1.00  0.00    -0.014 A 
BRANCH  35  36
ATOM     36  C   UNL A   1      43.869  25.143  27.350  1.00  0.00     0.031 A 
ATOM     37  C   UNL A   1      45.315  25.462  27.084  1.00  0.00     0.074 A 
ATOM     38  C   UNL A   1      43.052  26.088  27.857  1.00  0.00     0.049 A 
ATOM     39  N   UNL A   1      45.935  26.610  27.190  1.00  0.00    -0.248 NA
ATOM     40  C   UNL A   1      46.182  24.348  26.668  1.00  0.00     0.031 C 
ATOM     41  C   UNL A   1      41.647  25.883  28.224  1.00  0.00     0.029 A 
ATOM     42  N   UNL A   1      43.278  27.411  28.141  1.00  0.00    -0.354 N 
ATOM     43  C   UNL A   1      47.263  26.357  26.862  1.00  0.00     0.074 A 
ATOM     44  C   UNL A   1      47.370  24.936  26.608  1.00  0.00     0.031 C 
ATOM     45  C   UNL A   1      41.125  27.048  28.635  1.00  0.00     0.029 A 
ATOM     46  C   UNL A   1      42.162  28.074  28.598  1.00  0.00     0.049 A 
ATOM     47  H   UNL A   1      44.154  27.845  28.028  1.00  0.00     0.167 HD
ATOM     48  C   UNL A   1      48.294  27.230  26.760  1.00  0.00     0.031 A 
ATOM     49  C   UNL A   1      41.987  29.365  28.940  1.00  0.00     0.031 A 
ATOM     50  C   UNL A   1      48.181  28.643  27.019  1.00  0.00     0.049 A 
ATOM     51  C   UNL A   1      43.140  30.319  28.799  1.00  0.00     0.074 A 
ATOM     52  C   UNL A   1      49.150  29.621  26.884  1.00  0.00     0.029 A 
ATOM     53  N   UNL A   1      47.035  29.277  27.474  1.00  0.00    -0.354 N 
ATOM     54  N   UNL A   1      44.366  30.077  28.399  1.00  0.00    -0.248 NA
ATOM     55  C   UNL A   1      42.879  31.724  29.134  1.00  0.00     0.031 C 
ATOM     56  C   UNL A   1      48.609  30.837  27.319  1.00  0.00     0.029 A 
ATOM     57  C   UNL A   1      47.280  30.629  27.653  1.00  0.00     0.049 A 
ATOM     58  H   UNL A   1      46.173  28.832  27.644  1.00  0.00     0.167 HD
ATOM     59  C   UNL A   1      45.017  31.306  28.409  1.00  0.00     0.074 A 
ATOM     60  C   UNL A   1      44.038  32.290  28.832  1.00  0.00     0.031 C 
ATOM     61  C   UNL A   1      46.305  31.596  28.095  1.00  0.00     0.031 A 
BRANCH  48  62
ATOM     62  C   UNL A   1      49.641  26.677  26.367  1.00  0.00    -0.014 A 
ATOM     63  C   UNL A   1      50.118  26.780  25.046  1.00  0.00     0.010 A 
ATOM     64  C   UNL A   1      50.461  26.077  27.340  1.00  0.00     0.010 A 
ATOM     65  C   UNL A   1      51.365  26.254  24.698  1.00  0.00     0.020 A 
ATOM     66  C   UNL A   1      51.723  25.579  27.004  1.00  0.00     0.020 A 
ATOM     67  C   UNL A   1      52.159  25.656  25.679  1.00  0.00     0.054 A 
BRANCH  67  68
ATOM     68  S   UNL A   1      53.782  24.998  25.203  1.00  0.00     0.124 S 
ATOM     69  O   UNL A   1      53.971  25.593  23.882  1.00  0.00    -0.237 OA
ATOM     70  O   UNL A   1      54.656  25.513  26.253  1.00  0.00    -0.237 OA
ATOM     71  O   UNL A   1      53.587  23.550  25.211  1.00  0.00    -0.744 OA
ENDBRANCH  67  68
ENDBRANCH  48  62
BRANCH  49  72
ATOM     72  C   UNL A   1      40.656  29.828  29.418  1.00  0.00    -0.014 A 
ATOM     73  C   UNL A   1      39.607  30.064  28.513  1.00  0.00     0.010 A 
ATOM     74  C   UNL A   1      40.423  30.005  30.795  1.00  0.00     0.010 A 
ATOM     75  C   UNL A   1      38.354  30.484  28.973  1.00  0.00     0.020 A 
ATOM     76  C   UNL A   1      39.165  30.394  31.260  1.00  0.00     0.020 A 
ATOM     77  C   UNL A   1      38.140  30.641  30.345  1.00  0.00     0.054 A 
BRANCH  77  78
ATOM     78  S   UNL A   1      36.490  31.124  30.924  1.00  0.00     0.124 S 
ATOM     79  O   UNL A   1      36.190  30.078  31.897  1.00  0.00    -0.237 OA
ATOM     80  O   UNL A   1      36.729  32.455  31.477  1.00  0.00    -0.237 OA
ATOM     81  O   UNL A   1      35.681  31.100  29.707  1.00  0.00    -0.744 OA
ENDBRANCH  77  78
ENDBRANCH  49  72
BRANCH  61  82
ATOM     82  C   UNL A   1      46.719  33.043  28.167  1.00  0.00    -0.014 A 
ATOM     83  C   UNL A   1      47.252  33.599  29.344  1.00  0.00     0.010 A 
ATOM     84  C   UNL A   1      46.579  33.859  27.028  1.00  0.00     0.010 A 
ATOM     85  C   UNL A   1      47.576  34.957  29.401  1.00  0.00     0.020 A 
ATOM     86  C   UNL A   1      46.935  35.210  27.071  1.00  0.00     0.020 A 
ATOM     87  C   UNL A   1      47.406  35.756  28.266  1.00  0.00     0.054 A 
BRANCH  87  88
ATOM     88  S   UNL A   1      47.826  37.517  28.365  1.00  0.00     0.124 S 
ATOM     89  O   UNL A   1      47.195  38.048  27.160  1.00  0.00    -0.237 OA
ATOM     90  O   UNL A   1      47.213  37.923  29.628  1.00  0.00    -0.237 OA
ATOM     91  O   UNL A   1      49.287  37.527  28.359  1.00  0.00    -0.744 OA
ENDBRANCH  87  88
ENDBRANCH  61  82
ENDBRANCH  35  36
ENDBRANCH  27  30
ENDBRANCH  25  26
ENDBRANCH  24  25
ENDBRANCH   1  24
TORSDOF 19
ENDMDL
MODEL 3
REMARK VINA RESULT:      -9.8      1.450      8.489
REMARK SMILES CC(C)[C@@H]([NH2+][C@H](C)C[C@@H]1CCC[NH2+]1)C(=O)NCCCCNC(=O)c1ccc(-c2c3nc(c(-c4ccc(S(=O)(=O)[O-])cc4)c4ccc([nH]4)c(-c4ccc(S(=O)(=O)[O-])cc4)c4nc(c(-c5ccc(S(=O)(=O)[O-])cc5)c5ccc2[nH]5)C=C4)C=C3)cc1
REMARK SMILES IDX 18 1 17 2 16 3 14 4 15 5 4 7 2 8 1 9 3 10 5 11 6 14 7 15
REMARK SMILES IDX 8 16 9 17 10 18 13 19 11 20 12 21 19 24 20 25 21 26 22 27
REMARK SMILES IDX 23 29 24 30 25 31 83 32 26 33 82 34 27 35 28 36 29 37 76 38
REMARK SMILES IDX 30 39 81 40 75 41 77 42 31 43 80 44 74 45 73 46 32 48 62 49
REMARK SMILES IDX 43 50 61 51 44 52 47 53 60 54 78 55 45 56 46 57 59 59 79 60
REMARK SMILES IDX 48 61 33 62 34 63 42 64 35 65 41 66 36 67 37 68 38 69 39 70
REMARK SMILES IDX 40 71 63 72 64 73 72 74 65 75 71 76 66 77 67 78 68 79 69 80
REMARK SMILES IDX 70 81 49 82 50 83 58 84 51 85 57 86 52 87 53 88 54 89 55 90
REMARK SMILES IDX 56 91
REMARK H PARENT 16 6 5 12 5 13 13 22 13 23 21 28 77 47 47 58
REMARK Flexibility Score: inf
ROOT
ATOM      1  C   UNL A   1      31.783  26.980  26.010  1.00  0.00     0.023 C 
ENDROOT
BRANCH   1   2
ATOM      2  C   UNL A   1      32.307  25.580  25.707  1.00  0.00     0.116 C 
BRANCH   2   3
ATOM      3  N   UNL A   1      32.961  25.556  24.413  1.00  0.00    -0.351 N 
ATOM      4  C   UNL A   1      33.804  24.620  23.887  1.00  0.00     0.278 C 
ATOM      5  O   UNL A   1      34.285  24.834  22.770  1.00  0.00    -0.268 OA
ATOM      6  H   UNL A   1      32.769  26.325  23.829  1.00  0.00     0.163 HD
BRANCH   4   7
ATOM      7  C   UNL A   1      34.151  23.330  24.660  1.00  0.00     0.275 C 
BRANCH   7   8
ATOM      8  C   UNL A   1      34.815  23.707  26.025  1.00  0.00     0.051 C 
ATOM      9  C   UNL A   1      34.360  22.819  27.185  1.00  0.00     0.014 C 
ATOM     10  C   UNL A   1      36.349  23.647  25.928  1.00  0.00     0.014 C 
ENDBRANCH   7   8
BRANCH   7  11
ATOM     11  N   UNL A   1      32.960  22.440  24.802  1.00  0.00    -0.333 N 
ATOM     12  H   UNL A   1      32.140  22.982  24.529  1.00  0.00     0.347 HD
ATOM     13  H   UNL A   1      32.978  22.135  25.776  1.00  0.00     0.347 HD
BRANCH  11  14
ATOM     14  C   UNL A   1      32.948  21.179  24.009  1.00  0.00     0.185 C 
ATOM     15  C   UNL A   1      32.121  21.310  22.729  1.00  0.00     0.075 C 
BRANCH  14  16
ATOM     16  C   UNL A   1      32.592  19.927  24.840  1.00  0.00     0.129 C 
BRANCH  16  17
ATOM     17  C   UNL A   1      33.160  18.591  24.351  1.00  0.00     0.188 C 
ATOM     18  C   UNL A   1      32.523  17.421  25.095  1.00  0.00     0.071 C 
ATOM     19  N   UNL A   1      34.595  18.401  24.610  1.00  0.00    -0.344 N 
ATOM     20  C   UNL A   1      33.459  16.277  24.773  1.00  0.00     0.067 C 
ATOM     21  C   UNL A   1      34.815  16.943  24.587  1.00  0.00     0.260 C 
ATOM     22  H   UNL A   1      34.848  18.785  25.520  1.00  0.00     0.346 HD
ATOM     23  H   UNL A   1      35.170  18.879  23.914  1.00  0.00     0.346 HD
ENDBRANCH  16  17
ENDBRANCH  14  16
ENDBRANCH  11  14
ENDBRANCH   7  11
ENDBRANCH   4   7
ENDBRANCH   2   3
ENDBRANCH   1   2
BRANCH   1  24
ATOM     24  C   UNL A   1      32.837  28.077  25.861  1.00  0.00     0.023 C 
BRANCH  24  25
ATOM     25  C   UNL A   1      33.598  28.406  27.141  1.00  0.00     0.116 C 
BRANCH  25  26
ATOM     26  N   UNL A   1      33.534  29.819  27.479  1.00  0.00    -0.352 N 
ATOM     27  C   UNL A   1      34.468  30.602  28.107  1.00  0.00     0.251 C 
ATOM     28  H   UNL A   1      32.702  30.278  27.221  1.00  0.00     0.163 HD
ATOM     29  O   UNL A   1      34.167  31.738  28.470  1.00  0.00    -0.269 OA
BRANCH  27  30
ATOM     30  C   UNL A   1      35.822  30.070  28.369  1.00  0.00     0.039 A 
ATOM     31  C   UNL A   1      36.760  30.089  27.335  1.00  0.00     0.014 A 
ATOM     32  C   UNL A   1      36.167  29.559  29.624  1.00  0.00     0.014 A 
ATOM     33  C   UNL A   1      38.059  29.645  27.579  1.00  0.00     0.010 A 
ATOM     34  C   UNL A   1      37.486  29.195  29.886  1.00  0.00     0.010 A 
ATOM     35  C   UNL A   1      38.445  29.227  28.866  1.00  0.00    -0.014 A 
BRANCH  35  36
ATOM     36  C   UNL A   1      39.857  28.857  29.141  1.00  0.00     0.031 A 
ATOM     37  C   UNL A   1      40.791  29.822  29.820  1.00  0.00     0.074 A 
ATOM     38  C   UNL A   1      40.302  27.645  28.755  1.00  0.00     0.049 A 
ATOM     39  N   UNL A   1      42.029  29.634  30.203  1.00  0.00    -0.248 NA
ATOM     40  C   UNL A   1      40.282  31.177  30.084  1.00  0.00     0.031 C 
ATOM     41  C   UNL A   1      39.514  26.648  28.025  1.00  0.00     0.029 A 
ATOM     42  N   UNL A   1      41.520  27.039  28.931  1.00  0.00    -0.354 N 
ATOM     43  C   UNL A   1      42.448  30.844  30.744  1.00  0.00     0.074 A 
ATOM     44  C   UNL A   1      41.351  31.776  30.590  1.00  0.00     0.031 C 
ATOM     45  C   UNL A   1      40.250  25.538  27.861  1.00  0.00     0.029 A 
ATOM     46  C   UNL A   1      41.572  25.755  28.440  1.00  0.00     0.049 A 
ATOM     47  H   UNL A   1      42.284  27.480  29.368  1.00  0.00     0.167 HD
ATOM     48  C   UNL A   1      43.629  31.147  31.336  1.00  0.00     0.031 A 
ATOM     49  C   UNL A   1      42.568  24.847  28.459  1.00  0.00     0.031 A 
ATOM     50  C   UNL A   1      44.718  30.215  31.483  1.00  0.00     0.049 A 
ATOM     51  C   UNL A   1      43.861  25.198  29.139  1.00  0.00     0.074 A 
ATOM     52  C   UNL A   1      45.931  30.404  32.121  1.00  0.00     0.029 A 
ATOM     53  N   UNL A   1      44.730  28.923  30.977  1.00  0.00    -0.354 N 
ATOM     54  N   UNL A   1      44.205  26.320  29.727  1.00  0.00    -0.248 NA
ATOM     55  C   UNL A   1      44.891  24.154  29.177  1.00  0.00     0.031 C 
ATOM     56  C   UNL A   1      46.702  29.249  31.946  1.00  0.00     0.029 A 
ATOM     57  C   UNL A   1      45.942  28.313  31.264  1.00  0.00     0.049 A 
ATOM     58  H   UNL A   1      43.988  28.501  30.487  1.00  0.00     0.167 HD
ATOM     59  C   UNL A   1      45.484  26.106  30.229  1.00  0.00     0.074 A 
ATOM     60  C   UNL A   1      45.838  24.740  29.895  1.00  0.00     0.031 C 
ATOM     61  C   UNL A   1      46.291  26.960  30.908  1.00  0.00     0.031 A 
BRANCH  48  62
ATOM     62  C   UNL A   1      43.810  32.551  31.855  1.00  0.00    -0.014 A 
ATOM     63  C   UNL A   1      43.715  32.842  33.230  1.00  0.00     0.010 A 
ATOM     64  C   UNL A   1      44.117  33.592  30.960  1.00  0.00     0.010 A 
ATOM     65  C   UNL A   1      43.878  34.150  33.692  1.00  0.00     0.020 A 
ATOM     66  C   UNL A   1      44.314  34.897  31.422  1.00  0.00     0.020 A 
ATOM     67  C   UNL A   1      44.175  35.171  32.784  1.00  0.00     0.054 A 
BRANCH  67  68
ATOM     68  S   UNL A   1      44.399  36.857  33.414  1.00  0.00     0.124 S 
ATOM     69  O   UNL A   1      43.018  37.313  33.550  1.00  0.00    -0.237 OA
ATOM     70  O   UNL A   1      45.113  36.637  34.669  1.00  0.00    -0.237 OA
ATOM     71  O   UNL A   1      45.173  37.520  32.367  1.00  0.00    -0.744 OA
ENDBRANCH  67  68
ENDBRANCH  48  62
BRANCH  49  72
ATOM     72  C   UNL A   1      42.360  23.511  27.838  1.00  0.00    -0.014 A 
ATOM     73  C   UNL A   1      42.666  23.289  26.484  1.00  0.00     0.010 A 
ATOM     74  C   UNL A   1      41.881  22.439  28.614  1.00  0.00     0.010 A 
ATOM     75  C   UNL A   1      42.482  22.026  25.913  1.00  0.00     0.020 A 
ATOM     76  C   UNL A   1      41.726  21.168  28.055  1.00  0.00     0.020 A 
ATOM     77  C   UNL A   1      42.018  20.971  26.704  1.00  0.00     0.054 A 
BRANCH  77  78
ATOM     78  S   UNL A   1      41.848  19.326  25.959  1.00  0.00     0.124 S 
ATOM     79  O   UNL A   1      42.285  18.453  27.044  1.00  0.00    -0.237 OA
ATOM     80  O   UNL A   1      40.424  19.273  25.637  1.00  0.00    -0.237 OA
ATOM     81  O   UNL A   1      42.738  19.381  24.802  1.00  0.00    -0.744 OA
ENDBRANCH  77  78
ENDBRANCH  49  72
BRANCH  61  82
ATOM     82  C   UNL A   1      47.626  26.428  31.361  1.00  0.00    -0.014 A 
ATOM     83  C   UNL A   1      48.753  26.451  30.520  1.00  0.00     0.010 A 
ATOM     84  C   UNL A   1      47.755  25.900  32.660  1.00  0.00     0.010 A 
ATOM     85  C   UNL A   1      49.965  25.899  30.945  1.00  0.00     0.020 A 
ATOM     86  C   UNL A   1      48.974  25.380  33.102  1.00  0.00     0.020 A 
ATOM     87  C   UNL A   1      50.065  25.360  32.231  1.00  0.00     0.054 A 
BRANCH  87  88
ATOM     88  S   UNL A   1      51.645  24.643  32.758  1.00  0.00     0.124 S 
ATOM     89  O   UNL A   1      51.583  24.807  34.207  1.00  0.00    -0.237 OA
ATOM     90  O   UNL A   1      51.550  23.267  32.276  1.00  0.00    -0.237 OA
ATOM     91  O   UNL A   1      52.643  25.466  32.079  1.00  0.00    -0.744 OA
ENDBRANCH  87  88
ENDBRANCH  61  82
ENDBRANCH  35  36
ENDBRANCH  27  30
ENDBRANCH  25  26
ENDBRANCH  24  25
ENDBRANCH   1  24
TORSDOF 19
ENDMDL
