MODEL 1
REMARK VINA RESULT:     -11.6      0.000      0.000
REMARK SMILES O=CN[C@@H](CCS[C@@H]1CCO[C@]2(CCOC2)C1)C(=O)NCCCCNC(=O)c1ccc(-c2c3nc(c(-c4ccc(S(=O)(=O)[O-])cc4)c4ccc([nH]4)c(-c4ccc(S(=O)(=O)[O-])cc4)c4nc(c(-c5ccc(S(=O)(=O)[O-])cc5)c5ccc2[nH]5)C=C4)C=C3)cc1
REMARK SMILES IDX 22 1 21 2 20 3 18 4 19 5 4 7 3 8 1 9 2 10 5 12 6 13 7 14
REMARK SMILES IDX 8 15 9 16 17 17 10 18 12 19 11 20 13 21 16 22 14 23 15 24
REMARK SMILES IDX 23 25 24 26 25 27 26 28 27 30 28 31 29 32 87 33 30 34 86 35
REMARK SMILES IDX 31 36 32 37 33 38 80 39 34 40 85 41 79 42 81 43 35 44 84 45
REMARK SMILES IDX 78 46 77 47 36 49 66 50 47 51 65 52 48 53 51 54 64 55 82 56
REMARK SMILES IDX 49 57 50 58 63 60 83 61 52 62 37 63 38 64 46 65 39 66 45 67
REMARK SMILES IDX 40 68 41 69 42 70 43 71 44 72 67 73 68 74 76 75 69 76 75 77
REMARK SMILES IDX 70 78 71 79 72 80 73 81 74 82 53 83 54 84 62 85 55 86 61 87
REMARK SMILES IDX 56 88 57 89 58 90 59 91 60 92
REMARK H PARENT 20 6 3 11 25 29 81 48 51 59
REMARK Flexibility Score: inf
ROOT
ATOM      1  C   UNL A   1      32.855  26.478  25.993  1.00  0.00     0.023 C 
ENDROOT
BRANCH   1   2
ATOM      2  C   UNL A   1      33.975  26.553  24.947  1.00  0.00     0.116 C 
BRANCH   2   3
ATOM      3  N   UNL A   1      34.375  25.254  24.415  1.00  0.00    -0.354 N 
ATOM      4  C   UNL A   1      33.819  24.206  23.756  1.00  0.00     0.242 C 
ATOM      5  O   UNL A   1      34.426  23.146  23.656  1.00  0.00    -0.273 OA
ATOM      6  H   UNL A   1      35.331  25.089  24.584  1.00  0.00     0.163 HD
BRANCH   4   7
ATOM      7  C   UNL A   1      32.474  24.187  23.131  1.00  0.00     0.171 C 
BRANCH   7   8
ATOM      8  N   UNL A   1      32.782  24.007  21.727  1.00  0.00    -0.347 N 
ATOM      9  O   UNL A   1      33.183  25.358  19.902  1.00  0.00    -0.279 OA
ATOM     10  C   UNL A   1      32.524  25.091  20.898  1.00  0.00     0.337 C 
ATOM     11  H   UNL A   1      33.154  23.164  21.381  1.00  0.00     0.164 HD
ENDBRANCH   7   8
BRANCH   7  12
ATOM     12  C   UNL A   1      31.653  23.291  23.987  1.00  0.00     0.046 C 
BRANCH  12  13
ATOM     13  C   UNL A   1      30.534  24.130  24.756  1.00  0.00     0.072 C 
BRANCH  13  14
ATOM     14  S   UNL A   1      29.579  25.911  24.693  1.00  0.00    -0.158 SA
BRANCH  14  15
ATOM     15  C   UNL A   1      29.737  27.374  23.270  1.00  0.00     0.052 C 
ATOM     16  C   UNL A   1      31.063  27.682  22.533  1.00  0.00     0.043 C 
ATOM     17  C   UNL A   1      28.629  28.450  22.912  1.00  0.00     0.052 C 
ATOM     18  C   UNL A   1      31.333  29.185  22.308  1.00  0.00     0.162 C 
ATOM     19  C   UNL A   1      29.074  29.903  22.530  1.00  0.00     0.095 C 
ATOM     20  O   UNL A   1      30.227  29.833  21.693  1.00  0.00    -0.372 OA
ATOM     21  C   UNL A   1      29.182  30.976  23.640  1.00  0.00     0.066 C 
ATOM     22  C   UNL A   1      27.968  30.597  21.711  1.00  0.00     0.195 C 
ATOM     23  C   UNL A   1      27.822  31.660  23.720  1.00  0.00     0.163 C 
ATOM     24  O   UNL A   1      27.036  31.122  22.661  1.00  0.00    -0.378 OA
ENDBRANCH  14  15
ENDBRANCH  13  14
ENDBRANCH  12  13
ENDBRANCH   7  12
ENDBRANCH   4   7
ENDBRANCH   2   3
ENDBRANCH   1   2
BRANCH   1  25
ATOM     25  C   UNL A   1      32.646  27.734  26.845  1.00  0.00     0.023 C 
BRANCH  25  26
ATOM     26  C   UNL A   1      33.774  28.756  26.736  1.00  0.00     0.116 C 
BRANCH  26  27
ATOM     27  N   UNL A   1      33.653  29.946  27.551  1.00  0.00    -0.352 N 
ATOM     28  C   UNL A   1      34.627  30.653  28.257  1.00  0.00     0.251 C 
ATOM     29  H   UNL A   1      32.741  30.313  27.618  1.00  0.00     0.163 HD
ATOM     30  O   UNL A   1      34.342  31.704  28.767  1.00  0.00    -0.269 OA
BRANCH  28  31
ATOM     31  C   UNL A   1      35.976  30.060  28.438  1.00  0.00     0.039 A 
ATOM     32  C   UNL A   1      36.894  30.185  27.386  1.00  0.00     0.014 A 
ATOM     33  C   UNL A   1      36.373  29.446  29.623  1.00  0.00     0.014 A 
ATOM     34  C   UNL A   1      38.221  29.784  27.567  1.00  0.00     0.010 A 
ATOM     35  C   UNL A   1      37.714  29.184  29.854  1.00  0.00     0.010 A 
ATOM     36  C   UNL A   1      38.649  29.328  28.822  1.00  0.00    -0.014 A 
BRANCH  36  37
ATOM     37  C   UNL A   1      40.055  28.931  29.080  1.00  0.00     0.031 A 
ATOM     38  C   UNL A   1      40.992  29.930  29.709  1.00  0.00     0.074 A 
ATOM     39  C   UNL A   1      40.499  27.726  28.676  1.00  0.00     0.049 A 
ATOM     40  N   UNL A   1      42.282  29.848  29.900  1.00  0.00    -0.248 NA
ATOM     41  C   UNL A   1      40.408  31.218  30.125  1.00  0.00     0.031 C 
ATOM     42  C   UNL A   1      39.695  26.703  27.999  1.00  0.00     0.029 A 
ATOM     43  N   UNL A   1      41.741  27.152  28.775  1.00  0.00    -0.354 N 
ATOM     44  C   UNL A   1      42.663  31.085  30.410  1.00  0.00     0.074 A 
ATOM     45  C   UNL A   1      41.487  31.922  30.424  1.00  0.00     0.031 C 
ATOM     46  C   UNL A   1      40.450  25.610  27.795  1.00  0.00     0.029 A 
ATOM     47  C   UNL A   1      41.798  25.868  28.284  1.00  0.00     0.049 A 
ATOM     48  H   UNL A   1      42.518  27.616  29.162  1.00  0.00     0.167 HD
ATOM     49  C   UNL A   1      43.875  31.476  30.867  1.00  0.00     0.031 A 
ATOM     50  C   UNL A   1      42.826  24.998  28.246  1.00  0.00     0.031 A 
ATOM     51  C   UNL A   1      45.017  30.607  30.909  1.00  0.00     0.049 A 
ATOM     52  C   UNL A   1      44.151  25.433  28.812  1.00  0.00     0.074 A 
ATOM     53  C   UNL A   1      46.279  30.862  31.413  1.00  0.00     0.029 A 
ATOM     54  N   UNL A   1      45.020  29.299  30.447  1.00  0.00    -0.354 N 
ATOM     55  N   UNL A   1      44.483  26.592  29.336  1.00  0.00    -0.248 NA
ATOM     56  C   UNL A   1      45.236  24.444  28.797  1.00  0.00     0.031 C 
ATOM     57  C   UNL A   1      47.055  29.712  31.229  1.00  0.00     0.029 A 
ATOM     58  C   UNL A   1      46.264  28.730  30.652  1.00  0.00     0.049 A 
ATOM     59  H   UNL A   1      44.252  28.843  30.033  1.00  0.00     0.167 HD
ATOM     60  C   UNL A   1      45.807  26.460  29.735  1.00  0.00     0.074 A 
ATOM     61  C   UNL A   1      46.210  25.107  29.406  1.00  0.00     0.031 C 
ATOM     62  C   UNL A   1      46.622  27.375  30.318  1.00  0.00     0.031 A 
BRANCH  49  63
ATOM     63  C   UNL A   1      44.001  32.892  31.369  1.00  0.00    -0.014 A 
ATOM     64  C   UNL A   1      43.741  33.210  32.716  1.00  0.00     0.010 A 
ATOM     65  C   UNL A   1      44.364  33.922  30.484  1.00  0.00     0.010 A 
ATOM     66  C   UNL A   1      43.774  34.536  33.152  1.00  0.00     0.020 A 
ATOM     67  C   UNL A   1      44.431  35.249  30.925  1.00  0.00     0.020 A 
ATOM     68  C   UNL A   1      44.110  35.549  32.250  1.00  0.00     0.054 A 
BRANCH  68  69
ATOM     69  S   UNL A   1      44.137  37.265  32.839  1.00  0.00     0.124 S 
ATOM     70  O   UNL A   1      45.444  37.338  33.488  1.00  0.00    -0.237 OA
ATOM     71  O   UNL A   1      44.008  38.032  31.603  1.00  0.00    -0.237 OA
ATOM     72  O   UNL A   1      42.989  37.340  33.738  1.00  0.00    -0.744 OA
ENDBRANCH  68  69
ENDBRANCH  49  63
BRANCH  50  73
ATOM     73  C   UNL A   1      42.628  23.625  27.705  1.00  0.00    -0.014 A 
ATOM     74  C   UNL A   1      42.958  23.336  26.369  1.00  0.00     0.010 A 
ATOM     75  C   UNL A   1      42.135  22.592  28.523  1.00  0.00     0.010 A 
ATOM     76  C   UNL A   1      42.780  22.048  25.854  1.00  0.00     0.020 A 
ATOM     77  C   UNL A   1      41.979  21.296  28.019  1.00  0.00     0.020 A 
ATOM     78  C   UNL A   1      42.292  21.035  26.684  1.00  0.00     0.054 A 
BRANCH  78  79
ATOM     79  S   UNL A   1      42.116  19.360  26.006  1.00  0.00     0.124 S 
ATOM     80  O   UNL A   1      42.649  18.538  27.088  1.00  0.00    -0.237 OA
ATOM     81  O   UNL A   1      40.676  19.258  25.785  1.00  0.00    -0.237 OA
ATOM     82  O   UNL A   1      42.925  19.397  24.790  1.00  0.00    -0.744 OA
ENDBRANCH  78  79
ENDBRANCH  50  73
BRANCH  62  83
ATOM     83  C   UNL A   1      48.013  26.930  30.667  1.00  0.00    -0.014 A 
ATOM     84  C   UNL A   1      49.081  27.129  29.775  1.00  0.00     0.010 A 
ATOM     85  C   UNL A   1      48.264  26.376  31.936  1.00  0.00     0.010 A 
ATOM     86  C   UNL A   1      50.377  26.759  30.139  1.00  0.00     0.020 A 
ATOM     87  C   UNL A   1      49.562  26.030  32.312  1.00  0.00     0.020 A 
ATOM     88  C   UNL A   1      50.610  26.213  31.406  1.00  0.00     0.054 A 
BRANCH  88  89
ATOM     89  S   UNL A   1      52.309  25.799  31.877  1.00  0.00     0.124 S 
ATOM     90  O   UNL A   1      52.186  24.393  32.254  1.00  0.00    -0.237 OA
ATOM     91  O   UNL A   1      53.056  26.057  30.648  1.00  0.00    -0.237 OA
ATOM     92  O   UNL A   1      52.598  26.717  32.977  1.00  0.00    -0.744 OA
ENDBRANCH  88  89
ENDBRANCH  62  83
ENDBRANCH  36  37
ENDBRANCH  28  31
ENDBRANCH  26  27
ENDBRANCH  25  26
ENDBRANCH   1  25
TORSDOF 19
ENDMDL
MODEL 2
REMARK VINA RESULT:     -11.2      2.634      8.815
REMARK SMILES O=CN[C@@H](CCS[C@@H]1CCO[C@]2(CCOC2)C1)C(=O)NCCCCNC(=O)c1ccc(-c2c3nc(c(-c4ccc(S(=O)(=O)[O-])cc4)c4ccc([nH]4)c(-c4ccc(S(=O)(=O)[O-])cc4)c4nc(c(-c5ccc(S(=O)(=O)[O-])cc5)c5ccc2[nH]5)C=C4)C=C3)cc1
REMARK SMILES IDX 22 1 21 2 20 3 18 4 19 5 4 7 3 8 1 9 2 10 5 12 6 13 7 14
REMARK SMILES IDX 8 15 9 16 17 17 10 18 12 19 11 20 13 21 16 22 14 23 15 24
REMARK SMILES IDX 23 25 24 26 25 27 26 28 27 30 28 31 29 32 87 33 30 34 86 35
REMARK SMILES IDX 31 36 32 37 33 38 80 39 34 40 85 41 79 42 81 43 35 44 84 45
REMARK SMILES IDX 78 46 77 47 36 49 66 50 47 51 65 52 48 53 51 54 64 55 82 56
REMARK SMILES IDX 49 57 50 58 63 60 83 61 52 62 37 63 38 64 46 65 39 66 45 67
REMARK SMILES IDX 40 68 41 69 42 70 43 71 44 72 67 73 68 74 76 75 69 76 75 77
REMARK SMILES IDX 70 78 71 79 72 80 73 81 74 82 53 83 54 84 62 85 55 86 61 87
REMARK SMILES IDX 56 88 57 89 58 90 59 91 60 92
REMARK H PARENT 20 6 3 11 25 29 81 48 51 59
REMARK Flexibility Score: inf
ROOT
ATOM      1  C   UNL A   1      35.422  22.093  26.256  1.00  0.00     0.023 C 
ENDROOT
BRANCH   1   2
ATOM      2  C   UNL A   1      35.279  21.068  25.123  1.00  0.00     0.116 C 
BRANCH   2   3
ATOM      3  N   UNL A   1      33.941  20.499  25.006  1.00  0.00    -0.354 N 
ATOM      4  C   UNL A   1      32.658  20.925  24.885  1.00  0.00     0.242 C 
ATOM      5  O   UNL A   1      31.729  20.140  25.036  1.00  0.00    -0.273 OA
ATOM      6  H   UNL A   1      33.980  19.515  25.018  1.00  0.00     0.163 HD
BRANCH   4   7
ATOM      7  C   UNL A   1      32.227  22.315  24.602  1.00  0.00     0.171 C 
BRANCH   7   8
ATOM      8  N   UNL A   1      32.312  22.382  23.157  1.00  0.00    -0.347 N 
ATOM      9  O   UNL A   1      33.643  23.433  21.594  1.00  0.00    -0.279 OA
ATOM     10  C   UNL A   1      32.997  23.472  22.632  1.00  0.00     0.337 C 
ATOM     11  H   UNL A   1      31.908  21.695  22.580  1.00  0.00     0.164 HD
ENDBRANCH   7   8
BRANCH   7  12
ATOM     12  C   UNL A   1      31.014  22.531  25.434  1.00  0.00     0.046 C 
BRANCH  12  13
ATOM     13  C   UNL A   1      30.975  24.032  25.978  1.00  0.00     0.072 C 
BRANCH  13  14
ATOM     14  S   UNL A   1      30.043  25.798  25.661  1.00  0.00    -0.158 SA
BRANCH  14  15
ATOM     15  C   UNL A   1      30.016  26.917  23.947  1.00  0.00     0.052 C 
ATOM     16  C   UNL A   1      31.257  27.080  23.037  1.00  0.00     0.043 C 
ATOM     17  C   UNL A   1      28.840  27.869  23.474  1.00  0.00     0.052 C 
ATOM     18  C   UNL A   1      31.449  28.502  22.468  1.00  0.00     0.162 C 
ATOM     19  C   UNL A   1      29.193  29.212  22.747  1.00  0.00     0.095 C 
ATOM     20  O   UNL A   1      30.268  28.980  21.838  1.00  0.00    -0.372 OA
ATOM     21  C   UNL A   1      29.360  30.503  23.584  1.00  0.00     0.066 C 
ATOM     22  C   UNL A   1      27.992  29.691  21.908  1.00  0.00     0.195 C 
ATOM     23  C   UNL A   1      27.987  31.164  23.645  1.00  0.00     0.163 C 
ATOM     24  O   UNL A   1      27.130  30.394  22.808  1.00  0.00    -0.378 OA
ENDBRANCH  14  15
ENDBRANCH  13  14
ENDBRANCH  12  13
ENDBRANCH   7  12
ENDBRANCH   4   7
ENDBRANCH   2   3
ENDBRANCH   1   2
BRANCH   1  25
ATOM     25  C   UNL A   1      35.545  23.558  25.825  1.00  0.00     0.023 C 
BRANCH  25  26
ATOM     26  C   UNL A   1      36.982  24.066  25.746  1.00  0.00     0.116 C 
BRANCH  26  27
ATOM     27  N   UNL A   1      38.018  23.065  25.611  1.00  0.00    -0.352 N 
ATOM     28  C   UNL A   1      39.288  23.002  26.188  1.00  0.00     0.251 C 
ATOM     29  H   UNL A   1      37.792  22.311  25.019  1.00  0.00     0.163 HD
ATOM     30  O   UNL A   1      39.950  22.008  26.054  1.00  0.00    -0.269 OA
BRANCH  28  31
ATOM     31  C   UNL A   1      39.833  24.192  26.888  1.00  0.00     0.039 A 
ATOM     32  C   UNL A   1      40.467  25.174  26.115  1.00  0.00     0.014 A 
ATOM     33  C   UNL A   1      39.685  24.390  28.258  1.00  0.00     0.014 A 
ATOM     34  C   UNL A   1      40.856  26.381  26.703  1.00  0.00     0.010 A 
ATOM     35  C   UNL A   1      39.935  25.637  28.811  1.00  0.00     0.010 A 
ATOM     36  C   UNL A   1      40.543  26.638  28.046  1.00  0.00    -0.014 A 
BRANCH  36  37
ATOM     37  C   UNL A   1      40.894  27.919  28.707  1.00  0.00     0.031 A 
ATOM     38  C   UNL A   1      42.273  28.084  29.293  1.00  0.00     0.074 A 
ATOM     39  C   UNL A   1      39.962  28.879  28.853  1.00  0.00     0.049 A 
ATOM     40  N   UNL A   1      42.750  29.054  30.027  1.00  0.00    -0.248 NA
ATOM     41  C   UNL A   1      43.225  26.980  29.073  1.00  0.00     0.031 C 
ATOM     42  C   UNL A   1      38.576  28.801  28.380  1.00  0.00     0.029 A 
ATOM     43  N   UNL A   1      40.037  30.115  29.442  1.00  0.00    -0.354 N 
ATOM     44  C   UNL A   1      44.031  28.653  30.390  1.00  0.00     0.074 A 
ATOM     45  C   UNL A   1      44.228  27.322  29.865  1.00  0.00     0.031 C 
ATOM     46  C   UNL A   1      37.951  29.960  28.650  1.00  0.00     0.029 A 
ATOM     47  C   UNL A   1      38.874  30.844  29.350  1.00  0.00     0.049 A 
ATOM     48  H   UNL A   1      40.849  30.450  29.888  1.00  0.00     0.167 HD
ATOM     49  C   UNL A   1      44.978  29.346  31.064  1.00  0.00     0.031 A 
ATOM     50  C   UNL A   1      38.594  32.090  29.778  1.00  0.00     0.031 A 
ATOM     51  C   UNL A   1      44.789  30.695  31.518  1.00  0.00     0.049 A 
ATOM     52  C   UNL A   1      39.679  32.867  30.474  1.00  0.00     0.074 A 
ATOM     53  C   UNL A   1      45.693  31.529  32.149  1.00  0.00     0.029 A 
ATOM     54  N   UNL A   1      43.612  31.414  31.363  1.00  0.00    -0.354 N 
ATOM     55  N   UNL A   1      40.903  32.490  30.768  1.00  0.00    -0.248 NA
ATOM     56  C   UNL A   1      39.354  34.239  30.885  1.00  0.00     0.031 C 
ATOM     57  C   UNL A   1      45.051  32.748  32.400  1.00  0.00     0.029 A 
ATOM     58  C   UNL A   1      43.764  32.685  31.887  1.00  0.00     0.049 A 
ATOM     59  H   UNL A   1      42.791  31.071  30.943  1.00  0.00     0.167 HD
ATOM     60  C   UNL A   1      41.501  33.588  31.375  1.00  0.00     0.074 A 
ATOM     61  C   UNL A   1      40.509  34.646  31.392  1.00  0.00     0.031 C 
ATOM     62  C   UNL A   1      42.755  33.713  31.877  1.00  0.00     0.031 A 
BRANCH  49  63
ATOM     63  C   UNL A   1      46.292  28.655  31.319  1.00  0.00    -0.014 A 
ATOM     64  C   UNL A   1      47.338  28.712  30.377  1.00  0.00     0.010 A 
ATOM     65  C   UNL A   1      46.483  27.922  32.504  1.00  0.00     0.010 A 
ATOM     66  C   UNL A   1      48.519  27.996  30.582  1.00  0.00     0.020 A 
ATOM     67  C   UNL A   1      47.678  27.230  32.728  1.00  0.00     0.020 A 
ATOM     68  C   UNL A   1      48.677  27.250  31.753  1.00  0.00     0.054 A 
BRANCH  68  69
ATOM     69  S   UNL A   1      50.217  26.321  31.991  1.00  0.00     0.124 S 
ATOM     70  O   UNL A   1      50.086  25.262  30.993  1.00  0.00    -0.237 OA
ATOM     71  O   UNL A   1      51.244  27.322  31.710  1.00  0.00    -0.237 OA
ATOM     72  O   UNL A   1      50.145  25.881  33.381  1.00  0.00    -0.744 OA
ENDBRANCH  68  69
ENDBRANCH  49  63
BRANCH  50  73
ATOM     73  C   UNL A   1      37.259  32.693  29.513  1.00  0.00    -0.014 A 
ATOM     74  C   UNL A   1      36.272  32.697  30.515  1.00  0.00     0.010 A 
ATOM     75  C   UNL A   1      36.969  33.288  28.271  1.00  0.00     0.010 A 
ATOM     76  C   UNL A   1      35.017  33.265  30.277  1.00  0.00     0.020 A 
ATOM     77  C   UNL A   1      35.723  33.880  28.037  1.00  0.00     0.020 A 
ATOM     78  C   UNL A   1      34.751  33.855  29.038  1.00  0.00     0.054 A 
BRANCH  78  79
ATOM     79  S   UNL A   1      33.131  34.629  28.768  1.00  0.00     0.124 S 
ATOM     80  O   UNL A   1      32.577  34.651  30.118  1.00  0.00    -0.237 OA
ATOM     81  O   UNL A   1      33.491  35.930  28.211  1.00  0.00    -0.237 OA
ATOM     82  O   UNL A   1      32.469  33.721  27.834  1.00  0.00    -0.744 OA
ENDBRANCH  78  79
ENDBRANCH  50  73
BRANCH  62  83
ATOM     83  C   UNL A   1      43.132  35.048  32.453  1.00  0.00    -0.014 A 
ATOM     84  C   UNL A   1      43.851  35.987  31.694  1.00  0.00     0.010 A 
ATOM     85  C   UNL A   1      42.691  35.392  33.744  1.00  0.00     0.010 A 
ATOM     86  C   UNL A   1      44.143  37.243  32.227  1.00  0.00     0.020 A 
ATOM     87  C   UNL A   1      42.959  36.657  34.269  1.00  0.00     0.020 A 
ATOM     88  C   UNL A   1      43.694  37.571  33.511  1.00  0.00     0.054 A 
BRANCH  88  89
ATOM     89  S   UNL A   1      44.034  39.230  34.155  1.00  0.00     0.124 S 
ATOM     90  O   UNL A   1      44.131  38.983  35.592  1.00  0.00    -0.237 OA
ATOM     91  O   UNL A   1      45.287  39.582  33.491  1.00  0.00    -0.237 OA
ATOM     92  O   UNL A   1      42.873  40.010  33.734  1.00  0.00    -0.744 OA
ENDBRANCH  88  89
ENDBRANCH  62  83
ENDBRANCH  36  37
ENDBRANCH  28  31
ENDBRANCH  26  27
ENDBRANCH  25  26
ENDBRANCH   1  25
TORSDOF 19
ENDMDL
MODEL 3
REMARK VINA RESULT:     -11.2      2.953      9.099
REMARK SMILES O=CN[C@@H](CCS[C@@H]1CCO[C@]2(CCOC2)C1)C(=O)NCCCCNC(=O)c1ccc(-c2c3nc(c(-c4ccc(S(=O)(=O)[O-])cc4)c4ccc([nH]4)c(-c4ccc(S(=O)(=O)[O-])cc4)c4nc(c(-c5ccc(S(=O)(=O)[O-])cc5)c5ccc2[nH]5)C=C4)C=C3)cc1
REMARK SMILES IDX 22 1 21 2 20 3 18 4 19 5 4 7 3 8 1 9 2 10 5 12 6 13 7 14
REMARK SMILES IDX 8 15 9 16 17 17 10 18 12 19 11 20 13 21 16 22 14 23 15 24
REMARK SMILES IDX 23 25 24 26 25 27 26 28 27 30 28 31 29 32 87 33 30 34 86 35
REMARK SMILES IDX 31 36 32 37 33 38 80 39 34 40 85 41 79 42 81 43 35 44 84 45
REMARK SMILES IDX 78 46 77 47 36 49 66 50 47 51 65 52 48 53 51 54 64 55 82 56
REMARK SMILES IDX 49 57 50 58 63 60 83 61 52 62 37 63 38 64 46 65 39 66 45 67
REMARK SMILES IDX 40 68 41 69 42 70 43 71 44 72 67 73 68 74 76 75 69 76 75 77
REMARK SMILES IDX 70 78 71 79 72 80 73 81 74 82 53 83 54 84 62 85 55 86 61 87
REMARK SMILES IDX 56 88 57 89 58 90 59 91 60 92
REMARK H PARENT 20 6 3 11 25 29 81 48 51 59
REMARK Flexibility Score: inf
ROOT
ATOM      1  C   UNL A   1      35.139  22.783  26.258  1.00  0.00     0.023 C 
ENDROOT
BRANCH   1   2
ATOM      2  C   UNL A   1      34.758  21.319  26.513  1.00  0.00     0.116 C 
BRANCH   2   3
ATOM      3  N   UNL A   1      33.349  21.025  26.274  1.00  0.00    -0.354 N 
ATOM      4  C   UNL A   1      32.547  20.636  25.250  1.00  0.00     0.242 C 
ATOM      5  O   UNL A   1      31.328  20.699  25.363  1.00  0.00    -0.273 OA
ATOM      6  H   UNL A   1      32.825  21.143  27.100  1.00  0.00     0.163 HD
BRANCH   4   7
ATOM      7  C   UNL A   1      33.002  20.142  23.929  1.00  0.00     0.171 C 
BRANCH   7   8
ATOM      8  N   UNL A   1      33.320  18.756  24.204  1.00  0.00    -0.347 N 
ATOM      9  O   UNL A   1      33.694  16.837  22.981  1.00  0.00    -0.279 OA
ATOM     10  C   UNL A   1      33.038  17.848  23.191  1.00  0.00     0.337 C 
ATOM     11  H   UNL A   1      33.714  18.473  25.061  1.00  0.00     0.164 HD
ENDBRANCH   7   8
BRANCH   7  12
ATOM     12  C   UNL A   1      32.005  20.651  22.951  1.00  0.00     0.046 C 
BRANCH  12  13
ATOM     13  C   UNL A   1      32.074  22.245  22.867  1.00  0.00     0.072 C 
BRANCH  13  14
ATOM     14  S   UNL A   1      33.372  23.747  22.488  1.00  0.00    -0.158 SA
BRANCH  14  15
ATOM     15  C   UNL A   1      33.200  25.720  23.006  1.00  0.00     0.052 C 
ATOM     16  C   UNL A   1      33.945  26.334  24.216  1.00  0.00     0.043 C 
ATOM     17  C   UNL A   1      32.179  26.761  22.384  1.00  0.00     0.052 C 
ATOM     18  C   UNL A   1      33.111  27.345  25.032  1.00  0.00     0.162 C 
ATOM     19  C   UNL A   1      31.542  27.850  23.314  1.00  0.00     0.095 C 
ATOM     20  O   UNL A   1      32.542  28.348  24.201  1.00  0.00    -0.372 OA
ATOM     21  C   UNL A   1      30.192  27.553  24.011  1.00  0.00     0.066 C 
ATOM     22  C   UNL A   1      31.055  29.046  22.472  1.00  0.00     0.195 C 
ATOM     23  C   UNL A   1      29.097  28.045  23.070  1.00  0.00     0.163 C 
ATOM     24  O   UNL A   1      29.758  28.690  21.984  1.00  0.00    -0.378 OA
ENDBRANCH  14  15
ENDBRANCH  13  14
ENDBRANCH  12  13
ENDBRANCH   7  12
ENDBRANCH   4   7
ENDBRANCH   2   3
ENDBRANCH   1   2
BRANCH   1  25
ATOM     25  C   UNL A   1      35.747  23.091  24.886  1.00  0.00     0.023 C 
BRANCH  25  26
ATOM     26  C   UNL A   1      37.137  23.718  24.947  1.00  0.00     0.116 C 
BRANCH  26  27
ATOM     27  N   UNL A   1      38.235  22.832  25.270  1.00  0.00    -0.352 N 
ATOM     28  C   UNL A   1      39.261  22.979  26.207  1.00  0.00     0.251 C 
ATOM     29  H   UNL A   1      38.263  21.997  24.749  1.00  0.00     0.163 HD
ATOM     30  O   UNL A   1      40.004  22.058  26.418  1.00  0.00    -0.269 OA
BRANCH  28  31
ATOM     31  C   UNL A   1      39.469  24.292  26.865  1.00  0.00     0.039 A 
ATOM     32  C   UNL A   1      38.956  24.467  28.158  1.00  0.00     0.014 A 
ATOM     33  C   UNL A   1      40.198  25.321  26.274  1.00  0.00     0.014 A 
ATOM     34  C   UNL A   1      39.261  25.625  28.879  1.00  0.00     0.010 A 
ATOM     35  C   UNL A   1      40.621  26.399  27.036  1.00  0.00     0.010 A 
ATOM     36  C   UNL A   1      40.139  26.575  28.338  1.00  0.00    -0.014 A 
BRANCH  36  37
ATOM     37  C   UNL A   1      40.529  27.800  29.078  1.00  0.00     0.031 A 
ATOM     38  C   UNL A   1      41.881  27.852  29.743  1.00  0.00     0.074 A 
ATOM     39  C   UNL A   1      39.650  28.810  29.221  1.00  0.00     0.049 A 
ATOM     40  N   UNL A   1      42.374  28.756  30.547  1.00  0.00    -0.248 NA
ATOM     41  C   UNL A   1      42.775  26.701  29.520  1.00  0.00     0.031 C 
ATOM     42  C   UNL A   1      38.290  28.841  28.672  1.00  0.00     0.029 A 
ATOM     43  N   UNL A   1      39.767  30.011  29.871  1.00  0.00    -0.354 N 
ATOM     44  C   UNL A   1      43.606  28.260  30.958  1.00  0.00     0.074 A 
ATOM     45  C   UNL A   1      43.751  26.944  30.380  1.00  0.00     0.031 C 
ATOM     46  C   UNL A   1      37.722  30.024  28.964  1.00  0.00     0.029 A 
ATOM     47  C   UNL A   1      38.657  30.815  29.754  1.00  0.00     0.049 A 
ATOM     48  H   UNL A   1      40.571  30.274  30.376  1.00  0.00     0.167 HD
ATOM     49  C   UNL A   1      44.554  28.861  31.713  1.00  0.00     0.031 A 
ATOM     50  C   UNL A   1      38.429  32.056  30.226  1.00  0.00     0.031 A 
ATOM     51  C   UNL A   1      44.422  30.197  32.222  1.00  0.00     0.049 A 
ATOM     52  C   UNL A   1      39.518  32.731  31.015  1.00  0.00     0.074 A 
ATOM     53  C   UNL A   1      45.338  30.943  32.939  1.00  0.00     0.029 A 
ATOM     54  N   UNL A   1      43.301  30.995  32.040  1.00  0.00    -0.354 N 
ATOM     55  N   UNL A   1      40.699  32.265  31.355  1.00  0.00    -0.248 NA
ATOM     56  C   UNL A   1      39.255  34.100  31.474  1.00  0.00     0.031 C 
ATOM     57  C   UNL A   1      44.758  32.187  33.214  1.00  0.00     0.029 A 
ATOM     58  C   UNL A   1      43.500  32.228  32.632  1.00  0.00     0.049 A 
ATOM     59  H   UNL A   1      42.485  30.723  31.561  1.00  0.00     0.167 HD
ATOM     60  C   UNL A   1      41.328  33.294  32.045  1.00  0.00     0.074 A 
ATOM     61  C   UNL A   1      40.402  34.410  32.061  1.00  0.00     0.031 C 
ATOM     62  C   UNL A   1      42.557  33.317  32.618  1.00  0.00     0.031 A 
BRANCH  49  63
ATOM     63  C   UNL A   1      45.808  28.077  32.004  1.00  0.00    -0.014 A 
ATOM     64  C   UNL A   1      46.921  28.143  31.143  1.00  0.00     0.010 A 
ATOM     65  C   UNL A   1      45.872  27.249  33.138  1.00  0.00     0.010 A 
ATOM     66  C   UNL A   1      48.045  27.346  31.372  1.00  0.00     0.020 A 
ATOM     67  C   UNL A   1      47.010  26.474  33.390  1.00  0.00     0.020 A 
ATOM     68  C   UNL A   1      48.077  26.508  32.490  1.00  0.00     0.054 A 
BRANCH  68  69
ATOM     69  S   UNL A   1      49.545  25.476  32.761  1.00  0.00     0.124 S 
ATOM     70  O   UNL A   1      49.827  24.995  31.410  1.00  0.00    -0.237 OA
ATOM     71  O   UNL A   1      50.513  26.428  33.301  1.00  0.00    -0.237 OA
ATOM     72  O   UNL A   1      49.085  24.460  33.702  1.00  0.00    -0.744 OA
ENDBRANCH  68  69
ENDBRANCH  49  63
BRANCH  50  73
ATOM     73  C   UNL A   1      37.149  32.753  29.920  1.00  0.00    -0.014 A 
ATOM     74  C   UNL A   1      36.075  32.691  30.826  1.00  0.00     0.010 A 
ATOM     75  C   UNL A   1      37.000  33.503  28.739  1.00  0.00     0.010 A 
ATOM     76  C   UNL A   1      34.871  33.346  30.549  1.00  0.00     0.020 A 
ATOM     77  C   UNL A   1      35.806  34.181  28.470  1.00  0.00     0.020 A 
ATOM     78  C   UNL A   1      34.745  34.088  29.372  1.00  0.00     0.054 A 
BRANCH  78  79
ATOM     79  S   UNL A   1      33.190  34.971  29.058  1.00  0.00     0.124 S 
ATOM     80  O   UNL A   1      33.666  36.265  28.582  1.00  0.00    -0.237 OA
ATOM     81  O   UNL A   1      32.544  34.127  28.056  1.00  0.00    -0.237 OA
ATOM     82  O   UNL A   1      32.536  34.985  30.364  1.00  0.00    -0.744 OA
ENDBRANCH  78  79
ENDBRANCH  50  73
BRANCH  62  83
ATOM     83  C   UNL A   1      42.981  34.599  33.277  1.00  0.00    -0.014 A 
ATOM     84  C   UNL A   1      42.744  34.822  34.644  1.00  0.00     0.010 A 
ATOM     85  C   UNL A   1      43.697  35.554  32.533  1.00  0.00     0.010 A 
ATOM     86  C   UNL A   1      43.195  35.995  35.251  1.00  0.00     0.020 A 
ATOM     87  C   UNL A   1      44.172  36.715  33.144  1.00  0.00     0.020 A 
ATOM     88  C   UNL A   1      43.908  36.933  34.498  1.00  0.00     0.054 A 
BRANCH  88  89
ATOM     89  S   UNL A   1      44.536  38.418  35.325  1.00  0.00     0.124 S 
ATOM     90  O   UNL A   1      43.813  39.481  34.631  1.00  0.00    -0.237 OA
ATOM     91  O   UNL A   1      44.148  38.199  36.717  1.00  0.00    -0.237 OA
ATOM     92  O   UNL A   1      45.974  38.374  35.072  1.00  0.00    -0.744 OA
ENDBRANCH  88  89
ENDBRANCH  62  83
ENDBRANCH  36  37
ENDBRANCH  28  31
ENDBRANCH  26  27
ENDBRANCH  25  26
ENDBRANCH   1  25
TORSDOF 19
ENDMDL
