MODEL 1
REMARK VINA RESULT:     -10.2      0.000      0.000
REMARK SMILES C[C@H](CC[NH2+][C@@H]1CCOC2(CCCC2)C1)CCC(=O)NCCCCNC(=O)c1ccc(-c2c3nc(c(-c4ccc(S(=O)(=O)[O-])cc4)c4ccc([nH]4)c(-c4ccc(S(=O)(=O)[O-])cc4)c4nc(c(-c5ccc(S(=O)(=O)[O-])cc5)c5ccc2[nH]5)C=C4)C=C3)cc1
REMARK SMILES IDX 21 1 20 2 18 3 19 4 17 6 16 7 2 8 1 9 3 10 4 11 5 12 6 15
REMARK SMILES IDX 7 16 15 17 8 18 10 19 9 20 11 21 14 22 12 23 13 24 22 25
REMARK SMILES IDX 23 26 24 27 25 28 26 29 27 31 28 32 29 33 87 34 30 35 86 36
REMARK SMILES IDX 31 37 32 38 33 39 80 40 34 41 85 42 79 43 81 44 35 45 84 46
REMARK SMILES IDX 78 47 77 48 36 50 66 51 47 52 65 53 48 54 51 55 64 56 82 57
REMARK SMILES IDX 49 58 50 59 63 61 83 62 52 63 37 64 38 65 46 66 39 67 45 68
REMARK SMILES IDX 40 69 41 70 42 71 43 72 44 73 67 74 68 75 76 76 69 77 75 78
REMARK SMILES IDX 70 79 71 80 72 81 73 82 74 83 53 84 54 85 62 86 55 87 61 88
REMARK SMILES IDX 56 89 57 90 58 91 59 92 60 93
REMARK H PARENT 20 5 5 13 5 14 25 30 81 49 51 60
REMARK Flexibility Score: inf
ROOT
ATOM      1  C   UNL A   1      35.367  21.135  25.276  1.00  0.00     0.116 C 
ENDROOT
BRANCH   1   2
ATOM      2  N   UNL A   1      34.277  20.188  25.123  1.00  0.00    -0.356 N 
ATOM      3  C   UNL A   1      32.939  20.349  25.309  1.00  0.00     0.220 C 
ATOM      4  O   UNL A   1      32.202  19.373  25.154  1.00  0.00    -0.275 OA
ATOM      5  H   UNL A   1      34.550  19.285  24.841  1.00  0.00     0.163 HD
BRANCH   3   6
ATOM      6  C   UNL A   1      32.361  21.693  25.706  1.00  0.00     0.100 C 
BRANCH   6   7
ATOM      7  C   UNL A   1      31.951  22.530  24.487  1.00  0.00     0.013 C 
BRANCH   7   8
ATOM      8  C   UNL A   1      32.274  24.037  24.597  1.00  0.00    -0.008 C 
ATOM      9  C   UNL A   1      32.710  24.592  23.242  1.00  0.00     0.008 C 
BRANCH   8  10
ATOM     10  C   UNL A   1      33.259  24.293  25.754  1.00  0.00     0.064 C 
BRANCH  10  11
ATOM     11  C   UNL A   1      34.108  25.563  25.736  1.00  0.00     0.261 C 
BRANCH  11  12
ATOM     12  N   UNL A   1      33.429  26.717  26.305  1.00  0.00    -0.344 N 
ATOM     13  H   UNL A   1      33.622  26.726  27.306  1.00  0.00     0.346 HD
ATOM     14  H   UNL A   1      32.445  26.595  26.062  1.00  0.00     0.346 HD
BRANCH  12  15
ATOM     15  C   UNL A   1      33.803  28.039  25.762  1.00  0.00     0.187 C 
ATOM     16  C   UNL A   1      33.444  29.303  26.560  1.00  0.00     0.093 C 
ATOM     17  C   UNL A   1      33.230  28.203  24.341  1.00  0.00     0.100 C 
ATOM     18  C   UNL A   1      31.974  29.689  26.465  1.00  0.00     0.167 C 
ATOM     19  C   UNL A   1      31.730  28.557  24.336  1.00  0.00     0.074 C 
ATOM     20  O   UNL A   1      31.505  29.735  25.126  1.00  0.00    -0.375 OA
ATOM     21  C   UNL A   1      31.240  28.935  22.918  1.00  0.00     0.036 C 
ATOM     22  C   UNL A   1      30.834  27.364  24.750  1.00  0.00     0.036 C 
ATOM     23  C   UNL A   1      30.341  27.798  22.461  1.00  0.00     0.003 C 
ATOM     24  C   UNL A   1      29.690  27.331  23.746  1.00  0.00     0.003 C 
ENDBRANCH  12  15
ENDBRANCH  11  12
ENDBRANCH  10  11
ENDBRANCH   8  10
ENDBRANCH   7   8
ENDBRANCH   6   7
ENDBRANCH   3   6
ENDBRANCH   1   2
BRANCH   1  25
ATOM     25  C   UNL A   1      35.567  21.968  24.008  1.00  0.00     0.023 C 
BRANCH  25  26
ATOM     26  C   UNL A   1      36.478  23.174  24.169  1.00  0.00     0.023 C 
BRANCH  26  27
ATOM     27  C   UNL A   1      37.147  23.281  25.526  1.00  0.00     0.116 C 
BRANCH  27  28
ATOM     28  N   UNL A   1      38.406  22.552  25.628  1.00  0.00    -0.352 N 
ATOM     29  C   UNL A   1      39.583  22.982  26.203  1.00  0.00     0.251 C 
ATOM     30  H   UNL A   1      38.416  21.646  25.242  1.00  0.00     0.163 HD
ATOM     31  O   UNL A   1      40.595  22.290  26.162  1.00  0.00    -0.269 OA
BRANCH  29  32
ATOM     32  C   UNL A   1      39.610  24.327  26.817  1.00  0.00     0.039 A 
ATOM     33  C   UNL A   1      39.104  24.495  28.107  1.00  0.00     0.014 A 
ATOM     34  C   UNL A   1      40.274  25.373  26.173  1.00  0.00     0.014 A 
ATOM     35  C   UNL A   1      39.363  25.683  28.796  1.00  0.00     0.010 A 
ATOM     36  C   UNL A   1      40.619  26.508  26.896  1.00  0.00     0.010 A 
ATOM     37  C   UNL A   1      40.175  26.673  28.218  1.00  0.00    -0.014 A 
BRANCH  37  38
ATOM     38  C   UNL A   1      40.589  27.887  28.969  1.00  0.00     0.031 A 
ATOM     39  C   UNL A   1      41.919  27.908  29.676  1.00  0.00     0.074 A 
ATOM     40  C   UNL A   1      39.737  28.924  29.106  1.00  0.00     0.049 A 
ATOM     41  N   UNL A   1      42.410  28.811  30.484  1.00  0.00    -0.248 NA
ATOM     42  C   UNL A   1      42.794  26.740  29.478  1.00  0.00     0.031 C 
ATOM     43  C   UNL A   1      38.394  29.008  28.524  1.00  0.00     0.029 A 
ATOM     44  N   UNL A   1      39.869  30.107  29.792  1.00  0.00    -0.354 N 
ATOM     45  C   UNL A   1      43.628  28.304  30.919  1.00  0.00     0.074 A 
ATOM     46  C   UNL A   1      43.779  26.993  30.326  1.00  0.00     0.031 C 
ATOM     47  C   UNL A   1      37.841  30.186  28.855  1.00  0.00     0.029 A 
ATOM     48  C   UNL A   1      38.768  30.926  29.705  1.00  0.00     0.049 A 
ATOM     49  H   UNL A   1      40.680  30.346  30.300  1.00  0.00     0.167 HD
ATOM     50  C   UNL A   1      44.551  28.883  31.722  1.00  0.00     0.031 A 
ATOM     51  C   UNL A   1      38.527  32.134  30.253  1.00  0.00     0.031 A 
ATOM     52  C   UNL A   1      44.422  30.202  32.275  1.00  0.00     0.049 A 
ATOM     53  C   UNL A   1      39.581  32.773  31.116  1.00  0.00     0.074 A 
ATOM     54  C   UNL A   1      45.339  30.911  33.030  1.00  0.00     0.029 A 
ATOM     55  N   UNL A   1      43.309  31.014  32.126  1.00  0.00    -0.354 N 
ATOM     56  N   UNL A   1      40.759  32.305  31.456  1.00  0.00    -0.248 NA
ATOM     57  C   UNL A   1      39.278  34.103  31.662  1.00  0.00     0.031 C 
ATOM     58  C   UNL A   1      44.763  32.140  33.371  1.00  0.00     0.029 A 
ATOM     59  C   UNL A   1      43.508  32.212  32.790  1.00  0.00     0.049 A 
ATOM     60  H   UNL A   1      42.497  30.775  31.623  1.00  0.00     0.167 HD
ATOM     61  C   UNL A   1      41.345  33.294  32.239  1.00  0.00     0.074 A 
ATOM     62  C   UNL A   1      40.400  34.389  32.309  1.00  0.00     0.031 C 
ATOM     63  C   UNL A   1      42.557  33.293  32.844  1.00  0.00     0.031 A 
BRANCH  50  64
ATOM     64  C   UNL A   1      45.788  28.087  32.041  1.00  0.00    -0.014 A 
ATOM     65  C   UNL A   1      46.913  28.124  31.197  1.00  0.00     0.010 A 
ATOM     66  C   UNL A   1      45.834  27.307  33.212  1.00  0.00     0.010 A 
ATOM     67  C   UNL A   1      48.043  27.359  31.491  1.00  0.00     0.020 A 
ATOM     68  C   UNL A   1      46.975  26.562  33.524  1.00  0.00     0.020 A 
ATOM     69  C   UNL A   1      48.064  26.578  32.650  1.00  0.00     0.054 A 
BRANCH  69  70
ATOM     70  S   UNL A   1      49.550  25.605  33.016  1.00  0.00     0.124 S 
ATOM     71  O   UNL A   1      50.106  25.393  31.682  1.00  0.00    -0.237 OA
ATOM     72  O   UNL A   1      50.318  26.501  33.879  1.00  0.00    -0.237 OA
ATOM     73  O   UNL A   1      49.029  24.409  33.672  1.00  0.00    -0.744 OA
ENDBRANCH  69  70
ENDBRANCH  50  64
BRANCH  51  74
ATOM     74  C   UNL A   1      37.237  32.829  29.988  1.00  0.00    -0.014 A 
ATOM     75  C   UNL A   1      37.111  33.696  28.888  1.00  0.00     0.010 A 
ATOM     76  C   UNL A   1      36.128  32.625  30.828  1.00  0.00     0.010 A 
ATOM     77  C   UNL A   1      35.904  34.358  28.641  1.00  0.00     0.020 A 
ATOM     78  C   UNL A   1      34.912  33.266  30.569  1.00  0.00     0.020 A 
ATOM     79  C   UNL A   1      34.811  34.138  29.484  1.00  0.00     0.054 A 
BRANCH  79  80
ATOM     80  S   UNL A   1      33.239  34.965  29.115  1.00  0.00     0.124 S 
ATOM     81  O   UNL A   1      33.686  36.274  28.650  1.00  0.00    -0.237 OA
ATOM     82  O   UNL A   1      32.654  34.096  28.094  1.00  0.00    -0.237 OA
ATOM     83  O   UNL A   1      32.541  34.957  30.400  1.00  0.00    -0.744 OA
ENDBRANCH  79  80
ENDBRANCH  51  74
BRANCH  63  84
ATOM     84  C   UNL A   1      42.949  34.523  33.616  1.00  0.00    -0.014 A 
ATOM     85  C   UNL A   1      42.755  34.599  35.005  1.00  0.00     0.010 A 
ATOM     86  C   UNL A   1      43.593  35.583  32.950  1.00  0.00     0.010 A 
ATOM     87  C   UNL A   1      43.183  35.722  35.715  1.00  0.00     0.020 A 
ATOM     88  C   UNL A   1      44.042  36.698  33.662  1.00  0.00     0.020 A 
ATOM     89  C   UNL A   1      43.826  36.764  35.039  1.00  0.00     0.054 A 
BRANCH  89  90
ATOM     90  S   UNL A   1      44.431  38.183  35.994  1.00  0.00     0.124 S 
ATOM     91  O   UNL A   1      45.857  37.890  36.102  1.00  0.00    -0.237 OA
ATOM     92  O   UNL A   1      44.085  39.317  35.140  1.00  0.00    -0.237 OA
ATOM     93  O   UNL A   1      43.682  38.102  37.246  1.00  0.00    -0.744 OA
ENDBRANCH  89  90
ENDBRANCH  63  84
ENDBRANCH  37  38
ENDBRANCH  29  32
ENDBRANCH  27  28
ENDBRANCH  26  27
ENDBRANCH  25  26
ENDBRANCH   1  25
TORSDOF 20
ENDMDL
MODEL 2
REMARK VINA RESULT:      -9.4      4.580     10.196
REMARK SMILES C[C@H](CC[NH2+][C@@H]1CCOC2(CCCC2)C1)CCC(=O)NCCCCNC(=O)c1ccc(-c2c3nc(c(-c4ccc(S(=O)(=O)[O-])cc4)c4ccc([nH]4)c(-c4ccc(S(=O)(=O)[O-])cc4)c4nc(c(-c5ccc(S(=O)(=O)[O-])cc5)c5ccc2[nH]5)C=C4)C=C3)cc1
REMARK SMILES IDX 21 1 20 2 18 3 19 4 17 6 16 7 2 8 1 9 3 10 4 11 5 12 6 15
REMARK SMILES IDX 7 16 15 17 8 18 10 19 9 20 11 21 14 22 12 23 13 24 22 25
REMARK SMILES IDX 23 26 24 27 25 28 26 29 27 31 28 32 29 33 87 34 30 35 86 36
REMARK SMILES IDX 31 37 32 38 33 39 80 40 34 41 85 42 79 43 81 44 35 45 84 46
REMARK SMILES IDX 78 47 77 48 36 50 66 51 47 52 65 53 48 54 51 55 64 56 82 57
REMARK SMILES IDX 49 58 50 59 63 61 83 62 52 63 37 64 38 65 46 66 39 67 45 68
REMARK SMILES IDX 40 69 41 70 42 71 43 72 44 73 67 74 68 75 76 76 69 77 75 78
REMARK SMILES IDX 70 79 71 80 72 81 73 82 74 83 53 84 54 85 62 86 55 87 61 88
REMARK SMILES IDX 56 89 57 90 58 91 59 92 60 93
REMARK H PARENT 20 5 5 13 5 14 25 30 81 49 51 60
REMARK Flexibility Score: inf
ROOT
ATOM      1  C   UNL A   1      35.262  31.255  27.629  1.00  0.00     0.116 C 
ENDROOT
BRANCH   1   2
ATOM      2  N   UNL A   1      33.834  31.305  27.370  1.00  0.00    -0.356 N 
ATOM      3  C   UNL A   1      32.951  30.301  27.121  1.00  0.00     0.220 C 
ATOM      4  O   UNL A   1      31.776  30.595  26.888  1.00  0.00    -0.275 OA
ATOM      5  H   UNL A   1      33.444  32.208  27.375  1.00  0.00     0.163 HD
BRANCH   3   6
ATOM      6  C   UNL A   1      33.394  28.851  27.119  1.00  0.00     0.100 C 
BRANCH   6   7
ATOM      7  C   UNL A   1      33.865  28.390  25.733  1.00  0.00     0.013 C 
BRANCH   7   8
ATOM      8  C   UNL A   1      32.933  27.373  25.037  1.00  0.00    -0.008 C 
ATOM      9  C   UNL A   1      31.720  27.069  25.916  1.00  0.00     0.008 C 
BRANCH   8  10
ATOM     10  C   UNL A   1      33.731  26.138  24.579  1.00  0.00     0.064 C 
BRANCH  10  11
ATOM     11  C   UNL A   1      34.311  25.198  25.635  1.00  0.00     0.261 C 
BRANCH  11  12
ATOM     12  N   UNL A   1      35.435  24.412  25.151  1.00  0.00    -0.344 N 
ATOM     13  H   UNL A   1      36.211  25.053  24.985  1.00  0.00     0.346 HD
ATOM     14  H   UNL A   1      35.090  23.937  24.316  1.00  0.00     0.346 HD
BRANCH  12  15
ATOM     15  C   UNL A   1      35.922  23.337  26.039  1.00  0.00     0.187 C 
ATOM     16  C   UNL A   1      37.131  22.494  25.598  1.00  0.00     0.093 C 
ATOM     17  C   UNL A   1      34.771  22.367  26.368  1.00  0.00     0.100 C 
ATOM     18  C   UNL A   1      36.798  21.455  24.535  1.00  0.00     0.167 C 
ATOM     19  C   UNL A   1      34.476  21.376  25.226  1.00  0.00     0.074 C 
ATOM     20  O   UNL A   1      35.673  20.661  24.879  1.00  0.00    -0.375 OA
ATOM     21  C   UNL A   1      33.477  20.279  25.668  1.00  0.00     0.036 C 
ATOM     22  C   UNL A   1      33.795  22.051  24.010  1.00  0.00     0.036 C 
ATOM     23  C   UNL A   1      32.180  20.561  24.928  1.00  0.00     0.003 C 
ATOM     24  C   UNL A   1      32.650  21.131  23.606  1.00  0.00     0.003 C 
ENDBRANCH  12  15
ENDBRANCH  11  12
ENDBRANCH  10  11
ENDBRANCH   8  10
ENDBRANCH   7   8
ENDBRANCH   6   7
ENDBRANCH   3   6
ENDBRANCH   1   2
BRANCH   1  25
ATOM     25  C   UNL A   1      35.802  32.624  28.050  1.00  0.00     0.023 C 
BRANCH  25  26
ATOM     26  C   UNL A   1      35.367  33.088  29.432  1.00  0.00     0.023 C 
BRANCH  26  27
ATOM     27  C   UNL A   1      36.310  32.696  30.553  1.00  0.00     0.116 C 
BRANCH  27  28
ATOM     28  N   UNL A   1      36.018  31.398  31.151  1.00  0.00    -0.352 N 
ATOM     29  C   UNL A   1      36.829  30.284  31.183  1.00  0.00     0.251 C 
ATOM     30  H   UNL A   1      35.138  31.308  31.583  1.00  0.00     0.163 HD
ATOM     31  O   UNL A   1      36.432  29.227  31.663  1.00  0.00    -0.269 OA
BRANCH  29  32
ATOM     32  C   UNL A   1      38.170  30.379  30.566  1.00  0.00     0.039 A 
ATOM     33  C   UNL A   1      39.293  30.461  31.392  1.00  0.00     0.014 A 
ATOM     34  C   UNL A   1      38.314  30.229  29.186  1.00  0.00     0.014 A 
ATOM     35  C   UNL A   1      40.565  30.282  30.840  1.00  0.00     0.010 A 
ATOM     36  C   UNL A   1      39.568  29.948  28.658  1.00  0.00     0.010 A 
ATOM     37  C   UNL A   1      40.706  29.962  29.480  1.00  0.00    -0.014 A 
BRANCH  37  38
ATOM     38  C   UNL A   1      42.027  29.627  28.886  1.00  0.00     0.031 A 
ATOM     39  C   UNL A   1      42.281  28.233  28.373  1.00  0.00     0.074 A 
ATOM     40  C   UNL A   1      43.027  30.532  28.899  1.00  0.00     0.049 A 
ATOM     41  N   UNL A   1      43.395  27.705  27.937  1.00  0.00    -0.248 NA
ATOM     42  C   UNL A   1      41.140  27.302  28.390  1.00  0.00     0.031 C 
ATOM     43  C   UNL A   1      42.934  31.899  29.422  1.00  0.00     0.029 A 
ATOM     44  N   UNL A   1      44.329  30.435  28.471  1.00  0.00    -0.354 N 
ATOM     45  C   UNL A   1      43.098  26.374  27.667  1.00  0.00     0.074 A 
ATOM     46  C   UNL A   1      41.715  26.163  28.034  1.00  0.00     0.031 C 
ATOM     47  C   UNL A   1      44.116  32.517  29.259  1.00  0.00     0.029 A 
ATOM     48  C   UNL A   1      45.063  31.582  28.659  1.00  0.00     0.049 A 
ATOM     49  H   UNL A   1      44.701  29.617  28.066  1.00  0.00     0.167 HD
ATOM     50  C   UNL A   1      43.896  25.416  27.140  1.00  0.00     0.031 A 
ATOM     51  C   UNL A   1      46.356  31.852  28.387  1.00  0.00     0.031 A 
ATOM     52  C   UNL A   1      45.256  25.636  26.735  1.00  0.00     0.049 A 
ATOM     53  C   UNL A   1      47.215  30.782  27.772  1.00  0.00     0.074 A 
ATOM     54  C   UNL A   1      46.121  24.754  26.112  1.00  0.00     0.029 A 
ATOM     55  N   UNL A   1      45.947  26.826  26.903  1.00  0.00    -0.354 N 
ATOM     56  N   UNL A   1      46.894  29.549  27.457  1.00  0.00    -0.248 NA
ATOM     57  C   UNL A   1      48.608  31.140  27.467  1.00  0.00     0.031 C 
ATOM     58  C   UNL A   1      47.350  25.400  25.939  1.00  0.00     0.029 A 
ATOM     59  C   UNL A   1      47.234  26.696  26.413  1.00  0.00     0.049 A 
ATOM     60  H   UNL A   1      45.578  27.641  27.312  1.00  0.00     0.167 HD
ATOM     61  C   UNL A   1      48.039  28.992  26.898  1.00  0.00     0.074 A 
ATOM     62  C   UNL A   1      49.055  30.024  26.905  1.00  0.00     0.031 C 
ATOM     63  C   UNL A   1      48.230  27.738  26.423  1.00  0.00     0.031 A 
BRANCH  50  64
ATOM     64  C   UNL A   1      43.307  24.042  26.968  1.00  0.00    -0.014 A 
ATOM     65  C   UNL A   1      42.791  23.625  25.728  1.00  0.00     0.010 A 
ATOM     66  C   UNL A   1      43.288  23.149  28.055  1.00  0.00     0.010 A 
ATOM     67  C   UNL A   1      42.222  22.356  25.589  1.00  0.00     0.020 A 
ATOM     68  C   UNL A   1      42.746  21.869  27.912  1.00  0.00     0.020 A 
ATOM     69  C   UNL A   1      42.198  21.489  26.685  1.00  0.00     0.054 A 
BRANCH  69  70
ATOM     70  S   UNL A   1      41.467  19.842  26.474  1.00  0.00     0.124 S 
ATOM     71  O   UNL A   1      41.752  19.221  27.765  1.00  0.00    -0.237 OA
ATOM     72  O   UNL A   1      40.061  20.144  26.220  1.00  0.00    -0.237 OA
ATOM     73  O   UNL A   1      42.196  19.282  25.339  1.00  0.00    -0.744 OA
ENDBRANCH  69  70
ENDBRANCH  50  64
BRANCH  51  74
ATOM     74  C   UNL A   1      46.914  33.201  28.680  1.00  0.00    -0.014 A 
ATOM     75  C   UNL A   1      46.674  34.274  27.802  1.00  0.00     0.010 A 
ATOM     76  C   UNL A   1      47.682  33.423  29.837  1.00  0.00     0.010 A 
ATOM     77  C   UNL A   1      47.204  35.540  28.068  1.00  0.00     0.020 A 
ATOM     78  C   UNL A   1      48.192  34.694  30.119  1.00  0.00     0.020 A 
ATOM     79  C   UNL A   1      47.960  35.742  29.227  1.00  0.00     0.054 A 
BRANCH  79  80
ATOM     80  S   UNL A   1      48.594  37.405  29.581  1.00  0.00     0.124 S 
ATOM     81  O   UNL A   1      47.525  37.970  30.398  1.00  0.00    -0.237 OA
ATOM     82  O   UNL A   1      49.846  37.126  30.282  1.00  0.00    -0.237 OA
ATOM     83  O   UNL A   1      48.753  37.998  28.254  1.00  0.00    -0.744 OA
ENDBRANCH  79  80
ENDBRANCH  51  74
BRANCH  63  84
ATOM     84  C   UNL A   1      49.579  27.412  25.844  1.00  0.00    -0.014 A 
ATOM     85  C   UNL A   1      50.576  26.806  26.626  1.00  0.00     0.010 A 
ATOM     86  C   UNL A   1      49.821  27.646  24.477  1.00  0.00     0.010 A 
ATOM     87  C   UNL A   1      51.801  26.453  26.055  1.00  0.00     0.020 A 
ATOM     88  C   UNL A   1      51.037  27.273  23.898  1.00  0.00     0.020 A 
ATOM     89  C   UNL A   1      52.022  26.686  24.694  1.00  0.00     0.054 A 
BRANCH  89  90
ATOM     90  S   UNL A   1      53.596  26.159  23.961  1.00  0.00     0.124 S 
ATOM     91  O   UNL A   1      54.482  27.264  24.316  1.00  0.00    -0.237 OA
ATOM     92  O   UNL A   1      53.862  24.895  24.645  1.00  0.00    -0.237 OA
ATOM     93  O   UNL A   1      53.291  26.037  22.537  1.00  0.00    -0.744 OA
ENDBRANCH  89  90
ENDBRANCH  63  84
ENDBRANCH  37  38
ENDBRANCH  29  32
ENDBRANCH  27  28
ENDBRANCH  26  27
ENDBRANCH  25  26
ENDBRANCH   1  25
TORSDOF 20
ENDMDL
MODEL 3
REMARK VINA RESULT:      -9.2      4.492     10.336
REMARK SMILES C[C@H](CC[NH2+][C@@H]1CCOC2(CCCC2)C1)CCC(=O)NCCCCNC(=O)c1ccc(-c2c3nc(c(-c4ccc(S(=O)(=O)[O-])cc4)c4ccc([nH]4)c(-c4ccc(S(=O)(=O)[O-])cc4)c4nc(c(-c5ccc(S(=O)(=O)[O-])cc5)c5ccc2[nH]5)C=C4)C=C3)cc1
REMARK SMILES IDX 21 1 20 2 18 3 19 4 17 6 16 7 2 8 1 9 3 10 4 11 5 12 6 15
REMARK SMILES IDX 7 16 15 17 8 18 10 19 9 20 11 21 14 22 12 23 13 24 22 25
REMARK SMILES IDX 23 26 24 27 25 28 26 29 27 31 28 32 29 33 87 34 30 35 86 36
REMARK SMILES IDX 31 37 32 38 33 39 80 40 34 41 85 42 79 43 81 44 35 45 84 46
REMARK SMILES IDX 78 47 77 48 36 50 66 51 47 52 65 53 48 54 51 55 64 56 82 57
REMARK SMILES IDX 49 58 50 59 63 61 83 62 52 63 37 64 38 65 46 66 39 67 45 68
REMARK SMILES IDX 40 69 41 70 42 71 43 72 44 73 67 74 68 75 76 76 69 77 75 78
REMARK SMILES IDX 70 79 71 80 72 81 73 82 74 83 53 84 54 85 62 86 55 87 61 88
REMARK SMILES IDX 56 89 57 90 58 91 59 92 60 93
REMARK H PARENT 20 5 5 13 5 14 25 30 81 49 51 60
REMARK Flexibility Score: inf
ROOT
ATOM      1  C   UNL A   1      32.301  30.149  26.685  1.00  0.00     0.116 C 
ENDROOT
BRANCH   1   2
ATOM      2  N   UNL A   1      31.963  28.827  27.180  1.00  0.00    -0.356 N 
ATOM      3  C   UNL A   1      31.506  27.730  26.518  1.00  0.00     0.220 C 
ATOM      4  O   UNL A   1      31.248  26.715  27.169  1.00  0.00    -0.275 OA
ATOM      5  H   UNL A   1      32.082  28.705  28.150  1.00  0.00     0.163 HD
BRANCH   3   6
ATOM      6  C   UNL A   1      31.310  27.749  25.015  1.00  0.00     0.100 C 
BRANCH   6   7
ATOM      7  C   UNL A   1      32.629  27.562  24.255  1.00  0.00     0.013 C 
BRANCH   7   8
ATOM      8  C   UNL A   1      32.484  27.448  22.721  1.00  0.00    -0.008 C 
ATOM      9  C   UNL A   1      31.029  27.177  22.340  1.00  0.00     0.008 C 
BRANCH   8  10
ATOM     10  C   UNL A   1      33.503  26.440  22.157  1.00  0.00     0.064 C 
BRANCH  10  11
ATOM     11  C   UNL A   1      33.042  25.018  21.842  1.00  0.00     0.261 C 
BRANCH  11  12
ATOM     12  N   UNL A   1      32.957  24.167  23.018  1.00  0.00    -0.344 N 
ATOM     13  H   UNL A   1      33.154  24.747  23.834  1.00  0.00     0.346 HD
ATOM     14  H   UNL A   1      33.630  23.417  22.856  1.00  0.00     0.346 HD
BRANCH  12  15
ATOM     15  C   UNL A   1      31.665  23.488  23.252  1.00  0.00     0.187 C 
ATOM     16  C   UNL A   1      30.859  23.831  24.516  1.00  0.00     0.093 C 
ATOM     17  C   UNL A   1      31.863  21.960  23.223  1.00  0.00     0.100 C 
ATOM     18  C   UNL A   1      31.412  23.197  25.785  1.00  0.00     0.167 C 
ATOM     19  C   UNL A   1      32.461  21.408  24.531  1.00  0.00     0.074 C 
ATOM     20  O   UNL A   1      31.646  21.804  25.645  1.00  0.00    -0.375 OA
ATOM     21  C   UNL A   1      32.439  19.861  24.558  1.00  0.00     0.036 C 
ATOM     22  C   UNL A   1      33.955  21.776  24.707  1.00  0.00     0.036 C 
ATOM     23  C   UNL A   1      33.885  19.411  24.432  1.00  0.00     0.003 C 
ATOM     24  C   UNL A   1      34.651  20.498  25.157  1.00  0.00     0.003 C 
ENDBRANCH  12  15
ENDBRANCH  11  12
ENDBRANCH  10  11
ENDBRANCH   8  10
ENDBRANCH   7   8
ENDBRANCH   6   7
ENDBRANCH   3   6
ENDBRANCH   1   2
BRANCH   1  25
ATOM     25  C   UNL A   1      33.547  30.705  27.379  1.00  0.00     0.023 C 
BRANCH  25  26
ATOM     26  C   UNL A   1      34.747  29.771  27.387  1.00  0.00     0.023 C 
BRANCH  26  27
ATOM     27  C   UNL A   1      35.911  30.250  28.233  1.00  0.00     0.116 C 
BRANCH  27  28
ATOM     28  N   UNL A   1      35.578  30.465  29.637  1.00  0.00    -0.352 N 
ATOM     29  C   UNL A   1      36.447  30.557  30.703  1.00  0.00     0.251 C 
ATOM     30  H   UNL A   1      34.620  30.557  29.847  1.00  0.00     0.163 HD
ATOM     31  O   UNL A   1      36.028  30.673  31.850  1.00  0.00    -0.269 OA
BRANCH  29  32
ATOM     32  C   UNL A   1      37.897  30.449  30.434  1.00  0.00     0.039 A 
ATOM     33  C   UNL A   1      38.706  29.760  31.340  1.00  0.00     0.014 A 
ATOM     34  C   UNL A   1      38.415  30.894  29.216  1.00  0.00     0.014 A 
ATOM     35  C   UNL A   1      40.011  29.421  30.973  1.00  0.00     0.010 A 
ATOM     36  C   UNL A   1      39.673  30.466  28.814  1.00  0.00     0.010 A 
ATOM     37  C   UNL A   1      40.483  29.717  29.683  1.00  0.00    -0.014 A 
BRANCH  37  38
ATOM     38  C   UNL A   1      41.812  29.251  29.206  1.00  0.00     0.031 A 
ATOM     39  C   UNL A   1      42.949  30.233  29.093  1.00  0.00     0.074 A 
ATOM     40  C   UNL A   1      41.973  27.982  28.780  1.00  0.00     0.049 A 
ATOM     41  N   UNL A   1      44.140  30.060  28.584  1.00  0.00    -0.248 NA
ATOM     42  C   UNL A   1      42.695  31.600  29.580  1.00  0.00     0.031 C 
ATOM     43  C   UNL A   1      40.937  26.944  28.777  1.00  0.00     0.029 A 
ATOM     44  N   UNL A   1      43.071  27.348  28.249  1.00  0.00    -0.354 N 
ATOM     45  C   UNL A   1      44.763  31.301  28.655  1.00  0.00     0.074 A 
ATOM     46  C   UNL A   1      43.800  32.228  29.209  1.00  0.00     0.031 C 
ATOM     47  C   UNL A   1      41.456  25.802  28.297  1.00  0.00     0.029 A 
ATOM     48  C   UNL A   1      42.847  26.032  27.918  1.00  0.00     0.049 A 
ATOM     49  H   UNL A   1      43.938  27.797  28.118  1.00  0.00     0.167 HD
ATOM     50  C   UNL A   1      46.028  31.637  28.312  1.00  0.00     0.031 A 
ATOM     51  C   UNL A   1      43.665  25.114  27.366  1.00  0.00     0.031 A 
ATOM     52  C   UNL A   1      46.997  30.707  27.803  1.00  0.00     0.049 A 
ATOM     53  C   UNL A   1      45.077  25.502  27.022  1.00  0.00     0.074 A 
ATOM     54  C   UNL A   1      48.330  30.931  27.507  1.00  0.00     0.029 A 
ATOM     55  N   UNL A   1      46.741  29.374  27.525  1.00  0.00    -0.354 N 
ATOM     56  N   UNL A   1      45.669  26.665  27.165  1.00  0.00    -0.248 NA
ATOM     57  C   UNL A   1      45.935  24.454  26.451  1.00  0.00     0.031 C 
ATOM     58  C   UNL A   1      48.870  29.740  27.011  1.00  0.00     0.029 A 
ATOM     59  C   UNL A   1      47.886  28.765  27.042  1.00  0.00     0.049 A 
ATOM     60  H   UNL A   1      45.873  28.927  27.651  1.00  0.00     0.167 HD
ATOM     61  C   UNL A   1      46.974  26.482  26.721  1.00  0.00     0.074 A 
ATOM     62  C   UNL A   1      47.089  25.095  26.319  1.00  0.00     0.031 C 
ATOM     63  C   UNL A   1      47.983  27.382  26.652  1.00  0.00     0.031 A 
BRANCH  50  64
ATOM     64  C   UNL A   1      46.433  33.076  28.484  1.00  0.00    -0.014 A 
ATOM     65  C   UNL A   1      46.996  33.531  29.691  1.00  0.00     0.010 A 
ATOM     66  C   UNL A   1      46.268  33.981  27.420  1.00  0.00     0.010 A 
ATOM     67  C   UNL A   1      47.342  34.875  29.847  1.00  0.00     0.020 A 
ATOM     68  C   UNL A   1      46.639  35.321  27.563  1.00  0.00     0.020 A 
ATOM     69  C   UNL A   1      47.155  35.763  28.783  1.00  0.00     0.054 A 
BRANCH  69  70
ATOM     70  S   UNL A   1      47.626  37.500  29.008  1.00  0.00     0.124 S 
ATOM     71  O   UNL A   1      46.329  38.170  28.968  1.00  0.00    -0.237 OA
ATOM     72  O   UNL A   1      48.286  37.489  30.311  1.00  0.00    -0.237 OA
ATOM     73  O   UNL A   1      48.503  37.771  27.871  1.00  0.00    -0.744 OA
ENDBRANCH  69  70
ENDBRANCH  50  64
BRANCH  51  74
ATOM     74  C   UNL A   1      43.174  23.731  27.118  1.00  0.00    -0.014 A 
ATOM     75  C   UNL A   1      42.962  23.277  25.804  1.00  0.00     0.010 A 
ATOM     76  C   UNL A   1      42.923  22.857  28.191  1.00  0.00     0.010 A 
ATOM     77  C   UNL A   1      42.493  21.982  25.567  1.00  0.00     0.020 A 
ATOM     78  C   UNL A   1      42.477  21.552  27.957  1.00  0.00     0.020 A 
ATOM     79  C   UNL A   1      42.254  21.126  26.646  1.00  0.00     0.054 A 
BRANCH  79  80
ATOM     80  S   UNL A   1      41.696  19.432  26.315  1.00  0.00     0.124 S 
ATOM     81  O   UNL A   1      42.134  18.728  27.516  1.00  0.00    -0.237 OA
ATOM     82  O   UNL A   1      40.250  19.596  26.169  1.00  0.00    -0.237 OA
ATOM     83  O   UNL A   1      42.400  19.077  25.084  1.00  0.00    -0.744 OA
ENDBRANCH  79  80
ENDBRANCH  51  74
BRANCH  63  84
ATOM     84  C   UNL A   1      49.315  26.895  26.149  1.00  0.00    -0.014 A 
ATOM     85  C   UNL A   1      49.696  27.084  24.811  1.00  0.00     0.010 A 
ATOM     86  C   UNL A   1      50.225  26.313  27.051  1.00  0.00     0.010 A 
ATOM     87  C   UNL A   1      50.961  26.683  24.376  1.00  0.00     0.020 A 
ATOM     88  C   UNL A   1      51.500  25.932  26.624  1.00  0.00     0.020 A 
ATOM     89  C   UNL A   1      51.856  26.112  25.287  1.00  0.00     0.054 A 
BRANCH  89  90
ATOM     90  S   UNL A   1      53.517  25.660  24.713  1.00  0.00     0.124 S 
ATOM     91  O   UNL A   1      53.436  25.954  23.285  1.00  0.00    -0.237 OA
ATOM     92  O   UNL A   1      54.379  26.547  25.490  1.00  0.00    -0.237 OA
ATOM     93  O   UNL A   1      53.625  24.242  25.052  1.00  0.00    -0.744 OA
ENDBRANCH  89  90
ENDBRANCH  63  84
ENDBRANCH  37  38
ENDBRANCH  29  32
ENDBRANCH  27  28
ENDBRANCH  26  27
ENDBRANCH  25  26
ENDBRANCH   1  25
TORSDOF 20
ENDMDL
