MODEL 1
REMARK VINA RESULT:     -12.8      0.000      0.000
REMARK SMILES Cc1cccc(S(=O)(=O)Nc2cnc(N(C)Cc3ccccc3)c(C(=O)NCCCCNC(=O)c3ccc(-c4c5nc(c(-c6ccc(S(=O)(=O)[O-])cc6)c6ccc([nH]6)c(-c6ccc(S(=O)(=O)[O-])cc6)c6nc(c(-c7ccc(S(=O)(=O)[O-])cc7)c7ccc4[nH]7)C=C6)C=C5)cc3)c2)c1
REMARK SMILES IDX 29 1 28 2 27 3 25 4 26 5 24 7 11 8 12 9 95 10 13 11 14 12
REMARK SMILES IDX 10 13 7 15 8 16 9 17 6 18 1 19 2 20 3 21 96 22 4 23 5 24
REMARK SMILES IDX 15 25 16 26 17 27 18 28 19 29 23 30 20 31 22 32 21 33 30 34
REMARK SMILES IDX 31 35 32 36 33 37 34 39 35 40 36 41 94 42 37 43 93 44 38 45
REMARK SMILES IDX 39 46 40 47 87 48 41 49 92 50 86 51 88 52 42 53 91 54 85 55
REMARK SMILES IDX 84 56 43 58 73 59 54 60 72 61 55 62 58 63 71 64 89 65 56 66
REMARK SMILES IDX 57 67 70 69 90 70 59 71 44 72 45 73 53 74 46 75 52 76 47 77
REMARK SMILES IDX 48 78 49 79 50 80 51 81 74 82 75 83 83 84 76 85 82 86 77 87
REMARK SMILES IDX 78 88 79 89 80 90 81 91 60 92 61 93 69 94 62 95 68 96 63 97
REMARK SMILES IDX 64 98 65 99 66 100 67 101
REMARK H PARENT 27 6 10 14 32 38 88 57 58 68
REMARK Flexibility Score: inf
ROOT
ATOM      1  C   UNL A   1      35.597  23.505  25.179  1.00  0.00     0.023 C 
ENDROOT
BRANCH   1   2
ATOM      2  C   UNL A   1      34.778  24.394  26.137  1.00  0.00     0.116 C 
BRANCH   2   3
ATOM      3  N   UNL A   1      33.690  23.629  26.749  1.00  0.00    -0.352 N 
ATOM      4  C   UNL A   1      32.318  23.711  26.645  1.00  0.00     0.255 C 
ATOM      5  O   UNL A   1      31.652  23.432  27.640  1.00  0.00    -0.269 OA
ATOM      6  H   UNL A   1      33.998  22.916  27.353  1.00  0.00     0.163 HD
BRANCH   4   7
ATOM      7  C   UNL A   1      31.640  24.141  25.401  1.00  0.00     0.084 A 
ATOM      8  C   UNL A   1      30.444  25.960  24.321  1.00  0.00     0.068 A 
ATOM      9  C   UNL A   1      30.326  25.155  23.215  1.00  0.00     0.140 A 
ATOM     10  C   UNL A   1      31.055  25.422  25.439  1.00  0.00     0.046 A 
ATOM     11  N   UNL A   1      30.790  23.885  23.185  1.00  0.00    -0.236 NA
ATOM     12  C   UNL A   1      31.457  23.336  24.252  1.00  0.00     0.141 A 
BRANCH   8  13
ATOM     13  N   UNL A   1      30.056  27.321  24.323  1.00  0.00    -0.278 N 
ATOM     14  H   UNL A   1      29.121  27.547  24.534  1.00  0.00     0.180 HD
BRANCH  13  15
ATOM     15  S   UNL A   1      31.141  28.580  23.976  1.00  0.00     0.261 S 
ATOM     16  O   UNL A   1      30.250  29.728  23.960  1.00  0.00    -0.201 OA
ATOM     17  O   UNL A   1      31.888  28.217  22.794  1.00  0.00    -0.201 OA
BRANCH  15  18
ATOM     18  C   UNL A   1      32.320  28.898  25.270  1.00  0.00     0.088 A 
ATOM     19  C   UNL A   1      33.499  31.606  27.651  1.00  0.00     0.044 C 
ATOM     20  C   UNL A   1      33.364  30.284  26.967  1.00  0.00    -0.050 A 
ATOM     21  C   UNL A   1      34.345  29.321  27.160  1.00  0.00     0.003 A 
ATOM     22  C   UNL A   1      32.301  30.025  26.090  1.00  0.00     0.025 A 
ATOM     23  C   UNL A   1      34.288  28.134  26.446  1.00  0.00     0.002 A 
ATOM     24  C   UNL A   1      33.311  27.934  25.475  1.00  0.00     0.022 A 
ENDBRANCH  15  18
ENDBRANCH  13  15
ENDBRANCH   8  13
BRANCH  12  25
ATOM     25  N   UNL A   1      31.871  22.038  24.026  1.00  0.00    -0.355 N 
ATOM     26  C   UNL A   1      32.194  21.660  22.646  1.00  0.00     0.145 C 
BRANCH  25  27
ATOM     27  C   UNL A   1      31.931  20.923  24.973  1.00  0.00     0.153 C 
BRANCH  27  28
ATOM     28  C   UNL A   1      32.791  19.763  24.526  1.00  0.00    -0.029 A 
ATOM     29  C   UNL A   1      34.149  19.731  24.885  1.00  0.00     0.005 A 
ATOM     30  C   UNL A   1      32.252  18.652  23.857  1.00  0.00     0.005 A 
ATOM     31  C   UNL A   1      34.950  18.636  24.558  1.00  0.00     0.000 A 
ATOM     32  C   UNL A   1      33.056  17.558  23.527  1.00  0.00     0.000 A 
ATOM     33  C   UNL A   1      34.405  17.552  23.874  1.00  0.00     0.000 A 
ENDBRANCH  27  28
ENDBRANCH  25  27
ENDBRANCH  12  25
ENDBRANCH   4   7
ENDBRANCH   2   3
ENDBRANCH   1   2
BRANCH   1  34
ATOM     34  C   UNL A   1      36.642  22.626  25.874  1.00  0.00     0.023 C 
BRANCH  34  35
ATOM     35  C   UNL A   1      38.038  23.227  25.862  1.00  0.00     0.116 C 
BRANCH  35  36
ATOM     36  N   UNL A   1      38.836  22.871  27.025  1.00  0.00    -0.352 N 
ATOM     37  C   UNL A   1      39.923  23.627  27.456  1.00  0.00     0.251 C 
ATOM     38  H   UNL A   1      38.596  22.060  27.529  1.00  0.00     0.163 HD
ATOM     39  O   UNL A   1      41.011  23.181  27.741  1.00  0.00    -0.269 OA
BRANCH  37  40
ATOM     40  C   UNL A   1      39.627  25.066  27.627  1.00  0.00     0.039 A 
ATOM     41  C   UNL A   1      40.169  25.974  26.710  1.00  0.00     0.014 A 
ATOM     42  C   UNL A   1      39.069  25.488  28.830  1.00  0.00     0.014 A 
ATOM     43  C   UNL A   1      40.313  27.305  27.082  1.00  0.00     0.010 A 
ATOM     44  C   UNL A   1      39.304  26.779  29.236  1.00  0.00     0.010 A 
ATOM     45  C   UNL A   1      39.966  27.669  28.379  1.00  0.00    -0.014 A 
BRANCH  45  46
ATOM     46  C   UNL A   1      40.291  28.945  28.989  1.00  0.00     0.031 A 
ATOM     47  C   UNL A   1      39.311  30.044  28.915  1.00  0.00     0.074 A 
ATOM     48  C   UNL A   1      41.382  29.023  29.780  1.00  0.00     0.049 A 
ATOM     49  N   UNL A   1      39.557  31.267  29.230  1.00  0.00    -0.248 NA
ATOM     50  C   UNL A   1      37.956  29.841  28.412  1.00  0.00     0.031 C 
ATOM     51  C   UNL A   1      41.683  30.045  30.775  1.00  0.00     0.029 A 
ATOM     52  N   UNL A   1      42.571  28.303  29.660  1.00  0.00    -0.354 N 
ATOM     53  C   UNL A   1      38.345  31.916  29.310  1.00  0.00     0.074 A 
ATOM     54  C   UNL A   1      37.404  31.028  28.673  1.00  0.00     0.031 C 
ATOM     55  C   UNL A   1      43.014  30.109  30.923  1.00  0.00     0.029 A 
ATOM     56  C   UNL A   1      43.591  29.225  29.920  1.00  0.00     0.049 A 
ATOM     57  H   UNL A   1      42.672  27.349  29.440  1.00  0.00     0.167 HD
ATOM     58  C   UNL A   1      38.258  33.049  30.064  1.00  0.00     0.031 A 
ATOM     59  C   UNL A   1      44.564  29.570  29.028  1.00  0.00     0.031 A 
ATOM     60  C   UNL A   1      39.590  33.506  30.476  1.00  0.00     0.049 A 
ATOM     61  C   UNL A   1      44.549  31.064  28.811  1.00  0.00     0.074 A 
ATOM     62  C   UNL A   1      40.288  33.443  31.670  1.00  0.00     0.029 A 
ATOM     63  N   UNL A   1      40.526  33.828  29.492  1.00  0.00    -0.354 N 
ATOM     64  N   UNL A   1      43.480  31.799  28.971  1.00  0.00    -0.248 NA
ATOM     65  C   UNL A   1      45.733  31.850  28.486  1.00  0.00     0.031 C 
ATOM     66  C   UNL A   1      41.671  33.611  31.374  1.00  0.00     0.029 A 
ATOM     67  C   UNL A   1      41.808  33.819  30.011  1.00  0.00     0.049 A 
ATOM     68  H   UNL A   1      40.305  34.035  28.555  1.00  0.00     0.167 HD
ATOM     69  C   UNL A   1      43.828  33.120  28.895  1.00  0.00     0.074 A 
ATOM     70  C   UNL A   1      45.240  33.099  28.544  1.00  0.00     0.031 C 
ATOM     71  C   UNL A   1      42.960  34.138  29.173  1.00  0.00     0.031 A 
BRANCH  58  72
ATOM     72  C   UNL A   1      36.955  33.549  30.669  1.00  0.00    -0.014 A 
ATOM     73  C   UNL A   1      35.826  33.747  29.846  1.00  0.00     0.010 A 
ATOM     74  C   UNL A   1      36.794  33.924  32.017  1.00  0.00     0.010 A 
ATOM     75  C   UNL A   1      34.644  34.343  30.325  1.00  0.00     0.020 A 
ATOM     76  C   UNL A   1      35.632  34.541  32.506  1.00  0.00     0.020 A 
ATOM     77  C   UNL A   1      34.562  34.754  31.653  1.00  0.00     0.054 A 
BRANCH  77  78
ATOM     78  S   UNL A   1      33.053  35.554  32.257  1.00  0.00     0.124 S 
ATOM     79  O   UNL A   1      33.578  36.598  33.133  1.00  0.00    -0.237 OA
ATOM     80  O   UNL A   1      32.429  36.020  31.022  1.00  0.00    -0.237 OA
ATOM     81  O   UNL A   1      32.339  34.477  32.942  1.00  0.00    -0.744 OA
ENDBRANCH  77  78
ENDBRANCH  58  72
BRANCH  59  82
ATOM     82  C   UNL A   1      44.919  28.505  28.044  1.00  0.00    -0.014 A 
ATOM     83  C   UNL A   1      44.408  28.655  26.735  1.00  0.00     0.010 A 
ATOM     84  C   UNL A   1      46.067  27.714  28.223  1.00  0.00     0.010 A 
ATOM     85  C   UNL A   1      45.150  28.249  25.621  1.00  0.00     0.020 A 
ATOM     86  C   UNL A   1      46.797  27.272  27.105  1.00  0.00     0.020 A 
ATOM     87  C   UNL A   1      46.378  27.624  25.816  1.00  0.00     0.054 A 
BRANCH  87  88
ATOM     88  S   UNL A   1      47.492  27.445  24.386  1.00  0.00     0.124 S 
ATOM     89  O   UNL A   1      46.795  28.198  23.349  1.00  0.00    -0.237 OA
ATOM     90  O   UNL A   1      48.734  28.044  24.881  1.00  0.00    -0.237 OA
ATOM     91  O   UNL A   1      47.547  26.001  24.185  1.00  0.00    -0.744 OA
ENDBRANCH  87  88
ENDBRANCH  59  82
BRANCH  71  92
ATOM     92  C   UNL A   1      43.169  35.574  28.764  1.00  0.00    -0.014 A 
ATOM     93  C   UNL A   1      42.848  36.069  27.490  1.00  0.00     0.010 A 
ATOM     94  C   UNL A   1      43.543  36.522  29.746  1.00  0.00     0.010 A 
ATOM     95  C   UNL A   1      42.951  37.432  27.192  1.00  0.00     0.020 A 
ATOM     96  C   UNL A   1      43.596  37.891  29.475  1.00  0.00     0.020 A 
ATOM     97  C   UNL A   1      43.319  38.335  28.187  1.00  0.00     0.054 A 
BRANCH  97  98
ATOM     98  S   UNL A   1      43.347  40.103  27.810  1.00  0.00     0.124 S 
ATOM     99  O   UNL A   1      44.345  40.595  28.757  1.00  0.00    -0.237 OA
ATOM    100  O   UNL A   1      43.750  40.129  26.406  1.00  0.00    -0.237 OA
ATOM    101  O   UNL A   1      41.974  40.530  28.064  1.00  0.00    -0.744 OA
ENDBRANCH  97  98
ENDBRANCH  71  92
ENDBRANCH  45  46
ENDBRANCH  37  40
ENDBRANCH  35  36
ENDBRANCH  34  35
ENDBRANCH   1  34
TORSDOF 20
ENDMDL
MODEL 2
REMARK VINA RESULT:     -12.2      4.390     10.718
REMARK SMILES Cc1cccc(S(=O)(=O)Nc2cnc(N(C)Cc3ccccc3)c(C(=O)NCCCCNC(=O)c3ccc(-c4c5nc(c(-c6ccc(S(=O)(=O)[O-])cc6)c6ccc([nH]6)c(-c6ccc(S(=O)(=O)[O-])cc6)c6nc(c(-c7ccc(S(=O)(=O)[O-])cc7)c7ccc4[nH]7)C=C6)C=C5)cc3)c2)c1
REMARK SMILES IDX 29 1 28 2 27 3 25 4 26 5 24 7 11 8 12 9 95 10 13 11 14 12
REMARK SMILES IDX 10 13 7 15 8 16 9 17 6 18 1 19 2 20 3 21 96 22 4 23 5 24
REMARK SMILES IDX 15 25 16 26 17 27 18 28 19 29 23 30 20 31 22 32 21 33 30 34
REMARK SMILES IDX 31 35 32 36 33 37 34 39 35 40 36 41 94 42 37 43 93 44 38 45
REMARK SMILES IDX 39 46 40 47 87 48 41 49 92 50 86 51 88 52 42 53 91 54 85 55
REMARK SMILES IDX 84 56 43 58 73 59 54 60 72 61 55 62 58 63 71 64 89 65 56 66
REMARK SMILES IDX 57 67 70 69 90 70 59 71 44 72 45 73 53 74 46 75 52 76 47 77
REMARK SMILES IDX 48 78 49 79 50 80 51 81 74 82 75 83 83 84 76 85 82 86 77 87
REMARK SMILES IDX 78 88 79 89 80 90 81 91 60 92 61 93 69 94 62 95 68 96 63 97
REMARK SMILES IDX 64 98 65 99 66 100 67 101
REMARK H PARENT 27 6 10 14 32 38 88 57 58 68
REMARK Flexibility Score: inf
ROOT
ATOM      1  C   UNL A   1      33.594  28.234  24.891  1.00  0.00     0.023 C 
ENDROOT
BRANCH   1   2
ATOM      2  C   UNL A   1      34.224  28.419  23.495  1.00  0.00     0.116 C 
BRANCH   2   3
ATOM      3  N   UNL A   1      33.670  27.451  22.546  1.00  0.00    -0.352 N 
ATOM      4  C   UNL A   1      33.526  26.081  22.586  1.00  0.00     0.255 C 
ATOM      5  O   UNL A   1      33.626  25.465  21.527  1.00  0.00    -0.269 OA
ATOM      6  H   UNL A   1      33.334  27.860  21.715  1.00  0.00     0.163 HD
BRANCH   4   7
ATOM      7  C   UNL A   1      33.287  25.344  23.848  1.00  0.00     0.084 A 
ATOM      8  C   UNL A   1      34.280  23.868  25.503  1.00  0.00     0.068 A 
ATOM      9  C   UNL A   1      33.077  23.886  26.164  1.00  0.00     0.140 A 
ATOM     10  C   UNL A   1      34.361  24.556  24.306  1.00  0.00     0.046 A 
ATOM     11  N   UNL A   1      31.998  24.553  25.695  1.00  0.00    -0.236 NA
ATOM     12  C   UNL A   1      32.055  25.299  24.544  1.00  0.00     0.141 A 
BRANCH   8  13
ATOM     13  N   UNL A   1      35.441  23.262  26.040  1.00  0.00    -0.278 N 
ATOM     14  H   UNL A   1      35.370  22.777  26.894  1.00  0.00     0.180 HD
BRANCH  13  15
ATOM     15  S   UNL A   1      36.951  23.338  25.267  1.00  0.00     0.261 S 
ATOM     16  O   UNL A   1      37.613  24.377  26.038  1.00  0.00    -0.201 OA
ATOM     17  O   UNL A   1      36.724  23.510  23.851  1.00  0.00    -0.201 OA
BRANCH  15  18
ATOM     18  C   UNL A   1      37.943  21.875  25.470  1.00  0.00     0.088 A 
ATOM     19  C   UNL A   1      41.376  20.714  26.591  1.00  0.00     0.044 C 
ATOM     20  C   UNL A   1      39.961  20.689  26.111  1.00  0.00    -0.050 A 
ATOM     21  C   UNL A   1      39.455  19.518  25.564  1.00  0.00     0.003 A 
ATOM     22  C   UNL A   1      39.161  21.841  26.146  1.00  0.00     0.025 A 
ATOM     23  C   UNL A   1      38.181  19.514  25.015  1.00  0.00     0.002 A 
ATOM     24  C   UNL A   1      37.442  20.690  24.925  1.00  0.00     0.022 A 
ENDBRANCH  15  18
ENDBRANCH  13  15
ENDBRANCH   8  13
BRANCH  12  25
ATOM     25  N   UNL A   1      30.861  25.922  24.238  1.00  0.00    -0.355 N 
ATOM     26  C   UNL A   1      30.015  25.297  23.215  1.00  0.00     0.145 C 
BRANCH  25  27
ATOM     27  C   UNL A   1      30.355  27.209  24.718  1.00  0.00     0.153 C 
BRANCH  27  28
ATOM     28  C   UNL A   1      29.737  28.080  23.649  1.00  0.00    -0.029 A 
ATOM     29  C   UNL A   1      28.339  28.122  23.516  1.00  0.00     0.005 A 
ATOM     30  C   UNL A   1      30.508  28.943  22.855  1.00  0.00     0.005 A 
ATOM     31  C   UNL A   1      27.733  28.978  22.594  1.00  0.00     0.000 A 
ATOM     32  C   UNL A   1      29.902  29.796  21.930  1.00  0.00     0.000 A 
ATOM     33  C   UNL A   1      28.515  29.811  21.798  1.00  0.00     0.000 A 
ENDBRANCH  27  28
ENDBRANCH  25  27
ENDBRANCH  12  25
ENDBRANCH   4   7
ENDBRANCH   2   3
ENDBRANCH   1   2
BRANCH   1  34
ATOM     34  C   UNL A   1      33.069  29.529  25.521  1.00  0.00     0.023 C 
BRANCH  34  35
ATOM     35  C   UNL A   1      33.527  29.730  26.956  1.00  0.00     0.116 C 
BRANCH  35  36
ATOM     36  N   UNL A   1      34.226  30.987  27.174  1.00  0.00    -0.352 N 
ATOM     37  C   UNL A   1      35.046  31.214  28.277  1.00  0.00     0.251 C 
ATOM     38  H   UNL A   1      34.114  31.708  26.513  1.00  0.00     0.163 HD
ATOM     39  O   UNL A   1      35.003  32.196  28.984  1.00  0.00    -0.269 OA
BRANCH  37  40
ATOM     40  C   UNL A   1      36.070  30.169  28.492  1.00  0.00     0.039 A 
ATOM     41  C   UNL A   1      36.284  29.700  29.793  1.00  0.00     0.014 A 
ATOM     42  C   UNL A   1      36.967  29.900  27.462  1.00  0.00     0.014 A 
ATOM     43  C   UNL A   1      37.499  29.102  30.105  1.00  0.00     0.010 A 
ATOM     44  C   UNL A   1      38.204  29.404  27.792  1.00  0.00     0.010 A 
ATOM     45  C   UNL A   1      38.480  29.051  29.120  1.00  0.00    -0.014 A 
BRANCH  45  46
ATOM     46  C   UNL A   1      39.866  28.694  29.360  1.00  0.00     0.031 A 
ATOM     47  C   UNL A   1      40.308  27.315  29.086  1.00  0.00     0.074 A 
ATOM     48  C   UNL A   1      40.749  29.680  29.625  1.00  0.00     0.049 A 
ATOM     49  N   UNL A   1      41.443  26.824  29.445  1.00  0.00    -0.248 NA
ATOM     50  C   UNL A   1      39.451  26.346  28.411  1.00  0.00     0.031 C 
ATOM     51  C   UNL A   1      42.202  29.620  29.517  1.00  0.00     0.029 A 
ATOM     52  N   UNL A   1      40.507  30.881  30.292  1.00  0.00    -0.354 N 
ATOM     53  C   UNL A   1      41.603  25.637  28.765  1.00  0.00     0.074 A 
ATOM     54  C   UNL A   1      40.295  25.326  28.243  1.00  0.00     0.031 C 
ATOM     55  C   UNL A   1      42.724  30.522  30.361  1.00  0.00     0.029 A 
ATOM     56  C   UNL A   1      41.614  31.075  31.125  1.00  0.00     0.049 A 
ATOM     57  H   UNL A   1      39.722  31.468  30.198  1.00  0.00     0.167 HD
ATOM     58  C   UNL A   1      42.865  25.154  28.581  1.00  0.00     0.031 A 
ATOM     59  C   UNL A   1      41.552  31.151  32.486  1.00  0.00     0.031 A 
ATOM     60  C   UNL A   1      43.835  25.910  29.381  1.00  0.00     0.049 A 
ATOM     61  C   UNL A   1      42.453  30.106  33.097  1.00  0.00     0.074 A 
ATOM     62  C   UNL A   1      44.770  26.882  29.069  1.00  0.00     0.029 A 
ATOM     63  N   UNL A   1      43.686  25.942  30.769  1.00  0.00    -0.354 N 
ATOM     64  N   UNL A   1      42.768  28.991  32.492  1.00  0.00    -0.248 NA
ATOM     65  C   UNL A   1      43.131  30.266  34.378  1.00  0.00     0.031 C 
ATOM     66  C   UNL A   1      45.091  27.578  30.269  1.00  0.00     0.029 A 
ATOM     67  C   UNL A   1      44.385  27.002  31.314  1.00  0.00     0.049 A 
ATOM     68  H   UNL A   1      43.157  25.296  31.289  1.00  0.00     0.167 HD
ATOM     69  C   UNL A   1      43.744  28.353  33.206  1.00  0.00     0.074 A 
ATOM     70  C   UNL A   1      43.904  29.167  34.402  1.00  0.00     0.031 C 
ATOM     71  C   UNL A   1      44.391  27.237  32.755  1.00  0.00     0.031 A 
BRANCH  58  72
ATOM     72  C   UNL A   1      43.238  24.206  27.451  1.00  0.00    -0.014 A 
ATOM     73  C   UNL A   1      44.233  23.227  27.651  1.00  0.00     0.010 A 
ATOM     74  C   UNL A   1      42.712  24.277  26.146  1.00  0.00     0.010 A 
ATOM     75  C   UNL A   1      44.718  22.424  26.602  1.00  0.00     0.020 A 
ATOM     76  C   UNL A   1      43.200  23.502  25.083  1.00  0.00     0.020 A 
ATOM     77  C   UNL A   1      44.208  22.580  25.315  1.00  0.00     0.054 A 
BRANCH  77  78
ATOM     78  S   UNL A   1      44.859  21.571  23.959  1.00  0.00     0.124 S 
ATOM     79  O   UNL A   1      46.303  21.702  24.133  1.00  0.00    -0.237 OA
ATOM     80  O   UNL A   1      44.303  20.254  24.254  1.00  0.00    -0.237 OA
ATOM     81  O   UNL A   1      44.323  22.214  22.759  1.00  0.00    -0.744 OA
ENDBRANCH  77  78
ENDBRANCH  58  72
BRANCH  59  82
ATOM     82  C   UNL A   1      40.264  31.680  33.025  1.00  0.00    -0.014 A 
ATOM     83  C   UNL A   1      39.351  30.727  33.530  1.00  0.00     0.010 A 
ATOM     84  C   UNL A   1      40.166  33.004  33.485  1.00  0.00     0.010 A 
ATOM     85  C   UNL A   1      38.541  31.019  34.633  1.00  0.00     0.020 A 
ATOM     86  C   UNL A   1      39.325  33.311  34.570  1.00  0.00     0.020 A 
ATOM     87  C   UNL A   1      38.590  32.294  35.191  1.00  0.00     0.054 A 
BRANCH  87  88
ATOM     88  S   UNL A   1      37.833  32.548  36.828  1.00  0.00     0.124 S 
ATOM     89  O   UNL A   1      36.565  33.188  36.492  1.00  0.00    -0.237 OA
ATOM     90  O   UNL A   1      37.736  31.179  37.343  1.00  0.00    -0.237 OA
ATOM     91  O   UNL A   1      38.802  33.393  37.516  1.00  0.00    -0.744 OA
ENDBRANCH  87  88
ENDBRANCH  59  82
BRANCH  71  92
ATOM     92  C   UNL A   1      45.192  26.303  33.626  1.00  0.00    -0.014 A 
ATOM     93  C   UNL A   1      44.643  25.599  34.711  1.00  0.00     0.010 A 
ATOM     94  C   UNL A   1      46.514  25.971  33.248  1.00  0.00     0.010 A 
ATOM     95  C   UNL A   1      45.395  24.655  35.420  1.00  0.00     0.020 A 
ATOM     96  C   UNL A   1      47.254  24.992  33.915  1.00  0.00     0.020 A 
ATOM     97  C   UNL A   1      46.693  24.354  35.015  1.00  0.00     0.054 A 
BRANCH  97  98
ATOM     98  S   UNL A   1      47.611  23.059  35.880  1.00  0.00     0.124 S 
ATOM     99  O   UNL A   1      48.159  22.287  34.767  1.00  0.00    -0.237 OA
ATOM    100  O   UNL A   1      48.589  23.818  36.657  1.00  0.00    -0.237 OA
ATOM    101  O   UNL A   1      46.586  22.382  36.671  1.00  0.00    -0.744 OA
ENDBRANCH  97  98
ENDBRANCH  71  92
ENDBRANCH  45  46
ENDBRANCH  37  40
ENDBRANCH  35  36
ENDBRANCH  34  35
ENDBRANCH   1  34
TORSDOF 20
ENDMDL
MODEL 3
REMARK VINA RESULT:     -12.0      1.872      2.289
REMARK SMILES Cc1cccc(S(=O)(=O)Nc2cnc(N(C)Cc3ccccc3)c(C(=O)NCCCCNC(=O)c3ccc(-c4c5nc(c(-c6ccc(S(=O)(=O)[O-])cc6)c6ccc([nH]6)c(-c6ccc(S(=O)(=O)[O-])cc6)c6nc(c(-c7ccc(S(=O)(=O)[O-])cc7)c7ccc4[nH]7)C=C6)C=C5)cc3)c2)c1
REMARK SMILES IDX 29 1 28 2 27 3 25 4 26 5 24 7 11 8 12 9 95 10 13 11 14 12
REMARK SMILES IDX 10 13 7 15 8 16 9 17 6 18 1 19 2 20 3 21 96 22 4 23 5 24
REMARK SMILES IDX 15 25 16 26 17 27 18 28 19 29 23 30 20 31 22 32 21 33 30 34
REMARK SMILES IDX 31 35 32 36 33 37 34 39 35 40 36 41 94 42 37 43 93 44 38 45
REMARK SMILES IDX 39 46 40 47 87 48 41 49 92 50 86 51 88 52 42 53 91 54 85 55
REMARK SMILES IDX 84 56 43 58 73 59 54 60 72 61 55 62 58 63 71 64 89 65 56 66
REMARK SMILES IDX 57 67 70 69 90 70 59 71 44 72 45 73 53 74 46 75 52 76 47 77
REMARK SMILES IDX 48 78 49 79 50 80 51 81 74 82 75 83 83 84 76 85 82 86 77 87
REMARK SMILES IDX 78 88 79 89 80 90 81 91 60 92 61 93 69 94 62 95 68 96 63 97
REMARK SMILES IDX 64 98 65 99 66 100 67 101
REMARK H PARENT 27 6 10 14 32 38 88 57 58 68
REMARK Flexibility Score: inf
ROOT
ATOM      1  C   UNL A   1      35.556  23.510  25.450  1.00  0.00     0.023 C 
ENDROOT
BRANCH   1   2
ATOM      2  C   UNL A   1      34.898  23.439  26.843  1.00  0.00     0.116 C 
BRANCH   2   3
ATOM      3  N   UNL A   1      33.556  22.859  26.752  1.00  0.00    -0.352 N 
ATOM      4  C   UNL A   1      32.474  23.132  25.943  1.00  0.00     0.255 C 
ATOM      5  O   UNL A   1      31.352  22.987  26.423  1.00  0.00    -0.269 OA
ATOM      6  H   UNL A   1      33.395  22.132  27.396  1.00  0.00     0.163 HD
BRANCH   4   7
ATOM      7  C   UNL A   1      32.625  23.609  24.550  1.00  0.00     0.084 A 
ATOM      8  C   UNL A   1      33.029  25.555  23.152  1.00  0.00     0.068 A 
ATOM      9  C   UNL A   1      32.927  24.728  22.061  1.00  0.00     0.140 A 
ATOM     10  C   UNL A   1      32.817  24.997  24.399  1.00  0.00     0.046 A 
ATOM     11  N   UNL A   1      32.644  23.409  22.171  1.00  0.00    -0.236 NA
ATOM     12  C   UNL A   1      32.489  22.804  23.394  1.00  0.00     0.141 A 
BRANCH   8  13
ATOM     13  N   UNL A   1      33.428  26.909  23.052  1.00  0.00    -0.278 N 
ATOM     14  H   UNL A   1      34.364  27.112  22.821  1.00  0.00     0.180 HD
BRANCH  13  15
ATOM     15  S   UNL A   1      32.356  28.199  23.315  1.00  0.00     0.261 S 
ATOM     16  O   UNL A   1      31.085  27.500  23.402  1.00  0.00    -0.201 OA
ATOM     17  O   UNL A   1      32.579  29.186  22.284  1.00  0.00    -0.201 OA
BRANCH  15  18
ATOM     18  C   UNL A   1      32.573  29.013  24.882  1.00  0.00     0.088 A 
ATOM     19  C   UNL A   1      31.415  32.022  26.881  1.00  0.00     0.044 C 
ATOM     20  C   UNL A   1      32.106  30.750  26.512  1.00  0.00    -0.050 A 
ATOM     21  C   UNL A   1      33.147  30.293  27.307  1.00  0.00     0.003 A 
ATOM     22  C   UNL A   1      31.763  30.048  25.347  1.00  0.00     0.025 A 
ATOM     23  C   UNL A   1      33.868  29.175  26.916  1.00  0.00     0.002 A 
ATOM     24  C   UNL A   1      33.617  28.560  25.692  1.00  0.00     0.022 A 
ENDBRANCH  15  18
ENDBRANCH  13  15
ENDBRANCH   8  13
BRANCH  12  25
ATOM     25  N   UNL A   1      32.224  21.452  23.303  1.00  0.00    -0.355 N 
ATOM     26  C   UNL A   1      31.812  20.929  21.996  1.00  0.00     0.145 C 
BRANCH  25  27
ATOM     27  C   UNL A   1      32.187  20.457  24.376  1.00  0.00     0.153 C 
BRANCH  27  28
ATOM     28  C   UNL A   1      33.027  19.226  24.122  1.00  0.00    -0.029 A 
ATOM     29  C   UNL A   1      34.321  19.150  24.665  1.00  0.00     0.005 A 
ATOM     30  C   UNL A   1      32.516  18.101  23.456  1.00  0.00     0.005 A 
ATOM     31  C   UNL A   1      35.091  17.995  24.518  1.00  0.00     0.000 A 
ATOM     32  C   UNL A   1      33.289  16.947  23.307  1.00  0.00     0.000 A 
ATOM     33  C   UNL A   1      34.577  16.896  23.834  1.00  0.00     0.000 A 
ENDBRANCH  27  28
ENDBRANCH  25  27
ENDBRANCH  12  25
ENDBRANCH   4   7
ENDBRANCH   2   3
ENDBRANCH   1   2
BRANCH   1  34
ATOM     34  C   UNL A   1      36.245  22.213  25.013  1.00  0.00     0.023 C 
BRANCH  34  35
ATOM     35  C   UNL A   1      37.752  22.351  24.863  1.00  0.00     0.116 C 
BRANCH  35  36
ATOM     36  N   UNL A   1      38.500  21.819  25.991  1.00  0.00    -0.352 N 
ATOM     37  C   UNL A   1      39.673  22.404  26.463  1.00  0.00     0.251 C 
ATOM     38  H   UNL A   1      38.163  21.011  26.441  1.00  0.00     0.163 HD
ATOM     39  O   UNL A   1      40.698  21.808  26.705  1.00  0.00    -0.269 OA
BRANCH  37  40
ATOM     40  C   UNL A   1      39.558  23.854  26.734  1.00  0.00     0.039 A 
ATOM     41  C   UNL A   1      40.261  24.746  25.917  1.00  0.00     0.014 A 
ATOM     42  C   UNL A   1      38.996  24.257  27.942  1.00  0.00     0.014 A 
ATOM     43  C   UNL A   1      40.557  26.015  26.399  1.00  0.00     0.010 A 
ATOM     44  C   UNL A   1      39.374  25.472  28.459  1.00  0.00     0.010 A 
ATOM     45  C   UNL A   1      40.191  26.326  27.705  1.00  0.00    -0.014 A 
BRANCH  45  46
ATOM     46  C   UNL A   1      40.645  27.499  28.428  1.00  0.00     0.031 A 
ATOM     47  C   UNL A   1      39.739  28.654  28.560  1.00  0.00     0.074 A 
ATOM     48  C   UNL A   1      41.795  27.419  29.130  1.00  0.00     0.049 A 
ATOM     49  N   UNL A   1      40.089  29.815  28.992  1.00  0.00    -0.248 NA
ATOM     50  C   UNL A   1      38.339  28.591  28.151  1.00  0.00     0.031 C 
ATOM     51  C   UNL A   1      42.238  28.296  30.207  1.00  0.00     0.029 A 
ATOM     52  N   UNL A   1      42.921  26.651  28.831  1.00  0.00    -0.354 N 
ATOM     53  C   UNL A   1      38.933  30.518  29.245  1.00  0.00     0.074 A 
ATOM     54  C   UNL A   1      37.889  29.769  28.590  1.00  0.00     0.031 C 
ATOM     55  C   UNL A   1      43.578  28.264  30.252  1.00  0.00     0.029 A 
ATOM     56  C   UNL A   1      44.018  27.474  29.110  1.00  0.00     0.049 A 
ATOM     57  H   UNL A   1      42.941  25.726  28.496  1.00  0.00     0.167 HD
ATOM     58  C   UNL A   1      38.979  31.556  30.129  1.00  0.00     0.031 A 
ATOM     59  C   UNL A   1      44.942  27.867  28.186  1.00  0.00     0.031 A 
ATOM     60  C   UNL A   1      40.366  31.883  30.478  1.00  0.00     0.049 A 
ATOM     61  C   UNL A   1      45.011  29.374  28.143  1.00  0.00     0.074 A 
ATOM     62  C   UNL A   1      41.146  31.638  31.596  1.00  0.00     0.029 A 
ATOM     63  N   UNL A   1      41.245  32.265  29.464  1.00  0.00    -0.354 N 
ATOM     64  N   UNL A   1      44.009  30.146  28.474  1.00  0.00    -0.248 NA
ATOM     65  C   UNL A   1      46.217  30.123  27.813  1.00  0.00     0.031 C 
ATOM     66  C   UNL A   1      42.511  31.759  31.209  1.00  0.00     0.029 A 
ATOM     67  C   UNL A   1      42.559  32.121  29.871  1.00  0.00     0.049 A 
ATOM     68  H   UNL A   1      40.968  32.595  28.579  1.00  0.00     0.167 HD
ATOM     69  C   UNL A   1      44.438  31.443  28.521  1.00  0.00     0.074 A 
ATOM     70  C   UNL A   1      45.815  31.383  28.054  1.00  0.00     0.031 C 
ATOM     71  C   UNL A   1      43.663  32.469  28.984  1.00  0.00     0.031 A 
BRANCH  58  72
ATOM     72  C   UNL A   1      37.761  32.056  30.891  1.00  0.00    -0.014 A 
ATOM     73  C   UNL A   1      36.774  32.812  30.226  1.00  0.00     0.010 A 
ATOM     74  C   UNL A   1      37.566  31.890  32.277  1.00  0.00     0.010 A 
ATOM     75  C   UNL A   1      35.705  33.419  30.912  1.00  0.00     0.020 A 
ATOM     76  C   UNL A   1      36.521  32.507  32.980  1.00  0.00     0.020 A 
ATOM     77  C   UNL A   1      35.596  33.277  32.293  1.00  0.00     0.054 A 
BRANCH  77  78
ATOM     78  S   UNL A   1      34.241  34.090  33.178  1.00  0.00     0.124 S 
ATOM     79  O   UNL A   1      34.853  34.416  34.463  1.00  0.00    -0.237 OA
ATOM     80  O   UNL A   1      33.939  35.227  32.315  1.00  0.00    -0.237 OA
ATOM     81  O   UNL A   1      33.199  33.064  33.236  1.00  0.00    -0.744 OA
ENDBRANCH  77  78
ENDBRANCH  58  72
BRANCH  59  82
ATOM     82  C   UNL A   1      45.150  26.907  27.061  1.00  0.00    -0.014 A 
ATOM     83  C   UNL A   1      46.030  25.829  27.303  1.00  0.00     0.010 A 
ATOM     84  C   UNL A   1      44.184  26.764  26.051  1.00  0.00     0.010 A 
ATOM     85  C   UNL A   1      45.797  24.569  26.741  1.00  0.00     0.020 A 
ATOM     86  C   UNL A   1      43.970  25.507  25.456  1.00  0.00     0.020 A 
ATOM     87  C   UNL A   1      44.720  24.401  25.876  1.00  0.00     0.054 A 
BRANCH  87  88
ATOM     88  S   UNL A   1      44.207  22.705  25.456  1.00  0.00     0.124 S 
ATOM     89  O   UNL A   1      43.987  22.109  26.769  1.00  0.00    -0.237 OA
ATOM     90  O   UNL A   1      43.003  22.933  24.653  1.00  0.00    -0.237 OA
ATOM     91  O   UNL A   1      45.349  22.186  24.712  1.00  0.00    -0.744 OA
ENDBRANCH  87  88
ENDBRANCH  59  82
BRANCH  71  92
ATOM     92  C   UNL A   1      43.937  33.930  28.726  1.00  0.00    -0.014 A 
ATOM     93  C   UNL A   1      43.280  34.675  27.735  1.00  0.00     0.010 A 
ATOM     94  C   UNL A   1      44.764  34.645  29.625  1.00  0.00     0.010 A 
ATOM     95  C   UNL A   1      43.482  36.054  27.607  1.00  0.00     0.020 A 
ATOM     96  C   UNL A   1      44.930  36.028  29.541  1.00  0.00     0.020 A 
ATOM     97  C   UNL A   1      44.302  36.722  28.514  1.00  0.00     0.054 A 
BRANCH  97  98
ATOM     98  S   UNL A   1      44.469  38.519  28.396  1.00  0.00     0.124 S 
ATOM     99  O   UNL A   1      45.541  38.655  27.413  1.00  0.00    -0.237 OA
ATOM    100  O   UNL A   1      43.145  38.939  27.942  1.00  0.00    -0.237 OA
ATOM    101  O   UNL A   1      44.810  38.922  29.758  1.00  0.00    -0.744 OA
ENDBRANCH  97  98
ENDBRANCH  71  92
ENDBRANCH  45  46
ENDBRANCH  37  40
ENDBRANCH  35  36
ENDBRANCH  34  35
ENDBRANCH   1  34
TORSDOF 20
ENDMDL
