MODEL 1
REMARK VINA RESULT:     -11.0      0.000      0.000
REMARK SMILES O=C(NCCCCNC(=O)C1(CCc2ccccn2)CCCCC1)c1ccc(-c2c3nc(c(-c4ccc(S(=O)(=O)[O-])cc4)c4ccc([nH]4)c(-c4ccc(S(=O)(=O)[O-])cc4)c4nc(c(-c5ccc(S(=O)(=O)[O-])cc5)c5ccc2[nH]5)C=C4)C=C3)cc1
REMARK SMILES IDX 5 1 4 2 3 3 1 4 2 5 25 7 26 8 84 9 27 10 83 11 28 12 29 13
REMARK SMILES IDX 30 14 77 15 31 16 82 17 76 18 78 19 32 20 81 21 75 22 74 23
REMARK SMILES IDX 33 25 63 26 44 27 62 28 45 29 48 30 61 31 79 32 46 33 47 34
REMARK SMILES IDX 60 36 80 37 49 38 34 39 35 40 43 41 36 42 42 43 37 44 38 45
REMARK SMILES IDX 39 46 40 47 41 48 64 49 65 50 73 51 66 52 72 53 67 54 68 55
REMARK SMILES IDX 69 56 70 57 71 58 50 59 51 60 59 61 52 62 58 63 53 64 54 65
REMARK SMILES IDX 55 66 56 67 57 68 6 69 7 70 8 71 9 72 10 74 11 75 20 76
REMARK SMILES IDX 24 77 21 78 23 79 22 80 12 81 13 82 14 83 15 84 19 85 16 86
REMARK SMILES IDX 18 87 17 88
REMARK H PARENT 3 6 78 24 48 35 8 73
REMARK Flexibility Score: inf
ROOT
ATOM      1  C   UNL A   1      33.159  27.551  25.657  1.00  0.00     0.023 C 
ENDROOT
BRANCH   1   2
ATOM      2  C   UNL A   1      34.187  28.204  26.553  1.00  0.00     0.116 C 
BRANCH   2   3
ATOM      3  N   UNL A   1      33.781  29.522  27.016  1.00  0.00    -0.352 N 
ATOM      4  O   UNL A   1      33.933  31.414  28.240  1.00  0.00    -0.269 OA
ATOM      5  C   UNL A   1      34.474  30.396  27.818  1.00  0.00     0.251 C 
ATOM      6  H   UNL A   1      32.895  29.828  26.715  1.00  0.00     0.163 HD
BRANCH   5   7
ATOM      7  C   UNL A   1      35.869  30.078  28.190  1.00  0.00     0.039 A 
ATOM      8  C   UNL A   1      36.903  30.283  27.273  1.00  0.00     0.014 A 
ATOM      9  C   UNL A   1      36.142  29.538  29.448  1.00  0.00     0.014 A 
ATOM     10  C   UNL A   1      38.173  29.803  27.549  1.00  0.00     0.010 A 
ATOM     11  C   UNL A   1      37.450  29.171  29.773  1.00  0.00     0.010 A 
ATOM     12  C   UNL A   1      38.473  29.286  28.818  1.00  0.00    -0.014 A 
BRANCH  12  13
ATOM     13  C   UNL A   1      39.889  29.002  29.153  1.00  0.00     0.031 A 
ATOM     14  C   UNL A   1      40.751  30.008  29.858  1.00  0.00     0.074 A 
ATOM     15  C   UNL A   1      40.379  27.791  28.817  1.00  0.00     0.049 A 
ATOM     16  N   UNL A   1      42.010  29.906  30.201  1.00  0.00    -0.248 NA
ATOM     17  C   UNL A   1      40.135  31.295  30.221  1.00  0.00     0.031 C 
ATOM     18  C   UNL A   1      39.627  26.740  28.119  1.00  0.00     0.029 A 
ATOM     19  N   UNL A   1      41.608  27.226  29.030  1.00  0.00    -0.354 N 
ATOM     20  C   UNL A   1      42.347  31.120  30.788  1.00  0.00     0.074 A 
ATOM     21  C   UNL A   1      41.161  31.949  30.750  1.00  0.00     0.031 C 
ATOM     22  C   UNL A   1      40.388  25.644  28.018  1.00  0.00     0.029 A 
ATOM     23  C   UNL A   1      41.706  25.938  28.559  1.00  0.00     0.049 A 
ATOM     24  H   UNL A   1      42.349  27.695  29.477  1.00  0.00     0.167 HD
ATOM     25  C   UNL A   1      43.541  31.501  31.304  1.00  0.00     0.031 A 
ATOM     26  C   UNL A   1      42.751  25.091  28.531  1.00  0.00     0.031 A 
ATOM     27  C   UNL A   1      44.709  30.659  31.341  1.00  0.00     0.049 A 
ATOM     28  C   UNL A   1      44.061  25.552  29.094  1.00  0.00     0.074 A 
ATOM     29  C   UNL A   1      45.956  30.941  31.871  1.00  0.00     0.029 A 
ATOM     30  N   UNL A   1      44.777  29.372  30.828  1.00  0.00    -0.354 N 
ATOM     31  N   UNL A   1      44.352  26.697  29.662  1.00  0.00    -0.248 NA
ATOM     32  C   UNL A   1      45.184  24.611  29.006  1.00  0.00     0.031 C 
ATOM     33  C   UNL A   1      46.792  29.845  31.635  1.00  0.00     0.029 A 
ATOM     34  C   UNL A   1      46.050  28.857  31.008  1.00  0.00     0.049 A 
ATOM     35  H   UNL A   1      44.031  28.894  30.399  1.00  0.00     0.167 HD
ATOM     36  C   UNL A   1      45.693  26.612  30.010  1.00  0.00     0.074 A 
ATOM     37  C   UNL A   1      46.146  25.293  29.612  1.00  0.00     0.031 C 
ATOM     38  C   UNL A   1      46.480  27.544  30.599  1.00  0.00     0.031 A 
BRANCH  25  39
ATOM     39  C   UNL A   1      43.663  32.900  31.848  1.00  0.00    -0.014 A 
ATOM     40  C   UNL A   1      43.848  34.003  30.995  1.00  0.00     0.010 A 
ATOM     41  C   UNL A   1      43.502  33.125  33.229  1.00  0.00     0.010 A 
ATOM     42  C   UNL A   1      43.892  35.300  31.515  1.00  0.00     0.020 A 
ATOM     43  C   UNL A   1      43.523  34.422  33.750  1.00  0.00     0.020 A 
ATOM     44  C   UNL A   1      43.727  35.502  32.889  1.00  0.00     0.054 A 
BRANCH  44  45
ATOM     45  S   UNL A   1      43.737  37.200  33.530  1.00  0.00     0.124 S 
ATOM     46  O   UNL A   1      42.402  37.308  34.114  1.00  0.00    -0.237 OA
ATOM     47  O   UNL A   1      44.840  37.175  34.487  1.00  0.00    -0.237 OA
ATOM     48  O   UNL A   1      43.965  38.019  32.343  1.00  0.00    -0.744 OA
ENDBRANCH  44  45
ENDBRANCH  25  39
BRANCH  26  49
ATOM     49  C   UNL A   1      42.600  23.749  27.911  1.00  0.00    -0.014 A 
ATOM     50  C   UNL A   1      42.939  23.536  26.565  1.00  0.00     0.010 A 
ATOM     51  C   UNL A   1      42.136  22.665  28.680  1.00  0.00     0.010 A 
ATOM     52  C   UNL A   1      42.794  22.270  25.992  1.00  0.00     0.020 A 
ATOM     53  C   UNL A   1      42.020  21.392  28.122  1.00  0.00     0.020 A 
ATOM     54  C   UNL A   1      42.333  21.206  26.775  1.00  0.00     0.054 A 
BRANCH  54  55
ATOM     55  S   UNL A   1      42.187  19.561  26.025  1.00  0.00     0.124 S 
ATOM     56  O   UNL A   1      43.089  19.669  24.884  1.00  0.00    -0.237 OA
ATOM     57  O   UNL A   1      42.631  18.679  27.102  1.00  0.00    -0.237 OA
ATOM     58  O   UNL A   1      40.766  19.462  25.696  1.00  0.00    -0.744 OA
ENDBRANCH  54  55
ENDBRANCH  26  49
BRANCH  38  59
ATOM     59  C   UNL A   1      47.905  27.153  30.870  1.00  0.00    -0.014 A 
ATOM     60  C   UNL A   1      48.264  26.497  32.061  1.00  0.00     0.010 A 
ATOM     61  C   UNL A   1      48.894  27.423  29.907  1.00  0.00     0.010 A 
ATOM     62  C   UNL A   1      49.595  26.148  32.299  1.00  0.00     0.020 A 
ATOM     63  C   UNL A   1      50.221  27.050  30.129  1.00  0.00     0.020 A 
ATOM     64  C   UNL A   1      50.565  26.429  31.332  1.00  0.00     0.054 A 
BRANCH  64  65
ATOM     65  S   UNL A   1      52.280  25.934  31.648  1.00  0.00     0.124 S 
ATOM     66  O   UNL A   1      52.120  24.554  32.096  1.00  0.00    -0.237 OA
ATOM     67  O   UNL A   1      52.909  26.102  30.340  1.00  0.00    -0.237 OA
ATOM     68  O   UNL A   1      52.728  26.875  32.673  1.00  0.00    -0.744 OA
ENDBRANCH  64  65
ENDBRANCH  38  59
ENDBRANCH  12  13
ENDBRANCH   5   7
ENDBRANCH   2   3
ENDBRANCH   1   2
BRANCH   1  69
ATOM     69  C   UNL A   1      31.895  27.121  26.378  1.00  0.00     0.023 C 
BRANCH  69  70
ATOM     70  C   UNL A   1      31.165  25.945  25.728  1.00  0.00     0.116 C 
BRANCH  70  71
ATOM     71  N   UNL A   1      30.959  24.790  26.592  1.00  0.00    -0.356 N 
ATOM     72  C   UNL A   1      31.640  23.619  26.769  1.00  0.00     0.226 C 
ATOM     73  H   UNL A   1      30.166  24.871  27.168  1.00  0.00     0.163 HD
ATOM     74  O   UNL A   1      31.298  22.920  27.728  1.00  0.00    -0.274 OA
BRANCH  72  75
ATOM     75  C   UNL A   1      32.809  23.189  25.852  1.00  0.00     0.050 C 
ATOM     76  C   UNL A   1      32.382  23.537  24.396  1.00  0.00     0.017 C 
ATOM     77  C   UNL A   1      34.076  24.058  26.127  1.00  0.00     0.017 C 
ATOM     78  C   UNL A   1      33.467  23.336  23.346  1.00  0.00     0.001 C 
ATOM     79  C   UNL A   1      35.198  23.839  25.106  1.00  0.00     0.001 C 
ATOM     80  C   UNL A   1      34.728  24.116  23.685  1.00  0.00     0.000 C 
BRANCH  75  81
ATOM     81  C   UNL A   1      33.157  21.689  26.084  1.00  0.00     0.023 C 
BRANCH  81  82
ATOM     82  C   UNL A   1      32.320  20.606  25.348  1.00  0.00     0.057 C 
BRANCH  82  83
ATOM     83  C   UNL A   1      32.922  19.246  25.066  1.00  0.00     0.040 A 
ATOM     84  C   UNL A   1      34.206  19.129  24.535  1.00  0.00     0.024 A 
ATOM     85  N   UNL A   1      32.154  18.156  25.300  1.00  0.00    -0.261 NA
ATOM     86  C   UNL A   1      34.748  17.865  24.311  1.00  0.00     0.003 A 
ATOM     87  C   UNL A   1      32.696  16.938  25.041  1.00  0.00     0.111 A 
ATOM     88  C   UNL A   1      33.983  16.741  24.574  1.00  0.00     0.020 A 
ENDBRANCH  82  83
ENDBRANCH  81  82
ENDBRANCH  75  81
ENDBRANCH  72  75
ENDBRANCH  70  71
ENDBRANCH  69  70
ENDBRANCH   1  69
TORSDOF 17
ENDMDL
MODEL 2
REMARK VINA RESULT:     -10.8      3.157      9.787
REMARK SMILES O=C(NCCCCNC(=O)C1(CCc2ccccn2)CCCCC1)c1ccc(-c2c3nc(c(-c4ccc(S(=O)(=O)[O-])cc4)c4ccc([nH]4)c(-c4ccc(S(=O)(=O)[O-])cc4)c4nc(c(-c5ccc(S(=O)(=O)[O-])cc5)c5ccc2[nH]5)C=C4)C=C3)cc1
REMARK SMILES IDX 5 1 4 2 3 3 1 4 2 5 25 7 26 8 84 9 27 10 83 11 28 12 29 13
REMARK SMILES IDX 30 14 77 15 31 16 82 17 76 18 78 19 32 20 81 21 75 22 74 23
REMARK SMILES IDX 33 25 63 26 44 27 62 28 45 29 48 30 61 31 79 32 46 33 47 34
REMARK SMILES IDX 60 36 80 37 49 38 34 39 35 40 43 41 36 42 42 43 37 44 38 45
REMARK SMILES IDX 39 46 40 47 41 48 64 49 65 50 73 51 66 52 72 53 67 54 68 55
REMARK SMILES IDX 69 56 70 57 71 58 50 59 51 60 59 61 52 62 58 63 53 64 54 65
REMARK SMILES IDX 55 66 56 67 57 68 6 69 7 70 8 71 9 72 10 74 11 75 20 76
REMARK SMILES IDX 24 77 21 78 23 79 22 80 12 81 13 82 14 83 15 84 19 85 16 86
REMARK SMILES IDX 18 87 17 88
REMARK H PARENT 3 6 78 24 48 35 8 73
REMARK Flexibility Score: inf
ROOT
ATOM      1  C   UNL A   1      35.508  24.116  24.481  1.00  0.00     0.023 C 
ENDROOT
BRANCH   1   2
ATOM      2  C   UNL A   1      36.480  24.183  25.637  1.00  0.00     0.116 C 
BRANCH   2   3
ATOM      3  N   UNL A   1      37.418  23.072  25.655  1.00  0.00    -0.352 N 
ATOM      4  O   UNL A   1      39.424  22.072  25.935  1.00  0.00    -0.269 OA
ATOM      5  C   UNL A   1      38.710  23.053  26.123  1.00  0.00     0.251 C 
ATOM      6  H   UNL A   1      37.085  22.223  25.285  1.00  0.00     0.163 HD
BRANCH   5   7
ATOM      7  C   UNL A   1      39.236  24.241  26.828  1.00  0.00     0.039 A 
ATOM      8  C   UNL A   1      38.952  24.435  28.182  1.00  0.00     0.014 A 
ATOM      9  C   UNL A   1      39.988  25.184  26.125  1.00  0.00     0.014 A 
ATOM     10  C   UNL A   1      39.275  25.639  28.788  1.00  0.00     0.010 A 
ATOM     11  C   UNL A   1      40.424  26.342  26.774  1.00  0.00     0.010 A 
ATOM     12  C   UNL A   1      40.057  26.585  28.107  1.00  0.00    -0.014 A 
BRANCH  12  13
ATOM     13  C   UNL A   1      40.580  27.749  28.861  1.00  0.00     0.031 A 
ATOM     14  C   UNL A   1      41.971  27.764  29.424  1.00  0.00     0.074 A 
ATOM     15  C   UNL A   1      39.765  28.812  29.012  1.00  0.00     0.049 A 
ATOM     16  N   UNL A   1      42.559  28.705  30.120  1.00  0.00    -0.248 NA
ATOM     17  C   UNL A   1      42.812  26.579  29.191  1.00  0.00     0.031 C 
ATOM     18  C   UNL A   1      38.386  28.897  28.511  1.00  0.00     0.029 A 
ATOM     19  N   UNL A   1      39.971  30.029  29.605  1.00  0.00    -0.354 N 
ATOM     20  C   UNL A   1      43.822  28.216  30.435  1.00  0.00     0.074 A 
ATOM     21  C   UNL A   1      43.915  26.892  29.860  1.00  0.00     0.031 C 
ATOM     22  C   UNL A   1      37.898  30.118  28.763  1.00  0.00     0.029 A 
ATOM     23  C   UNL A   1      38.886  30.870  29.519  1.00  0.00     0.049 A 
ATOM     24  H   UNL A   1      40.814  30.278  30.048  1.00  0.00     0.167 HD
ATOM     25  C   UNL A   1      44.805  28.823  31.143  1.00  0.00     0.031 A 
ATOM     26  C   UNL A   1      38.690  32.102  30.022  1.00  0.00     0.031 A 
ATOM     27  C   UNL A   1      44.697  30.147  31.700  1.00  0.00     0.049 A 
ATOM     28  C   UNL A   1      39.792  32.737  30.816  1.00  0.00     0.074 A 
ATOM     29  C   UNL A   1      45.649  30.862  32.406  1.00  0.00     0.029 A 
ATOM     30  N   UNL A   1      43.573  30.955  31.617  1.00  0.00    -0.354 N 
ATOM     31  N   UNL A   1      40.985  32.263  31.084  1.00  0.00    -0.248 NA
ATOM     32  C   UNL A   1      39.519  34.063  31.379  1.00  0.00     0.031 C 
ATOM     33  C   UNL A   1      45.084  32.083  32.792  1.00  0.00     0.029 A 
ATOM     34  C   UNL A   1      43.799  32.151  32.278  1.00  0.00     0.049 A 
ATOM     35  H   UNL A   1      42.737  30.716  31.155  1.00  0.00     0.167 HD
ATOM     36  C   UNL A   1      41.612  33.242  31.842  1.00  0.00     0.074 A 
ATOM     37  C   UNL A   1      40.675  34.342  31.965  1.00  0.00     0.031 C 
ATOM     38  C   UNL A   1      42.850  33.228  32.393  1.00  0.00     0.031 A 
BRANCH  25  39
ATOM     39  C   UNL A   1      46.078  28.057  31.386  1.00  0.00    -0.014 A 
ATOM     40  C   UNL A   1      46.246  27.264  32.535  1.00  0.00     0.010 A 
ATOM     41  C   UNL A   1      47.090  28.062  30.406  1.00  0.00     0.010 A 
ATOM     42  C   UNL A   1      47.410  26.507  32.708  1.00  0.00     0.020 A 
ATOM     43  C   UNL A   1      48.244  27.290  30.565  1.00  0.00     0.020 A 
ATOM     44  C   UNL A   1      48.401  26.524  31.722  1.00  0.00     0.054 A 
BRANCH  44  45
ATOM     45  S   UNL A   1      49.877  25.493  31.950  1.00  0.00     0.124 S 
ATOM     46  O   UNL A   1      50.121  25.013  30.591  1.00  0.00    -0.237 OA
ATOM     47  O   UNL A   1      50.858  26.447  32.463  1.00  0.00    -0.237 OA
ATOM     48  O   UNL A   1      49.447  24.474  32.903  1.00  0.00    -0.744 OA
ENDBRANCH  44  45
ENDBRANCH  25  39
BRANCH  26  49
ATOM     49  C   UNL A   1      37.385  32.785  29.820  1.00  0.00    -0.014 A 
ATOM     50  C   UNL A   1      37.165  33.598  28.697  1.00  0.00     0.010 A 
ATOM     51  C   UNL A   1      36.342  32.599  30.747  1.00  0.00     0.010 A 
ATOM     52  C   UNL A   1      35.934  34.234  28.516  1.00  0.00     0.020 A 
ATOM     53  C   UNL A   1      35.100  33.206  30.554  1.00  0.00     0.020 A 
ATOM     54  C   UNL A   1      34.910  34.035  29.447  1.00  0.00     0.054 A 
BRANCH  54  55
ATOM     55  S   UNL A   1      33.306  34.838  29.177  1.00  0.00     0.124 S 
ATOM     56  O   UNL A   1      32.742  34.845  30.523  1.00  0.00    -0.237 OA
ATOM     57  O   UNL A   1      33.689  36.143  28.643  1.00  0.00    -0.237 OA
ATOM     58  O   UNL A   1      32.640  33.955  28.222  1.00  0.00    -0.744 OA
ENDBRANCH  54  55
ENDBRANCH  26  49
BRANCH  38  59
ATOM     59  C   UNL A   1      43.265  34.455  33.155  1.00  0.00    -0.014 A 
ATOM     60  C   UNL A   1      43.052  34.556  34.541  1.00  0.00     0.010 A 
ATOM     61  C   UNL A   1      43.903  35.510  32.477  1.00  0.00     0.010 A 
ATOM     62  C   UNL A   1      43.439  35.706  35.232  1.00  0.00     0.020 A 
ATOM     63  C   UNL A   1      44.315  36.650  33.169  1.00  0.00     0.020 A 
ATOM     64  C   UNL A   1      44.066  36.747  34.540  1.00  0.00     0.054 A 
BRANCH  64  65
ATOM     65  S   UNL A   1      44.590  38.216  35.463  1.00  0.00     0.124 S 
ATOM     66  O   UNL A   1      44.095  37.924  36.806  1.00  0.00    -0.237 OA
ATOM     67  O   UNL A   1      46.043  38.192  35.310  1.00  0.00    -0.237 OA
ATOM     68  O   UNL A   1      43.915  39.316  34.776  1.00  0.00    -0.744 OA
ENDBRANCH  64  65
ENDBRANCH  38  59
ENDBRANCH  12  13
ENDBRANCH   5   7
ENDBRANCH   2   3
ENDBRANCH   1   2
BRANCH   1  69
ATOM     69  C   UNL A   1      34.049  24.130  24.899  1.00  0.00     0.023 C 
BRANCH  69  70
ATOM     70  C   UNL A   1      33.138  24.951  23.987  1.00  0.00     0.116 C 
BRANCH  70  71
ATOM     71  N   UNL A   1      33.735  26.165  23.445  1.00  0.00    -0.356 N 
ATOM     72  C   UNL A   1      33.571  27.492  23.718  1.00  0.00     0.226 C 
ATOM     73  H   UNL A   1      34.394  25.991  22.735  1.00  0.00     0.163 HD
ATOM     74  O   UNL A   1      34.378  28.269  23.197  1.00  0.00    -0.274 OA
BRANCH  72  75
ATOM     75  C   UNL A   1      32.464  28.018  24.662  1.00  0.00     0.050 C 
ATOM     76  C   UNL A   1      32.633  27.258  26.011  1.00  0.00     0.017 C 
ATOM     77  C   UNL A   1      32.700  29.522  25.007  1.00  0.00     0.017 C 
ATOM     78  C   UNL A   1      31.732  27.746  27.138  1.00  0.00     0.001 C 
ATOM     79  C   UNL A   1      31.773  30.046  26.110  1.00  0.00     0.001 C 
ATOM     80  C   UNL A   1      31.908  29.235  27.391  1.00  0.00     0.000 C 
BRANCH  75  81
ATOM     81  C   UNL A   1      31.065  27.858  24.000  1.00  0.00     0.023 C 
BRANCH  81  82
ATOM     82  C   UNL A   1      30.813  28.523  22.617  1.00  0.00     0.057 C 
BRANCH  82  83
ATOM     83  C   UNL A   1      29.831  29.669  22.496  1.00  0.00     0.040 A 
ATOM     84  C   UNL A   1      29.361  30.330  23.630  1.00  0.00     0.024 A 
ATOM     85  N   UNL A   1      29.391  29.994  21.257  1.00  0.00    -0.261 NA
ATOM     86  C   UNL A   1      28.479  31.400  23.489  1.00  0.00     0.003 A 
ATOM     87  C   UNL A   1      28.507  31.019  21.153  1.00  0.00     0.111 A 
ATOM     88  C   UNL A   1      28.045  31.761  22.225  1.00  0.00     0.020 A 
ENDBRANCH  82  83
ENDBRANCH  81  82
ENDBRANCH  75  81
ENDBRANCH  72  75
ENDBRANCH  70  71
ENDBRANCH  69  70
ENDBRANCH   1  69
TORSDOF 17
ENDMDL
MODEL 3
REMARK VINA RESULT:     -10.8      1.072      8.408
REMARK SMILES O=C(NCCCCNC(=O)C1(CCc2ccccn2)CCCCC1)c1ccc(-c2c3nc(c(-c4ccc(S(=O)(=O)[O-])cc4)c4ccc([nH]4)c(-c4ccc(S(=O)(=O)[O-])cc4)c4nc(c(-c5ccc(S(=O)(=O)[O-])cc5)c5ccc2[nH]5)C=C4)C=C3)cc1
REMARK SMILES IDX 5 1 4 2 3 3 1 4 2 5 25 7 26 8 84 9 27 10 83 11 28 12 29 13
REMARK SMILES IDX 30 14 77 15 31 16 82 17 76 18 78 19 32 20 81 21 75 22 74 23
REMARK SMILES IDX 33 25 63 26 44 27 62 28 45 29 48 30 61 31 79 32 46 33 47 34
REMARK SMILES IDX 60 36 80 37 49 38 34 39 35 40 43 41 36 42 42 43 37 44 38 45
REMARK SMILES IDX 39 46 40 47 41 48 64 49 65 50 73 51 66 52 72 53 67 54 68 55
REMARK SMILES IDX 69 56 70 57 71 58 50 59 51 60 59 61 52 62 58 63 53 64 54 65
REMARK SMILES IDX 55 66 56 67 57 68 6 69 7 70 8 71 9 72 10 74 11 75 20 76
REMARK SMILES IDX 24 77 21 78 23 79 22 80 12 81 13 82 14 83 15 84 19 85 16 86
REMARK SMILES IDX 18 87 17 88
REMARK H PARENT 3 6 78 24 48 35 8 73
REMARK Flexibility Score: inf
ROOT
ATOM      1  C   UNL A   1      33.033  27.612  25.899  1.00  0.00     0.023 C 
ENDROOT
BRANCH   1   2
ATOM      2  C   UNL A   1      34.029  28.182  26.883  1.00  0.00     0.116 C 
BRANCH   2   3
ATOM      3  N   UNL A   1      33.713  29.543  27.287  1.00  0.00    -0.352 N 
ATOM      4  O   UNL A   1      34.032  31.498  28.373  1.00  0.00    -0.269 OA
ATOM      5  C   UNL A   1      34.498  30.432  27.981  1.00  0.00     0.251 C 
ATOM      6  H   UNL A   1      32.821  29.871  27.029  1.00  0.00     0.163 HD
BRANCH   5   7
ATOM      7  C   UNL A   1      35.902  30.072  28.275  1.00  0.00     0.039 A 
ATOM      8  C   UNL A   1      36.888  30.240  27.300  1.00  0.00     0.014 A 
ATOM      9  C   UNL A   1      36.229  29.532  29.520  1.00  0.00     0.014 A 
ATOM     10  C   UNL A   1      38.156  29.722  27.506  1.00  0.00     0.010 A 
ATOM     11  C   UNL A   1      37.542  29.126  29.773  1.00  0.00     0.010 A 
ATOM     12  C   UNL A   1      38.511  29.203  28.761  1.00  0.00    -0.014 A 
BRANCH  12  13
ATOM     13  C   UNL A   1      39.935  28.878  29.017  1.00  0.00     0.031 A 
ATOM     14  C   UNL A   1      40.529  27.561  28.610  1.00  0.00     0.074 A 
ATOM     15  C   UNL A   1      40.692  29.818  29.617  1.00  0.00     0.049 A 
ATOM     16  N   UNL A   1      41.753  27.130  28.783  1.00  0.00    -0.248 NA
ATOM     17  C   UNL A   1      39.646  26.598  27.931  1.00  0.00     0.031 C 
ATOM     18  C   UNL A   1      40.210  31.133  30.063  1.00  0.00     0.029 A 
ATOM     19  N   UNL A   1      42.023  29.834  29.937  1.00  0.00    -0.354 N 
ATOM     20  C   UNL A   1      41.782  25.839  28.268  1.00  0.00     0.074 A 
ATOM     21  C   UNL A   1      40.450  25.552  27.779  1.00  0.00     0.031 C 
ATOM     22  C   UNL A   1      41.239  31.843  30.540  1.00  0.00     0.029 A 
ATOM     23  C   UNL A   1      42.432  31.011  30.519  1.00  0.00     0.049 A 
ATOM     24  H   UNL A   1      42.629  29.077  29.768  1.00  0.00     0.167 HD
ATOM     25  C   UNL A   1      42.827  24.979  28.214  1.00  0.00     0.031 A 
ATOM     26  C   UNL A   1      43.628  31.375  31.015  1.00  0.00     0.031 A 
ATOM     27  C   UNL A   1      44.149  25.285  28.698  1.00  0.00     0.049 A 
ATOM     28  C   UNL A   1      44.758  30.392  30.957  1.00  0.00     0.074 A 
ATOM     29  C   UNL A   1      45.283  24.492  28.661  1.00  0.00     0.029 A 
ATOM     30  N   UNL A   1      44.516  26.477  29.307  1.00  0.00    -0.354 N 
ATOM     31  N   UNL A   1      44.767  29.184  30.447  1.00  0.00    -0.248 NA
ATOM     32  C   UNL A   1      46.032  30.816  31.547  1.00  0.00     0.031 C 
ATOM     33  C   UNL A   1      46.323  25.185  29.291  1.00  0.00     0.029 A 
ATOM     34  C   UNL A   1      45.852  26.431  29.670  1.00  0.00     0.049 A 
ATOM     35  H   UNL A   1      43.916  27.243  29.457  1.00  0.00     0.167 HD
ATOM     36  C   UNL A   1      46.054  28.705  30.645  1.00  0.00     0.074 A 
ATOM     37  C   UNL A   1      46.800  29.765  31.297  1.00  0.00     0.031 C 
ATOM     38  C   UNL A   1      46.571  27.495  30.323  1.00  0.00     0.031 A 
BRANCH  25  39
ATOM     39  C   UNL A   1      42.587  23.608  27.640  1.00  0.00    -0.014 A 
ATOM     40  C   UNL A   1      42.883  23.315  26.297  1.00  0.00     0.010 A 
ATOM     41  C   UNL A   1      42.138  22.571  28.482  1.00  0.00     0.010 A 
ATOM     42  C   UNL A   1      42.716  22.017  25.802  1.00  0.00     0.020 A 
ATOM     43  C   UNL A   1      41.991  21.268  27.996  1.00  0.00     0.020 A 
ATOM     44  C   UNL A   1      42.272  21.002  26.655  1.00  0.00     0.054 A 
BRANCH  44  45
ATOM     45  S   UNL A   1      42.113  19.318  25.998  1.00  0.00     0.124 S 
ATOM     46  O   UNL A   1      40.673  19.219  25.770  1.00  0.00    -0.237 OA
ATOM     47  O   UNL A   1      42.937  19.365  24.793  1.00  0.00    -0.237 OA
ATOM     48  O   UNL A   1      42.632  18.475  27.071  1.00  0.00    -0.744 OA
ENDBRANCH  44  45
ENDBRANCH  25  39
BRANCH  26  49
ATOM     49  C   UNL A   1      43.793  32.712  31.643  1.00  0.00    -0.014 A 
ATOM     50  C   UNL A   1      44.214  33.816  30.884  1.00  0.00     0.010 A 
ATOM     51  C   UNL A   1      43.501  32.891  33.008  1.00  0.00     0.010 A 
ATOM     52  C   UNL A   1      44.364  35.069  31.483  1.00  0.00     0.020 A 
ATOM     53  C   UNL A   1      43.619  34.147  33.604  1.00  0.00     0.020 A 
ATOM     54  C   UNL A   1      44.067  35.226  32.841  1.00  0.00     0.054 A 
BRANCH  54  55
ATOM     55  S   UNL A   1      44.232  36.868  33.594  1.00  0.00     0.124 S 
ATOM     56  O   UNL A   1      43.312  36.775  34.722  1.00  0.00    -0.237 OA
ATOM     57  O   UNL A   1      45.651  36.921  33.936  1.00  0.00    -0.237 OA
ATOM     58  O   UNL A   1      43.823  37.776  32.523  1.00  0.00    -0.744 OA
ENDBRANCH  54  55
ENDBRANCH  26  49
BRANCH  38  59
ATOM     59  C   UNL A   1      48.020  27.268  30.650  1.00  0.00    -0.014 A 
ATOM     60  C   UNL A   1      48.408  26.715  31.883  1.00  0.00     0.010 A 
ATOM     61  C   UNL A   1      49.004  27.589  29.697  1.00  0.00     0.010 A 
ATOM     62  C   UNL A   1      49.761  26.519  32.171  1.00  0.00     0.020 A 
ATOM     63  C   UNL A   1      50.355  27.369  29.972  1.00  0.00     0.020 A 
ATOM     64  C   UNL A   1      50.725  26.849  31.214  1.00  0.00     0.054 A 
BRANCH  64  65
ATOM     65  S   UNL A   1      52.472  26.552  31.598  1.00  0.00     0.124 S 
ATOM     66  O   UNL A   1      52.827  27.756  32.344  1.00  0.00    -0.237 OA
ATOM     67  O   UNL A   1      52.425  25.319  32.379  1.00  0.00    -0.237 OA
ATOM     68  O   UNL A   1      53.098  26.427  30.283  1.00  0.00    -0.744 OA
ENDBRANCH  64  65
ENDBRANCH  38  59
ENDBRANCH  12  13
ENDBRANCH   5   7
ENDBRANCH   2   3
ENDBRANCH   1   2
BRANCH   1  69
ATOM     69  C   UNL A   1      33.653  27.138  24.597  1.00  0.00     0.023 C 
BRANCH  69  70
ATOM     70  C   UNL A   1      32.852  26.057  23.872  1.00  0.00     0.116 C 
BRANCH  70  71
ATOM     71  N   UNL A   1      33.651  25.069  23.158  1.00  0.00    -0.356 N 
ATOM     72  C   UNL A   1      33.816  23.721  23.294  1.00  0.00     0.226 C 
ATOM     73  H   UNL A   1      34.181  25.454  22.423  1.00  0.00     0.163 HD
ATOM     74  O   UNL A   1      34.436  23.144  22.395  1.00  0.00    -0.274 OA
BRANCH  72  75
ATOM     75  C   UNL A   1      33.231  22.927  24.487  1.00  0.00     0.050 C 
ATOM     76  C   UNL A   1      33.700  23.658  25.779  1.00  0.00     0.017 C 
ATOM     77  C   UNL A   1      31.673  23.023  24.504  1.00  0.00     0.017 C 
ATOM     78  C   UNL A   1      33.097  23.124  27.072  1.00  0.00     0.001 C 
ATOM     79  C   UNL A   1      31.041  22.451  25.778  1.00  0.00     0.001 C 
ATOM     80  C   UNL A   1      31.577  23.136  27.028  1.00  0.00     0.000 C 
BRANCH  75  81
ATOM     81  C   UNL A   1      33.650  21.430  24.401  1.00  0.00     0.023 C 
BRANCH  81  82
ATOM     82  C   UNL A   1      32.623  20.397  23.861  1.00  0.00     0.057 C 
BRANCH  82  83
ATOM     83  C   UNL A   1      32.797  18.925  24.167  1.00  0.00     0.040 A 
ATOM     84  C   UNL A   1      33.317  18.053  23.211  1.00  0.00     0.024 A 
ATOM     85  N   UNL A   1      32.387  18.480  25.378  1.00  0.00    -0.261 NA
ATOM     86  C   UNL A   1      33.493  16.707  23.528  1.00  0.00     0.003 A 
ATOM     87  C   UNL A   1      32.541  17.158  25.647  1.00  0.00     0.111 A 
ATOM     88  C   UNL A   1      33.104  16.246  24.774  1.00  0.00     0.020 A 
ENDBRANCH  82  83
ENDBRANCH  81  82
ENDBRANCH  75  81
ENDBRANCH  72  75
ENDBRANCH  70  71
ENDBRANCH  69  70
ENDBRANCH   1  69
TORSDOF 17
ENDMDL
