MODEL 1
REMARK VINA RESULT:     -10.1      0.000      0.000
REMARK SMILES CC(C)[C@H]([NH2+][C@H]1CCCS[C@H]1C)C(=O)NCCCCNC(=O)c1ccc(-c2c3nc(c(-c4ccc(S(=O)(=O)[O-])cc4)c4ccc([nH]4)c(-c4ccc(S(=O)(=O)[O-])cc4)c4nc(c(-c5ccc(S(=O)(=O)[O-])cc5)c5ccc2[nH]5)C=C4)C=C3)cc1
REMARK SMILES IDX 18 1 17 2 16 3 15 4 13 5 14 6 4 8 2 9 1 10 3 11 5 12 6 15
REMARK SMILES IDX 7 16 11 17 8 18 10 19 12 20 9 21 19 22 20 23 21 24 22 26
REMARK SMILES IDX 23 27 24 28 82 29 25 30 81 31 26 32 27 33 28 34 75 35 29 36
REMARK SMILES IDX 80 37 74 38 76 39 30 40 79 41 73 42 72 43 31 45 61 46 42 47
REMARK SMILES IDX 60 48 43 49 46 50 59 51 77 52 44 53 45 54 58 56 78 57 47 58
REMARK SMILES IDX 32 59 33 60 41 61 34 62 40 63 35 64 36 65 37 66 38 67 39 68
REMARK SMILES IDX 62 69 63 70 71 71 64 72 70 73 65 74 66 75 67 76 68 77 69 78
REMARK SMILES IDX 48 79 49 80 57 81 50 82 56 83 51 84 52 85 53 86 54 87 55 88
REMARK H PARENT 15 7 5 13 5 14 20 25 76 44 46 55
REMARK Flexibility Score: inf
ROOT
ATOM      1  C   UNL A   1      33.357  28.664  25.563  1.00  0.00     0.023 C 
ENDROOT
BRANCH   1   2
ATOM      2  C   UNL A   1      31.923  29.021  25.176  1.00  0.00     0.023 C 
BRANCH   2   3
ATOM      3  C   UNL A   1      31.153  27.932  24.442  1.00  0.00     0.116 C 
BRANCH   3   4
ATOM      4  N   UNL A   1      30.629  26.897  25.312  1.00  0.00    -0.351 N 
ATOM      5  C   UNL A   1      31.182  25.695  25.661  1.00  0.00     0.278 C 
ATOM      6  O   UNL A   1      30.622  25.028  26.535  1.00  0.00    -0.268 OA
ATOM      7  H   UNL A   1      29.747  27.085  25.708  1.00  0.00     0.163 HD
BRANCH   5   8
ATOM      8  C   UNL A   1      32.490  25.198  25.018  1.00  0.00     0.275 C 
BRANCH   8   9
ATOM      9  C   UNL A   1      32.212  24.417  23.674  1.00  0.00     0.051 C 
ATOM     10  C   UNL A   1      30.787  23.867  23.541  1.00  0.00     0.014 C 
ATOM     11  C   UNL A   1      32.592  25.101  22.354  1.00  0.00     0.014 C 
ENDBRANCH   8   9
BRANCH   8  12
ATOM     12  N   UNL A   1      33.359  24.535  26.028  1.00  0.00    -0.332 N 
ATOM     13  H   UNL A   1      32.744  24.134  26.736  1.00  0.00     0.347 HD
ATOM     14  H   UNL A   1      33.985  25.276  26.342  1.00  0.00     0.347 HD
BRANCH  12  15
ATOM     15  C   UNL A   1      34.279  23.449  25.580  1.00  0.00     0.195 C 
ATOM     16  C   UNL A   1      35.778  23.808  25.686  1.00  0.00     0.067 C 
ATOM     17  C   UNL A   1      33.950  21.995  26.044  1.00  0.00     0.101 C 
ATOM     18  C   UNL A   1      36.696  22.858  24.912  1.00  0.00     0.017 C 
ATOM     19  S   UNL A   1      34.903  20.786  25.023  1.00  0.00    -0.153 SA
ATOM     20  C   UNL A   1      34.185  21.655  27.513  1.00  0.00     0.026 C 
ATOM     21  C   UNL A   1      36.574  21.406  25.345  1.00  0.00     0.070 C 
ENDBRANCH  12  15
ENDBRANCH   8  12
ENDBRANCH   5   8
ENDBRANCH   3   4
ENDBRANCH   2   3
ENDBRANCH   1   2
BRANCH   1  22
ATOM     22  C   UNL A   1      33.671  28.705  27.053  1.00  0.00     0.116 C 
BRANCH  22  23
ATOM     23  N   UNL A   1      33.589  30.039  27.630  1.00  0.00    -0.352 N 
ATOM     24  C   UNL A   1      34.547  30.748  28.315  1.00  0.00     0.251 C 
ATOM     25  H   UNL A   1      32.726  30.497  27.513  1.00  0.00     0.163 HD
ATOM     26  O   UNL A   1      34.277  31.842  28.794  1.00  0.00    -0.269 OA
BRANCH  24  27
ATOM     27  C   UNL A   1      35.889  30.158  28.509  1.00  0.00     0.039 A 
ATOM     28  C   UNL A   1      36.790  30.184  27.441  1.00  0.00     0.014 A 
ATOM     29  C   UNL A   1      36.272  29.631  29.745  1.00  0.00     0.014 A 
ATOM     30  C   UNL A   1      38.104  29.757  27.639  1.00  0.00     0.010 A 
ATOM     31  C   UNL A   1      37.600  29.276  29.958  1.00  0.00     0.010 A 
ATOM     32  C   UNL A   1      38.532  29.342  28.910  1.00  0.00    -0.014 A 
BRANCH  32  33
ATOM     33  C   UNL A   1      39.952  28.992  29.170  1.00  0.00     0.031 A 
ATOM     34  C   UNL A   1      40.893  30.020  29.735  1.00  0.00     0.074 A 
ATOM     35  C   UNL A   1      40.412  27.772  28.825  1.00  0.00     0.049 A 
ATOM     36  N   UNL A   1      42.178  29.924  29.962  1.00  0.00    -0.248 NA
ATOM     37  C   UNL A   1      40.321  31.337  30.062  1.00  0.00     0.031 C 
ATOM     38  C   UNL A   1      39.612  26.703  28.221  1.00  0.00     0.029 A 
ATOM     39  N   UNL A   1      41.669  27.228  28.924  1.00  0.00    -0.354 N 
ATOM     40  C   UNL A   1      42.572  31.170  30.435  1.00  0.00     0.074 A 
ATOM     41  C   UNL A   1      41.401  32.018  30.421  1.00  0.00     0.031 C 
ATOM     42  C   UNL A   1      40.392  25.627  28.025  1.00  0.00     0.029 A 
ATOM     43  C   UNL A   1      41.752  25.939  28.453  1.00  0.00     0.049 A 
ATOM     44  H   UNL A   1      42.438  27.716  29.297  1.00  0.00     0.167 HD
ATOM     45  C   UNL A   1      43.796  31.568  30.859  1.00  0.00     0.031 A 
ATOM     46  C   UNL A   1      42.805  25.103  28.367  1.00  0.00     0.031 A 
ATOM     47  C   UNL A   1      44.955  30.718  30.891  1.00  0.00     0.049 A 
ATOM     48  C   UNL A   1      44.150  25.564  28.857  1.00  0.00     0.074 A 
ATOM     49  C   UNL A   1      46.222  31.009  31.366  1.00  0.00     0.029 A 
ATOM     50  N   UNL A   1      44.990  29.410  30.432  1.00  0.00    -0.354 N 
ATOM     51  N   UNL A   1      44.486  26.725  29.367  1.00  0.00    -0.248 NA
ATOM     52  C   UNL A   1      45.254  24.598  28.772  1.00  0.00     0.031 C 
ATOM     53  C   UNL A   1      47.035  29.892  31.153  1.00  0.00     0.029 A 
ATOM     54  C   UNL A   1      46.263  28.888  30.594  1.00  0.00     0.049 A 
ATOM     55  H   UNL A   1      44.226  28.925  30.047  1.00  0.00     0.167 HD
ATOM     56  C   UNL A   1      45.837  26.620  29.686  1.00  0.00     0.074 A 
ATOM     57  C   UNL A   1      46.249  25.279  29.325  1.00  0.00     0.031 C 
ATOM     58  C   UNL A   1      46.658  27.551  30.230  1.00  0.00     0.031 A 
BRANCH  45  59
ATOM     59  C   UNL A   1      43.939  32.993  31.322  1.00  0.00    -0.014 A 
ATOM     60  C   UNL A   1      44.341  34.008  30.435  1.00  0.00     0.010 A 
ATOM     61  C   UNL A   1      43.634  33.329  32.653  1.00  0.00     0.010 A 
ATOM     62  C   UNL A   1      44.479  35.324  30.880  1.00  0.00     0.020 A 
ATOM     63  C   UNL A   1      43.744  34.650  33.096  1.00  0.00     0.020 A 
ATOM     64  C   UNL A   1      44.184  35.637  32.211  1.00  0.00     0.054 A 
BRANCH  64  65
ATOM     65  S   UNL A   1      44.352  37.358  32.758  1.00  0.00     0.124 S 
ATOM     66  O   UNL A   1      45.784  37.447  33.034  1.00  0.00    -0.237 OA
ATOM     67  O   UNL A   1      43.889  38.112  31.596  1.00  0.00    -0.237 OA
ATOM     68  O   UNL A   1      43.485  37.435  33.932  1.00  0.00    -0.744 OA
ENDBRANCH  64  65
ENDBRANCH  45  59
BRANCH  46  69
ATOM     69  C   UNL A   1      42.624  23.737  27.807  1.00  0.00    -0.014 A 
ATOM     70  C   UNL A   1      42.322  22.655  28.652  1.00  0.00     0.010 A 
ATOM     71  C   UNL A   1      42.741  23.512  26.423  1.00  0.00     0.010 A 
ATOM     72  C   UNL A   1      42.156  21.370  28.127  1.00  0.00     0.020 A 
ATOM     73  C   UNL A   1      42.551  22.232  25.891  1.00  0.00     0.020 A 
ATOM     74  C   UNL A   1      42.271  21.167  26.749  1.00  0.00     0.054 A 
BRANCH  74  75
ATOM     75  S   UNL A   1      42.002  19.501  26.083  1.00  0.00     0.124 S 
ATOM     76  O   UNL A   1      42.861  19.502  24.904  1.00  0.00    -0.237 OA
ATOM     77  O   UNL A   1      42.438  18.646  27.185  1.00  0.00    -0.237 OA
ATOM     78  O   UNL A   1      40.566  19.470  25.815  1.00  0.00    -0.744 OA
ENDBRANCH  74  75
ENDBRANCH  46  69
BRANCH  58  79
ATOM     79  C   UNL A   1      48.082  27.144  30.500  1.00  0.00    -0.014 A 
ATOM     80  C   UNL A   1      49.101  27.397  29.566  1.00  0.00     0.010 A 
ATOM     81  C   UNL A   1      48.410  26.551  31.732  1.00  0.00     0.010 A 
ATOM     82  C   UNL A   1      50.421  27.039  29.849  1.00  0.00     0.020 A 
ATOM     83  C   UNL A   1      49.732  26.213  32.029  1.00  0.00     0.020 A 
ATOM     84  C   UNL A   1      50.728  26.447  31.080  1.00  0.00     0.054 A 
BRANCH  84  85
ATOM     85  S   UNL A   1      52.457  26.034  31.443  1.00  0.00     0.124 S 
ATOM     86  O   UNL A   1      52.337  24.689  32.000  1.00  0.00    -0.237 OA
ATOM     87  O   UNL A   1      53.092  26.117  30.131  1.00  0.00    -0.237 OA
ATOM     88  O   UNL A   1      52.867  27.068  32.392  1.00  0.00    -0.744 OA
ENDBRANCH  84  85
ENDBRANCH  58  79
ENDBRANCH  32  33
ENDBRANCH  24  27
ENDBRANCH  22  23
ENDBRANCH   1  22
TORSDOF 17
ENDMDL
MODEL 2
REMARK VINA RESULT:      -9.6      2.770      9.177
REMARK SMILES CC(C)[C@H]([NH2+][C@H]1CCCS[C@H]1C)C(=O)NCCCCNC(=O)c1ccc(-c2c3nc(c(-c4ccc(S(=O)(=O)[O-])cc4)c4ccc([nH]4)c(-c4ccc(S(=O)(=O)[O-])cc4)c4nc(c(-c5ccc(S(=O)(=O)[O-])cc5)c5ccc2[nH]5)C=C4)C=C3)cc1
REMARK SMILES IDX 18 1 17 2 16 3 15 4 13 5 14 6 4 8 2 9 1 10 3 11 5 12 6 15
REMARK SMILES IDX 7 16 11 17 8 18 10 19 12 20 9 21 19 22 20 23 21 24 22 26
REMARK SMILES IDX 23 27 24 28 82 29 25 30 81 31 26 32 27 33 28 34 75 35 29 36
REMARK SMILES IDX 80 37 74 38 76 39 30 40 79 41 73 42 72 43 31 45 61 46 42 47
REMARK SMILES IDX 60 48 43 49 46 50 59 51 77 52 44 53 45 54 58 56 78 57 47 58
REMARK SMILES IDX 32 59 33 60 41 61 34 62 40 63 35 64 36 65 37 66 38 67 39 68
REMARK SMILES IDX 62 69 63 70 71 71 64 72 70 73 65 74 66 75 67 76 68 77 69 78
REMARK SMILES IDX 48 79 49 80 57 81 50 82 56 83 51 84 52 85 53 86 54 87 55 88
REMARK H PARENT 15 7 5 13 5 14 20 25 76 44 46 55
REMARK Flexibility Score: inf
ROOT
ATOM      1  C   UNL A   1      34.807  24.164  25.290  1.00  0.00     0.023 C 
ENDROOT
BRANCH   1   2
ATOM      2  C   UNL A   1      34.482  23.492  23.957  1.00  0.00     0.023 C 
BRANCH   2   3
ATOM      3  C   UNL A   1      33.413  22.409  24.015  1.00  0.00     0.116 C 
BRANCH   3   4
ATOM      4  N   UNL A   1      32.165  22.782  23.378  1.00  0.00    -0.351 N 
ATOM      5  C   UNL A   1      31.146  23.560  23.856  1.00  0.00     0.278 C 
ATOM      6  O   UNL A   1      30.235  23.867  23.082  1.00  0.00    -0.268 OA
ATOM      7  H   UNL A   1      32.030  22.422  22.471  1.00  0.00     0.163 HD
BRANCH   5   8
ATOM      8  C   UNL A   1      31.147  24.080  25.305  1.00  0.00     0.275 C 
BRANCH   8   9
ATOM      9  C   UNL A   1      30.940  22.905  26.340  1.00  0.00     0.051 C 
ATOM     10  C   UNL A   1      32.047  22.785  27.395  1.00  0.00     0.014 C 
ATOM     11  C   UNL A   1      29.583  22.804  27.049  1.00  0.00     0.014 C 
ENDBRANCH   8   9
BRANCH   8  12
ATOM     12  N   UNL A   1      30.268  25.274  25.441  1.00  0.00    -0.332 N 
ATOM     13  H   UNL A   1      29.694  25.131  26.272  1.00  0.00     0.347 HD
ATOM     14  H   UNL A   1      29.772  25.319  24.551  1.00  0.00     0.347 HD
BRANCH  12  15
ATOM     15  C   UNL A   1      30.901  26.619  25.571  1.00  0.00     0.195 C 
ATOM     16  C   UNL A   1      32.262  26.607  26.303  1.00  0.00     0.067 C 
ATOM     17  C   UNL A   1      30.874  27.547  24.315  1.00  0.00     0.101 C 
ATOM     18  C   UNL A   1      32.736  27.994  26.745  1.00  0.00     0.017 C 
ATOM     19  S   UNL A   1      31.271  29.280  24.815  1.00  0.00    -0.153 SA
ATOM     20  C   UNL A   1      31.784  27.176  23.147  1.00  0.00     0.026 C 
ATOM     21  C   UNL A   1      32.877  28.984  25.598  1.00  0.00     0.070 C 
ENDBRANCH  12  15
ENDBRANCH   8  12
ENDBRANCH   5   8
ENDBRANCH   3   4
ENDBRANCH   2   3
ENDBRANCH   1   2
BRANCH   1  22
ATOM     22  C   UNL A   1      36.284  24.421  25.560  1.00  0.00     0.116 C 
BRANCH  22  23
ATOM     23  N   UNL A   1      37.110  23.225  25.469  1.00  0.00    -0.352 N 
ATOM     24  C   UNL A   1      38.384  23.013  25.939  1.00  0.00     0.251 C 
ATOM     25  H   UNL A   1      36.698  22.461  25.005  1.00  0.00     0.163 HD
ATOM     26  O   UNL A   1      38.957  21.955  25.709  1.00  0.00    -0.269 OA
BRANCH  24  27
ATOM     27  C   UNL A   1      39.073  24.089  26.684  1.00  0.00     0.039 A 
ATOM     28  C   UNL A   1      39.910  24.958  25.980  1.00  0.00     0.014 A 
ATOM     29  C   UNL A   1      38.856  24.271  28.053  1.00  0.00     0.014 A 
ATOM     30  C   UNL A   1      40.464  26.060  26.633  1.00  0.00     0.010 A 
ATOM     31  C   UNL A   1      39.349  25.409  28.681  1.00  0.00     0.010 A 
ATOM     32  C   UNL A   1      40.152  26.320  27.977  1.00  0.00    -0.014 A 
BRANCH  32  33
ATOM     33  C   UNL A   1      40.638  27.547  28.658  1.00  0.00     0.031 A 
ATOM     34  C   UNL A   1      42.016  27.584  29.260  1.00  0.00     0.074 A 
ATOM     35  C   UNL A   1      39.809  28.602  28.802  1.00  0.00     0.049 A 
ATOM     36  N   UNL A   1      42.587  28.534  29.953  1.00  0.00    -0.248 NA
ATOM     37  C   UNL A   1      42.850  26.383  29.084  1.00  0.00     0.031 C 
ATOM     38  C   UNL A   1      38.431  28.673  28.308  1.00  0.00     0.029 A 
ATOM     39  N   UNL A   1      40.003  29.815  29.415  1.00  0.00    -0.354 N 
ATOM     40  C   UNL A   1      43.835  28.041  30.314  1.00  0.00     0.074 A 
ATOM     41  C   UNL A   1      43.920  26.691  29.802  1.00  0.00     0.031 C 
ATOM     42  C   UNL A   1      37.914  29.874  28.618  1.00  0.00     0.029 A 
ATOM     43  C   UNL A   1      38.906  30.642  29.363  1.00  0.00     0.049 A 
ATOM     44  H   UNL A   1      40.849  30.069  29.851  1.00  0.00     0.167 HD
ATOM     45  C   UNL A   1      44.827  28.661  30.997  1.00  0.00     0.031 A 
ATOM     46  C   UNL A   1      38.715  31.878  29.864  1.00  0.00     0.031 A 
ATOM     47  C   UNL A   1      44.748  30.011  31.488  1.00  0.00     0.049 A 
ATOM     48  C   UNL A   1      39.837  32.551  30.606  1.00  0.00     0.074 A 
ATOM     49  C   UNL A   1      45.724  30.750  32.132  1.00  0.00     0.029 A 
ATOM     50  N   UNL A   1      43.630  30.824  31.390  1.00  0.00    -0.354 N 
ATOM     51  N   UNL A   1      41.036  32.093  30.876  1.00  0.00    -0.248 NA
ATOM     52  C   UNL A   1      39.584  33.912  31.099  1.00  0.00     0.031 C 
ATOM     53  C   UNL A   1      45.182  31.996  32.462  1.00  0.00     0.029 A 
ATOM     54  C   UNL A   1      43.886  32.051  31.979  1.00  0.00     0.049 A 
ATOM     55  H   UNL A   1      42.780  30.568  30.966  1.00  0.00     0.167 HD
ATOM     56  C   UNL A   1      41.689  33.120  31.550  1.00  0.00     0.074 A 
ATOM     57  C   UNL A   1      40.758  34.226  31.632  1.00  0.00     0.031 C 
ATOM     58  C   UNL A   1      42.948  33.143  32.053  1.00  0.00     0.031 A 
BRANCH  45  59
ATOM     59  C   UNL A   1      46.087  27.879  31.252  1.00  0.00    -0.014 A 
ATOM     60  C   UNL A   1      46.213  27.054  32.385  1.00  0.00     0.010 A 
ATOM     61  C   UNL A   1      47.147  27.941  30.330  1.00  0.00     0.010 A 
ATOM     62  C   UNL A   1      47.391  26.340  32.614  1.00  0.00     0.020 A 
ATOM     63  C   UNL A   1      48.318  27.207  30.541  1.00  0.00     0.020 A 
ATOM     64  C   UNL A   1      48.439  26.425  31.692  1.00  0.00     0.054 A 
BRANCH  64  65
ATOM     65  S   UNL A   1      49.951  25.472  32.004  1.00  0.00     0.124 S 
ATOM     66  O   UNL A   1      50.224  24.903  30.686  1.00  0.00    -0.237 OA
ATOM     67  O   UNL A   1      50.891  26.497  32.453  1.00  0.00    -0.237 OA
ATOM     68  O   UNL A   1      49.549  24.509  33.027  1.00  0.00    -0.744 OA
ENDBRANCH  64  65
ENDBRANCH  45  59
BRANCH  46  69
ATOM     69  C   UNL A   1      37.411  32.566  29.666  1.00  0.00    -0.014 A 
ATOM     70  C   UNL A   1      37.147  33.262  28.473  1.00  0.00     0.010 A 
ATOM     71  C   UNL A   1      36.421  32.519  30.664  1.00  0.00     0.010 A 
ATOM     72  C   UNL A   1      35.923  33.913  28.288  1.00  0.00     0.020 A 
ATOM     73  C   UNL A   1      35.186  33.147  30.472  1.00  0.00     0.020 A 
ATOM     74  C   UNL A   1      34.950  33.850  29.289  1.00  0.00     0.054 A 
BRANCH  74  75
ATOM     75  S   UNL A   1      33.350  34.658  29.007  1.00  0.00     0.124 S 
ATOM     76  O   UNL A   1      32.783  34.687  30.351  1.00  0.00    -0.237 OA
ATOM     77  O   UNL A   1      33.743  35.953  28.456  1.00  0.00    -0.237 OA
ATOM     78  O   UNL A   1      32.681  33.767  28.062  1.00  0.00    -0.744 OA
ENDBRANCH  74  75
ENDBRANCH  46  69
BRANCH  58  79
ATOM     79  C   UNL A   1      43.407  34.416  32.711  1.00  0.00    -0.014 A 
ATOM     80  C   UNL A   1      44.090  35.406  31.984  1.00  0.00     0.010 A 
ATOM     81  C   UNL A   1      43.099  34.646  34.064  1.00  0.00     0.010 A 
ATOM     82  C   UNL A   1      44.481  36.594  32.607  1.00  0.00     0.020 A 
ATOM     83  C   UNL A   1      43.467  35.842  34.684  1.00  0.00     0.020 A 
ATOM     84  C   UNL A   1      44.168  36.804  33.954  1.00  0.00     0.054 A 
BRANCH  84  85
ATOM     85  S   UNL A   1      44.644  38.374  34.728  1.00  0.00     0.124 S 
ATOM     86  O   UNL A   1      44.016  38.267  36.042  1.00  0.00    -0.237 OA
ATOM     87  O   UNL A   1      46.103  38.308  34.721  1.00  0.00    -0.237 OA
ATOM     88  O   UNL A   1      44.069  39.384  33.842  1.00  0.00    -0.744 OA
ENDBRANCH  84  85
ENDBRANCH  58  79
ENDBRANCH  32  33
ENDBRANCH  24  27
ENDBRANCH  22  23
ENDBRANCH   1  22
TORSDOF 17
ENDMDL
MODEL 3
REMARK VINA RESULT:      -9.5      3.618      8.162
REMARK SMILES CC(C)[C@H]([NH2+][C@H]1CCCS[C@H]1C)C(=O)NCCCCNC(=O)c1ccc(-c2c3nc(c(-c4ccc(S(=O)(=O)[O-])cc4)c4ccc([nH]4)c(-c4ccc(S(=O)(=O)[O-])cc4)c4nc(c(-c5ccc(S(=O)(=O)[O-])cc5)c5ccc2[nH]5)C=C4)C=C3)cc1
REMARK SMILES IDX 18 1 17 2 16 3 15 4 13 5 14 6 4 8 2 9 1 10 3 11 5 12 6 15
REMARK SMILES IDX 7 16 11 17 8 18 10 19 12 20 9 21 19 22 20 23 21 24 22 26
REMARK SMILES IDX 23 27 24 28 82 29 25 30 81 31 26 32 27 33 28 34 75 35 29 36
REMARK SMILES IDX 80 37 74 38 76 39 30 40 79 41 73 42 72 43 31 45 61 46 42 47
REMARK SMILES IDX 60 48 43 49 46 50 59 51 77 52 44 53 45 54 58 56 78 57 47 58
REMARK SMILES IDX 32 59 33 60 41 61 34 62 40 63 35 64 36 65 37 66 38 67 39 68
REMARK SMILES IDX 62 69 63 70 71 71 64 72 70 73 65 74 66 75 67 76 68 77 69 78
REMARK SMILES IDX 48 79 49 80 57 81 50 82 56 83 51 84 52 85 53 86 54 87 55 88
REMARK H PARENT 15 7 5 13 5 14 20 25 76 44 46 55
REMARK Flexibility Score: inf
ROOT
ATOM      1  C   UNL A   1      38.518  20.002  24.849  1.00  0.00     0.023 C 
ENDROOT
BRANCH   1   2
ATOM      2  C   UNL A   1      37.025  20.253  25.050  1.00  0.00     0.023 C 
BRANCH   2   3
ATOM      3  C   UNL A   1      36.632  21.707  25.278  1.00  0.00     0.116 C 
BRANCH   3   4
ATOM      4  N   UNL A   1      35.833  21.917  26.470  1.00  0.00    -0.351 N 
ATOM      5  C   UNL A   1      34.496  21.704  26.667  1.00  0.00     0.278 C 
ATOM      6  O   UNL A   1      34.051  21.817  27.813  1.00  0.00    -0.268 OA
ATOM      7  H   UNL A   1      36.323  22.267  27.250  1.00  0.00     0.163 HD
BRANCH   5   8
ATOM      8  C   UNL A   1      33.572  21.292  25.507  1.00  0.00     0.275 C 
BRANCH   8   9
ATOM      9  C   UNL A   1      32.793  22.533  24.920  1.00  0.00     0.051 C 
ATOM     10  C   UNL A   1      33.559  23.860  24.998  1.00  0.00     0.014 C 
ATOM     11  C   UNL A   1      32.191  22.404  23.514  1.00  0.00     0.014 C 
ENDBRANCH   8   9
BRANCH   8  12
ATOM     12  N   UNL A   1      32.770  20.090  25.869  1.00  0.00    -0.332 N 
ATOM     13  H   UNL A   1      31.823  20.246  25.523  1.00  0.00     0.347 HD
ATOM     14  H   UNL A   1      32.875  20.017  26.881  1.00  0.00     0.347 HD
BRANCH  12  15
ATOM     15  C   UNL A   1      33.209  18.757  25.362  1.00  0.00     0.195 C 
ATOM     16  C   UNL A   1      32.439  17.565  25.975  1.00  0.00     0.067 C 
ATOM     17  C   UNL A   1      33.455  18.620  23.827  1.00  0.00     0.101 C 
ATOM     18  C   UNL A   1      33.109  16.210  25.734  1.00  0.00     0.017 C 
ATOM     19  S   UNL A   1      34.416  17.081  23.486  1.00  0.00    -0.153 SA
ATOM     20  C   UNL A   1      32.230  18.618  22.916  1.00  0.00     0.026 C 
ATOM     21  C   UNL A   1      33.305  15.880  24.263  1.00  0.00     0.070 C 
ENDBRANCH  12  15
ENDBRANCH   8  12
ENDBRANCH   5   8
ENDBRANCH   3   4
ENDBRANCH   2   3
ENDBRANCH   1   2
BRANCH   1  22
ATOM     22  C   UNL A   1      39.398  20.224  26.073  1.00  0.00     0.116 C 
BRANCH  22  23
ATOM     23  N   UNL A   1      40.568  19.359  26.114  1.00  0.00    -0.352 N 
ATOM     24  C   UNL A   1      41.883  19.689  26.341  1.00  0.00     0.251 C 
ATOM     25  H   UNL A   1      40.393  18.404  25.956  1.00  0.00     0.163 HD
ATOM     26  O   UNL A   1      42.754  18.831  26.269  1.00  0.00    -0.269 OA
BRANCH  24  27
ATOM     27  C   UNL A   1      42.241  21.095  26.626  1.00  0.00     0.039 A 
ATOM     28  C   UNL A   1      42.587  21.445  27.935  1.00  0.00     0.014 A 
ATOM     29  C   UNL A   1      42.286  22.048  25.605  1.00  0.00     0.014 A 
ATOM     30  C   UNL A   1      43.057  22.732  28.202  1.00  0.00     0.010 A 
ATOM     31  C   UNL A   1      42.824  23.305  25.861  1.00  0.00     0.010 A 
ATOM     32  C   UNL A   1      43.223  23.658  27.160  1.00  0.00    -0.014 A 
BRANCH  32  33
ATOM     33  C   UNL A   1      43.828  24.992  27.403  1.00  0.00     0.031 A 
ATOM     34  C   UNL A   1      42.980  26.128  27.907  1.00  0.00     0.074 A 
ATOM     35  C   UNL A   1      45.125  25.201  27.098  1.00  0.00     0.049 A 
ATOM     36  N   UNL A   1      43.311  27.377  28.110  1.00  0.00    -0.248 NA
ATOM     37  C   UNL A   1      41.567  25.826  28.192  1.00  0.00     0.031 C 
ATOM     38  C   UNL A   1      46.042  24.196  26.555  1.00  0.00     0.029 A 
ATOM     39  N   UNL A   1      45.895  26.334  27.192  1.00  0.00    -0.354 N 
ATOM     40  C   UNL A   1      42.148  28.014  28.524  1.00  0.00     0.074 A 
ATOM     41  C   UNL A   1      41.093  27.025  28.501  1.00  0.00     0.031 C 
ATOM     42  C   UNL A   1      47.254  24.751  26.386  1.00  0.00     0.029 A 
ATOM     43  C   UNL A   1      47.192  26.157  26.772  1.00  0.00     0.049 A 
ATOM     44  H   UNL A   1      45.551  27.193  27.529  1.00  0.00     0.167 HD
ATOM     45  C   UNL A   1      41.977  29.302  28.906  1.00  0.00     0.031 A 
ATOM     46  C   UNL A   1      48.217  27.029  26.697  1.00  0.00     0.031 A 
ATOM     47  C   UNL A   1      43.031  30.279  28.947  1.00  0.00     0.049 A 
ATOM     48  C   UNL A   1      48.005  28.451  27.139  1.00  0.00     0.074 A 
ATOM     49  C   UNL A   1      42.971  31.591  29.383  1.00  0.00     0.029 A 
ATOM     50  N   UNL A   1      44.337  30.052  28.540  1.00  0.00    -0.354 N 
ATOM     51  N   UNL A   1      46.912  29.016  27.595  1.00  0.00    -0.248 NA
ATOM     52  C   UNL A   1      49.167  29.347  27.070  1.00  0.00     0.031 C 
ATOM     53  C   UNL A   1      44.230  32.171  29.198  1.00  0.00     0.029 A 
ATOM     54  C   UNL A   1      45.087  31.206  28.696  1.00  0.00     0.049 A 
ATOM     55  H   UNL A   1      44.680  29.198  28.191  1.00  0.00     0.167 HD
ATOM     56  C   UNL A   1      47.262  30.330  27.889  1.00  0.00     0.074 A 
ATOM     57  C   UNL A   1      48.669  30.469  27.574  1.00  0.00     0.031 C 
ATOM     58  C   UNL A   1      46.487  31.328  28.378  1.00  0.00     0.031 A 
BRANCH  45  59
ATOM     59  C   UNL A   1      40.590  29.728  29.307  1.00  0.00    -0.014 A 
ATOM     60  C   UNL A   1      39.524  29.689  28.391  1.00  0.00     0.010 A 
ATOM     61  C   UNL A   1      40.341  30.138  30.630  1.00  0.00     0.010 A 
ATOM     62  C   UNL A   1      38.244  30.095  28.775  1.00  0.00     0.020 A 
ATOM     63  C   UNL A   1      39.056  30.519  31.026  1.00  0.00     0.020 A 
ATOM     64  C   UNL A   1      38.019  30.513  30.090  1.00  0.00     0.054 A 
BRANCH  64  65
ATOM     65  S   UNL A   1      36.342  31.016  30.569  1.00  0.00     0.124 S 
ATOM     66  O   UNL A   1      36.584  32.322  31.177  1.00  0.00    -0.237 OA
ATOM     67  O   UNL A   1      35.637  31.040  29.290  1.00  0.00    -0.237 OA
ATOM     68  O   UNL A   1      35.916  29.967  31.493  1.00  0.00    -0.744 OA
ENDBRANCH  64  65
ENDBRANCH  45  59
BRANCH  46  69
ATOM     69  C   UNL A   1      49.542  26.575  26.196  1.00  0.00    -0.014 A 
ATOM     70  C   UNL A   1      49.931  26.837  24.871  1.00  0.00     0.010 A 
ATOM     71  C   UNL A   1      50.429  25.890  27.046  1.00  0.00     0.010 A 
ATOM     72  C   UNL A   1      51.175  26.407  24.399  1.00  0.00     0.020 A 
ATOM     73  C   UNL A   1      51.684  25.480  26.585  1.00  0.00     0.020 A 
ATOM     74  C   UNL A   1      52.044  25.732  25.260  1.00  0.00     0.054 A 
BRANCH  74  75
ATOM     75  S   UNL A   1      53.673  25.228  24.641  1.00  0.00     0.124 S 
ATOM     76  O   UNL A   1      53.639  23.783  24.838  1.00  0.00    -0.237 OA
ATOM     77  O   UNL A   1      53.638  25.680  23.252  1.00  0.00    -0.237 OA
ATOM     78  O   UNL A   1      54.604  25.957  25.500  1.00  0.00    -0.744 OA
ENDBRANCH  74  75
ENDBRANCH  46  69
BRANCH  58  79
ATOM     79  C   UNL A   1      47.149  32.656  28.634  1.00  0.00    -0.014 A 
ATOM     80  C   UNL A   1      47.173  33.659  27.650  1.00  0.00     0.010 A 
ATOM     81  C   UNL A   1      47.704  32.920  29.899  1.00  0.00     0.010 A 
ATOM     82  C   UNL A   1      47.766  34.895  27.919  1.00  0.00     0.020 A 
ATOM     83  C   UNL A   1      48.275  34.163  30.180  1.00  0.00     0.020 A 
ATOM     84  C   UNL A   1      48.315  35.139  29.182  1.00  0.00     0.054 A 
BRANCH  84  85
ATOM     85  S   UNL A   1      49.037  36.769  29.522  1.00  0.00     0.124 S 
ATOM     86  O   UNL A   1      50.392  36.418  29.941  1.00  0.00    -0.237 OA
ATOM     87  O   UNL A   1      48.932  37.444  28.231  1.00  0.00    -0.237 OA
ATOM     88  O   UNL A   1      48.180  37.313  30.574  1.00  0.00    -0.744 OA
ENDBRANCH  84  85
ENDBRANCH  58  79
ENDBRANCH  32  33
ENDBRANCH  24  27
ENDBRANCH  22  23
ENDBRANCH   1  22
TORSDOF 17
ENDMDL
