MODEL 1
REMARK VINA RESULT:     -11.6      0.000      0.000
REMARK SMILES C[C@H](C(=O)NCCCCNC(=O)c1ccc(-c2c3nc(c(-c4ccc(S(=O)(=O)[O-])cc4)c4ccc([nH]4)c(-c4ccc(S(=O)(=O)[O-])cc4)c4nc(c(-c5ccc(S(=O)(=O)[O-])cc5)c5ccc2[nH]5)C=C4)C=C3)cc1)[C@@H](C(=O)c1ccccc1)c1ccc(F)cc1
REMARK SMILES IDX 7 1 6 2 5 3 3 4 4 5 2 7 1 8 73 9 74 10 75 11 76 12 77 13
REMARK SMILES IDX 81 14 78 15 80 16 79 17 82 18 83 19 88 20 84 21 87 22 85 23
REMARK SMILES IDX 86 24 8 25 9 26 10 27 11 28 12 30 13 31 14 32 72 33 15 34
REMARK SMILES IDX 71 35 16 36 17 37 18 38 65 39 19 40 70 41 64 42 66 43 20 44
REMARK SMILES IDX 69 45 63 46 62 47 21 49 51 50 32 51 50 52 33 53 36 54 49 55
REMARK SMILES IDX 67 56 34 57 35 58 48 60 68 61 37 62 22 63 23 64 31 65 24 66
REMARK SMILES IDX 30 67 25 68 26 69 27 70 28 71 29 72 52 73 53 74 61 75 54 76
REMARK SMILES IDX 60 77 55 78 56 79 57 80 58 81 59 82 38 83 39 84 47 85 40 86
REMARK SMILES IDX 46 87 41 88 42 89 43 90 44 91 45 92
REMARK H PARENT 5 6 10 29 66 48 36 59
REMARK Flexibility Score: inf
ROOT
ATOM      1  C   UNL A   1      31.290  28.317  25.936  1.00  0.00     0.023 C 
ENDROOT
BRANCH   1   2
ATOM      2  C   UNL A   1      30.630  27.052  25.394  1.00  0.00     0.116 C 
BRANCH   2   3
ATOM      3  N   UNL A   1      30.514  25.972  26.349  1.00  0.00    -0.356 N 
ATOM      4  C   UNL A   1      30.889  24.669  26.287  1.00  0.00     0.223 C 
ATOM      5  O   UNL A   1      30.778  24.021  27.336  1.00  0.00    -0.275 OA
ATOM      6  H   UNL A   1      30.086  26.228  27.197  1.00  0.00     0.163 HD
BRANCH   4   7
ATOM      7  C   UNL A   1      31.320  23.927  25.013  1.00  0.00     0.090 C 
ATOM      8  C   UNL A   1      30.339  24.409  23.927  1.00  0.00     0.019 C 
BRANCH   7   9
ATOM      9  C   UNL A   1      32.818  23.930  24.609  1.00  0.00     0.103 C 
BRANCH   9  10
ATOM     10  C   UNL A   1      33.328  22.632  23.919  1.00  0.00     0.171 C 
ATOM     11  O   UNL A   1      32.715  22.037  23.032  1.00  0.00    -0.293 OA
BRANCH  10  12
ATOM     12  C   UNL A   1      34.706  22.161  24.158  1.00  0.00     0.018 A 
ATOM     13  C   UNL A   1      35.761  22.872  23.573  1.00  0.00     0.012 A 
ATOM     14  C   UNL A   1      34.956  20.989  24.871  1.00  0.00     0.012 A 
ATOM     15  C   UNL A   1      37.075  22.444  23.764  1.00  0.00     0.001 A 
ATOM     16  C   UNL A   1      36.274  20.582  25.084  1.00  0.00     0.001 A 
ATOM     17  C   UNL A   1      37.330  21.309  24.534  1.00  0.00     0.000 A 
ENDBRANCH  10  12
ENDBRANCH   9  10
BRANCH   9  18
ATOM     18  C   UNL A   1      33.168  25.171  23.762  1.00  0.00    -0.036 A 
ATOM     19  C   UNL A   1      32.884  25.233  22.385  1.00  0.00     0.007 A 
ATOM     20  C   UNL A   1      33.759  26.292  24.376  1.00  0.00     0.007 A 
ATOM     21  C   UNL A   1      33.226  26.361  21.637  1.00  0.00     0.039 A 
ATOM     22  C   UNL A   1      34.082  27.426  23.628  1.00  0.00     0.039 A 
ATOM     23  C   UNL A   1      33.823  27.446  22.264  1.00  0.00     0.123 A 
ATOM     24  F   UNL A   1      34.154  28.527  21.544  1.00  0.00    -0.207 F 
ENDBRANCH   9  18
ENDBRANCH   7   9
ENDBRANCH   4   7
ENDBRANCH   2   3
ENDBRANCH   1   2
BRANCH   1  25
ATOM     25  C   UNL A   1      32.050  28.200  27.259  1.00  0.00     0.023 C 
BRANCH  25  26
ATOM     26  C   UNL A   1      33.468  28.764  27.295  1.00  0.00     0.116 C 
BRANCH  26  27
ATOM     27  N   UNL A   1      33.550  30.123  27.813  1.00  0.00    -0.352 N 
ATOM     28  C   UNL A   1      34.612  30.780  28.398  1.00  0.00     0.251 C 
ATOM     29  H   UNL A   1      32.724  30.653  27.734  1.00  0.00     0.163 HD
ATOM     30  O   UNL A   1      34.473  31.916  28.830  1.00  0.00    -0.269 OA
BRANCH  28  31
ATOM     31  C   UNL A   1      35.910  30.084  28.540  1.00  0.00     0.039 A 
ATOM     32  C   UNL A   1      36.772  30.034  27.441  1.00  0.00     0.014 A 
ATOM     33  C   UNL A   1      36.295  29.543  29.768  1.00  0.00     0.014 A 
ATOM     34  C   UNL A   1      38.072  29.550  27.607  1.00  0.00     0.010 A 
ATOM     35  C   UNL A   1      37.608  29.112  29.945  1.00  0.00     0.010 A 
ATOM     36  C   UNL A   1      38.518  29.143  28.875  1.00  0.00    -0.014 A 
BRANCH  36  37
ATOM     37  C   UNL A   1      39.948  28.827  29.131  1.00  0.00     0.031 A 
ATOM     38  C   UNL A   1      40.890  29.896  29.606  1.00  0.00     0.074 A 
ATOM     39  C   UNL A   1      40.418  27.602  28.818  1.00  0.00     0.049 A 
ATOM     40  N   UNL A   1      42.189  29.838  29.759  1.00  0.00    -0.248 NA
ATOM     41  C   UNL A   1      40.304  31.208  29.926  1.00  0.00     0.031 C 
ATOM     42  C   UNL A   1      39.615  26.491  28.297  1.00  0.00     0.029 A 
ATOM     43  N   UNL A   1      41.692  27.091  28.866  1.00  0.00    -0.354 N 
ATOM     44  C   UNL A   1      42.580  31.109  30.162  1.00  0.00     0.074 A 
ATOM     45  C   UNL A   1      41.383  31.924  30.208  1.00  0.00     0.031 C 
ATOM     46  C   UNL A   1      40.413  25.434  28.076  1.00  0.00     0.029 A 
ATOM     47  C   UNL A   1      41.788  25.800  28.400  1.00  0.00     0.049 A 
ATOM     48  H   UNL A   1      42.465  27.601  29.202  1.00  0.00     0.167 HD
ATOM     49  C   UNL A   1      43.820  31.553  30.475  1.00  0.00     0.031 A 
ATOM     50  C   UNL A   1      42.862  25.004  28.228  1.00  0.00     0.031 A 
ATOM     51  C   UNL A   1      45.002  30.733  30.455  1.00  0.00     0.049 A 
ATOM     52  C   UNL A   1      44.228  25.522  28.588  1.00  0.00     0.074 A 
ATOM     53  C   UNL A   1      46.284  31.070  30.852  1.00  0.00     0.029 A 
ATOM     54  N   UNL A   1      45.050  29.422  30.010  1.00  0.00    -0.354 N 
ATOM     55  N   UNL A   1      44.561  26.698  29.061  1.00  0.00    -0.248 NA
ATOM     56  C   UNL A   1      45.361  24.605  28.392  1.00  0.00     0.031 C 
ATOM     57  C   UNL A   1      47.120  29.977  30.599  1.00  0.00     0.029 A 
ATOM     58  C   UNL A   1      46.348  28.947  30.088  1.00  0.00     0.049 A 
ATOM     59  H   UNL A   1      44.278  28.907  29.686  1.00  0.00     0.167 HD
ATOM     60  C   UNL A   1      45.939  26.658  29.234  1.00  0.00     0.074 A 
ATOM     61  C   UNL A   1      46.376  25.337  28.831  1.00  0.00     0.031 C 
ATOM     62  C   UNL A   1      46.768  27.630  29.685  1.00  0.00     0.031 A 
BRANCH  49  63
ATOM     63  C   UNL A   1      43.969  32.999  30.862  1.00  0.00    -0.014 A 
ATOM     64  C   UNL A   1      44.211  33.987  29.893  1.00  0.00     0.010 A 
ATOM     65  C   UNL A   1      43.801  33.379  32.206  1.00  0.00     0.010 A 
ATOM     66  C   UNL A   1      44.313  35.330  30.265  1.00  0.00     0.020 A 
ATOM     67  C   UNL A   1      43.882  34.724  32.579  1.00  0.00     0.020 A 
ATOM     68  C   UNL A   1      44.150  35.689  31.606  1.00  0.00     0.054 A 
BRANCH  68  69
ATOM     69  S   UNL A   1      44.254  37.443  32.056  1.00  0.00     0.124 S 
ATOM     70  O   UNL A   1      43.312  37.524  33.170  1.00  0.00    -0.237 OA
ATOM     71  O   UNL A   1      45.662  37.602  32.411  1.00  0.00    -0.237 OA
ATOM     72  O   UNL A   1      43.840  38.138  30.839  1.00  0.00    -0.744 OA
ENDBRANCH  68  69
ENDBRANCH  49  63
BRANCH  50  73
ATOM     73  C   UNL A   1      42.694  23.633  27.672  1.00  0.00    -0.014 A 
ATOM     74  C   UNL A   1      42.474  22.539  28.526  1.00  0.00     0.010 A 
ATOM     75  C   UNL A   1      42.759  23.418  26.283  1.00  0.00     0.010 A 
ATOM     76  C   UNL A   1      42.342  21.249  28.002  1.00  0.00     0.020 A 
ATOM     77  C   UNL A   1      42.603  22.133  25.755  1.00  0.00     0.020 A 
ATOM     78  C   UNL A   1      42.410  21.054  26.620  1.00  0.00     0.054 A 
BRANCH  78  79
ATOM     79  S   UNL A   1      42.194  19.379  25.955  1.00  0.00     0.124 S 
ATOM     80  O   UNL A   1      43.020  19.422  24.754  1.00  0.00    -0.237 OA
ATOM     81  O   UNL A   1      42.695  18.540  27.040  1.00  0.00    -0.237 OA
ATOM     82  O   UNL A   1      40.753  19.289  25.725  1.00  0.00    -0.744 OA
ENDBRANCH  78  79
ENDBRANCH  50  73
BRANCH  62  83
ATOM     83  C   UNL A   1      48.233  27.305  29.784  1.00  0.00    -0.014 A 
ATOM     84  C   UNL A   1      49.146  27.792  28.832  1.00  0.00     0.010 A 
ATOM     85  C   UNL A   1      48.711  26.571  30.884  1.00  0.00     0.010 A 
ATOM     86  C   UNL A   1      50.513  27.540  28.974  1.00  0.00     0.020 A 
ATOM     87  C   UNL A   1      50.079  26.336  31.041  1.00  0.00     0.020 A 
ATOM     88  C   UNL A   1      50.971  26.816  30.080  1.00  0.00     0.054 A 
BRANCH  88  89
ATOM     89  S   UNL A   1      52.756  26.564  30.281  1.00  0.00     0.124 S 
ATOM     90  O   UNL A   1      53.125  25.970  28.999  1.00  0.00    -0.237 OA
ATOM     91  O   UNL A   1      53.250  27.921  30.508  1.00  0.00    -0.237 OA
ATOM     92  O   UNL A   1      52.852  25.672  31.433  1.00  0.00    -0.744 OA
ENDBRANCH  88  89
ENDBRANCH  62  83
ENDBRANCH  36  37
ENDBRANCH  28  31
ENDBRANCH  26  27
ENDBRANCH  25  26
ENDBRANCH   1  25
TORSDOF 18
ENDMDL
MODEL 2
REMARK VINA RESULT:     -11.1      2.955      9.127
REMARK SMILES C[C@H](C(=O)NCCCCNC(=O)c1ccc(-c2c3nc(c(-c4ccc(S(=O)(=O)[O-])cc4)c4ccc([nH]4)c(-c4ccc(S(=O)(=O)[O-])cc4)c4nc(c(-c5ccc(S(=O)(=O)[O-])cc5)c5ccc2[nH]5)C=C4)C=C3)cc1)[C@@H](C(=O)c1ccccc1)c1ccc(F)cc1
REMARK SMILES IDX 7 1 6 2 5 3 3 4 4 5 2 7 1 8 73 9 74 10 75 11 76 12 77 13
REMARK SMILES IDX 81 14 78 15 80 16 79 17 82 18 83 19 88 20 84 21 87 22 85 23
REMARK SMILES IDX 86 24 8 25 9 26 10 27 11 28 12 30 13 31 14 32 72 33 15 34
REMARK SMILES IDX 71 35 16 36 17 37 18 38 65 39 19 40 70 41 64 42 66 43 20 44
REMARK SMILES IDX 69 45 63 46 62 47 21 49 51 50 32 51 50 52 33 53 36 54 49 55
REMARK SMILES IDX 67 56 34 57 35 58 48 60 68 61 37 62 22 63 23 64 31 65 24 66
REMARK SMILES IDX 30 67 25 68 26 69 27 70 28 71 29 72 52 73 53 74 61 75 54 76
REMARK SMILES IDX 60 77 55 78 56 79 57 80 58 81 59 82 38 83 39 84 47 85 40 86
REMARK SMILES IDX 46 87 41 88 42 89 43 90 44 91 45 92
REMARK H PARENT 5 6 10 29 66 48 36 59
REMARK Flexibility Score: inf
ROOT
ATOM      1  C   UNL A   1      34.533  23.981  25.915  1.00  0.00     0.023 C 
ENDROOT
BRANCH   1   2
ATOM      2  C   UNL A   1      34.646  25.270  25.106  1.00  0.00     0.116 C 
BRANCH   2   3
ATOM      3  N   UNL A   1      34.401  26.481  25.859  1.00  0.00    -0.356 N 
ATOM      4  C   UNL A   1      33.524  27.500  25.669  1.00  0.00     0.223 C 
ATOM      5  O   UNL A   1      33.460  28.339  26.577  1.00  0.00    -0.275 OA
ATOM      6  H   UNL A   1      34.974  26.585  26.652  1.00  0.00     0.163 HD
BRANCH   4   7
ATOM      7  C   UNL A   1      32.711  27.746  24.389  1.00  0.00     0.090 C 
ATOM      8  C   UNL A   1      33.723  27.567  23.241  1.00  0.00     0.019 C 
BRANCH   7   9
ATOM      9  C   UNL A   1      31.354  27.017  24.206  1.00  0.00     0.103 C 
BRANCH   9  10
ATOM     10  C   UNL A   1      30.903  26.131  25.402  1.00  0.00     0.171 C 
ATOM     11  O   UNL A   1      30.266  26.551  26.369  1.00  0.00    -0.293 OA
BRANCH  10  12
ATOM     12  C   UNL A   1      31.042  24.664  25.329  1.00  0.00     0.018 A 
ATOM     13  C   UNL A   1      30.928  23.927  26.515  1.00  0.00     0.012 A 
ATOM     14  C   UNL A   1      31.366  24.026  24.132  1.00  0.00     0.012 A 
ATOM     15  C   UNL A   1      31.070  22.540  26.484  1.00  0.00     0.001 A 
ATOM     16  C   UNL A   1      31.479  22.636  24.102  1.00  0.00     0.001 A 
ATOM     17  C   UNL A   1      31.329  21.895  25.274  1.00  0.00     0.000 A 
ENDBRANCH  10  12
ENDBRANCH   9  10
BRANCH   9  18
ATOM     18  C   UNL A   1      30.237  28.005  23.807  1.00  0.00    -0.036 A 
ATOM     19  C   UNL A   1      30.445  29.396  23.801  1.00  0.00     0.007 A 
ATOM     20  C   UNL A   1      28.980  27.512  23.406  1.00  0.00     0.007 A 
ATOM     21  C   UNL A   1      29.414  30.269  23.453  1.00  0.00     0.039 A 
ATOM     22  C   UNL A   1      27.956  28.388  23.040  1.00  0.00     0.039 A 
ATOM     23  C   UNL A   1      28.178  29.758  23.077  1.00  0.00     0.123 A 
ATOM     24  F   UNL A   1      27.188  30.598  22.746  1.00  0.00    -0.207 F 
ENDBRANCH   9  18
ENDBRANCH   7   9
ENDBRANCH   4   7
ENDBRANCH   2   3
ENDBRANCH   1   2
BRANCH   1  25
ATOM     25  C   UNL A   1      35.829  23.224  26.213  1.00  0.00     0.023 C 
BRANCH  25  26
ATOM     26  C   UNL A   1      36.971  23.385  25.213  1.00  0.00     0.116 C 
BRANCH  26  27
ATOM     27  N   UNL A   1      38.133  22.557  25.506  1.00  0.00    -0.352 N 
ATOM     28  C   UNL A   1      39.292  22.874  26.182  1.00  0.00     0.251 C 
ATOM     29  H   UNL A   1      38.084  21.633  25.171  1.00  0.00     0.163 HD
ATOM     30  O   UNL A   1      40.194  22.053  26.279  1.00  0.00    -0.269 OA
BRANCH  28  31
ATOM     31  C   UNL A   1      39.456  24.229  26.751  1.00  0.00     0.039 A 
ATOM     32  C   UNL A   1      39.005  24.473  28.051  1.00  0.00     0.014 A 
ATOM     33  C   UNL A   1      40.108  25.230  26.028  1.00  0.00     0.014 A 
ATOM     34  C   UNL A   1      39.317  25.684  28.673  1.00  0.00     0.010 A 
ATOM     35  C   UNL A   1      40.465  26.414  26.668  1.00  0.00     0.010 A 
ATOM     36  C   UNL A   1      40.103  26.639  28.006  1.00  0.00    -0.014 A 
BRANCH  36  37
ATOM     37  C   UNL A   1      40.632  27.838  28.708  1.00  0.00     0.031 A 
ATOM     38  C   UNL A   1      41.993  27.811  29.341  1.00  0.00     0.074 A 
ATOM     39  C   UNL A   1      39.830  28.910  28.876  1.00  0.00     0.049 A 
ATOM     40  N   UNL A   1      42.565  28.710  30.100  1.00  0.00    -0.248 NA
ATOM     41  C   UNL A   1      42.809  26.607  29.116  1.00  0.00     0.031 C 
ATOM     42  C   UNL A   1      38.465  29.039  28.356  1.00  0.00     0.029 A 
ATOM     43  N   UNL A   1      40.034  30.086  29.555  1.00  0.00    -0.354 N 
ATOM     44  C   UNL A   1      43.791  28.173  30.468  1.00  0.00     0.074 A 
ATOM     45  C   UNL A   1      43.873  26.857  29.868  1.00  0.00     0.031 C 
ATOM     46  C   UNL A   1      37.959  30.224  28.733  1.00  0.00     0.029 A 
ATOM     47  C   UNL A   1      38.942  30.923  29.553  1.00  0.00     0.049 A 
ATOM     48  H   UNL A   1      40.883  30.309  30.002  1.00  0.00     0.167 HD
ATOM     49  C   UNL A   1      44.765  28.727  31.227  1.00  0.00     0.031 A 
ATOM     50  C   UNL A   1      38.742  32.109  30.161  1.00  0.00     0.031 A 
ATOM     51  C   UNL A   1      44.694  30.045  31.799  1.00  0.00     0.049 A 
ATOM     52  C   UNL A   1      39.843  32.704  30.996  1.00  0.00     0.074 A 
ATOM     53  C   UNL A   1      45.672  30.730  32.499  1.00  0.00     0.029 A 
ATOM     54  N   UNL A   1      43.585  30.874  31.745  1.00  0.00    -0.354 N 
ATOM     55  N   UNL A   1      41.033  32.219  31.249  1.00  0.00    -0.248 NA
ATOM     56  C   UNL A   1      39.573  34.006  31.624  1.00  0.00     0.031 C 
ATOM     57  C   UNL A   1      45.137  31.954  32.912  1.00  0.00     0.029 A 
ATOM     58  C   UNL A   1      43.841  32.049  32.430  1.00  0.00     0.049 A 
ATOM     59  H   UNL A   1      42.741  30.659  31.288  1.00  0.00     0.167 HD
ATOM     60  C   UNL A   1      41.661  33.163  32.054  1.00  0.00     0.074 A 
ATOM     61  C   UNL A   1      40.726  34.254  32.231  1.00  0.00     0.031 C 
ATOM     62  C   UNL A   1      42.901  33.127  32.598  1.00  0.00     0.031 A 
BRANCH  49  63
ATOM     63  C   UNL A   1      45.998  27.908  31.494  1.00  0.00    -0.014 A 
ATOM     64  C   UNL A   1      47.121  27.991  30.653  1.00  0.00     0.010 A 
ATOM     65  C   UNL A   1      46.055  27.091  32.638  1.00  0.00     0.010 A 
ATOM     66  C   UNL A   1      48.270  27.247  30.934  1.00  0.00     0.020 A 
ATOM     67  C   UNL A   1      47.211  26.363  32.935  1.00  0.00     0.020 A 
ATOM     68  C   UNL A   1      48.306  26.436  32.072  1.00  0.00     0.054 A 
BRANCH  68  69
ATOM     69  S   UNL A   1      49.823  25.509  32.432  1.00  0.00     0.124 S 
ATOM     70  O   UNL A   1      50.716  26.566  32.903  1.00  0.00    -0.237 OA
ATOM     71  O   UNL A   1      49.386  24.557  33.449  1.00  0.00    -0.237 OA
ATOM     72  O   UNL A   1      50.182  24.920  31.144  1.00  0.00    -0.744 OA
ENDBRANCH  68  69
ENDBRANCH  49  63
BRANCH  50  73
ATOM     73  C   UNL A   1      37.437  32.811  30.017  1.00  0.00    -0.014 A 
ATOM     74  C   UNL A   1      36.473  32.740  31.038  1.00  0.00     0.010 A 
ATOM     75  C   UNL A   1      37.152  33.549  28.854  1.00  0.00     0.010 A 
ATOM     76  C   UNL A   1      35.238  33.380  30.889  1.00  0.00     0.020 A 
ATOM     77  C   UNL A   1      35.928  34.209  28.713  1.00  0.00     0.020 A 
ATOM     78  C   UNL A   1      34.973  34.108  29.726  1.00  0.00     0.054 A 
BRANCH  78  79
ATOM     79  S   UNL A   1      33.381  34.966  29.568  1.00  0.00     0.124 S 
ATOM     80  O   UNL A   1      32.910  34.985  30.949  1.00  0.00    -0.237 OA
ATOM     81  O   UNL A   1      33.771  36.259  29.013  1.00  0.00    -0.237 OA
ATOM     82  O   UNL A   1      32.624  34.110  28.657  1.00  0.00    -0.744 OA
ENDBRANCH  78  79
ENDBRANCH  50  73
BRANCH  62  83
ATOM     83  C   UNL A   1      43.333  34.305  33.427  1.00  0.00    -0.014 A 
ATOM     84  C   UNL A   1      43.969  35.409  32.833  1.00  0.00     0.010 A 
ATOM     85  C   UNL A   1      43.027  34.341  34.799  1.00  0.00     0.010 A 
ATOM     86  C   UNL A   1      44.303  36.527  33.603  1.00  0.00     0.020 A 
ATOM     87  C   UNL A   1      43.339  35.466  35.567  1.00  0.00     0.020 A 
ATOM     88  C   UNL A   1      43.982  36.549  34.965  1.00  0.00     0.054 A 
BRANCH  88  89
ATOM     89  S   UNL A   1      44.360  38.040  35.927  1.00  0.00     0.124 S 
ATOM     90  O   UNL A   1      45.812  37.956  36.060  1.00  0.00    -0.237 OA
ATOM     91  O   UNL A   1      43.871  39.113  35.064  1.00  0.00    -0.237 OA
ATOM     92  O   UNL A   1      43.608  37.852  37.164  1.00  0.00    -0.744 OA
ENDBRANCH  88  89
ENDBRANCH  62  83
ENDBRANCH  36  37
ENDBRANCH  28  31
ENDBRANCH  26  27
ENDBRANCH  25  26
ENDBRANCH   1  25
TORSDOF 18
ENDMDL
MODEL 3
REMARK VINA RESULT:     -10.9      1.550      8.357
REMARK SMILES C[C@H](C(=O)NCCCCNC(=O)c1ccc(-c2c3nc(c(-c4ccc(S(=O)(=O)[O-])cc4)c4ccc([nH]4)c(-c4ccc(S(=O)(=O)[O-])cc4)c4nc(c(-c5ccc(S(=O)(=O)[O-])cc5)c5ccc2[nH]5)C=C4)C=C3)cc1)[C@@H](C(=O)c1ccccc1)c1ccc(F)cc1
REMARK SMILES IDX 7 1 6 2 5 3 3 4 4 5 2 7 1 8 73 9 74 10 75 11 76 12 77 13
REMARK SMILES IDX 81 14 78 15 80 16 79 17 82 18 83 19 88 20 84 21 87 22 85 23
REMARK SMILES IDX 86 24 8 25 9 26 10 27 11 28 12 30 13 31 14 32 72 33 15 34
REMARK SMILES IDX 71 35 16 36 17 37 18 38 65 39 19 40 70 41 64 42 66 43 20 44
REMARK SMILES IDX 69 45 63 46 62 47 21 49 51 50 32 51 50 52 33 53 36 54 49 55
REMARK SMILES IDX 67 56 34 57 35 58 48 60 68 61 37 62 22 63 23 64 31 65 24 66
REMARK SMILES IDX 30 67 25 68 26 69 27 70 28 71 29 72 52 73 53 74 61 75 54 76
REMARK SMILES IDX 60 77 55 78 56 79 57 80 58 81 59 82 38 83 39 84 47 85 40 86
REMARK SMILES IDX 46 87 41 88 42 89 43 90 44 91 45 92
REMARK H PARENT 5 6 10 29 66 48 36 59
REMARK Flexibility Score: inf
ROOT
ATOM      1  C   UNL A   1      31.808  28.467  25.367  1.00  0.00     0.023 C 
ENDROOT
BRANCH   1   2
ATOM      2  C   UNL A   1      31.366  27.131  24.778  1.00  0.00     0.116 C 
BRANCH   2   3
ATOM      3  N   UNL A   1      31.284  26.045  25.730  1.00  0.00    -0.356 N 
ATOM      4  C   UNL A   1      31.907  24.841  25.783  1.00  0.00     0.223 C 
ATOM      5  O   UNL A   1      31.729  24.180  26.814  1.00  0.00    -0.275 OA
ATOM      6  H   UNL A   1      30.663  26.210  26.477  1.00  0.00     0.163 HD
BRANCH   4   7
ATOM      7  C   UNL A   1      32.703  24.202  24.634  1.00  0.00     0.090 C 
ATOM      8  C   UNL A   1      33.796  25.233  24.293  1.00  0.00     0.019 C 
BRANCH   7   9
ATOM      9  C   UNL A   1      33.187  22.735  24.776  1.00  0.00     0.103 C 
BRANCH   9  10
ATOM     10  C   UNL A   1      32.733  21.767  23.647  1.00  0.00     0.171 C 
ATOM     11  O   UNL A   1      32.601  22.098  22.467  1.00  0.00    -0.293 OA
BRANCH  10  12
ATOM     12  C   UNL A   1      32.639  20.318  23.909  1.00  0.00     0.018 A 
ATOM     13  C   UNL A   1      32.822  19.868  25.222  1.00  0.00     0.012 A 
ATOM     14  C   UNL A   1      32.461  19.405  22.870  1.00  0.00     0.012 A 
ATOM     15  C   UNL A   1      32.756  18.503  25.502  1.00  0.00     0.001 A 
ATOM     16  C   UNL A   1      32.367  18.043  23.160  1.00  0.00     0.001 A 
ATOM     17  C   UNL A   1      32.512  17.594  24.472  1.00  0.00     0.000 A 
ENDBRANCH  10  12
ENDBRANCH   9  10
BRANCH   9  18
ATOM     18  C   UNL A   1      34.716  22.667  24.971  1.00  0.00    -0.036 A 
ATOM     19  C   UNL A   1      35.578  22.264  23.935  1.00  0.00     0.007 A 
ATOM     20  C   UNL A   1      35.281  23.044  26.205  1.00  0.00     0.007 A 
ATOM     21  C   UNL A   1      36.957  22.192  24.142  1.00  0.00     0.039 A 
ATOM     22  C   UNL A   1      36.662  22.991  26.402  1.00  0.00     0.039 A 
ATOM     23  C   UNL A   1      37.486  22.556  25.373  1.00  0.00     0.123 A 
ATOM     24  F   UNL A   1      38.810  22.484  25.571  1.00  0.00    -0.207 F 
ENDBRANCH   9  18
ENDBRANCH   7   9
ENDBRANCH   4   7
ENDBRANCH   2   3
ENDBRANCH   1   2
BRANCH   1  25
ATOM     25  C   UNL A   1      32.182  28.490  26.851  1.00  0.00     0.023 C 
BRANCH  25  26
ATOM     26  C   UNL A   1      33.586  28.974  27.204  1.00  0.00     0.116 C 
BRANCH  26  27
ATOM     27  N   UNL A   1      33.614  30.264  27.880  1.00  0.00    -0.352 N 
ATOM     28  C   UNL A   1      34.652  30.892  28.536  1.00  0.00     0.251 C 
ATOM     29  H   UNL A   1      32.765  30.762  27.867  1.00  0.00     0.163 HD
ATOM     30  O   UNL A   1      34.467  31.962  29.101  1.00  0.00    -0.269 OA
BRANCH  28  31
ATOM     31  C   UNL A   1      35.979  30.241  28.589  1.00  0.00     0.039 A 
ATOM     32  C   UNL A   1      36.789  30.269  27.451  1.00  0.00     0.014 A 
ATOM     33  C   UNL A   1      36.442  29.668  29.775  1.00  0.00     0.014 A 
ATOM     34  C   UNL A   1      38.112  29.829  27.536  1.00  0.00     0.010 A 
ATOM     35  C   UNL A   1      37.777  29.282  29.873  1.00  0.00     0.010 A 
ATOM     36  C   UNL A   1      38.633  29.390  28.765  1.00  0.00    -0.014 A 
BRANCH  36  37
ATOM     37  C   UNL A   1      40.084  29.120  28.942  1.00  0.00     0.031 A 
ATOM     38  C   UNL A   1      40.660  27.782  28.572  1.00  0.00     0.074 A 
ATOM     39  C   UNL A   1      40.858  30.044  29.548  1.00  0.00     0.049 A 
ATOM     40  N   UNL A   1      41.869  27.324  28.773  1.00  0.00    -0.248 NA
ATOM     41  C   UNL A   1      39.754  26.825  27.916  1.00  0.00     0.031 C 
ATOM     42  C   UNL A   1      40.407  31.363  30.004  1.00  0.00     0.029 A 
ATOM     43  N   UNL A   1      42.182  30.007  29.912  1.00  0.00    -0.354 N 
ATOM     44  C   UNL A   1      41.863  26.019  28.298  1.00  0.00     0.074 A 
ATOM     45  C   UNL A   1      40.523  25.749  27.819  1.00  0.00     0.031 C 
ATOM     46  C   UNL A   1      41.434  32.006  30.582  1.00  0.00     0.029 A 
ATOM     47  C   UNL A   1      42.604  31.135  30.576  1.00  0.00     0.049 A 
ATOM     48  H   UNL A   1      42.773  29.244  29.715  1.00  0.00     0.167 HD
ATOM     49  C   UNL A   1      42.883  25.130  28.256  1.00  0.00     0.031 A 
ATOM     50  C   UNL A   1      43.792  31.431  31.141  1.00  0.00     0.031 A 
ATOM     51  C   UNL A   1      44.220  25.409  28.707  1.00  0.00     0.049 A 
ATOM     52  C   UNL A   1      44.909  30.426  31.075  1.00  0.00     0.074 A 
ATOM     53  C   UNL A   1      45.342  24.604  28.612  1.00  0.00     0.029 A 
ATOM     54  N   UNL A   1      44.615  26.575  29.342  1.00  0.00    -0.354 N 
ATOM     55  N   UNL A   1      44.908  29.233  30.533  1.00  0.00    -0.248 NA
ATOM     56  C   UNL A   1      46.186  30.807  31.696  1.00  0.00     0.031 C 
ATOM     57  C   UNL A   1      46.406  25.264  29.236  1.00  0.00     0.029 A 
ATOM     58  C   UNL A   1      45.955  26.498  29.678  1.00  0.00     0.049 A 
ATOM     59  H   UNL A   1      44.030  27.343  29.528  1.00  0.00     0.167 HD
ATOM     60  C   UNL A   1      46.188  28.727  30.733  1.00  0.00     0.074 A 
ATOM     61  C   UNL A   1      46.940  29.748  31.431  1.00  0.00     0.031 C 
ATOM     62  C   UNL A   1      46.692  27.522  30.372  1.00  0.00     0.031 A 
BRANCH  49  63
ATOM     63  C   UNL A   1      42.595  23.759  27.707  1.00  0.00    -0.014 A 
ATOM     64  C   UNL A   1      42.776  23.471  26.343  1.00  0.00     0.010 A 
ATOM     65  C   UNL A   1      42.198  22.731  28.580  1.00  0.00     0.010 A 
ATOM     66  C   UNL A   1      42.536  22.184  25.856  1.00  0.00     0.020 A 
ATOM     67  C   UNL A   1      41.977  21.436  28.100  1.00  0.00     0.020 A 
ATOM     68  C   UNL A   1      42.136  21.175  26.738  1.00  0.00     0.054 A 
BRANCH  68  69
ATOM     69  S   UNL A   1      41.864  19.506  26.083  1.00  0.00     0.124 S 
ATOM     70  O   UNL A   1      42.302  18.671  27.200  1.00  0.00    -0.237 OA
ATOM     71  O   UNL A   1      40.428  19.494  25.816  1.00  0.00    -0.237 OA
ATOM     72  O   UNL A   1      42.716  19.455  24.897  1.00  0.00    -0.744 OA
ENDBRANCH  68  69
ENDBRANCH  49  63
BRANCH  50  73
ATOM     73  C   UNL A   1      43.986  32.734  31.834  1.00  0.00    -0.014 A 
ATOM     74  C   UNL A   1      43.741  32.851  33.213  1.00  0.00     0.010 A 
ATOM     75  C   UNL A   1      44.412  33.865  31.114  1.00  0.00     0.010 A 
ATOM     76  C   UNL A   1      43.899  34.082  33.857  1.00  0.00     0.020 A 
ATOM     77  C   UNL A   1      44.595  35.091  31.760  1.00  0.00     0.020 A 
ATOM     78  C   UNL A   1      44.323  35.195  33.125  1.00  0.00     0.054 A 
BRANCH  78  79
ATOM     79  S   UNL A   1      44.563  36.775  33.986  1.00  0.00     0.124 S 
ATOM     80  O   UNL A   1      43.684  36.627  35.140  1.00  0.00    -0.237 OA
ATOM     81  O   UNL A   1      45.995  36.765  34.274  1.00  0.00    -0.237 OA
ATOM     82  O   UNL A   1      44.143  37.767  32.997  1.00  0.00    -0.744 OA
ENDBRANCH  78  79
ENDBRANCH  50  73
BRANCH  62  83
ATOM     83  C   UNL A   1      48.130  27.241  30.708  1.00  0.00    -0.014 A 
ATOM     84  C   UNL A   1      48.470  26.489  31.847  1.00  0.00     0.010 A 
ATOM     85  C   UNL A   1      49.146  27.665  29.834  1.00  0.00     0.010 A 
ATOM     86  C   UNL A   1      49.807  26.176  32.110  1.00  0.00     0.020 A 
ATOM     87  C   UNL A   1      50.481  27.335  30.082  1.00  0.00     0.020 A 
ATOM     88  C   UNL A   1      50.803  26.599  31.223  1.00  0.00     0.054 A 
BRANCH  88  89
ATOM     89  S   UNL A   1      52.522  26.118  31.548  1.00  0.00     0.124 S 
ATOM     90  O   UNL A   1      53.074  26.034  30.199  1.00  0.00    -0.237 OA
ATOM     91  O   UNL A   1      53.019  27.227  32.361  1.00  0.00    -0.237 OA
ATOM     92  O   UNL A   1      52.398  24.845  32.252  1.00  0.00    -0.744 OA
ENDBRANCH  88  89
ENDBRANCH  62  83
ENDBRANCH  36  37
ENDBRANCH  28  31
ENDBRANCH  26  27
ENDBRANCH  25  26
ENDBRANCH   1  25
TORSDOF 18
ENDMDL
