MODEL 1
REMARK VINA RESULT:      -9.8      0.000      0.000
REMARK SMILES O=C(NC[C@@H]1CC[C@H](C(=O)NCCCCNC(=O)c2ccc(-c3c4nc(c(-c5ccc(S(=O)(=O)[O-])cc5)c5ccc([nH]5)c(-c5ccc(S(=O)(=O)[O-])cc5)c5nc(c(-c6ccc(S(=O)(=O)[O-])cc6)c6ccc3[nH]6)C=C5)C=C4)cc2)O1)Nc1ncccn1
REMARK SMILES IDX 13 1 12 2 11 3 9 4 10 5 8 7 5 8 6 9 79 10 7 11 4 12 3 13
REMARK SMILES IDX 1 14 2 15 80 16 81 19 82 20 86 21 83 22 85 23 84 24 14 25
REMARK SMILES IDX 15 26 16 27 17 28 18 30 19 31 20 32 78 33 21 34 77 35 22 36
REMARK SMILES IDX 23 37 24 38 71 39 25 40 76 41 70 42 72 43 26 44 75 45 69 46
REMARK SMILES IDX 68 47 27 49 57 50 38 51 56 52 39 53 42 54 55 55 73 56 40 57
REMARK SMILES IDX 41 58 54 60 74 61 43 62 28 63 29 64 37 65 30 66 36 67 31 68
REMARK SMILES IDX 32 69 33 70 34 71 35 72 58 73 59 74 67 75 60 76 66 77 61 78
REMARK SMILES IDX 62 79 63 80 64 81 65 82 44 83 45 84 53 85 46 86 52 87 47 88
REMARK SMILES IDX 48 89 49 90 50 91 51 92
REMARK H PARENT 11 6 3 17 80 18 16 29 72 48 42 59
REMARK Flexibility Score: inf
ROOT
ATOM      1  C   UNL A   1      41.727  19.626  26.196  1.00  0.00     0.023 C 
ENDROOT
BRANCH   1   2
ATOM      2  C   UNL A   1      42.675  20.771  25.831  1.00  0.00     0.116 C 
BRANCH   2   3
ATOM      3  N   UNL A   1      43.225  21.426  26.998  1.00  0.00    -0.354 N 
ATOM      4  C   UNL A   1      43.929  22.592  27.069  1.00  0.00     0.249 C 
ATOM      5  O   UNL A   1      44.245  23.011  28.188  1.00  0.00    -0.272 OA
ATOM      6  H   UNL A   1      43.070  20.969  27.856  1.00  0.00     0.163 HD
BRANCH   4   7
ATOM      7  C   UNL A   1      44.400  23.337  25.796  1.00  0.00     0.207 C 
ATOM      8  C   UNL A   1      45.796  25.010  25.010  1.00  0.00     0.138 C 
ATOM      9  C   UNL A   1      44.483  25.699  25.334  1.00  0.00     0.037 C 
ATOM     10  O   UNL A   1      45.762  23.776  25.744  1.00  0.00    -0.363 OA
ATOM     11  C   UNL A   1      43.518  24.541  25.465  1.00  0.00     0.045 C 
BRANCH   8  12
ATOM     12  C   UNL A   1      47.070  25.824  25.310  1.00  0.00     0.149 C 
BRANCH  12  13
ATOM     13  N   UNL A   1      47.246  26.974  24.434  1.00  0.00    -0.335 N 
ATOM     14  O   UNL A   1      46.773  28.948  23.577  1.00  0.00    -0.248 OA
ATOM     15  C   UNL A   1      46.841  28.264  24.595  1.00  0.00     0.321 C 
ATOM     16  N   UNL A   1      46.595  28.675  25.859  1.00  0.00    -0.276 N 
ATOM     17  H   UNL A   1      47.731  26.790  23.598  1.00  0.00     0.165 HD
ATOM     18  H   UNL A   1      46.829  28.065  26.594  1.00  0.00     0.175 HD
BRANCH  16  19
ATOM     19  C   UNL A   1      46.035  29.901  26.189  1.00  0.00     0.230 A 
ATOM     20  N   UNL A   1      44.727  29.848  26.499  1.00  0.00    -0.221 NA
ATOM     21  N   UNL A   1      46.763  31.027  26.168  1.00  0.00    -0.221 NA
ATOM     22  C   UNL A   1      44.161  31.004  26.900  1.00  0.00     0.117 A 
ATOM     23  C   UNL A   1      46.136  32.162  26.531  1.00  0.00     0.117 A 
ATOM     24  C   UNL A   1      44.824  32.206  26.933  1.00  0.00     0.040 A 
ENDBRANCH  16  19
ENDBRANCH  12  13
ENDBRANCH   8  12
ENDBRANCH   4   7
ENDBRANCH   2   3
ENDBRANCH   1   2
BRANCH   1  25
ATOM     25  C   UNL A   1      40.249  20.020  26.215  1.00  0.00     0.023 C 
BRANCH  25  26
ATOM     26  C   UNL A   1      39.981  21.506  26.449  1.00  0.00     0.116 C 
BRANCH  26  27
ATOM     27  N   UNL A   1      38.708  21.967  25.918  1.00  0.00    -0.352 N 
ATOM     28  C   UNL A   1      38.172  23.235  25.985  1.00  0.00     0.251 C 
ATOM     29  H   UNL A   1      38.162  21.292  25.454  1.00  0.00     0.163 HD
ATOM     30  O   UNL A   1      37.061  23.482  25.535  1.00  0.00    -0.269 OA
BRANCH  28  31
ATOM     31  C   UNL A   1      38.955  24.289  26.665  1.00  0.00     0.039 A 
ATOM     32  C   UNL A   1      39.802  25.097  25.906  1.00  0.00     0.014 A 
ATOM     33  C   UNL A   1      38.779  24.525  28.032  1.00  0.00     0.014 A 
ATOM     34  C   UNL A   1      40.403  26.208  26.500  1.00  0.00     0.010 A 
ATOM     35  C   UNL A   1      39.326  25.670  28.605  1.00  0.00     0.010 A 
ATOM     36  C   UNL A   1      40.128  26.531  27.839  1.00  0.00    -0.014 A 
BRANCH  36  37
ATOM     37  C   UNL A   1      40.635  27.789  28.443  1.00  0.00     0.031 A 
ATOM     38  C   UNL A   1      42.063  27.894  28.894  1.00  0.00     0.074 A 
ATOM     39  C   UNL A   1      39.784  28.813  28.649  1.00  0.00     0.049 A 
ATOM     40  N   UNL A   1      42.669  28.895  29.479  1.00  0.00    -0.248 NA
ATOM     41  C   UNL A   1      42.914  26.712  28.684  1.00  0.00     0.031 C 
ATOM     42  C   UNL A   1      38.361  28.817  28.301  1.00  0.00     0.029 A 
ATOM     43  N   UNL A   1      39.991  30.050  29.209  1.00  0.00    -0.354 N 
ATOM     44  C   UNL A   1      43.967  28.461  29.722  1.00  0.00     0.074 A 
ATOM     45  C   UNL A   1      44.045  27.091  29.261  1.00  0.00     0.031 C 
ATOM     46  C   UNL A   1      37.832  30.007  28.625  1.00  0.00     0.029 A 
ATOM     47  C   UNL A   1      38.865  30.838  29.235  1.00  0.00     0.049 A 
ATOM     48  H   UNL A   1      40.863  30.344  29.557  1.00  0.00     0.167 HD
ATOM     49  C   UNL A   1      45.003  29.144  30.264  1.00  0.00     0.031 A 
ATOM     50  C   UNL A   1      38.683  32.090  29.697  1.00  0.00     0.031 A 
ATOM     51  C   UNL A   1      44.925  30.508  30.715  1.00  0.00     0.049 A 
ATOM     52  C   UNL A   1      39.848  32.832  30.290  1.00  0.00     0.074 A 
ATOM     53  C   UNL A   1      45.934  31.305  31.227  1.00  0.00     0.029 A 
ATOM     54  N   UNL A   1      43.771  31.276  30.714  1.00  0.00    -0.354 N 
ATOM     55  N   UNL A   1      41.085  32.426  30.450  1.00  0.00    -0.248 NA
ATOM     56  C   UNL A   1      39.595  34.203  30.753  1.00  0.00     0.031 C 
ATOM     57  C   UNL A   1      45.381  32.543  31.570  1.00  0.00     0.029 A 
ATOM     58  C   UNL A   1      44.037  32.532  31.232  1.00  0.00     0.049 A 
ATOM     59  H   UNL A   1      42.891  30.973  30.391  1.00  0.00     0.167 HD
ATOM     60  C   UNL A   1      41.764  33.501  31.012  1.00  0.00     0.074 A 
ATOM     61  C   UNL A   1      40.802  34.576  31.154  1.00  0.00     0.031 C 
ATOM     62  C   UNL A   1      43.068  33.590  31.373  1.00  0.00     0.031 A 
BRANCH  49  63
ATOM     63  C   UNL A   1      46.308  28.407  30.404  1.00  0.00    -0.014 A 
ATOM     64  C   UNL A   1      46.589  27.644  31.553  1.00  0.00     0.010 A 
ATOM     65  C   UNL A   1      47.266  28.480  29.378  1.00  0.00     0.010 A 
ATOM     66  C   UNL A   1      47.830  27.019  31.700  1.00  0.00     0.020 A 
ATOM     67  C   UNL A   1      48.499  27.834  29.510  1.00  0.00     0.020 A 
ATOM     68  C   UNL A   1      48.781  27.128  30.682  1.00  0.00     0.054 A 
BRANCH  68  69
ATOM     69  S   UNL A   1      50.393  26.327  30.903  1.00  0.00     0.124 S 
ATOM     70  O   UNL A   1      51.000  27.155  31.942  1.00  0.00    -0.237 OA
ATOM     71  O   UNL A   1      50.029  24.972  31.313  1.00  0.00    -0.237 OA
ATOM     72  O   UNL A   1      51.013  26.428  29.584  1.00  0.00    -0.744 OA
ENDBRANCH  68  69
ENDBRANCH  49  63
BRANCH  50  73
ATOM     73  C   UNL A   1      37.347  32.731  29.579  1.00  0.00    -0.014 A 
ATOM     74  C   UNL A   1      36.539  32.896  30.718  1.00  0.00     0.010 A 
ATOM     75  C   UNL A   1      36.891  33.213  28.339  1.00  0.00     0.010 A 
ATOM     76  C   UNL A   1      35.297  33.529  30.619  1.00  0.00     0.020 A 
ATOM     77  C   UNL A   1      35.658  33.864  28.240  1.00  0.00     0.020 A 
ATOM     78  C   UNL A   1      34.866  34.013  29.380  1.00  0.00     0.054 A 
BRANCH  78  79
ATOM     79  S   UNL A   1      33.283  34.897  29.288  1.00  0.00     0.124 S 
ATOM     80  O   UNL A   1      32.530  34.074  28.347  1.00  0.00    -0.237 OA
ATOM     81  O   UNL A   1      32.819  34.861  30.674  1.00  0.00    -0.237 OA
ATOM     82  O   UNL A   1      33.661  36.222  28.802  1.00  0.00    -0.744 OA
ENDBRANCH  78  79
ENDBRANCH  50  73
BRANCH  62  83
ATOM     83  C   UNL A   1      43.540  34.902  31.934  1.00  0.00    -0.014 A 
ATOM     84  C   UNL A   1      43.893  35.970  31.089  1.00  0.00     0.010 A 
ATOM     85  C   UNL A   1      43.578  35.088  33.328  1.00  0.00     0.010 A 
ATOM     86  C   UNL A   1      44.300  37.192  31.631  1.00  0.00     0.020 A 
ATOM     87  C   UNL A   1      43.963  36.315  33.873  1.00  0.00     0.020 A 
ATOM     88  C   UNL A   1      44.335  37.356  33.019  1.00  0.00     0.054 A 
BRANCH  88  89
ATOM     89  S   UNL A   1      44.820  38.967  33.699  1.00  0.00     0.124 S 
ATOM     90  O   UNL A   1      45.607  39.533  32.608  1.00  0.00    -0.237 OA
ATOM     91  O   UNL A   1      43.534  39.613  33.948  1.00  0.00    -0.237 OA
ATOM     92  O   UNL A   1      45.576  38.620  34.901  1.00  0.00    -0.744 OA
ENDBRANCH  88  89
ENDBRANCH  62  83
ENDBRANCH  36  37
ENDBRANCH  28  31
ENDBRANCH  26  27
ENDBRANCH  25  26
ENDBRANCH   1  25
TORSDOF 17
ENDMDL
MODEL 2
REMARK VINA RESULT:      -9.7      4.189     11.593
REMARK SMILES O=C(NC[C@@H]1CC[C@H](C(=O)NCCCCNC(=O)c2ccc(-c3c4nc(c(-c5ccc(S(=O)(=O)[O-])cc5)c5ccc([nH]5)c(-c5ccc(S(=O)(=O)[O-])cc5)c5nc(c(-c6ccc(S(=O)(=O)[O-])cc6)c6ccc3[nH]6)C=C5)C=C4)cc2)O1)Nc1ncccn1
REMARK SMILES IDX 13 1 12 2 11 3 9 4 10 5 8 7 5 8 6 9 79 10 7 11 4 12 3 13
REMARK SMILES IDX 1 14 2 15 80 16 81 19 82 20 86 21 83 22 85 23 84 24 14 25
REMARK SMILES IDX 15 26 16 27 17 28 18 30 19 31 20 32 78 33 21 34 77 35 22 36
REMARK SMILES IDX 23 37 24 38 71 39 25 40 76 41 70 42 72 43 26 44 75 45 69 46
REMARK SMILES IDX 68 47 27 49 57 50 38 51 56 52 39 53 42 54 55 55 73 56 40 57
REMARK SMILES IDX 41 58 54 60 74 61 43 62 28 63 29 64 37 65 30 66 36 67 31 68
REMARK SMILES IDX 32 69 33 70 34 71 35 72 58 73 59 74 67 75 60 76 66 77 61 78
REMARK SMILES IDX 62 79 63 80 64 81 65 82 44 83 45 84 53 85 46 86 52 87 47 88
REMARK SMILES IDX 48 89 49 90 50 91 51 92
REMARK H PARENT 11 6 3 17 80 18 16 29 72 48 42 59
REMARK Flexibility Score: inf
ROOT
ATOM      1  C   UNL A   1      32.368  28.917  24.964  1.00  0.00     0.023 C 
ENDROOT
BRANCH   1   2
ATOM      2  C   UNL A   1      31.013  28.915  24.253  1.00  0.00     0.116 C 
BRANCH   2   3
ATOM      3  N   UNL A   1      31.074  28.290  22.950  1.00  0.00    -0.354 N 
ATOM      4  C   UNL A   1      31.068  26.961  22.640  1.00  0.00     0.249 C 
ATOM      5  O   UNL A   1      31.054  26.645  21.446  1.00  0.00    -0.272 OA
ATOM      6  H   UNL A   1      31.125  28.905  22.184  1.00  0.00     0.163 HD
BRANCH   4   7
ATOM      7  C   UNL A   1      31.163  25.870  23.735  1.00  0.00     0.207 C 
ATOM      8  C   UNL A   1      32.400  24.056  24.473  1.00  0.00     0.138 C 
ATOM      9  C   UNL A   1      31.371  23.481  23.516  1.00  0.00     0.037 C 
ATOM     10  O   UNL A   1      32.468  25.455  24.153  1.00  0.00    -0.363 OA
ATOM     11  C   UNL A   1      30.375  24.611  23.374  1.00  0.00     0.045 C 
BRANCH   8  12
ATOM     12  C   UNL A   1      33.789  23.389  24.441  1.00  0.00     0.149 C 
BRANCH  12  13
ATOM     13  N   UNL A   1      34.082  22.598  25.629  1.00  0.00    -0.335 N 
ATOM     14  O   UNL A   1      33.930  20.874  26.993  1.00  0.00    -0.248 OA
ATOM     15  C   UNL A   1      33.993  21.254  25.826  1.00  0.00     0.321 C 
ATOM     16  N   UNL A   1      34.023  20.470  24.726  1.00  0.00    -0.276 N 
ATOM     17  H   UNL A   1      34.392  23.115  26.407  1.00  0.00     0.165 HD
ATOM     18  H   UNL A   1      34.223  20.898  23.863  1.00  0.00     0.175 HD
BRANCH  16  19
ATOM     19  C   UNL A   1      33.794  19.102  24.733  1.00  0.00     0.230 A 
ATOM     20  N   UNL A   1      32.536  18.751  25.054  1.00  0.00    -0.221 NA
ATOM     21  N   UNL A   1      34.776  18.231  24.457  1.00  0.00    -0.221 NA
ATOM     22  C   UNL A   1      32.249  17.435  24.998  1.00  0.00     0.117 A 
ATOM     23  C   UNL A   1      34.446  16.925  24.461  1.00  0.00     0.117 A 
ATOM     24  C   UNL A   1      33.177  16.465  24.707  1.00  0.00     0.040 A 
ENDBRANCH  16  19
ENDBRANCH  12  13
ENDBRANCH   8  12
ENDBRANCH   4   7
ENDBRANCH   2   3
ENDBRANCH   1   2
BRANCH   1  25
ATOM     25  C   UNL A   1      32.319  28.402  26.404  1.00  0.00     0.023 C 
BRANCH  25  26
ATOM     26  C   UNL A   1      33.527  28.772  27.263  1.00  0.00     0.116 C 
BRANCH  26  27
ATOM     27  N   UNL A   1      33.495  30.135  27.771  1.00  0.00    -0.352 N 
ATOM     28  C   UNL A   1      34.517  30.839  28.368  1.00  0.00     0.251 C 
ATOM     29  H   UNL A   1      32.639  30.611  27.678  1.00  0.00     0.163 HD
ATOM     30  O   UNL A   1      34.344  31.973  28.797  1.00  0.00    -0.269 OA
BRANCH  28  31
ATOM     31  C   UNL A   1      35.827  30.172  28.526  1.00  0.00     0.039 A 
ATOM     32  C   UNL A   1      36.728  30.192  27.460  1.00  0.00     0.014 A 
ATOM     33  C   UNL A   1      36.186  29.607  29.753  1.00  0.00     0.014 A 
ATOM     34  C   UNL A   1      38.030  29.730  27.656  1.00  0.00     0.010 A 
ATOM     35  C   UNL A   1      37.502  29.208  29.965  1.00  0.00     0.010 A 
ATOM     36  C   UNL A   1      38.441  29.283  28.923  1.00  0.00    -0.014 A 
BRANCH  36  37
ATOM     37  C   UNL A   1      39.859  28.932  29.188  1.00  0.00     0.031 A 
ATOM     38  C   UNL A   1      40.791  29.941  29.796  1.00  0.00     0.074 A 
ATOM     39  C   UNL A   1      40.322  27.724  28.812  1.00  0.00     0.049 A 
ATOM     40  N   UNL A   1      42.067  29.827  30.060  1.00  0.00    -0.248 NA
ATOM     41  C   UNL A   1      40.220  31.256  30.128  1.00  0.00     0.031 C 
ATOM     42  C   UNL A   1      39.530  26.675  28.167  1.00  0.00     0.029 A 
ATOM     43  N   UNL A   1      41.577  27.176  28.914  1.00  0.00    -0.354 N 
ATOM     44  C   UNL A   1      42.458  31.058  30.574  1.00  0.00     0.074 A 
ATOM     45  C   UNL A   1      41.292  31.916  30.541  1.00  0.00     0.031 C 
ATOM     46  C   UNL A   1      40.308  25.601  27.959  1.00  0.00     0.029 A 
ATOM     47  C   UNL A   1      41.660  25.895  28.423  1.00  0.00     0.049 A 
ATOM     48  H   UNL A   1      42.344  27.655  29.302  1.00  0.00     0.167 HD
ATOM     49  C   UNL A   1      43.670  31.435  31.043  1.00  0.00     0.031 A 
ATOM     50  C   UNL A   1      42.707  25.050  28.354  1.00  0.00     0.031 A 
ATOM     51  C   UNL A   1      44.826  30.579  31.081  1.00  0.00     0.049 A 
ATOM     52  C   UNL A   1      44.042  25.487  28.886  1.00  0.00     0.074 A 
ATOM     53  C   UNL A   1      46.083  30.851  31.590  1.00  0.00     0.029 A 
ATOM     54  N   UNL A   1      44.866  29.285  30.585  1.00  0.00    -0.354 N 
ATOM     55  N   UNL A   1      44.375  26.634  29.429  1.00  0.00    -0.248 NA
ATOM     56  C   UNL A   1      45.139  24.513  28.807  1.00  0.00     0.031 C 
ATOM     57  C   UNL A   1      46.896  29.734  31.367  1.00  0.00     0.029 A 
ATOM     58  C   UNL A   1      46.132  28.750  30.759  1.00  0.00     0.049 A 
ATOM     59  H   UNL A   1      44.107  28.814  30.171  1.00  0.00     0.167 HD
ATOM     60  C   UNL A   1      45.715  26.511  29.777  1.00  0.00     0.074 A 
ATOM     61  C   UNL A   1      46.127  25.176  29.392  1.00  0.00     0.031 C 
ATOM     62  C   UNL A   1      46.529  27.422  30.367  1.00  0.00     0.031 A 
BRANCH  49  63
ATOM     63  C   UNL A   1      43.799  32.850  31.543  1.00  0.00    -0.014 A 
ATOM     64  C   UNL A   1      43.620  33.155  32.905  1.00  0.00     0.010 A 
ATOM     65  C   UNL A   1      44.099  33.885  30.641  1.00  0.00     0.010 A 
ATOM     66  C   UNL A   1      43.677  34.480  33.345  1.00  0.00     0.020 A 
ATOM     67  C   UNL A   1      44.184  35.209  31.082  1.00  0.00     0.020 A 
ATOM     68  C   UNL A   1      43.946  35.500  32.428  1.00  0.00     0.054 A 
BRANCH  68  69
ATOM     69  S   UNL A   1      43.995  37.215  33.017  1.00  0.00     0.124 S 
ATOM     70  O   UNL A   1      45.267  37.249  33.735  1.00  0.00    -0.237 OA
ATOM     71  O   UNL A   1      43.954  37.985  31.776  1.00  0.00    -0.237 OA
ATOM     72  O   UNL A   1      42.803  37.327  33.854  1.00  0.00    -0.744 OA
ENDBRANCH  68  69
ENDBRANCH  49  63
BRANCH  50  73
ATOM     73  C   UNL A   1      42.516  23.688  27.789  1.00  0.00    -0.014 A 
ATOM     74  C   UNL A   1      42.626  23.475  26.403  1.00  0.00     0.010 A 
ATOM     75  C   UNL A   1      42.262  22.592  28.634  1.00  0.00     0.010 A 
ATOM     76  C   UNL A   1      42.482  22.191  25.871  1.00  0.00     0.020 A 
ATOM     77  C   UNL A   1      42.137  21.303  28.106  1.00  0.00     0.020 A 
ATOM     78  C   UNL A   1      42.242  21.112  26.727  1.00  0.00     0.054 A 
BRANCH  78  79
ATOM     79  S   UNL A   1      42.132  19.442  26.022  1.00  0.00     0.124 S 
ATOM     80  O   UNL A   1      42.642  18.618  27.113  1.00  0.00    -0.237 OA
ATOM     81  O   UNL A   1      40.704  19.310  25.742  1.00  0.00    -0.237 OA
ATOM     82  O   UNL A   1      42.985  19.516  24.838  1.00  0.00    -0.744 OA
ENDBRANCH  78  79
ENDBRANCH  50  73
BRANCH  62  83
ATOM     83  C   UNL A   1      47.942  26.998  30.656  1.00  0.00    -0.014 A 
ATOM     84  C   UNL A   1      49.006  27.405  29.832  1.00  0.00     0.010 A 
ATOM     85  C   UNL A   1      48.215  26.226  31.800  1.00  0.00     0.010 A 
ATOM     86  C   UNL A   1      50.317  27.026  30.135  1.00  0.00     0.020 A 
ATOM     87  C   UNL A   1      49.526  25.864  32.118  1.00  0.00     0.020 A 
ATOM     88  C   UNL A   1      50.568  26.256  31.275  1.00  0.00     0.054 A 
BRANCH  88  89
ATOM     89  S   UNL A   1      52.283  25.817  31.675  1.00  0.00     0.124 S 
ATOM     90  O   UNL A   1      52.655  26.873  32.612  1.00  0.00    -0.237 OA
ATOM     91  O   UNL A   1      52.149  24.482  32.252  1.00  0.00    -0.237 OA
ATOM     92  O   UNL A   1      52.961  25.863  30.380  1.00  0.00    -0.744 OA
ENDBRANCH  88  89
ENDBRANCH  62  83
ENDBRANCH  36  37
ENDBRANCH  28  31
ENDBRANCH  26  27
ENDBRANCH  25  26
ENDBRANCH   1  25
TORSDOF 17
ENDMDL
MODEL 3
REMARK VINA RESULT:      -9.6      5.667     11.960
REMARK SMILES O=C(NC[C@@H]1CC[C@H](C(=O)NCCCCNC(=O)c2ccc(-c3c4nc(c(-c5ccc(S(=O)(=O)[O-])cc5)c5ccc([nH]5)c(-c5ccc(S(=O)(=O)[O-])cc5)c5nc(c(-c6ccc(S(=O)(=O)[O-])cc6)c6ccc3[nH]6)C=C5)C=C4)cc2)O1)Nc1ncccn1
REMARK SMILES IDX 13 1 12 2 11 3 9 4 10 5 8 7 5 8 6 9 79 10 7 11 4 12 3 13
REMARK SMILES IDX 1 14 2 15 80 16 81 19 82 20 86 21 83 22 85 23 84 24 14 25
REMARK SMILES IDX 15 26 16 27 17 28 18 30 19 31 20 32 78 33 21 34 77 35 22 36
REMARK SMILES IDX 23 37 24 38 71 39 25 40 76 41 70 42 72 43 26 44 75 45 69 46
REMARK SMILES IDX 68 47 27 49 57 50 38 51 56 52 39 53 42 54 55 55 73 56 40 57
REMARK SMILES IDX 41 58 54 60 74 61 43 62 28 63 29 64 37 65 30 66 36 67 31 68
REMARK SMILES IDX 32 69 33 70 34 71 35 72 58 73 59 74 67 75 60 76 66 77 61 78
REMARK SMILES IDX 62 79 63 80 64 81 65 82 44 83 45 84 53 85 46 86 52 87 47 88
REMARK SMILES IDX 48 89 49 90 50 91 51 92
REMARK H PARENT 11 6 3 17 80 18 16 29 72 48 42 59
REMARK Flexibility Score: inf
ROOT
ATOM      1  C   UNL A   1      33.583  28.277  23.833  1.00  0.00     0.023 C 
ENDROOT
BRANCH   1   2
ATOM      2  C   UNL A   1      32.595  28.152  22.671  1.00  0.00     0.116 C 
BRANCH   2   3
ATOM      3  N   UNL A   1      33.110  27.337  21.592  1.00  0.00    -0.354 N 
ATOM      4  C   UNL A   1      32.783  26.055  21.260  1.00  0.00     0.249 C 
ATOM      5  O   UNL A   1      33.297  25.570  20.247  1.00  0.00    -0.272 OA
ATOM      6  H   UNL A   1      33.787  27.765  21.020  1.00  0.00     0.163 HD
BRANCH   4   7
ATOM      7  C   UNL A   1      31.865  25.190  22.160  1.00  0.00     0.207 C 
ATOM      8  C   UNL A   1      30.450  25.239  23.993  1.00  0.00     0.138 C 
ATOM      9  C   UNL A   1      31.831  24.957  24.556  1.00  0.00     0.037 C 
ATOM     10  O   UNL A   1      30.684  25.800  22.691  1.00  0.00    -0.363 OA
ATOM     11  C   UNL A   1      32.621  24.559  23.328  1.00  0.00     0.045 C 
BRANCH   8  12
ATOM     12  C   UNL A   1      29.547  26.142  24.856  1.00  0.00     0.149 C 
BRANCH  12  13
ATOM     13  N   UNL A   1      28.297  26.508  24.205  1.00  0.00    -0.335 N 
ATOM     14  O   UNL A   1      26.732  27.870  23.462  1.00  0.00    -0.248 OA
ATOM     15  C   UNL A   1      27.937  27.673  23.599  1.00  0.00     0.321 C 
ATOM     16  N   UNL A   1      28.937  28.475  23.171  1.00  0.00    -0.276 N 
ATOM     17  H   UNL A   1      27.607  25.806  24.203  1.00  0.00     0.165 HD
ATOM     18  H   UNL A   1      29.856  28.125  23.215  1.00  0.00     0.175 HD
BRANCH  16  19
ATOM     19  C   UNL A   1      28.755  29.756  22.672  1.00  0.00     0.230 A 
ATOM     20  N   UNL A   1      28.884  30.732  23.589  1.00  0.00    -0.221 NA
ATOM     21  N   UNL A   1      28.455  29.965  21.382  1.00  0.00    -0.221 NA
ATOM     22  C   UNL A   1      28.790  31.997  23.133  1.00  0.00     0.117 A 
ATOM     23  C   UNL A   1      28.325  31.246  20.989  1.00  0.00     0.117 A 
ATOM     24  C   UNL A   1      28.505  32.317  21.828  1.00  0.00     0.040 A 
ENDBRANCH  16  19
ENDBRANCH  12  13
ENDBRANCH   8  12
ENDBRANCH   4   7
ENDBRANCH   2   3
ENDBRANCH   1   2
BRANCH   1  25
ATOM     25  C   UNL A   1      32.970  28.839  25.117  1.00  0.00     0.023 C 
BRANCH  25  26
ATOM     26  C   UNL A   1      33.978  29.205  26.206  1.00  0.00     0.116 C 
BRANCH  26  27
ATOM     27  N   UNL A   1      33.749  30.509  26.807  1.00  0.00    -0.352 N 
ATOM     28  C   UNL A   1      34.523  31.154  27.747  1.00  0.00     0.251 C 
ATOM     29  H   UNL A   1      32.944  30.989  26.507  1.00  0.00     0.163 HD
ATOM     30  O   UNL A   1      34.192  32.238  28.210  1.00  0.00    -0.269 OA
BRANCH  28  31
ATOM     31  C   UNL A   1      35.749  30.479  28.225  1.00  0.00     0.039 A 
ATOM     32  C   UNL A   1      36.967  30.779  27.614  1.00  0.00     0.014 A 
ATOM     33  C   UNL A   1      35.696  29.623  29.330  1.00  0.00     0.014 A 
ATOM     34  C   UNL A   1      38.151  30.293  28.172  1.00  0.00     0.010 A 
ATOM     35  C   UNL A   1      36.880  29.195  29.922  1.00  0.00     0.010 A 
ATOM     36  C   UNL A   1      38.118  29.541  29.359  1.00  0.00    -0.014 A 
BRANCH  36  37
ATOM     37  C   UNL A   1      39.372  29.146  30.048  1.00  0.00     0.031 A 
ATOM     38  C   UNL A   1      39.822  29.872  31.284  1.00  0.00     0.074 A 
ATOM     39  C   UNL A   1      40.143  28.178  29.516  1.00  0.00     0.049 A 
ATOM     40  N   UNL A   1      40.906  29.694  31.994  1.00  0.00    -0.248 NA
ATOM     41  C   UNL A   1      38.952  30.954  31.770  1.00  0.00     0.031 C 
ATOM     42  C   UNL A   1      39.842  27.431  28.292  1.00  0.00     0.029 A 
ATOM     43  N   UNL A   1      41.343  27.658  29.934  1.00  0.00    -0.354 N 
ATOM     44  C   UNL A   1      40.859  30.650  33.001  1.00  0.00     0.074 A 
ATOM     45  C   UNL A   1      39.661  31.433  32.782  1.00  0.00     0.031 C 
ATOM     46  C   UNL A   1      40.814  26.531  28.076  1.00  0.00     0.029 A 
ATOM     47  C   UNL A   1      41.823  26.657  29.123  1.00  0.00     0.049 A 
ATOM     48  H   UNL A   1      41.815  27.972  30.738  1.00  0.00     0.167 HD
ATOM     49  C   UNL A   1      41.724  30.849  34.024  1.00  0.00     0.031 A 
ATOM     50  C   UNL A   1      42.948  25.922  29.211  1.00  0.00     0.031 A 
ATOM     51  C   UNL A   1      42.911  30.066  34.243  1.00  0.00     0.049 A 
ATOM     52  C   UNL A   1      43.891  26.155  30.357  1.00  0.00     0.074 A 
ATOM     53  C   UNL A   1      43.820  30.154  35.282  1.00  0.00     0.029 A 
ATOM     54  N   UNL A   1      43.355  29.053  33.407  1.00  0.00    -0.354 N 
ATOM     55  N   UNL A   1      43.795  27.021  31.338  1.00  0.00    -0.248 NA
ATOM     56  C   UNL A   1      45.089  25.305  30.415  1.00  0.00     0.031 C 
ATOM     57  C   UNL A   1      44.836  29.219  35.054  1.00  0.00     0.029 A 
ATOM     58  C   UNL A   1      44.536  28.519  33.895  1.00  0.00     0.049 A 
ATOM     59  H   UNL A   1      42.898  28.757  32.586  1.00  0.00     0.167 HD
ATOM     60  C   UNL A   1      44.908  26.804  32.142  1.00  0.00     0.074 A 
ATOM     61  C   UNL A   1      45.657  25.720  31.538  1.00  0.00     0.031 C 
ATOM     62  C   UNL A   1      45.272  27.444  33.281  1.00  0.00     0.031 A 
BRANCH  49  63
ATOM     63  C   UNL A   1      41.412  31.975  34.974  1.00  0.00    -0.014 A 
ATOM     64  C   UNL A   1      40.511  31.794  36.039  1.00  0.00     0.010 A 
ATOM     65  C   UNL A   1      42.024  33.228  34.798  1.00  0.00     0.010 A 
ATOM     66  C   UNL A   1      40.179  32.865  36.873  1.00  0.00     0.020 A 
ATOM     67  C   UNL A   1      41.715  34.295  35.647  1.00  0.00     0.020 A 
ATOM     68  C   UNL A   1      40.774  34.112  36.663  1.00  0.00     0.054 A 
BRANCH  68  69
ATOM     69  S   UNL A   1      40.314  35.493  37.745  1.00  0.00     0.124 S 
ATOM     70  O   UNL A   1      41.592  35.822  38.371  1.00  0.00    -0.237 OA
ATOM     71  O   UNL A   1      39.803  36.486  36.803  1.00  0.00    -0.237 OA
ATOM     72  O   UNL A   1      39.313  34.915  38.638  1.00  0.00    -0.744 OA
ENDBRANCH  68  69
ENDBRANCH  49  63
BRANCH  50  73
ATOM     73  C   UNL A   1      43.219  24.868  28.198  1.00  0.00    -0.014 A 
ATOM     74  C   UNL A   1      44.048  25.142  27.096  1.00  0.00     0.010 A 
ATOM     75  C   UNL A   1      42.683  23.576  28.348  1.00  0.00     0.010 A 
ATOM     76  C   UNL A   1      44.334  24.145  26.160  1.00  0.00     0.020 A 
ATOM     77  C   UNL A   1      42.983  22.571  27.424  1.00  0.00     0.020 A 
ATOM     78  C   UNL A   1      43.803  22.864  26.332  1.00  0.00     0.054 A 
BRANCH  78  79
ATOM     79  S   UNL A   1      44.247  21.564  25.145  1.00  0.00     0.124 S 
ATOM     80  O   UNL A   1      44.051  22.241  23.866  1.00  0.00    -0.237 OA
ATOM     81  O   UNL A   1      45.634  21.271  25.500  1.00  0.00    -0.237 OA
ATOM     82  O   UNL A   1      43.298  20.494  25.441  1.00  0.00    -0.744 OA
ENDBRANCH  78  79
ENDBRANCH  50  73
BRANCH  62  83
ATOM     83  C   UNL A   1      46.526  26.972  33.965  1.00  0.00    -0.014 A 
ATOM     84  C   UNL A   1      47.769  27.575  33.700  1.00  0.00     0.010 A 
ATOM     85  C   UNL A   1      46.449  25.949  34.927  1.00  0.00     0.010 A 
ATOM     86  C   UNL A   1      48.918  27.143  34.368  1.00  0.00     0.020 A 
ATOM     87  C   UNL A   1      47.591  25.530  35.612  1.00  0.00     0.020 A 
ATOM     88  C   UNL A   1      48.822  26.121  35.319  1.00  0.00     0.054 A 
BRANCH  88  89
ATOM     89  S   UNL A   1      50.318  25.610  36.210  1.00  0.00     0.124 S 
ATOM     90  O   UNL A   1      50.187  24.156  36.213  1.00  0.00    -0.237 OA
ATOM     91  O   UNL A   1      51.390  26.143  35.374  1.00  0.00    -0.237 OA
ATOM     92  O   UNL A   1      50.178  26.253  37.515  1.00  0.00    -0.744 OA
ENDBRANCH  88  89
ENDBRANCH  62  83
ENDBRANCH  36  37
ENDBRANCH  28  31
ENDBRANCH  26  27
ENDBRANCH  25  26
ENDBRANCH   1  25
TORSDOF 17
ENDMDL
