MODEL 1
REMARK VINA RESULT:     -14.0      0.000      0.000
REMARK SMILES Cc1ccc(-c2nc(NC(=O)[C@H]3[C@@H](C(=O)NCCCCNC(=O)c4ccc(-c5c6nc(c(-c7ccc(S(=O)(=O)[O-])cc7)c7ccc([nH]7)c(-c7ccc(S(=O)(=O)[O-])cc7)c7nc(c(-c8ccc(S(=O)(=O)[O-])cc8)c8ccc5[nH]8)C=C7)C=C6)cc4)[C@@H]4CC[C@H]3O4)sc2C)cc1
REMARK SMILES IDX 18 1 17 2 16 3 14 4 15 5 13 7 12 8 87 9 84 10 86 11 88 12
REMARK SMILES IDX 85 13 10 14 9 15 11 17 8 18 6 19 7 20 90 21 89 22 91 23 5 24
REMARK SMILES IDX 1 25 2 26 3 27 93 28 4 29 92 30 19 31 20 32 21 33 22 34
REMARK SMILES IDX 23 36 24 37 25 38 83 39 26 40 82 41 27 42 28 43 29 44 76 45
REMARK SMILES IDX 30 46 81 47 75 48 77 49 31 50 80 51 74 52 73 53 32 55 62 56
REMARK SMILES IDX 43 57 61 58 44 59 47 60 60 61 78 62 45 63 46 64 59 66 79 67
REMARK SMILES IDX 48 68 33 69 34 70 42 71 35 72 41 73 36 74 37 75 38 76 39 77
REMARK SMILES IDX 40 78 63 79 64 80 72 81 65 82 71 83 66 84 67 85 68 86 69 87
REMARK SMILES IDX 70 88 49 89 50 90 58 91 51 92 57 93 52 94 53 95 54 96 55 97
REMARK SMILES IDX 56 98
REMARK H PARENT 16 6 9 16 21 35 77 54 47 65
REMARK Flexibility Score: inf
ROOT
ATOM      1  C   UNL A   1      33.235  28.807  25.543  1.00  0.00     0.023 C 
ENDROOT
BRANCH   1   2
ATOM      2  C   UNL A   1      32.411  29.608  24.538  1.00  0.00     0.116 C 
BRANCH   2   3
ATOM      3  N   UNL A   1      32.132  28.979  23.247  1.00  0.00    -0.356 N 
ATOM      4  C   UNL A   1      31.211  28.005  22.991  1.00  0.00     0.226 C 
ATOM      5  O   UNL A   1      30.404  28.198  22.081  1.00  0.00    -0.275 OA
ATOM      6  H   UNL A   1      32.665  29.293  22.481  1.00  0.00     0.163 HD
BRANCH   4   7
ATOM      7  C   UNL A   1      31.110  26.807  23.903  1.00  0.00     0.122 C 
ATOM      8  C   UNL A   1      32.011  25.576  23.789  1.00  0.00     0.123 C 
ATOM      9  C   UNL A   1      31.068  24.492  24.329  1.00  0.00     0.132 C 
ATOM     10  C   UNL A   1      29.700  26.138  23.962  1.00  0.00     0.132 C 
ATOM     11  C   UNL A   1      30.519  24.840  25.736  1.00  0.00     0.035 C 
ATOM     12  O   UNL A   1      29.925  24.773  23.499  1.00  0.00    -0.373 OA
ATOM     13  C   UNL A   1      29.364  25.796  25.408  1.00  0.00     0.035 C 
BRANCH   8  14
ATOM     14  C   UNL A   1      32.820  24.976  22.622  1.00  0.00     0.232 C 
ATOM     15  N   UNL A   1      33.623  23.906  22.471  1.00  0.00    -0.302 N 
ATOM     16  H   UNL A   1      33.862  23.784  21.525  1.00  0.00     0.172 HD
ATOM     17  O   UNL A   1      32.740  25.646  21.564  1.00  0.00    -0.274 OA
BRANCH  15  18
ATOM     18  C   UNL A   1      34.204  22.939  23.241  1.00  0.00     0.190 A 
ATOM     19  C   UNL A   1      34.427  21.001  24.322  1.00  0.00     0.086 A 
ATOM     20  N   UNL A   1      33.661  21.747  23.415  1.00  0.00    -0.220 NA
ATOM     21  C   UNL A   1      35.581  21.650  24.742  1.00  0.00     0.031 A 
ATOM     22  S   UNL A   1      35.734  23.126  23.897  1.00  0.00    -0.101 S 
ATOM     23  C   UNL A   1      36.646  21.287  25.715  1.00  0.00     0.059 C 
BRANCH  19  24
ATOM     24  C   UNL A   1      34.073  19.639  24.754  1.00  0.00     0.001 A 
ATOM     25  C   UNL A   1      32.769  15.558  25.476  1.00  0.00     0.044 C 
ATOM     26  C   UNL A   1      33.232  16.972  25.260  1.00  0.00    -0.051 A 
ATOM     27  C   UNL A   1      32.481  18.062  25.725  1.00  0.00     0.004 A 
ATOM     28  C   UNL A   1      34.436  17.225  24.606  1.00  0.00     0.004 A 
ATOM     29  C   UNL A   1      32.898  19.384  25.473  1.00  0.00     0.010 A 
ATOM     30  C   UNL A   1      34.858  18.540  24.374  1.00  0.00     0.010 A 
ENDBRANCH  19  24
ENDBRANCH  15  18
ENDBRANCH   8  14
ENDBRANCH   4   7
ENDBRANCH   2   3
ENDBRANCH   1   2
BRANCH   1  31
ATOM     31  C   UNL A   1      33.192  29.311  26.979  1.00  0.00     0.023 C 
BRANCH  31  32
ATOM     32  C   UNL A   1      34.540  29.330  27.671  1.00  0.00     0.116 C 
BRANCH  32  33
ATOM     33  N   UNL A   1      35.309  30.546  27.454  1.00  0.00    -0.352 N 
ATOM     34  C   UNL A   1      36.503  30.836  28.107  1.00  0.00     0.251 C 
ATOM     35  H   UNL A   1      34.964  31.202  26.807  1.00  0.00     0.163 HD
ATOM     36  O   UNL A   1      36.839  31.943  28.467  1.00  0.00    -0.269 OA
BRANCH  34  37
ATOM     37  C   UNL A   1      37.436  29.691  28.199  1.00  0.00     0.039 A 
ATOM     38  C   UNL A   1      37.582  29.063  29.442  1.00  0.00     0.014 A 
ATOM     39  C   UNL A   1      38.356  29.498  27.174  1.00  0.00     0.014 A 
ATOM     40  C   UNL A   1      38.750  28.356  29.711  1.00  0.00     0.010 A 
ATOM     41  C   UNL A   1      39.560  28.907  27.487  1.00  0.00     0.010 A 
ATOM     42  C   UNL A   1      39.770  28.360  28.761  1.00  0.00    -0.014 A 
BRANCH  42  43
ATOM     43  C   UNL A   1      41.106  27.825  28.984  1.00  0.00     0.031 A 
ATOM     44  C   UNL A   1      41.405  26.437  28.564  1.00  0.00     0.074 A 
ATOM     45  C   UNL A   1      42.103  28.609  29.452  1.00  0.00     0.049 A 
ATOM     46  N   UNL A   1      42.371  25.726  29.040  1.00  0.00    -0.248 NA
ATOM     47  C   UNL A   1      40.595  25.723  27.580  1.00  0.00     0.031 C 
ATOM     48  C   UNL A   1      43.535  28.319  29.402  1.00  0.00     0.029 A 
ATOM     49  N   UNL A   1      42.021  29.744  30.258  1.00  0.00    -0.354 N 
ATOM     50  C   UNL A   1      42.506  24.628  28.221  1.00  0.00     0.074 A 
ATOM     51  C   UNL A   1      41.331  24.627  27.383  1.00  0.00     0.031 C 
ATOM     52  C   UNL A   1      44.148  29.029  30.360  1.00  0.00     0.029 A 
ATOM     53  C   UNL A   1      43.110  29.676  31.145  1.00  0.00     0.049 A 
ATOM     54  H   UNL A   1      41.338  30.451  30.213  1.00  0.00     0.167 HD
ATOM     55  C   UNL A   1      43.664  23.912  28.228  1.00  0.00     0.031 A 
ATOM     56  C   UNL A   1      42.980  29.602  32.504  1.00  0.00     0.031 A 
ATOM     57  C   UNL A   1      44.620  24.411  29.214  1.00  0.00     0.049 A 
ATOM     58  C   UNL A   1      43.594  28.349  33.106  1.00  0.00     0.074 A 
ATOM     59  C   UNL A   1      45.781  25.162  29.142  1.00  0.00     0.029 A 
ATOM     60  N   UNL A   1      44.269  24.381  30.553  1.00  0.00    -0.354 N 
ATOM     61  N   UNL A   1      44.186  27.413  32.418  1.00  0.00    -0.248 NA
ATOM     62  C   UNL A   1      43.483  28.002  34.525  1.00  0.00     0.031 C 
ATOM     63  C   UNL A   1      46.123  25.580  30.459  1.00  0.00     0.029 A 
ATOM     64  C   UNL A   1      45.176  25.075  31.329  1.00  0.00     0.049 A 
ATOM     65  H   UNL A   1      43.473  23.923  30.908  1.00  0.00     0.167 HD
ATOM     66  C   UNL A   1      44.448  26.342  33.232  1.00  0.00     0.074 A 
ATOM     67  C   UNL A   1      44.008  26.765  34.548  1.00  0.00     0.031 C 
ATOM     68  C   UNL A   1      44.951  25.165  32.761  1.00  0.00     0.031 A 
BRANCH  55  69
ATOM     69  C   UNL A   1      44.012  22.919  27.146  1.00  0.00    -0.014 A 
ATOM     70  C   UNL A   1      43.075  21.931  26.784  1.00  0.00     0.010 A 
ATOM     71  C   UNL A   1      45.252  22.878  26.480  1.00  0.00     0.010 A 
ATOM     72  C   UNL A   1      43.392  20.898  25.892  1.00  0.00     0.020 A 
ATOM     73  C   UNL A   1      45.600  21.827  25.618  1.00  0.00     0.020 A 
ATOM     74  C   UNL A   1      44.668  20.833  25.339  1.00  0.00     0.054 A 
BRANCH  74  75
ATOM     75  S   UNL A   1      45.086  19.436  24.266  1.00  0.00     0.124 S 
ATOM     76  O   UNL A   1      46.547  19.457  24.275  1.00  0.00    -0.237 OA
ATOM     77  O   UNL A   1      44.467  18.312  24.961  1.00  0.00    -0.237 OA
ATOM     78  O   UNL A   1      44.475  19.789  22.985  1.00  0.00    -0.744 OA
ENDBRANCH  74  75
ENDBRANCH  55  69
BRANCH  56  79
ATOM     79  C   UNL A   1      41.760  30.283  33.023  1.00  0.00    -0.014 A 
ATOM     80  C   UNL A   1      41.800  31.690  33.125  1.00  0.00     0.010 A 
ATOM     81  C   UNL A   1      40.513  29.638  32.941  1.00  0.00     0.010 A 
ATOM     82  C   UNL A   1      40.642  32.445  32.930  1.00  0.00     0.020 A 
ATOM     83  C   UNL A   1      39.349  30.396  32.753  1.00  0.00     0.020 A 
ATOM     84  C   UNL A   1      39.441  31.789  32.662  1.00  0.00     0.054 A 
BRANCH  84  85
ATOM     85  S   UNL A   1      38.059  32.765  31.995  1.00  0.00     0.124 S 
ATOM     86  O   UNL A   1      37.028  31.753  31.789  1.00  0.00    -0.237 OA
ATOM     87  O   UNL A   1      37.799  33.712  33.082  1.00  0.00    -0.237 OA
ATOM     88  O   UNL A   1      38.619  33.354  30.785  1.00  0.00    -0.744 OA
ENDBRANCH  84  85
ENDBRANCH  56  79
BRANCH  68  89
ATOM     89  C   UNL A   1      45.250  23.973  33.628  1.00  0.00    -0.014 A 
ATOM     90  C   UNL A   1      46.544  23.687  34.091  1.00  0.00     0.010 A 
ATOM     91  C   UNL A   1      44.240  23.022  33.896  1.00  0.00     0.010 A 
ATOM     92  C   UNL A   1      46.804  22.530  34.839  1.00  0.00     0.020 A 
ATOM     93  C   UNL A   1      44.493  21.856  34.622  1.00  0.00     0.020 A 
ATOM     94  C   UNL A   1      45.774  21.625  35.106  1.00  0.00     0.054 A 
BRANCH  94  95
ATOM     95  S   UNL A   1      46.136  20.118  36.043  1.00  0.00     0.124 S 
ATOM     96  O   UNL A   1      45.297  19.120  35.383  1.00  0.00    -0.237 OA
ATOM     97  O   UNL A   1      47.573  19.969  35.828  1.00  0.00    -0.237 OA
ATOM     98  O   UNL A   1      45.739  20.452  37.409  1.00  0.00    -0.744 OA
ENDBRANCH  94  95
ENDBRANCH  68  89
ENDBRANCH  42  43
ENDBRANCH  34  37
ENDBRANCH  32  33
ENDBRANCH  31  32
ENDBRANCH   1  31
TORSDOF 17
ENDMDL
MODEL 2
REMARK VINA RESULT:     -13.8      2.072      2.982
REMARK SMILES Cc1ccc(-c2nc(NC(=O)[C@H]3[C@@H](C(=O)NCCCCNC(=O)c4ccc(-c5c6nc(c(-c7ccc(S(=O)(=O)[O-])cc7)c7ccc([nH]7)c(-c7ccc(S(=O)(=O)[O-])cc7)c7nc(c(-c8ccc(S(=O)(=O)[O-])cc8)c8ccc5[nH]8)C=C7)C=C6)cc4)[C@@H]4CC[C@H]3O4)sc2C)cc1
REMARK SMILES IDX 18 1 17 2 16 3 14 4 15 5 13 7 12 8 87 9 84 10 86 11 88 12
REMARK SMILES IDX 85 13 10 14 9 15 11 17 8 18 6 19 7 20 90 21 89 22 91 23 5 24
REMARK SMILES IDX 1 25 2 26 3 27 93 28 4 29 92 30 19 31 20 32 21 33 22 34
REMARK SMILES IDX 23 36 24 37 25 38 83 39 26 40 82 41 27 42 28 43 29 44 76 45
REMARK SMILES IDX 30 46 81 47 75 48 77 49 31 50 80 51 74 52 73 53 32 55 62 56
REMARK SMILES IDX 43 57 61 58 44 59 47 60 60 61 78 62 45 63 46 64 59 66 79 67
REMARK SMILES IDX 48 68 33 69 34 70 42 71 35 72 41 73 36 74 37 75 38 76 39 77
REMARK SMILES IDX 40 78 63 79 64 80 72 81 65 82 71 83 66 84 67 85 68 86 69 87
REMARK SMILES IDX 70 88 49 89 50 90 58 91 51 92 57 93 52 94 53 95 54 96 55 97
REMARK SMILES IDX 56 98
REMARK H PARENT 16 6 9 16 21 35 77 54 47 65
REMARK Flexibility Score: inf
ROOT
ATOM      1  C   UNL A   1      32.768  28.177  26.860  1.00  0.00     0.023 C 
ENDROOT
BRANCH   1   2
ATOM      2  C   UNL A   1      31.736  28.619  25.825  1.00  0.00     0.116 C 
BRANCH   2   3
ATOM      3  N   UNL A   1      31.846  29.984  25.310  1.00  0.00    -0.356 N 
ATOM      4  C   UNL A   1      30.820  30.841  25.035  1.00  0.00     0.226 C 
ATOM      5  O   UNL A   1      30.856  31.965  25.538  1.00  0.00    -0.275 OA
ATOM      6  H   UNL A   1      32.756  30.320  25.145  1.00  0.00     0.163 HD
BRANCH   4   7
ATOM      7  C   UNL A   1      29.619  30.355  24.261  1.00  0.00     0.122 C 
ATOM      8  C   UNL A   1      29.699  29.338  23.121  1.00  0.00     0.123 C 
ATOM      9  C   UNL A   1      28.497  29.777  22.274  1.00  0.00     0.132 C 
ATOM     10  C   UNL A   1      28.762  31.478  23.597  1.00  0.00     0.132 C 
ATOM     11  C   UNL A   1      27.184  29.816  23.096  1.00  0.00     0.035 C 
ATOM     12  O   UNL A   1      28.812  31.178  22.170  1.00  0.00    -0.373 OA
ATOM     13  C   UNL A   1      27.283  31.174  23.804  1.00  0.00     0.035 C 
BRANCH   8  14
ATOM     14  C   UNL A   1      30.838  28.923  22.169  1.00  0.00     0.232 C 
ATOM     15  N   UNL A   1      31.651  27.855  22.066  1.00  0.00    -0.302 N 
ATOM     16  H   UNL A   1      32.177  27.900  21.236  1.00  0.00     0.172 HD
ATOM     17  O   UNL A   1      31.095  29.784  21.292  1.00  0.00    -0.274 OA
BRANCH  15  18
ATOM     18  C   UNL A   1      31.962  26.727  22.770  1.00  0.00     0.190 A 
ATOM     19  C   UNL A   1      33.227  25.139  23.694  1.00  0.00     0.086 A 
ATOM     20  N   UNL A   1      33.207  26.381  23.045  1.00  0.00    -0.220 NA
ATOM     21  C   UNL A   1      31.963  24.627  23.952  1.00  0.00     0.031 A 
ATOM     22  S   UNL A   1      30.787  25.772  23.484  1.00  0.00    -0.101 S 
ATOM     23  C   UNL A   1      31.495  23.349  24.555  1.00  0.00     0.059 C 
BRANCH  19  24
ATOM     24  C   UNL A   1      34.466  24.460  24.107  1.00  0.00     0.001 A 
ATOM     25  C   UNL A   1      37.764  21.982  25.471  1.00  0.00     0.044 C 
ATOM     26  C   UNL A   1      36.646  22.867  24.995  1.00  0.00    -0.051 A 
ATOM     27  C   UNL A   1      36.072  23.830  25.836  1.00  0.00     0.004 A 
ATOM     28  C   UNL A   1      36.170  22.756  23.689  1.00  0.00     0.004 A 
ATOM     29  C   UNL A   1      34.991  24.619  25.396  1.00  0.00     0.010 A 
ATOM     30  C   UNL A   1      35.109  23.555  23.248  1.00  0.00     0.010 A 
ENDBRANCH  19  24
ENDBRANCH  15  18
ENDBRANCH   8  14
ENDBRANCH   4   7
ENDBRANCH   2   3
ENDBRANCH   1   2
BRANCH   1  31
ATOM     31  C   UNL A   1      33.567  29.297  27.511  1.00  0.00     0.023 C 
BRANCH  31  32
ATOM     32  C   UNL A   1      34.837  29.666  26.770  1.00  0.00     0.116 C 
BRANCH  32  33
ATOM     33  N   UNL A   1      35.525  30.830  27.306  1.00  0.00    -0.352 N 
ATOM     34  C   UNL A   1      36.374  30.791  28.409  1.00  0.00     0.251 C 
ATOM     35  H   UNL A   1      35.383  31.698  26.862  1.00  0.00     0.163 HD
ATOM     36  O   UNL A   1      36.461  31.668  29.240  1.00  0.00    -0.269 OA
BRANCH  34  37
ATOM     37  C   UNL A   1      37.304  29.640  28.415  1.00  0.00     0.039 A 
ATOM     38  C   UNL A   1      37.463  28.934  29.613  1.00  0.00     0.014 A 
ATOM     39  C   UNL A   1      38.210  29.510  27.369  1.00  0.00     0.014 A 
ATOM     40  C   UNL A   1      38.633  28.208  29.823  1.00  0.00     0.010 A 
ATOM     41  C   UNL A   1      39.417  28.898  27.628  1.00  0.00     0.010 A 
ATOM     42  C   UNL A   1      39.641  28.270  28.862  1.00  0.00    -0.014 A 
BRANCH  42  43
ATOM     43  C   UNL A   1      40.977  27.719  29.034  1.00  0.00     0.031 A 
ATOM     44  C   UNL A   1      41.234  26.317  28.636  1.00  0.00     0.074 A 
ATOM     45  C   UNL A   1      42.008  28.498  29.432  1.00  0.00     0.049 A 
ATOM     46  N   UNL A   1      42.211  25.601  29.082  1.00  0.00    -0.248 NA
ATOM     47  C   UNL A   1      40.366  25.591  27.712  1.00  0.00     0.031 C 
ATOM     48  C   UNL A   1      43.431  28.183  29.320  1.00  0.00     0.029 A 
ATOM     49  N   UNL A   1      41.983  29.654  30.211  1.00  0.00    -0.354 N 
ATOM     50  C   UNL A   1      42.288  24.481  28.287  1.00  0.00     0.074 A 
ATOM     51  C   UNL A   1      41.074  24.478  27.507  1.00  0.00     0.031 C 
ATOM     52  C   UNL A   1      44.101  28.906  30.229  1.00  0.00     0.029 A 
ATOM     53  C   UNL A   1      43.113  29.590  31.046  1.00  0.00     0.049 A 
ATOM     54  H   UNL A   1      41.309  30.371  30.182  1.00  0.00     0.167 HD
ATOM     55  C   UNL A   1      43.434  23.746  28.256  1.00  0.00     0.031 A 
ATOM     56  C   UNL A   1      43.048  29.552  32.412  1.00  0.00     0.031 A 
ATOM     57  C   UNL A   1      44.445  24.253  29.181  1.00  0.00     0.049 A 
ATOM     58  C   UNL A   1      43.672  28.305  33.015  1.00  0.00     0.074 A 
ATOM     59  C   UNL A   1      45.613  24.983  29.033  1.00  0.00     0.029 A 
ATOM     60  N   UNL A   1      44.160  24.263  30.536  1.00  0.00    -0.354 N 
ATOM     61  N   UNL A   1      44.215  27.342  32.324  1.00  0.00    -0.248 NA
ATOM     62  C   UNL A   1      43.625  27.996  34.447  1.00  0.00     0.031 C 
ATOM     63  C   UNL A   1      46.025  25.429  30.321  1.00  0.00     0.029 A 
ATOM     64  C   UNL A   1      45.115  24.961  31.249  1.00  0.00     0.049 A 
ATOM     65  H   UNL A   1      43.375  23.828  30.941  1.00  0.00     0.167 HD
ATOM     66  C   UNL A   1      44.501  26.287  33.151  1.00  0.00     0.074 A 
ATOM     67  C   UNL A   1      44.132  26.751  34.476  1.00  0.00     0.031 C 
ATOM     68  C   UNL A   1      44.962  25.091  32.687  1.00  0.00     0.031 A 
BRANCH  55  69
ATOM     69  C   UNL A   1      43.714  22.720  27.185  1.00  0.00    -0.014 A 
ATOM     70  C   UNL A   1      42.819  21.648  27.001  1.00  0.00     0.010 A 
ATOM     71  C   UNL A   1      44.853  22.733  26.357  1.00  0.00     0.010 A 
ATOM     72  C   UNL A   1      43.097  20.591  26.125  1.00  0.00     0.020 A 
ATOM     73  C   UNL A   1      45.167  21.661  25.506  1.00  0.00     0.020 A 
ATOM     74  C   UNL A   1      44.289  20.587  25.405  1.00  0.00     0.054 A 
BRANCH  74  75
ATOM     75  S   UNL A   1      44.671  19.165  24.352  1.00  0.00     0.124 S 
ATOM     76  O   UNL A   1      43.702  18.169  24.803  1.00  0.00    -0.237 OA
ATOM     77  O   UNL A   1      44.447  19.700  23.012  1.00  0.00    -0.237 OA
ATOM     78  O   UNL A   1      46.064  18.859  24.676  1.00  0.00    -0.744 OA
ENDBRANCH  74  75
ENDBRANCH  55  69
BRANCH  56  79
ATOM     79  C   UNL A   1      41.866  30.266  32.971  1.00  0.00    -0.014 A 
ATOM     80  C   UNL A   1      42.012  31.644  33.242  1.00  0.00     0.010 A 
ATOM     81  C   UNL A   1      40.577  29.740  32.776  1.00  0.00     0.010 A 
ATOM     82  C   UNL A   1      40.925  32.510  33.103  1.00  0.00     0.020 A 
ATOM     83  C   UNL A   1      39.484  30.608  32.645  1.00  0.00     0.020 A 
ATOM     84  C   UNL A   1      39.688  31.990  32.723  1.00  0.00     0.054 A 
BRANCH  84  85
ATOM     85  S   UNL A   1      38.414  33.147  32.136  1.00  0.00     0.124 S 
ATOM     86  O   UNL A   1      38.644  34.321  32.972  1.00  0.00    -0.237 OA
ATOM     87  O   UNL A   1      38.768  33.304  30.723  1.00  0.00    -0.237 OA
ATOM     88  O   UNL A   1      37.170  32.428  32.383  1.00  0.00    -0.744 OA
ENDBRANCH  84  85
ENDBRANCH  56  79
BRANCH  68  89
ATOM     89  C   UNL A   1      45.284  23.916  33.569  1.00  0.00    -0.014 A 
ATOM     90  C   UNL A   1      46.583  23.664  34.038  1.00  0.00     0.010 A 
ATOM     91  C   UNL A   1      44.294  22.947  33.847  1.00  0.00     0.010 A 
ATOM     92  C   UNL A   1      46.866  22.522  34.801  1.00  0.00     0.020 A 
ATOM     93  C   UNL A   1      44.570  21.796  34.588  1.00  0.00     0.020 A 
ATOM     94  C   UNL A   1      45.855  21.599  35.077  1.00  0.00     0.054 A 
BRANCH  94  95
ATOM     95  S   UNL A   1      46.247  20.111  36.033  1.00  0.00     0.124 S 
ATOM     96  O   UNL A   1      47.703  20.041  35.935  1.00  0.00    -0.237 OA
ATOM     97  O   UNL A   1      45.723  20.455  37.353  1.00  0.00    -0.237 OA
ATOM     98  O   UNL A   1      45.529  19.048  35.334  1.00  0.00    -0.744 OA
ENDBRANCH  94  95
ENDBRANCH  68  89
ENDBRANCH  42  43
ENDBRANCH  34  37
ENDBRANCH  32  33
ENDBRANCH  31  32
ENDBRANCH   1  31
TORSDOF 17
ENDMDL
MODEL 3
REMARK VINA RESULT:     -12.9      2.032      2.609
REMARK SMILES Cc1ccc(-c2nc(NC(=O)[C@H]3[C@@H](C(=O)NCCCCNC(=O)c4ccc(-c5c6nc(c(-c7ccc(S(=O)(=O)[O-])cc7)c7ccc([nH]7)c(-c7ccc(S(=O)(=O)[O-])cc7)c7nc(c(-c8ccc(S(=O)(=O)[O-])cc8)c8ccc5[nH]8)C=C7)C=C6)cc4)[C@@H]4CC[C@H]3O4)sc2C)cc1
REMARK SMILES IDX 18 1 17 2 16 3 14 4 15 5 13 7 12 8 87 9 84 10 86 11 88 12
REMARK SMILES IDX 85 13 10 14 9 15 11 17 8 18 6 19 7 20 90 21 89 22 91 23 5 24
REMARK SMILES IDX 1 25 2 26 3 27 93 28 4 29 92 30 19 31 20 32 21 33 22 34
REMARK SMILES IDX 23 36 24 37 25 38 83 39 26 40 82 41 27 42 28 43 29 44 76 45
REMARK SMILES IDX 30 46 81 47 75 48 77 49 31 50 80 51 74 52 73 53 32 55 62 56
REMARK SMILES IDX 43 57 61 58 44 59 47 60 60 61 78 62 45 63 46 64 59 66 79 67
REMARK SMILES IDX 48 68 33 69 34 70 42 71 35 72 41 73 36 74 37 75 38 76 39 77
REMARK SMILES IDX 40 78 63 79 64 80 72 81 65 82 71 83 66 84 67 85 68 86 69 87
REMARK SMILES IDX 70 88 49 89 50 90 58 91 51 92 57 93 52 94 53 95 54 96 55 97
REMARK SMILES IDX 56 98
REMARK H PARENT 16 6 9 16 21 35 77 54 47 65
REMARK Flexibility Score: inf
ROOT
ATOM      1  C   UNL A   1      33.939  29.052  27.350  1.00  0.00     0.023 C 
ENDROOT
BRANCH   1   2
ATOM      2  C   UNL A   1      33.487  28.369  26.062  1.00  0.00     0.116 C 
BRANCH   2   3
ATOM      3  N   UNL A   1      32.988  29.227  24.987  1.00  0.00    -0.356 N 
ATOM      4  C   UNL A   1      31.701  29.319  24.541  1.00  0.00     0.226 C 
ATOM      5  O   UNL A   1      31.188  30.437  24.483  1.00  0.00    -0.275 OA
ATOM      6  H   UNL A   1      33.651  29.800  24.539  1.00  0.00     0.163 HD
BRANCH   4   7
ATOM      7  C   UNL A   1      30.904  28.065  24.278  1.00  0.00     0.122 C 
ATOM      8  C   UNL A   1      31.537  26.704  23.982  1.00  0.00     0.123 C 
ATOM      9  C   UNL A   1      30.447  26.077  23.102  1.00  0.00     0.132 C 
ATOM     10  C   UNL A   1      29.871  28.171  23.112  1.00  0.00     0.132 C 
ATOM     11  C   UNL A   1      29.062  26.077  23.796  1.00  0.00     0.035 C 
ATOM     12  O   UNL A   1      30.295  27.152  22.157  1.00  0.00    -0.373 OA
ATOM     13  C   UNL A   1      28.566  27.506  23.532  1.00  0.00     0.035 C 
BRANCH   8  14
ATOM     14  C   UNL A   1      32.912  26.290  23.421  1.00  0.00     0.232 C 
ATOM     15  N   UNL A   1      33.715  25.219  23.564  1.00  0.00    -0.302 N 
ATOM     16  H   UNL A   1      34.470  25.267  22.935  1.00  0.00     0.172 HD
ATOM     17  O   UNL A   1      33.425  27.154  22.671  1.00  0.00    -0.274 OA
BRANCH  15  18
ATOM     18  C   UNL A   1      33.794  24.086  24.322  1.00  0.00     0.190 A 
ATOM     19  C   UNL A   1      33.794  21.909  24.810  1.00  0.00     0.086 A 
ATOM     20  N   UNL A   1      33.800  22.875  23.794  1.00  0.00    -0.220 NA
ATOM     21  C   UNL A   1      33.863  22.447  26.088  1.00  0.00     0.031 A 
ATOM     22  S   UNL A   1      34.053  24.140  25.976  1.00  0.00    -0.101 S 
ATOM     23  C   UNL A   1      33.830  21.835  27.444  1.00  0.00     0.059 C 
BRANCH  19  24
ATOM     24  C   UNL A   1      33.769  20.461  24.551  1.00  0.00     0.001 A 
ATOM     25  C   UNL A   1      33.514  16.127  24.370  1.00  0.00     0.044 C 
ATOM     26  C   UNL A   1      33.615  17.627  24.399  1.00  0.00    -0.051 A 
ATOM     27  C   UNL A   1      34.843  18.268  24.613  1.00  0.00     0.004 A 
ATOM     28  C   UNL A   1      32.482  18.412  24.191  1.00  0.00     0.004 A 
ATOM     29  C   UNL A   1      34.919  19.673  24.690  1.00  0.00     0.010 A 
ATOM     30  C   UNL A   1      32.563  19.808  24.247  1.00  0.00     0.010 A 
ENDBRANCH  19  24
ENDBRANCH  15  18
ENDBRANCH   8  14
ENDBRANCH   4   7
ENDBRANCH   2   3
ENDBRANCH   1   2
BRANCH   1  31
ATOM     31  C   UNL A   1      33.190  30.326  27.716  1.00  0.00     0.023 C 
BRANCH  31  32
ATOM     32  C   UNL A   1      33.926  31.602  27.363  1.00  0.00     0.116 C 
BRANCH  32  33
ATOM     33  N   UNL A   1      34.288  32.422  28.509  1.00  0.00    -0.352 N 
ATOM     34  C   UNL A   1      34.904  31.925  29.654  1.00  0.00     0.251 C 
ATOM     35  H   UNL A   1      34.085  33.385  28.473  1.00  0.00     0.163 HD
ATOM     36  O   UNL A   1      34.678  32.313  30.780  1.00  0.00    -0.269 OA
BRANCH  34  37
ATOM     37  C   UNL A   1      36.001  30.970  29.384  1.00  0.00     0.039 A 
ATOM     38  C   UNL A   1      36.177  29.906  30.278  1.00  0.00     0.014 A 
ATOM     39  C   UNL A   1      36.994  31.333  28.482  1.00  0.00     0.014 A 
ATOM     40  C   UNL A   1      37.427  29.300  30.374  1.00  0.00     0.010 A 
ATOM     41  C   UNL A   1      38.259  30.819  28.668  1.00  0.00     0.010 A 
ATOM     42  C   UNL A   1      38.483  29.823  29.629  1.00  0.00    -0.014 A 
BRANCH  42  43
ATOM     43  C   UNL A   1      39.873  29.412  29.771  1.00  0.00     0.031 A 
ATOM     44  C   UNL A   1      40.286  28.085  29.263  1.00  0.00     0.074 A 
ATOM     45  C   UNL A   1      40.809  30.266  30.243  1.00  0.00     0.049 A 
ATOM     46  N   UNL A   1      41.336  27.449  29.660  1.00  0.00    -0.248 NA
ATOM     47  C   UNL A   1      39.508  27.346  28.272  1.00  0.00     0.031 C 
ATOM     48  C   UNL A   1      42.259  30.122  30.123  1.00  0.00     0.029 A 
ATOM     49  N   UNL A   1      40.652  31.344  31.114  1.00  0.00    -0.354 N 
ATOM     50  C   UNL A   1      41.541  26.414  28.777  1.00  0.00     0.074 A 
ATOM     51  C   UNL A   1      40.336  26.340  27.985  1.00  0.00     0.031 C 
ATOM     52  C   UNL A   1      42.841  30.838  31.096  1.00  0.00     0.029 A 
ATOM     53  C   UNL A   1      41.781  31.338  31.954  1.00  0.00     0.049 A 
ATOM     54  H   UNL A   1      39.903  31.981  31.136  1.00  0.00     0.167 HD
ATOM     55  C   UNL A   1      42.762  25.816  28.700  1.00  0.00     0.031 A 
ATOM     56  C   UNL A   1      41.717  31.180  33.312  1.00  0.00     0.031 A 
ATOM     57  C   UNL A   1      43.708  26.355  29.675  1.00  0.00     0.049 A 
ATOM     58  C   UNL A   1      42.476  29.964  33.818  1.00  0.00     0.074 A 
ATOM     59  C   UNL A   1      44.786  27.220  29.600  1.00  0.00     0.029 A 
ATOM     60  N   UNL A   1      43.420  26.222  31.022  1.00  0.00    -0.354 N 
ATOM     61  N   UNL A   1      43.125  29.129  33.056  1.00  0.00    -0.248 NA
ATOM     62  C   UNL A   1      42.461  29.535  35.219  1.00  0.00     0.031 C 
ATOM     63  C   UNL A   1      45.143  27.602  30.925  1.00  0.00     0.029 A 
ATOM     64  C   UNL A   1      44.289  26.961  31.801  1.00  0.00     0.049 A 
ATOM     65  H   UNL A   1      42.688  25.669  31.381  1.00  0.00     0.167 HD
ATOM     66  C   UNL A   1      43.525  28.048  33.798  1.00  0.00     0.074 A 
ATOM     67  C   UNL A   1      43.103  28.356  35.152  1.00  0.00     0.031 C 
ATOM     68  C   UNL A   1      44.119  26.953  33.243  1.00  0.00     0.031 A 
BRANCH  55  69
ATOM     69  C   UNL A   1      43.158  24.921  27.551  1.00  0.00    -0.014 A 
ATOM     70  C   UNL A   1      42.974  23.528  27.662  1.00  0.00     0.010 A 
ATOM     71  C   UNL A   1      43.750  25.380  26.358  1.00  0.00     0.010 A 
ATOM     72  C   UNL A   1      43.452  22.637  26.693  1.00  0.00     0.020 A 
ATOM     73  C   UNL A   1      44.271  24.498  25.399  1.00  0.00     0.020 A 
ATOM     74  C   UNL A   1      44.129  23.127  25.580  1.00  0.00     0.054 A 
BRANCH  74  75
ATOM     75  S   UNL A   1      44.821  21.951  24.390  1.00  0.00     0.124 S 
ATOM     76  O   UNL A   1      46.236  21.929  24.754  1.00  0.00    -0.237 OA
ATOM     77  O   UNL A   1      44.075  20.732  24.685  1.00  0.00    -0.237 OA
ATOM     78  O   UNL A   1      44.530  22.560  23.093  1.00  0.00    -0.744 OA
ENDBRANCH  74  75
ENDBRANCH  55  69
BRANCH  56  79
ATOM     79  C   UNL A   1      40.461  31.709  33.914  1.00  0.00    -0.014 A 
ATOM     80  C   UNL A   1      39.403  30.794  34.106  1.00  0.00     0.010 A 
ATOM     81  C   UNL A   1      40.497  32.885  34.683  1.00  0.00     0.010 A 
ATOM     82  C   UNL A   1      38.530  30.943  35.186  1.00  0.00     0.020 A 
ATOM     83  C   UNL A   1      39.616  33.039  35.762  1.00  0.00     0.020 A 
ATOM     84  C   UNL A   1      38.700  32.022  36.053  1.00  0.00     0.054 A 
BRANCH  84  85
ATOM     85  S   UNL A   1      37.855  31.973  37.662  1.00  0.00     0.124 S 
ATOM     86  O   UNL A   1      37.402  30.587  37.739  1.00  0.00    -0.237 OA
ATOM     87  O   UNL A   1      38.933  32.332  38.587  1.00  0.00    -0.237 OA
ATOM     88  O   UNL A   1      36.806  32.975  37.520  1.00  0.00    -0.744 OA
ENDBRANCH  84  85
ENDBRANCH  56  79
BRANCH  68  89
ATOM     89  C   UNL A   1      44.569  25.753  34.030  1.00  0.00    -0.014 A 
ATOM     90  C   UNL A   1      45.884  25.615  34.503  1.00  0.00     0.010 A 
ATOM     91  C   UNL A   1      43.698  24.653  34.204  1.00  0.00     0.010 A 
ATOM     92  C   UNL A   1      46.292  24.453  35.173  1.00  0.00     0.020 A 
ATOM     93  C   UNL A   1      44.101  23.483  34.851  1.00  0.00     0.020 A 
ATOM     94  C   UNL A   1      45.395  23.397  35.349  1.00  0.00     0.054 A 
BRANCH  94  95
ATOM     95  S   UNL A   1      45.951  21.889  36.184  1.00  0.00     0.124 S 
ATOM     96  O   UNL A   1      45.635  22.162  37.584  1.00  0.00    -0.237 OA
ATOM     97  O   UNL A   1      45.124  20.869  35.543  1.00  0.00    -0.237 OA
ATOM     98  O   UNL A   1      47.376  21.824  35.874  1.00  0.00    -0.744 OA
ENDBRANCH  94  95
ENDBRANCH  68  89
ENDBRANCH  42  43
ENDBRANCH  34  37
ENDBRANCH  32  33
ENDBRANCH  31  32
ENDBRANCH   1  31
TORSDOF 17
ENDMDL
