MODEL 1
REMARK VINA RESULT:     -11.0      0.000      0.000
REMARK SMILES C[C@@H](C(=O)NCCCCNC(=O)c1ccc(-c2c3nc(c(-c4ccc(S(=O)(=O)[O-])cc4)c4ccc([nH]4)c(-c4ccc(S(=O)(=O)[O-])cc4)c4nc(c(-c5ccc(S(=O)(=O)[O-])cc5)c5ccc2[nH]5)C=C4)C=C3)cc1)c1ccc(-c2cccc(OC(=O)NCCC3CCCCC3)c2)c(F)c1
REMARK SMILES IDX 3 1 4 2 5 3 2 5 1 6 73 7 74 8 97 9 75 10 95 11 76 12 96 13
REMARK SMILES IDX 77 14 78 15 94 16 79 17 81 18 80 19 82 20 83 21 84 22 85 23
REMARK SMILES IDX 86 25 87 26 88 27 89 28 93 29 90 30 92 31 91 32 6 33 7 34
REMARK SMILES IDX 8 35 9 36 10 37 11 38 12 40 13 41 14 42 72 43 15 44 71 45
REMARK SMILES IDX 16 46 17 47 18 48 65 49 19 50 70 51 64 52 66 53 20 54 69 55
REMARK SMILES IDX 63 56 62 57 21 59 51 60 32 61 50 62 33 63 36 64 49 65 67 66
REMARK SMILES IDX 34 67 35 68 48 70 68 71 37 72 22 73 23 74 31 75 24 76 30 77
REMARK SMILES IDX 25 78 26 79 27 80 28 81 29 82 52 83 53 84 61 85 54 86 60 87
REMARK SMILES IDX 55 88 56 89 57 90 58 91 59 92 38 93 39 94 47 95 40 96 46 97
REMARK SMILES IDX 41 98 42 99 43 100 44 101 45 102
REMARK H PARENT 5 4 85 24 10 39 66 58 36 69
REMARK Flexibility Score: inf
ROOT
ATOM      1  C   UNL A   1      30.128  29.291  22.416  1.00  0.00     0.227 C 
ATOM      2  O   UNL A   1      30.289  29.788  21.301  1.00  0.00    -0.274 OA
ATOM      3  N   UNL A   1      30.865  29.823  23.437  1.00  0.00    -0.356 N 
ATOM      4  H   UNL A   1      31.314  30.674  23.229  1.00  0.00     0.163 HD
ENDROOT
BRANCH   1   5
ATOM      5  C   UNL A   1      29.120  28.156  22.703  1.00  0.00     0.105 C 
ATOM      6  C   UNL A   1      27.925  28.707  23.492  1.00  0.00     0.023 C 
BRANCH   5   7
ATOM      7  C   UNL A   1      29.765  26.942  23.387  1.00  0.00    -0.033 A 
ATOM      8  C   UNL A   1      29.261  26.397  24.579  1.00  0.00     0.005 A 
ATOM      9  C   UNL A   1      30.896  26.326  22.824  1.00  0.00     0.044 A 
ATOM     10  C   UNL A   1      29.899  25.335  25.222  1.00  0.00     0.012 A 
ATOM     11  C   UNL A   1      31.538  25.274  23.480  1.00  0.00     0.131 A 
ATOM     12  C   UNL A   1      31.068  24.772  24.699  1.00  0.00     0.018 A 
ATOM     13  F   UNL A   1      32.648  24.762  22.924  1.00  0.00    -0.206 F 
BRANCH  12  14
ATOM     14  C   UNL A   1      31.810  23.779  25.484  1.00  0.00    -0.012 A 
ATOM     15  C   UNL A   1      32.728  24.156  26.477  1.00  0.00     0.009 A 
ATOM     16  C   UNL A   1      31.680  22.416  25.170  1.00  0.00     0.056 A 
ATOM     17  C   UNL A   1      33.508  23.198  27.127  1.00  0.00     0.004 A 
ATOM     18  C   UNL A   1      32.482  21.465  25.795  1.00  0.00     0.133 A 
ATOM     19  C   UNL A   1      33.390  21.851  26.782  1.00  0.00     0.047 A 
BRANCH  18  20
ATOM     20  O   UNL A   1      32.460  20.082  25.488  1.00  0.00    -0.410 OA
BRANCH  20  21
ATOM     21  C   UNL A   1      32.884  19.537  24.278  1.00  0.00     0.412 C 
ATOM     22  O   UNL A   1      32.190  19.303  23.296  1.00  0.00    -0.224 OA
ATOM     23  N   UNL A   1      34.222  19.281  24.227  1.00  0.00    -0.321 N 
ATOM     24  H   UNL A   1      34.557  18.897  23.385  1.00  0.00     0.167 HD
BRANCH  23  25
ATOM     25  C   UNL A   1      35.210  19.507  25.257  1.00  0.00     0.119 C 
BRANCH  25  26
ATOM     26  C   UNL A   1      36.592  19.772  24.659  1.00  0.00     0.025 C 
BRANCH  26  27
ATOM     27  C   UNL A   1      36.992  21.263  24.605  1.00  0.00    -0.009 C 
ATOM     28  C   UNL A   1      35.780  22.180  24.375  1.00  0.00     0.003 C 
ATOM     29  C   UNL A   1      37.728  21.651  25.898  1.00  0.00     0.003 C 
ATOM     30  C   UNL A   1      36.160  23.659  24.414  1.00  0.00     0.000 C 
ATOM     31  C   UNL A   1      38.113  23.128  25.910  1.00  0.00     0.000 C 
ATOM     32  C   UNL A   1      36.896  24.021  25.699  1.00  0.00     0.000 C 
ENDBRANCH  26  27
ENDBRANCH  25  26
ENDBRANCH  23  25
ENDBRANCH  20  21
ENDBRANCH  18  20
ENDBRANCH  12  14
ENDBRANCH   5   7
ENDBRANCH   1   5
BRANCH   3  33
ATOM     33  C   UNL A   1      31.084  29.321  24.777  1.00  0.00     0.116 C 
BRANCH  33  34
ATOM     34  C   UNL A   1      32.559  28.961  24.981  1.00  0.00     0.023 C 
BRANCH  34  35
ATOM     35  C   UNL A   1      32.806  27.823  25.972  1.00  0.00     0.023 C 
BRANCH  35  36
ATOM     36  C   UNL A   1      33.462  28.244  27.280  1.00  0.00     0.116 C 
BRANCH  36  37
ATOM     37  N   UNL A   1      33.373  29.676  27.510  1.00  0.00    -0.352 N 
ATOM     38  C   UNL A   1      34.308  30.534  28.030  1.00  0.00     0.251 C 
ATOM     39  H   UNL A   1      32.516  30.090  27.259  1.00  0.00     0.163 HD
ATOM     40  O   UNL A   1      33.985  31.687  28.301  1.00  0.00    -0.269 OA
BRANCH  38  41
ATOM     41  C   UNL A   1      35.686  30.063  28.286  1.00  0.00     0.039 A 
ATOM     42  C   UNL A   1      36.611  30.118  27.242  1.00  0.00     0.014 A 
ATOM     43  C   UNL A   1      36.070  29.568  29.537  1.00  0.00     0.014 A 
ATOM     44  C   UNL A   1      37.929  29.721  27.467  1.00  0.00     0.010 A 
ATOM     45  C   UNL A   1      37.404  29.255  29.782  1.00  0.00     0.010 A 
ATOM     46  C   UNL A   1      38.347  29.320  28.749  1.00  0.00    -0.014 A 
BRANCH  46  47
ATOM     47  C   UNL A   1      39.773  28.989  28.999  1.00  0.00     0.031 A 
ATOM     48  C   UNL A   1      40.705  29.999  29.611  1.00  0.00     0.074 A 
ATOM     49  C   UNL A   1      40.230  27.764  28.664  1.00  0.00     0.049 A 
ATOM     50  N   UNL A   1      41.960  29.857  29.955  1.00  0.00    -0.248 NA
ATOM     51  C   UNL A   1      40.170  31.350  29.852  1.00  0.00     0.031 C 
ATOM     52  C   UNL A   1      39.441  26.720  28.003  1.00  0.00     0.029 A 
ATOM     53  N   UNL A   1      41.460  27.185  28.843  1.00  0.00    -0.354 N 
ATOM     54  C   UNL A   1      42.359  31.089  30.460  1.00  0.00     0.074 A 
ATOM     55  C   UNL A   1      41.235  31.988  30.311  1.00  0.00     0.031 C 
ATOM     56  C   UNL A   1      40.192  25.615  27.876  1.00  0.00     0.029 A 
ATOM     57  C   UNL A   1      41.524  25.882  28.408  1.00  0.00     0.049 A 
ATOM     58  H   UNL A   1      42.225  27.657  29.245  1.00  0.00     0.167 HD
ATOM     59  C   UNL A   1      43.542  31.434  31.022  1.00  0.00     0.031 A 
ATOM     60  C   UNL A   1      42.540  24.998  28.434  1.00  0.00     0.031 A 
ATOM     61  C   UNL A   1      44.662  30.539  31.158  1.00  0.00     0.049 A 
ATOM     62  C   UNL A   1      43.845  25.408  29.059  1.00  0.00     0.074 A 
ATOM     63  C   UNL A   1      45.893  30.781  31.744  1.00  0.00     0.029 A 
ATOM     64  N   UNL A   1      44.691  29.228  30.703  1.00  0.00    -0.354 N 
ATOM     65  N   UNL A   1      44.176  26.557  29.598  1.00  0.00    -0.248 NA
ATOM     66  C   UNL A   1      44.905  24.393  29.097  1.00  0.00     0.031 C 
ATOM     67  C   UNL A   1      46.684  29.637  31.592  1.00  0.00     0.029 A 
ATOM     68  C   UNL A   1      45.924  28.658  30.974  1.00  0.00     0.049 A 
ATOM     69  H   UNL A   1      43.943  28.771  30.253  1.00  0.00     0.167 HD
ATOM     70  C   UNL A   1      45.480  26.398  30.056  1.00  0.00     0.074 A 
ATOM     71  C   UNL A   1      45.858  25.030  29.763  1.00  0.00     0.031 C 
ATOM     72  C   UNL A   1      46.293  27.301  30.658  1.00  0.00     0.031 A 
BRANCH  59  73
ATOM     73  C   UNL A   1      43.683  32.841  31.544  1.00  0.00    -0.014 A 
ATOM     74  C   UNL A   1      43.394  33.144  32.889  1.00  0.00     0.010 A 
ATOM     75  C   UNL A   1      44.163  33.863  30.704  1.00  0.00     0.010 A 
ATOM     76  C   UNL A   1      43.552  34.446  33.373  1.00  0.00     0.020 A 
ATOM     77  C   UNL A   1      44.350  35.159  31.193  1.00  0.00     0.020 A 
ATOM     78  C   UNL A   1      44.031  35.445  32.522  1.00  0.00     0.054 A 
BRANCH  78  79
ATOM     79  S   UNL A   1      44.265  37.114  33.193  1.00  0.00     0.124 S 
ATOM     80  O   UNL A   1      43.889  37.951  32.055  1.00  0.00    -0.237 OA
ATOM     81  O   UNL A   1      43.339  37.137  34.321  1.00  0.00    -0.237 OA
ATOM     82  O   UNL A   1      45.681  37.151  33.550  1.00  0.00    -0.744 OA
ENDBRANCH  78  79
ENDBRANCH  59  73
BRANCH  60  83
ATOM     83  C   UNL A   1      42.359  23.639  27.854  1.00  0.00    -0.014 A 
ATOM     84  C   UNL A   1      41.910  22.566  28.645  1.00  0.00     0.010 A 
ATOM     85  C   UNL A   1      42.640  23.411  26.494  1.00  0.00     0.010 A 
ATOM     86  C   UNL A   1      41.776  21.286  28.094  1.00  0.00     0.020 A 
ATOM     87  C   UNL A   1      42.473  22.143  25.931  1.00  0.00     0.020 A 
ATOM     88  C   UNL A   1      42.058  21.084  26.740  1.00  0.00     0.054 A 
BRANCH  88  89
ATOM     89  S   UNL A   1      41.845  19.426  26.037  1.00  0.00     0.124 S 
ATOM     90  O   UNL A   1      42.744  19.466  24.888  1.00  0.00    -0.237 OA
ATOM     91  O   UNL A   1      42.261  18.561  27.138  1.00  0.00    -0.237 OA
ATOM     92  O   UNL A   1      40.420  19.371  25.716  1.00  0.00    -0.744 OA
ENDBRANCH  88  89
ENDBRANCH  60  83
BRANCH  72  93
ATOM     93  C   UNL A   1      47.667  26.824  31.055  1.00  0.00    -0.014 A 
ATOM     94  C   UNL A   1      47.905  26.244  32.314  1.00  0.00     0.010 A 
ATOM     95  C   UNL A   1      48.738  26.954  30.150  1.00  0.00     0.010 A 
ATOM     96  C   UNL A   1      49.197  25.864  32.687  1.00  0.00     0.020 A 
ATOM     97  C   UNL A   1      50.024  26.541  30.506  1.00  0.00     0.020 A 
ATOM     98  C   UNL A   1      50.250  26.022  31.781  1.00  0.00     0.054 A 
BRANCH  98  99
ATOM     99  S   UNL A   1      51.918  25.527  32.291  1.00  0.00     0.124 S 
ATOM    100  O   UNL A   1      51.735  24.111  32.591  1.00  0.00    -0.237 OA
ATOM    101  O   UNL A   1      52.716  25.821  31.102  1.00  0.00    -0.237 OA
ATOM    102  O   UNL A   1      52.196  26.379  33.445  1.00  0.00    -0.744 OA
ENDBRANCH  98  99
ENDBRANCH  72  93
ENDBRANCH  46  47
ENDBRANCH  38  41
ENDBRANCH  36  37
ENDBRANCH  35  36
ENDBRANCH  34  35
ENDBRANCH  33  34
ENDBRANCH   3  33
TORSDOF 21
ENDMDL
MODEL 2
REMARK VINA RESULT:     -10.5      4.607      8.805
REMARK SMILES C[C@@H](C(=O)NCCCCNC(=O)c1ccc(-c2c3nc(c(-c4ccc(S(=O)(=O)[O-])cc4)c4ccc([nH]4)c(-c4ccc(S(=O)(=O)[O-])cc4)c4nc(c(-c5ccc(S(=O)(=O)[O-])cc5)c5ccc2[nH]5)C=C4)C=C3)cc1)c1ccc(-c2cccc(OC(=O)NCCC3CCCCC3)c2)c(F)c1
REMARK SMILES IDX 3 1 4 2 5 3 2 5 1 6 73 7 74 8 97 9 75 10 95 11 76 12 96 13
REMARK SMILES IDX 77 14 78 15 94 16 79 17 81 18 80 19 82 20 83 21 84 22 85 23
REMARK SMILES IDX 86 25 87 26 88 27 89 28 93 29 90 30 92 31 91 32 6 33 7 34
REMARK SMILES IDX 8 35 9 36 10 37 11 38 12 40 13 41 14 42 72 43 15 44 71 45
REMARK SMILES IDX 16 46 17 47 18 48 65 49 19 50 70 51 64 52 66 53 20 54 69 55
REMARK SMILES IDX 63 56 62 57 21 59 51 60 32 61 50 62 33 63 36 64 49 65 67 66
REMARK SMILES IDX 34 67 35 68 48 70 68 71 37 72 22 73 23 74 31 75 24 76 30 77
REMARK SMILES IDX 25 78 26 79 27 80 28 81 29 82 52 83 53 84 61 85 54 86 60 87
REMARK SMILES IDX 55 88 56 89 57 90 58 91 59 92 38 93 39 94 47 95 40 96 46 97
REMARK SMILES IDX 41 98 42 99 43 100 44 101 45 102
REMARK H PARENT 5 4 85 24 10 39 66 58 36 69
REMARK Flexibility Score: inf
ROOT
ATOM      1  C   UNL A   1      38.797  33.236  33.211  1.00  0.00     0.227 C 
ATOM      2  O   UNL A   1      39.476  34.110  33.750  1.00  0.00    -0.274 OA
ATOM      3  N   UNL A   1      38.223  33.556  32.012  1.00  0.00    -0.356 N 
ATOM      4  H   UNL A   1      38.556  34.384  31.597  1.00  0.00     0.163 HD
ENDROOT
BRANCH   1   5
ATOM      5  C   UNL A   1      38.614  31.819  33.799  1.00  0.00     0.105 C 
ATOM      6  C   UNL A   1      38.177  31.916  35.267  1.00  0.00     0.023 C 
BRANCH   5   7
ATOM      7  C   UNL A   1      39.852  30.930  33.614  1.00  0.00    -0.033 A 
ATOM      8  C   UNL A   1      39.791  29.682  32.973  1.00  0.00     0.005 A 
ATOM      9  C   UNL A   1      41.108  31.352  34.084  1.00  0.00     0.044 A 
ATOM     10  C   UNL A   1      40.913  28.858  32.872  1.00  0.00     0.012 A 
ATOM     11  C   UNL A   1      42.223  30.517  33.994  1.00  0.00     0.131 A 
ATOM     12  C   UNL A   1      42.145  29.248  33.407  1.00  0.00     0.018 A 
ATOM     13  F   UNL A   1      43.384  30.949  34.512  1.00  0.00    -0.206 F 
BRANCH  12  14
ATOM     14  C   UNL A   1      43.257  28.291  33.441  1.00  0.00    -0.012 A 
ATOM     15  C   UNL A   1      43.201  27.068  32.755  1.00  0.00     0.009 A 
ATOM     16  C   UNL A   1      44.367  28.552  34.261  1.00  0.00     0.056 A 
ATOM     17  C   UNL A   1      44.220  26.124  32.898  1.00  0.00     0.004 A 
ATOM     18  C   UNL A   1      45.365  27.597  34.429  1.00  0.00     0.133 A 
ATOM     19  C   UNL A   1      45.301  26.385  33.741  1.00  0.00     0.047 A 
BRANCH  18  20
ATOM     20  O   UNL A   1      46.480  27.756  35.289  1.00  0.00    -0.410 OA
BRANCH  20  21
ATOM     21  C   UNL A   1      46.392  28.030  36.652  1.00  0.00     0.412 C 
ATOM     22  O   UNL A   1      46.134  29.110  37.169  1.00  0.00    -0.224 OA
ATOM     23  N   UNL A   1      46.594  26.941  37.447  1.00  0.00    -0.321 N 
ATOM     24  H   UNL A   1      46.537  27.097  38.417  1.00  0.00     0.167 HD
BRANCH  23  25
ATOM     25  C   UNL A   1      46.882  25.584  37.040  1.00  0.00     0.119 C 
BRANCH  25  26
ATOM     26  C   UNL A   1      45.710  24.649  37.342  1.00  0.00     0.025 C 
BRANCH  26  27
ATOM     27  C   UNL A   1      44.549  24.729  36.326  1.00  0.00    -0.009 C 
ATOM     28  C   UNL A   1      44.164  23.346  35.777  1.00  0.00     0.003 C 
ATOM     29  C   UNL A   1      43.334  25.411  36.978  1.00  0.00     0.003 C 
ATOM     30  C   UNL A   1      42.956  23.412  34.843  1.00  0.00     0.000 C 
ATOM     31  C   UNL A   1      42.144  25.481  36.023  1.00  0.00     0.000 C 
ATOM     32  C   UNL A   1      41.767  24.099  35.504  1.00  0.00     0.000 C 
ENDBRANCH  26  27
ENDBRANCH  25  26
ENDBRANCH  23  25
ENDBRANCH  20  21
ENDBRANCH  18  20
ENDBRANCH  12  14
ENDBRANCH   5   7
ENDBRANCH   1   5
BRANCH   3  33
ATOM     33  C   UNL A   1      37.199  32.859  31.263  1.00  0.00     0.116 C 
BRANCH  33  34
ATOM     34  C   UNL A   1      35.806  33.317  31.706  1.00  0.00     0.023 C 
BRANCH  34  35
ATOM     35  C   UNL A   1      34.652  32.708  30.907  1.00  0.00     0.023 C 
BRANCH  35  36
ATOM     36  C   UNL A   1      34.837  32.733  29.396  1.00  0.00     0.116 C 
BRANCH  36  37
ATOM     37  N   UNL A   1      34.081  31.688  28.725  1.00  0.00    -0.352 N 
ATOM     38  C   UNL A   1      34.520  30.504  28.192  1.00  0.00     0.251 C 
ATOM     39  H   UNL A   1      33.115  31.856  28.641  1.00  0.00     0.163 HD
ATOM     40  O   UNL A   1      33.750  29.824  27.517  1.00  0.00    -0.269 OA
BRANCH  38  41
ATOM     41  C   UNL A   1      35.915  30.063  28.405  1.00  0.00     0.039 A 
ATOM     42  C   UNL A   1      36.805  30.140  27.333  1.00  0.00     0.014 A 
ATOM     43  C   UNL A   1      36.348  29.576  29.642  1.00  0.00     0.014 A 
ATOM     44  C   UNL A   1      38.139  29.772  27.517  1.00  0.00     0.010 A 
ATOM     45  C   UNL A   1      37.696  29.292  29.846  1.00  0.00     0.010 A 
ATOM     46  C   UNL A   1      38.605  29.379  28.784  1.00  0.00    -0.014 A 
BRANCH  46  47
ATOM     47  C   UNL A   1      40.045  29.079  28.990  1.00  0.00     0.031 A 
ATOM     48  C   UNL A   1      40.976  30.115  29.558  1.00  0.00     0.074 A 
ATOM     49  C   UNL A   1      40.514  27.860  28.654  1.00  0.00     0.049 A 
ATOM     50  N   UNL A   1      42.244  30.002  29.862  1.00  0.00    -0.248 NA
ATOM     51  C   UNL A   1      40.422  31.458  29.801  1.00  0.00     0.031 C 
ATOM     52  C   UNL A   1      39.725  26.792  28.032  1.00  0.00     0.029 A 
ATOM     53  N   UNL A   1      41.761  27.307  28.798  1.00  0.00    -0.354 N 
ATOM     54  C   UNL A   1      42.635  31.247  30.338  1.00  0.00     0.074 A 
ATOM     55  C   UNL A   1      41.489  32.122  30.217  1.00  0.00     0.031 C 
ATOM     56  C   UNL A   1      40.493  25.701  27.892  1.00  0.00     0.029 A 
ATOM     57  C   UNL A   1      41.837  26.000  28.376  1.00  0.00     0.049 A 
ATOM     58  H   UNL A   1      42.529  27.799  29.169  1.00  0.00     0.167 HD
ATOM     59  C   UNL A   1      43.829  31.623  30.855  1.00  0.00     0.031 A 
ATOM     60  C   UNL A   1      42.871  25.136  28.378  1.00  0.00     0.031 A 
ATOM     61  C   UNL A   1      44.971  30.751  30.964  1.00  0.00     0.049 A 
ATOM     62  C   UNL A   1      44.188  25.580  28.954  1.00  0.00     0.074 A 
ATOM     63  C   UNL A   1      46.215  31.025  31.505  1.00  0.00     0.029 A 
ATOM     64  N   UNL A   1      45.011  29.436  30.524  1.00  0.00    -0.354 N 
ATOM     65  N   UNL A   1      44.513  26.742  29.468  1.00  0.00    -0.248 NA
ATOM     66  C   UNL A   1      45.269  24.587  28.968  1.00  0.00     0.031 C 
ATOM     67  C   UNL A   1      47.024  29.895  31.340  1.00  0.00     0.029 A 
ATOM     68  C   UNL A   1      46.264  28.894  30.759  1.00  0.00     0.049 A 
ATOM     69  H   UNL A   1      44.258  28.959  30.104  1.00  0.00     0.167 HD
ATOM     70  C   UNL A   1      45.835  26.614  29.883  1.00  0.00     0.074 A 
ATOM     71  C   UNL A   1      46.231  25.250  29.594  1.00  0.00     0.031 C 
ATOM     72  C   UNL A   1      46.649  27.541  30.447  1.00  0.00     0.031 A 
BRANCH  59  73
ATOM     73  C   UNL A   1      43.959  33.039  31.356  1.00  0.00    -0.014 A 
ATOM     74  C   UNL A   1      44.177  34.104  30.462  1.00  0.00     0.010 A 
ATOM     75  C   UNL A   1      43.805  33.321  32.727  1.00  0.00     0.010 A 
ATOM     76  C   UNL A   1      44.270  35.417  30.930  1.00  0.00     0.020 A 
ATOM     77  C   UNL A   1      43.867  34.638  33.195  1.00  0.00     0.020 A 
ATOM     78  C   UNL A   1      44.113  35.676  32.294  1.00  0.00     0.054 A 
BRANCH  78  79
ATOM     79  S   UNL A   1      44.197  37.396  32.864  1.00  0.00     0.124 S 
ATOM     80  O   UNL A   1      45.417  37.387  33.670  1.00  0.00    -0.237 OA
ATOM     81  O   UNL A   1      44.278  38.143  31.613  1.00  0.00    -0.237 OA
ATOM     82  O   UNL A   1      42.957  37.575  33.616  1.00  0.00    -0.744 OA
ENDBRANCH  78  79
ENDBRANCH  59  73
BRANCH  60  83
ATOM     83  C   UNL A   1      42.698  23.767  27.820  1.00  0.00    -0.014 A 
ATOM     84  C   UNL A   1      42.349  22.685  28.648  1.00  0.00     0.010 A 
ATOM     85  C   UNL A   1      42.884  23.540  26.444  1.00  0.00     0.010 A 
ATOM     86  C   UNL A   1      42.223  21.397  28.116  1.00  0.00     0.020 A 
ATOM     87  C   UNL A   1      42.724  22.262  25.902  1.00  0.00     0.020 A 
ATOM     88  C   UNL A   1      42.410  21.195  26.745  1.00  0.00     0.054 A 
BRANCH  88  89
ATOM     89  S   UNL A   1      42.207  19.524  26.069  1.00  0.00     0.124 S 
ATOM     90  O   UNL A   1      43.134  19.538  24.942  1.00  0.00    -0.237 OA
ATOM     91  O   UNL A   1      42.593  18.679  27.196  1.00  0.00    -0.237 OA
ATOM     92  O   UNL A   1      40.790  19.469  25.714  1.00  0.00    -0.744 OA
ENDBRANCH  88  89
ENDBRANCH  60  83
BRANCH  72  93
ATOM     93  C   UNL A   1      48.045  27.096  30.803  1.00  0.00    -0.014 A 
ATOM     94  C   UNL A   1      48.305  26.373  31.981  1.00  0.00     0.010 A 
ATOM     95  C   UNL A   1      49.115  27.402  29.941  1.00  0.00     0.010 A 
ATOM     96  C   UNL A   1      49.613  26.022  32.324  1.00  0.00     0.020 A 
ATOM     97  C   UNL A   1      50.420  27.022  30.262  1.00  0.00     0.020 A 
ATOM     98  C   UNL A   1      50.664  26.356  31.464  1.00  0.00     0.054 A 
BRANCH  98  99
ATOM     99  S   UNL A   1      52.353  25.896  31.934  1.00  0.00     0.124 S 
ATOM    100  O   UNL A   1      53.053  25.964  30.654  1.00  0.00    -0.237 OA
ATOM    101  O   UNL A   1      52.710  26.931  32.902  1.00  0.00    -0.237 OA
ATOM    102  O   UNL A   1      52.205  24.554  32.492  1.00  0.00    -0.744 OA
ENDBRANCH  98  99
ENDBRANCH  72  93
ENDBRANCH  46  47
ENDBRANCH  38  41
ENDBRANCH  36  37
ENDBRANCH  35  36
ENDBRANCH  34  35
ENDBRANCH  33  34
ENDBRANCH   3  33
TORSDOF 21
ENDMDL
MODEL 3
REMARK VINA RESULT:     -10.2      4.649     11.301
REMARK SMILES C[C@@H](C(=O)NCCCCNC(=O)c1ccc(-c2c3nc(c(-c4ccc(S(=O)(=O)[O-])cc4)c4ccc([nH]4)c(-c4ccc(S(=O)(=O)[O-])cc4)c4nc(c(-c5ccc(S(=O)(=O)[O-])cc5)c5ccc2[nH]5)C=C4)C=C3)cc1)c1ccc(-c2cccc(OC(=O)NCCC3CCCCC3)c2)c(F)c1
REMARK SMILES IDX 3 1 4 2 5 3 2 5 1 6 73 7 74 8 97 9 75 10 95 11 76 12 96 13
REMARK SMILES IDX 77 14 78 15 94 16 79 17 81 18 80 19 82 20 83 21 84 22 85 23
REMARK SMILES IDX 86 25 87 26 88 27 89 28 93 29 90 30 92 31 91 32 6 33 7 34
REMARK SMILES IDX 8 35 9 36 10 37 11 38 12 40 13 41 14 42 72 43 15 44 71 45
REMARK SMILES IDX 16 46 17 47 18 48 65 49 19 50 70 51 64 52 66 53 20 54 69 55
REMARK SMILES IDX 63 56 62 57 21 59 51 60 32 61 50 62 33 63 36 64 49 65 67 66
REMARK SMILES IDX 34 67 35 68 48 70 68 71 37 72 22 73 23 74 31 75 24 76 30 77
REMARK SMILES IDX 25 78 26 79 27 80 28 81 29 82 52 83 53 84 61 85 54 86 60 87
REMARK SMILES IDX 55 88 56 89 57 90 58 91 59 92 38 93 39 94 47 95 40 96 46 97
REMARK SMILES IDX 41 98 42 99 43 100 44 101 45 102
REMARK H PARENT 5 4 85 24 10 39 66 58 36 69
REMARK Flexibility Score: inf
ROOT
ATOM      1  C   UNL A   1      38.398  33.804  33.171  1.00  0.00     0.227 C 
ATOM      2  O   UNL A   1      38.970  34.708  33.781  1.00  0.00    -0.274 OA
ATOM      3  N   UNL A   1      38.066  34.057  31.869  1.00  0.00    -0.356 N 
ATOM      4  H   UNL A   1      38.480  34.861  31.480  1.00  0.00     0.163 HD
ENDROOT
BRANCH   1   5
ATOM      5  C   UNL A   1      38.093  32.422  33.790  1.00  0.00     0.105 C 
ATOM      6  C   UNL A   1      37.738  32.582  35.274  1.00  0.00     0.023 C 
BRANCH   5   7
ATOM      7  C   UNL A   1      39.219  31.403  33.563  1.00  0.00    -0.033 A 
ATOM      8  C   UNL A   1      38.973  30.108  33.081  1.00  0.00     0.005 A 
ATOM      9  C   UNL A   1      40.555  31.748  33.830  1.00  0.00     0.044 A 
ATOM     10  C   UNL A   1      40.000  29.173  32.943  1.00  0.00     0.012 A 
ATOM     11  C   UNL A   1      41.576  30.805  33.705  1.00  0.00     0.131 A 
ATOM     12  C   UNL A   1      41.319  29.496  33.282  1.00  0.00     0.018 A 
ATOM     13  F   UNL A   1      42.826  31.175  34.030  1.00  0.00    -0.206 F 
BRANCH  12  14
ATOM     14  C   UNL A   1      42.343  28.445  33.293  1.00  0.00    -0.012 A 
ATOM     15  C   UNL A   1      43.247  28.281  32.231  1.00  0.00     0.009 A 
ATOM     16  C   UNL A   1      42.359  27.509  34.340  1.00  0.00     0.056 A 
ATOM     17  C   UNL A   1      44.133  27.203  32.209  1.00  0.00     0.004 A 
ATOM     18  C   UNL A   1      43.219  26.415  34.301  1.00  0.00     0.133 A 
ATOM     19  C   UNL A   1      44.116  26.264  33.242  1.00  0.00     0.047 A 
BRANCH  18  20
ATOM     20  O   UNL A   1      43.250  25.393  35.282  1.00  0.00    -0.410 OA
BRANCH  20  21
ATOM     21  C   UNL A   1      42.316  24.365  35.379  1.00  0.00     0.412 C 
ATOM     22  O   UNL A   1      41.198  24.433  35.875  1.00  0.00    -0.224 OA
ATOM     23  N   UNL A   1      42.729  23.191  34.823  1.00  0.00    -0.321 N 
ATOM     24  H   UNL A   1      42.093  22.442  34.871  1.00  0.00     0.167 HD
BRANCH  23  25
ATOM     25  C   UNL A   1      43.988  22.910  34.170  1.00  0.00     0.119 C 
BRANCH  25  26
ATOM     26  C   UNL A   1      44.616  21.619  34.697  1.00  0.00     0.025 C 
BRANCH  26  27
ATOM     27  C   UNL A   1      46.105  21.743  35.088  1.00  0.00    -0.009 C 
ATOM     28  C   UNL A   1      46.976  20.680  34.399  1.00  0.00     0.003 C 
ATOM     29  C   UNL A   1      46.614  23.157  34.759  1.00  0.00     0.003 C 
ATOM     30  C   UNL A   1      48.461  20.859  34.713  1.00  0.00     0.000 C 
ATOM     31  C   UNL A   1      48.094  23.319  35.094  1.00  0.00     0.000 C 
ATOM     32  C   UNL A   1      48.942  22.268  34.388  1.00  0.00     0.000 C 
ENDBRANCH  26  27
ENDBRANCH  25  26
ENDBRANCH  23  25
ENDBRANCH  20  21
ENDBRANCH  18  20
ENDBRANCH  12  14
ENDBRANCH   5   7
ENDBRANCH   1   5
BRANCH   3  33
ATOM     33  C   UNL A   1      37.197  33.318  30.977  1.00  0.00     0.116 C 
BRANCH  33  34
ATOM     34  C   UNL A   1      35.730  33.674  31.240  1.00  0.00     0.023 C 
BRANCH  34  35
ATOM     35  C   UNL A   1      34.719  32.718  30.606  1.00  0.00     0.023 C 
BRANCH  35  36
ATOM     36  C   UNL A   1      34.736  32.688  29.084  1.00  0.00     0.116 C 
BRANCH  36  37
ATOM     37  N   UNL A   1      34.013  31.549  28.542  1.00  0.00    -0.352 N 
ATOM     38  C   UNL A   1      34.491  30.331  28.134  1.00  0.00     0.251 C 
ATOM     39  H   UNL A   1      33.040  31.671  28.455  1.00  0.00     0.163 HD
ATOM     40  O   UNL A   1      33.740  29.554  27.548  1.00  0.00    -0.269 OA
BRANCH  38  41
ATOM     41  C   UNL A   1      35.904  29.968  28.372  1.00  0.00     0.039 A 
ATOM     42  C   UNL A   1      36.798  30.047  27.303  1.00  0.00     0.014 A 
ATOM     43  C   UNL A   1      36.351  29.551  29.630  1.00  0.00     0.014 A 
ATOM     44  C   UNL A   1      38.146  29.753  27.509  1.00  0.00     0.010 A 
ATOM     45  C   UNL A   1      37.709  29.342  29.852  1.00  0.00     0.010 A 
ATOM     46  C   UNL A   1      38.621  29.432  28.793  1.00  0.00    -0.014 A 
BRANCH  46  47
ATOM     47  C   UNL A   1      40.073  29.212  29.019  1.00  0.00     0.031 A 
ATOM     48  C   UNL A   1      40.710  27.886  28.705  1.00  0.00     0.074 A 
ATOM     49  C   UNL A   1      40.818  30.220  29.518  1.00  0.00     0.049 A 
ATOM     50  N   UNL A   1      41.971  27.542  28.782  1.00  0.00    -0.248 NA
ATOM     51  C   UNL A   1      39.821  26.797  28.267  1.00  0.00     0.031 C 
ATOM     52  C   UNL A   1      40.303  31.531  29.924  1.00  0.00     0.029 A 
ATOM     53  N   UNL A   1      42.166  30.307  29.756  1.00  0.00    -0.354 N 
ATOM     54  C   UNL A   1      42.028  26.209  28.395  1.00  0.00     0.074 A 
ATOM     55  C   UNL A   1      40.666  25.784  28.152  1.00  0.00     0.031 C 
ATOM     56  C   UNL A   1      41.327  32.304  30.316  1.00  0.00     0.029 A 
ATOM     57  C   UNL A   1      42.564  31.536  30.227  1.00  0.00     0.049 A 
ATOM     58  H   UNL A   1      42.789  29.560  29.604  1.00  0.00     0.167 HD
ATOM     59  C   UNL A   1      43.114  25.418  28.228  1.00  0.00     0.031 A 
ATOM     60  C   UNL A   1      43.788  31.996  30.550  1.00  0.00     0.031 A 
ATOM     61  C   UNL A   1      44.467  25.841  28.480  1.00  0.00     0.049 A 
ATOM     62  C   UNL A   1      44.978  31.095  30.361  1.00  0.00     0.074 A 
ATOM     63  C   UNL A   1      45.640  25.127  28.309  1.00  0.00     0.029 A 
ATOM     64  N   UNL A   1      44.831  27.092  28.960  1.00  0.00    -0.354 N 
ATOM     65  N   UNL A   1      45.014  29.860  29.922  1.00  0.00    -0.248 NA
ATOM     66  C   UNL A   1      46.292  31.660  30.692  1.00  0.00     0.031 C 
ATOM     67  C   UNL A   1      46.707  25.924  28.738  1.00  0.00     0.029 A 
ATOM     68  C   UNL A   1      46.206  27.161  29.112  1.00  0.00     0.049 A 
ATOM     69  H   UNL A   1      44.203  27.823  29.162  1.00  0.00     0.167 HD
ATOM     70  C   UNL A   1      46.359  29.504  29.906  1.00  0.00     0.074 A 
ATOM     71  C   UNL A   1      47.101  30.670  30.345  1.00  0.00     0.031 C 
ATOM     72  C   UNL A   1      46.929  28.321  29.568  1.00  0.00     0.031 A 
BRANCH  59  73
ATOM     73  C   UNL A   1      42.884  24.011  27.736  1.00  0.00    -0.014 A 
ATOM     74  C   UNL A   1      42.964  22.916  28.618  1.00  0.00     0.010 A 
ATOM     75  C   UNL A   1      42.529  23.780  26.394  1.00  0.00     0.010 A 
ATOM     76  C   UNL A   1      42.724  21.618  28.161  1.00  0.00     0.020 A 
ATOM     77  C   UNL A   1      42.258  22.485  25.941  1.00  0.00     0.020 A 
ATOM     78  C   UNL A   1      42.371  21.410  26.825  1.00  0.00     0.054 A 
BRANCH  78  79
ATOM     79  S   UNL A   1      42.025  19.717  26.274  1.00  0.00     0.124 S 
ATOM     80  O   UNL A   1      42.936  19.578  25.139  1.00  0.00    -0.237 OA
ATOM     81  O   UNL A   1      42.363  18.923  27.451  1.00  0.00    -0.237 OA
ATOM     82  O   UNL A   1      40.605  19.746  25.930  1.00  0.00    -0.744 OA
ENDBRANCH  78  79
ENDBRANCH  59  73
BRANCH  60  83
ATOM     83  C   UNL A   1      43.947  33.377  31.083  1.00  0.00    -0.014 A 
ATOM     84  C   UNL A   1      44.171  34.466  30.221  1.00  0.00     0.010 A 
ATOM     85  C   UNL A   1      43.875  33.610  32.469  1.00  0.00     0.010 A 
ATOM     86  C   UNL A   1      44.352  35.754  30.738  1.00  0.00     0.020 A 
ATOM     87  C   UNL A   1      44.019  34.899  32.986  1.00  0.00     0.020 A 
ATOM     88  C   UNL A   1      44.274  35.962  32.118  1.00  0.00     0.054 A 
BRANCH  88  89
ATOM     89  S   UNL A   1      44.475  37.644  32.764  1.00  0.00     0.124 S 
ATOM     90  O   UNL A   1      44.067  38.458  31.624  1.00  0.00    -0.237 OA
ATOM     91  O   UNL A   1      43.566  37.653  33.907  1.00  0.00    -0.237 OA
ATOM     92  O   UNL A   1      45.894  37.712  33.106  1.00  0.00    -0.744 OA
ENDBRANCH  88  89
ENDBRANCH  60  83
BRANCH  72  93
ATOM     93  C   UNL A   1      48.433  28.242  29.642  1.00  0.00    -0.014 A 
ATOM     94  C   UNL A   1      49.239  28.574  28.538  1.00  0.00     0.010 A 
ATOM     95  C   UNL A   1      49.050  27.833  30.839  1.00  0.00     0.010 A 
ATOM     96  C   UNL A   1      50.627  28.436  28.607  1.00  0.00     0.020 A 
ATOM     97  C   UNL A   1      50.441  27.730  30.924  1.00  0.00     0.020 A 
ATOM     98  C   UNL A   1      51.219  28.007  29.799  1.00  0.00     0.054 A 
BRANCH  98  99
ATOM     99  S   UNL A   1      53.022  27.830  29.862  1.00  0.00     0.124 S 
ATOM    100  O   UNL A   1      53.185  26.379  29.846  1.00  0.00    -0.237 OA
ATOM    101  O   UNL A   1      53.455  28.525  28.651  1.00  0.00    -0.237 OA
ATOM    102  O   UNL A   1      53.392  28.485  31.115  1.00  0.00    -0.744 OA
ENDBRANCH  98  99
ENDBRANCH  72  93
ENDBRANCH  46  47
ENDBRANCH  38  41
ENDBRANCH  36  37
ENDBRANCH  35  36
ENDBRANCH  34  35
ENDBRANCH  33  34
ENDBRANCH   3  33
TORSDOF 21
ENDMDL
