MODEL 1
REMARK VINA RESULT:     -13.3      0.000      0.000
REMARK SMILES O=C(NCCCCNC(=O)c1ccccc1-c1ccc(/C=C2/SC(=S)N(Cc3ccccc3)C2=O)o1)c1ccc(-c2c3nc(c(-c4ccc(S(=O)(=O)[O-])cc4)c4ccc([nH]4)c(-c4ccc(S(=O)(=O)[O-])cc4)c4nc(c(-c5ccc(S(=O)(=O)[O-])cc5)c5ccc2[nH]5)C=C4)C=C3)cc1
REMARK SMILES IDX 6 1 5 2 4 3 3 4 1 5 2 6 37 8 38 9 96 10 39 11 95 12 40 13
REMARK SMILES IDX 41 14 42 15 89 16 43 17 94 18 88 19 90 20 44 21 93 22 87 23
REMARK SMILES IDX 86 24 45 26 75 27 56 28 74 29 57 30 60 31 73 32 91 33 58 34
REMARK SMILES IDX 59 35 72 37 92 38 61 39 46 40 47 41 55 42 48 43 54 44 49 45
REMARK SMILES IDX 50 46 51 47 52 48 53 49 76 50 77 51 85 52 78 53 84 54 79 55
REMARK SMILES IDX 80 56 81 57 82 58 83 59 62 60 63 61 71 62 64 63 70 64 65 65
REMARK SMILES IDX 66 66 67 67 68 68 69 69 7 70 8 71 9 72 10 74 11 75 12 76
REMARK SMILES IDX 16 77 13 78 15 79 14 80 17 81 18 82 36 83 19 84 20 85 21 86
REMARK SMILES IDX 22 87 23 88 34 89 24 90 26 91 35 92 25 93 27 94 28 95 29 96
REMARK SMILES IDX 33 97 30 98 32 99 31 100
REMARK H PARENT 3 7 90 25 60 36 8 73
REMARK Flexibility Score: inf
ROOT
ATOM      1  C   UNL A   1      37.616  22.351  24.973  1.00  0.00     0.023 C 
ENDROOT
BRANCH   1   2
ATOM      2  C   UNL A   1      37.300  23.594  25.803  1.00  0.00     0.023 C 
BRANCH   2   3
ATOM      3  C   UNL A   1      38.432  24.123  26.677  1.00  0.00     0.116 C 
BRANCH   3   4
ATOM      4  N   UNL A   1      39.703  24.240  25.977  1.00  0.00    -0.352 N 
ATOM      5  O   UNL A   1      41.781  25.003  25.541  1.00  0.00    -0.269 OA
ATOM      6  C   UNL A   1      40.808  24.997  26.291  1.00  0.00     0.251 C 
ATOM      7  H   UNL A   1      39.784  23.698  25.159  1.00  0.00     0.163 HD
BRANCH   6   8
ATOM      8  C   UNL A   1      40.797  25.840  27.506  1.00  0.00     0.039 A 
ATOM      9  C   UNL A   1      39.756  25.742  28.431  1.00  0.00     0.014 A 
ATOM     10  C   UNL A   1      41.814  26.781  27.688  1.00  0.00     0.014 A 
ATOM     11  C   UNL A   1      39.637  26.699  29.434  1.00  0.00     0.010 A 
ATOM     12  C   UNL A   1      41.743  27.682  28.755  1.00  0.00     0.010 A 
ATOM     13  C   UNL A   1      40.631  27.678  29.612  1.00  0.00    -0.014 A 
BRANCH  13  14
ATOM     14  C   UNL A   1      40.515  28.645  30.735  1.00  0.00     0.031 A 
ATOM     15  C   UNL A   1      41.399  28.548  31.950  1.00  0.00     0.074 A 
ATOM     16  C   UNL A   1      39.602  29.631  30.643  1.00  0.00     0.049 A 
ATOM     17  N   UNL A   1      41.424  29.315  33.011  1.00  0.00    -0.248 NA
ATOM     18  C   UNL A   1      42.376  27.448  31.986  1.00  0.00     0.031 C 
ATOM     19  C   UNL A   1      38.681  29.822  29.518  1.00  0.00     0.029 A 
ATOM     20  N   UNL A   1      39.299  30.661  31.495  1.00  0.00    -0.354 N 
ATOM     21  C   UNL A   1      42.397  28.781  33.850  1.00  0.00     0.074 A 
ATOM     22  C   UNL A   1      42.925  27.610  33.183  1.00  0.00     0.031 C 
ATOM     23  C   UNL A   1      37.947  30.922  29.732  1.00  0.00     0.029 A 
ATOM     24  C   UNL A   1      38.289  31.473  31.038  1.00  0.00     0.049 A 
ATOM     25  H   UNL A   1      39.761  30.805  32.353  1.00  0.00     0.167 HD
ATOM     26  C   UNL A   1      42.811  29.229  35.062  1.00  0.00     0.031 A 
ATOM     27  C   UNL A   1      37.680  32.528  31.610  1.00  0.00     0.031 A 
ATOM     28  C   UNL A   1      42.272  30.391  35.721  1.00  0.00     0.049 A 
ATOM     29  C   UNL A   1      38.134  32.980  32.967  1.00  0.00     0.074 A 
ATOM     30  C   UNL A   1      42.651  30.947  36.931  1.00  0.00     0.029 A 
ATOM     31  N   UNL A   1      41.232  31.170  35.235  1.00  0.00    -0.354 N 
ATOM     32  N   UNL A   1      39.087  32.490  33.722  1.00  0.00    -0.248 NA
ATOM     33  C   UNL A   1      37.432  34.131  33.548  1.00  0.00     0.031 C 
ATOM     34  C   UNL A   1      41.798  32.022  37.206  1.00  0.00     0.029 A 
ATOM     35  C   UNL A   1      40.934  32.181  36.135  1.00  0.00     0.049 A 
ATOM     36  H   UNL A   1      40.773  31.027  34.376  1.00  0.00     0.167 HD
ATOM     37  C   UNL A   1      39.113  33.284  34.861  1.00  0.00     0.074 A 
ATOM     38  C   UNL A   1      38.094  34.299  34.685  1.00  0.00     0.031 C 
ATOM     39  C   UNL A   1      39.910  33.181  35.954  1.00  0.00     0.031 A 
BRANCH  26  40
ATOM     40  C   UNL A   1      43.879  28.437  35.777  1.00  0.00    -0.014 A 
ATOM     41  C   UNL A   1      43.553  27.374  36.640  1.00  0.00     0.010 A 
ATOM     42  C   UNL A   1      45.236  28.729  35.543  1.00  0.00     0.010 A 
ATOM     43  C   UNL A   1      44.560  26.652  37.288  1.00  0.00     0.020 A 
ATOM     44  C   UNL A   1      46.247  27.990  36.166  1.00  0.00     0.020 A 
ATOM     45  C   UNL A   1      45.901  26.967  37.051  1.00  0.00     0.054 A 
BRANCH  45  46
ATOM     46  S   UNL A   1      47.186  26.007  37.901  1.00  0.00     0.124 S 
ATOM     47  O   UNL A   1      47.851  25.340  36.783  1.00  0.00    -0.237 OA
ATOM     48  O   UNL A   1      47.970  27.044  38.568  1.00  0.00    -0.237 OA
ATOM     49  O   UNL A   1      46.433  25.128  38.791  1.00  0.00    -0.744 OA
ENDBRANCH  45  46
ENDBRANCH  26  40
BRANCH  27  50
ATOM     50  C   UNL A   1      36.561  33.201  30.899  1.00  0.00    -0.014 A 
ATOM     51  C   UNL A   1      35.237  33.062  31.343  1.00  0.00     0.010 A 
ATOM     52  C   UNL A   1      36.829  34.027  29.790  1.00  0.00     0.010 A 
ATOM     53  C   UNL A   1      34.198  33.727  30.687  1.00  0.00     0.020 A 
ATOM     54  C   UNL A   1      35.798  34.719  29.151  1.00  0.00     0.020 A 
ATOM     55  C   UNL A   1      34.486  34.555  29.597  1.00  0.00     0.054 A 
BRANCH  55  56
ATOM     56  S   UNL A   1      33.128  35.455  28.799  1.00  0.00     0.124 S 
ATOM     57  O   UNL A   1      33.848  36.432  27.989  1.00  0.00    -0.237 OA
ATOM     58  O   UNL A   1      32.442  34.399  28.060  1.00  0.00    -0.237 OA
ATOM     59  O   UNL A   1      32.376  36.006  29.924  1.00  0.00    -0.744 OA
ENDBRANCH  55  56
ENDBRANCH  27  50
BRANCH  39  60
ATOM     60  C   UNL A   1      39.731  34.213  37.035  1.00  0.00    -0.014 A 
ATOM     61  C   UNL A   1      39.129  33.888  38.264  1.00  0.00     0.010 A 
ATOM     62  C   UNL A   1      40.212  35.519  36.832  1.00  0.00     0.010 A 
ATOM     63  C   UNL A   1      38.984  34.860  39.258  1.00  0.00     0.020 A 
ATOM     64  C   UNL A   1      40.097  36.485  37.835  1.00  0.00     0.020 A 
ATOM     65  C   UNL A   1      39.470  36.153  39.037  1.00  0.00     0.054 A 
BRANCH  65  66
ATOM     66  S   UNL A   1      39.306  37.384  40.358  1.00  0.00     0.124 S 
ATOM     67  O   UNL A   1      38.580  38.457  39.685  1.00  0.00    -0.237 OA
ATOM     68  O   UNL A   1      38.554  36.659  41.379  1.00  0.00    -0.237 OA
ATOM     69  O   UNL A   1      40.688  37.697  40.714  1.00  0.00    -0.744 OA
ENDBRANCH  65  66
ENDBRANCH  39  60
ENDBRANCH  13  14
ENDBRANCH   6   8
ENDBRANCH   3   4
ENDBRANCH   2   3
ENDBRANCH   1   2
BRANCH   1  70
ATOM     70  C   UNL A   1      36.607  21.220  25.093  1.00  0.00     0.116 C 
BRANCH  70  71
ATOM     71  N   UNL A   1      35.723  21.323  26.240  1.00  0.00    -0.352 N 
ATOM     72  C   UNL A   1      34.378  21.040  26.299  1.00  0.00     0.252 C 
ATOM     73  H   UNL A   1      36.136  21.633  27.078  1.00  0.00     0.163 HD
ATOM     74  O   UNL A   1      33.765  21.126  27.360  1.00  0.00    -0.269 OA
BRANCH  72  75
ATOM     75  C   UNL A   1      33.637  20.688  25.067  1.00  0.00     0.050 A 
ATOM     76  C   UNL A   1      33.434  19.320  24.833  1.00  0.00     0.014 A 
ATOM     77  C   UNL A   1      33.152  21.650  24.164  1.00  0.00     0.030 A 
ATOM     78  C   UNL A   1      32.702  18.906  23.723  1.00  0.00     0.001 A 
ATOM     79  C   UNL A   1      32.399  21.217  23.063  1.00  0.00     0.013 A 
ATOM     80  C   UNL A   1      32.174  19.853  22.846  1.00  0.00     0.001 A 
BRANCH  77  81
ATOM     81  C   UNL A   1      33.414  23.065  24.345  1.00  0.00     0.135 A 
ATOM     82  C   UNL A   1      34.305  23.944  23.775  1.00  0.00     0.051 A 
ATOM     83  O   UNL A   1      32.749  23.667  25.372  1.00  0.00    -0.457 OA
ATOM     84  C   UNL A   1      34.207  25.135  24.527  1.00  0.00     0.051 A 
ATOM     85  C   UNL A   1      33.249  24.940  25.518  1.00  0.00     0.128 A 
BRANCH  85  86
ATOM     86  C   UNL A   1      32.885  25.825  26.568  1.00  0.00     0.068 C 
ATOM     87  C   UNL A   1      32.237  26.967  26.320  1.00  0.00     0.084 C 
ATOM     88  S   UNL A   1      32.151  28.301  27.399  1.00  0.00    -0.054 SA
ATOM     89  C   UNL A   1      31.634  27.353  25.026  1.00  0.00     0.266 C 
ATOM     90  C   UNL A   1      31.821  29.429  26.076  1.00  0.00     0.148 C 
ATOM     91  N   UNL A   1      31.613  28.724  24.910  1.00  0.00    -0.288 N 
ATOM     92  O   UNL A   1      31.168  26.552  24.223  1.00  0.00    -0.268 OA
ATOM     93  S   UNL A   1      31.762  31.078  26.313  1.00  0.00    -0.052 S 
BRANCH  91  94
ATOM     94  C   UNL A   1      31.285  29.296  23.607  1.00  0.00     0.163 C 
BRANCH  94  95
ATOM     95  C   UNL A   1      29.817  29.662  23.471  1.00  0.00    -0.028 A 
ATOM     96  C   UNL A   1      28.888  28.708  23.032  1.00  0.00     0.005 A 
ATOM     97  C   UNL A   1      29.359  30.966  23.725  1.00  0.00     0.005 A 
ATOM     98  C   UNL A   1      27.546  29.053  22.850  1.00  0.00     0.000 A 
ATOM     99  C   UNL A   1      28.014  31.305  23.565  1.00  0.00     0.000 A 
ATOM    100  C   UNL A   1      27.109  30.349  23.120  1.00  0.00     0.000 A 
ENDBRANCH  94  95
ENDBRANCH  91  94
ENDBRANCH  85  86
ENDBRANCH  77  81
ENDBRANCH  72  75
ENDBRANCH  70  71
ENDBRANCH   1  70
TORSDOF 18
ENDMDL
MODEL 2
REMARK VINA RESULT:     -12.7      1.308      2.399
REMARK SMILES O=C(NCCCCNC(=O)c1ccccc1-c1ccc(/C=C2/SC(=S)N(Cc3ccccc3)C2=O)o1)c1ccc(-c2c3nc(c(-c4ccc(S(=O)(=O)[O-])cc4)c4ccc([nH]4)c(-c4ccc(S(=O)(=O)[O-])cc4)c4nc(c(-c5ccc(S(=O)(=O)[O-])cc5)c5ccc2[nH]5)C=C4)C=C3)cc1
REMARK SMILES IDX 6 1 5 2 4 3 3 4 1 5 2 6 37 8 38 9 96 10 39 11 95 12 40 13
REMARK SMILES IDX 41 14 42 15 89 16 43 17 94 18 88 19 90 20 44 21 93 22 87 23
REMARK SMILES IDX 86 24 45 26 75 27 56 28 74 29 57 30 60 31 73 32 91 33 58 34
REMARK SMILES IDX 59 35 72 37 92 38 61 39 46 40 47 41 55 42 48 43 54 44 49 45
REMARK SMILES IDX 50 46 51 47 52 48 53 49 76 50 77 51 85 52 78 53 84 54 79 55
REMARK SMILES IDX 80 56 81 57 82 58 83 59 62 60 63 61 71 62 64 63 70 64 65 65
REMARK SMILES IDX 66 66 67 67 68 68 69 69 7 70 8 71 9 72 10 74 11 75 12 76
REMARK SMILES IDX 16 77 13 78 15 79 14 80 17 81 18 82 36 83 19 84 20 85 21 86
REMARK SMILES IDX 22 87 23 88 34 89 24 90 26 91 35 92 25 93 27 94 28 95 29 96
REMARK SMILES IDX 33 97 30 98 32 99 31 100
REMARK H PARENT 3 7 90 25 60 36 8 73
REMARK Flexibility Score: inf
ROOT
ATOM      1  C   UNL A   1      37.365  22.526  24.623  1.00  0.00     0.023 C 
ENDROOT
BRANCH   1   2
ATOM      2  C   UNL A   1      37.019  23.761  25.452  1.00  0.00     0.023 C 
BRANCH   2   3
ATOM      3  C   UNL A   1      38.063  24.198  26.474  1.00  0.00     0.116 C 
BRANCH   3   4
ATOM      4  N   UNL A   1      39.422  24.203  25.952  1.00  0.00    -0.352 N 
ATOM      5  O   UNL A   1      41.556  24.891  25.701  1.00  0.00    -0.269 OA
ATOM      6  C   UNL A   1      40.488  25.004  26.295  1.00  0.00     0.251 C 
ATOM      7  H   UNL A   1      39.606  23.536  25.252  1.00  0.00     0.163 HD
BRANCH   6   8
ATOM      8  C   UNL A   1      40.322  26.033  27.345  1.00  0.00     0.039 A 
ATOM      9  C   UNL A   1      41.021  27.239  27.277  1.00  0.00     0.014 A 
ATOM     10  C   UNL A   1      39.500  25.757  28.440  1.00  0.00     0.014 A 
ATOM     11  C   UNL A   1      41.038  28.085  28.380  1.00  0.00     0.010 A 
ATOM     12  C   UNL A   1      39.443  26.657  29.509  1.00  0.00     0.010 A 
ATOM     13  C   UNL A   1      40.246  27.808  29.508  1.00  0.00    -0.014 A 
BRANCH  13  14
ATOM     14  C   UNL A   1      40.228  28.766  30.646  1.00  0.00     0.031 A 
ATOM     15  C   UNL A   1      41.188  28.634  31.799  1.00  0.00     0.074 A 
ATOM     16  C   UNL A   1      39.336  29.775  30.623  1.00  0.00     0.049 A 
ATOM     17  N   UNL A   1      41.300  29.388  32.863  1.00  0.00    -0.248 NA
ATOM     18  C   UNL A   1      42.137  27.509  31.760  1.00  0.00     0.031 C 
ATOM     19  C   UNL A   1      38.349  30.001  29.562  1.00  0.00     0.029 A 
ATOM     20  N   UNL A   1      39.116  30.802  31.503  1.00  0.00    -0.354 N 
ATOM     21  C   UNL A   1      42.313  28.822  33.631  1.00  0.00     0.074 A 
ATOM     22  C   UNL A   1      42.767  27.645  32.920  1.00  0.00     0.031 C 
ATOM     23  C   UNL A   1      37.658  31.115  29.834  1.00  0.00     0.029 A 
ATOM     24  C   UNL A   1      38.099  31.644  31.120  1.00  0.00     0.049 A 
ATOM     25  H   UNL A   1      39.637  30.926  32.329  1.00  0.00     0.167 HD
ATOM     26  C   UNL A   1      42.817  29.246  34.817  1.00  0.00     0.031 A 
ATOM     27  C   UNL A   1      37.555  32.707  31.741  1.00  0.00     0.031 A 
ATOM     28  C   UNL A   1      42.351  30.414  35.521  1.00  0.00     0.049 A 
ATOM     29  C   UNL A   1      38.108  33.133  33.069  1.00  0.00     0.074 A 
ATOM     30  C   UNL A   1      42.822  30.948  36.708  1.00  0.00     0.029 A 
ATOM     31  N   UNL A   1      41.302  31.224  35.111  1.00  0.00    -0.354 N 
ATOM     32  N   UNL A   1      39.096  32.612  33.754  1.00  0.00    -0.248 NA
ATOM     33  C   UNL A   1      37.475  34.295  33.706  1.00  0.00     0.031 C 
ATOM     34  C   UNL A   1      42.017  32.040  37.049  1.00  0.00     0.029 A 
ATOM     35  C   UNL A   1      41.089  32.232  36.038  1.00  0.00     0.049 A 
ATOM     36  H   UNL A   1      40.784  31.101  34.283  1.00  0.00     0.167 HD
ATOM     37  C   UNL A   1      39.217  33.393  34.897  1.00  0.00     0.074 A 
ATOM     38  C   UNL A   1      38.215  34.435  34.798  1.00  0.00     0.031 C 
ATOM     39  C   UNL A   1      40.081  33.258  35.934  1.00  0.00     0.031 A 
BRANCH  26  40
ATOM     40  C   UNL A   1      43.909  28.420  35.454  1.00  0.00    -0.014 A 
ATOM     41  C   UNL A   1      45.268  28.666  35.186  1.00  0.00     0.010 A 
ATOM     42  C   UNL A   1      43.569  27.411  36.375  1.00  0.00     0.010 A 
ATOM     43  C   UNL A   1      46.262  27.891  35.792  1.00  0.00     0.020 A 
ATOM     44  C   UNL A   1      44.561  26.652  37.006  1.00  0.00     0.020 A 
ATOM     45  C   UNL A   1      45.903  26.885  36.695  1.00  0.00     0.054 A 
BRANCH  45  46
ATOM     46  S   UNL A   1      47.214  25.900  37.471  1.00  0.00     0.124 S 
ATOM     47  O   UNL A   1      46.926  26.082  38.891  1.00  0.00    -0.237 OA
ATOM     48  O   UNL A   1      46.961  24.561  36.945  1.00  0.00    -0.237 OA
ATOM     49  O   UNL A   1      48.447  26.529  37.001  1.00  0.00    -0.744 OA
ENDBRANCH  45  46
ENDBRANCH  26  40
BRANCH  27  50
ATOM     50  C   UNL A   1      36.409  33.416  31.111  1.00  0.00    -0.014 A 
ATOM     51  C   UNL A   1      35.329  33.868  31.884  1.00  0.00     0.010 A 
ATOM     52  C   UNL A   1      36.421  33.679  29.727  1.00  0.00     0.010 A 
ATOM     53  C   UNL A   1      34.274  34.562  31.285  1.00  0.00     0.020 A 
ATOM     54  C   UNL A   1      35.385  34.400  29.130  1.00  0.00     0.020 A 
ATOM     55  C   UNL A   1      34.312  34.828  29.912  1.00  0.00     0.054 A 
BRANCH  55  56
ATOM     56  S   UNL A   1      32.960  35.783  29.169  1.00  0.00     0.124 S 
ATOM     57  O   UNL A   1      32.378  34.815  28.246  1.00  0.00    -0.237 OA
ATOM     58  O   UNL A   1      32.141  36.124  30.330  1.00  0.00    -0.237 OA
ATOM     59  O   UNL A   1      33.643  36.914  28.546  1.00  0.00    -0.744 OA
ENDBRANCH  55  56
ENDBRANCH  27  50
BRANCH  39  60
ATOM     60  C   UNL A   1      39.999  34.283  37.034  1.00  0.00    -0.014 A 
ATOM     61  C   UNL A   1      39.151  34.101  38.141  1.00  0.00     0.010 A 
ATOM     62  C   UNL A   1      40.818  35.425  36.979  1.00  0.00     0.010 A 
ATOM     63  C   UNL A   1      39.100  35.061  39.156  1.00  0.00     0.020 A 
ATOM     64  C   UNL A   1      40.793  36.371  38.006  1.00  0.00     0.020 A 
ATOM     65  C   UNL A   1      39.922  36.190  39.083  1.00  0.00     0.054 A 
BRANCH  65  66
ATOM     66  S   UNL A   1      39.868  37.399  40.433  1.00  0.00     0.124 S 
ATOM     67  O   UNL A   1      38.597  37.078  41.078  1.00  0.00    -0.237 OA
ATOM     68  O   UNL A   1      41.064  37.071  41.203  1.00  0.00    -0.237 OA
ATOM     69  O   UNL A   1      39.908  38.688  39.746  1.00  0.00    -0.744 OA
ENDBRANCH  65  66
ENDBRANCH  39  60
ENDBRANCH  13  14
ENDBRANCH   6   8
ENDBRANCH   3   4
ENDBRANCH   2   3
ENDBRANCH   1   2
BRANCH   1  70
ATOM     70  C   UNL A   1      36.637  21.253  25.026  1.00  0.00     0.116 C 
BRANCH  70  71
ATOM     71  N   UNL A   1      35.674  21.425  26.099  1.00  0.00    -0.352 N 
ATOM     72  C   UNL A   1      34.437  20.836  26.227  1.00  0.00     0.252 C 
ATOM     73  H   UNL A   1      35.937  22.038  26.822  1.00  0.00     0.163 HD
ATOM     74  O   UNL A   1      33.746  21.040  27.221  1.00  0.00    -0.269 OA
BRANCH  72  75
ATOM     75  C   UNL A   1      33.895  19.999  25.134  1.00  0.00     0.050 A 
ATOM     76  C   UNL A   1      34.536  18.771  24.914  1.00  0.00     0.014 A 
ATOM     77  C   UNL A   1      32.800  20.386  24.343  1.00  0.00     0.030 A 
ATOM     78  C   UNL A   1      34.057  17.900  23.939  1.00  0.00     0.001 A 
ATOM     79  C   UNL A   1      32.317  19.489  23.379  1.00  0.00     0.013 A 
ATOM     80  C   UNL A   1      32.941  18.253  23.181  1.00  0.00     0.001 A 
BRANCH  77  81
ATOM     81  C   UNL A   1      32.168  21.683  24.499  1.00  0.00     0.135 A 
ATOM     82  C   UNL A   1      31.145  22.149  25.291  1.00  0.00     0.051 A 
ATOM     83  O   UNL A   1      32.549  22.642  23.607  1.00  0.00    -0.457 OA
ATOM     84  C   UNL A   1      30.858  23.451  24.826  1.00  0.00     0.051 A 
ATOM     85  C   UNL A   1      31.728  23.733  23.775  1.00  0.00     0.128 A 
BRANCH  85  86
ATOM     86  C   UNL A   1      31.745  24.881  22.939  1.00  0.00     0.068 C 
ATOM     87  C   UNL A   1      31.852  26.111  23.450  1.00  0.00     0.084 C 
ATOM     88  S   UNL A   1      31.433  27.558  22.624  1.00  0.00    -0.054 SA
ATOM     89  C   UNL A   1      32.179  26.435  24.856  1.00  0.00     0.266 C 
ATOM     90  C   UNL A   1      31.204  28.433  24.144  1.00  0.00     0.148 C 
ATOM     91  N   UNL A   1      31.627  27.649  25.197  1.00  0.00    -0.288 N 
ATOM     92  O   UNL A   1      32.894  25.741  25.569  1.00  0.00    -0.268 OA
ATOM     93  S   UNL A   1      30.589  29.981  24.190  1.00  0.00    -0.052 S 
BRANCH  91  94
ATOM     94  C   UNL A   1      31.626  28.030  26.606  1.00  0.00     0.163 C 
BRANCH  94  95
ATOM     95  C   UNL A   1      32.763  28.970  26.969  1.00  0.00    -0.028 A 
ATOM     96  C   UNL A   1      32.511  30.329  27.199  1.00  0.00     0.005 A 
ATOM     97  C   UNL A   1      34.094  28.522  27.032  1.00  0.00     0.005 A 
ATOM     98  C   UNL A   1      33.559  31.211  27.478  1.00  0.00     0.000 A 
ATOM     99  C   UNL A   1      35.138  29.398  27.332  1.00  0.00     0.000 A 
ATOM    100  C   UNL A   1      34.871  30.745  27.548  1.00  0.00     0.000 A 
ENDBRANCH  94  95
ENDBRANCH  91  94
ENDBRANCH  85  86
ENDBRANCH  77  81
ENDBRANCH  72  75
ENDBRANCH  70  71
ENDBRANCH   1  70
TORSDOF 18
ENDMDL
MODEL 3
REMARK VINA RESULT:     -12.5      1.331      8.071
REMARK SMILES O=C(NCCCCNC(=O)c1ccccc1-c1ccc(/C=C2/SC(=S)N(Cc3ccccc3)C2=O)o1)c1ccc(-c2c3nc(c(-c4ccc(S(=O)(=O)[O-])cc4)c4ccc([nH]4)c(-c4ccc(S(=O)(=O)[O-])cc4)c4nc(c(-c5ccc(S(=O)(=O)[O-])cc5)c5ccc2[nH]5)C=C4)C=C3)cc1
REMARK SMILES IDX 6 1 5 2 4 3 3 4 1 5 2 6 37 8 38 9 96 10 39 11 95 12 40 13
REMARK SMILES IDX 41 14 42 15 89 16 43 17 94 18 88 19 90 20 44 21 93 22 87 23
REMARK SMILES IDX 86 24 45 26 75 27 56 28 74 29 57 30 60 31 73 32 91 33 58 34
REMARK SMILES IDX 59 35 72 37 92 38 61 39 46 40 47 41 55 42 48 43 54 44 49 45
REMARK SMILES IDX 50 46 51 47 52 48 53 49 76 50 77 51 85 52 78 53 84 54 79 55
REMARK SMILES IDX 80 56 81 57 82 58 83 59 62 60 63 61 71 62 64 63 70 64 65 65
REMARK SMILES IDX 66 66 67 67 68 68 69 69 7 70 8 71 9 72 10 74 11 75 12 76
REMARK SMILES IDX 16 77 13 78 15 79 14 80 17 81 18 82 36 83 19 84 20 85 21 86
REMARK SMILES IDX 22 87 23 88 34 89 24 90 26 91 35 92 25 93 27 94 28 95 29 96
REMARK SMILES IDX 33 97 30 98 32 99 31 100
REMARK H PARENT 3 7 90 25 60 36 8 73
REMARK Flexibility Score: inf
ROOT
ATOM      1  C   UNL A   1      37.196  23.224  24.848  1.00  0.00     0.023 C 
ENDROOT
BRANCH   1   2
ATOM      2  C   UNL A   1      37.260  24.031  26.143  1.00  0.00     0.023 C 
BRANCH   2   3
ATOM      3  C   UNL A   1      38.626  24.112  26.816  1.00  0.00     0.116 C 
BRANCH   3   4
ATOM      4  N   UNL A   1      39.693  24.531  25.918  1.00  0.00    -0.352 N 
ATOM      5  O   UNL A   1      41.443  25.752  25.187  1.00  0.00    -0.269 OA
ATOM      6  C   UNL A   1      40.647  25.508  26.090  1.00  0.00     0.251 C 
ATOM      7  H   UNL A   1      39.739  24.043  25.064  1.00  0.00     0.163 HD
BRANCH   6   8
ATOM      8  C   UNL A   1      40.674  26.293  27.343  1.00  0.00     0.039 A 
ATOM      9  C   UNL A   1      39.796  25.999  28.386  1.00  0.00     0.014 A 
ATOM     10  C   UNL A   1      41.554  27.373  27.447  1.00  0.00     0.014 A 
ATOM     11  C   UNL A   1      39.672  26.887  29.450  1.00  0.00     0.010 A 
ATOM     12  C   UNL A   1      41.494  28.212  28.564  1.00  0.00     0.010 A 
ATOM     13  C   UNL A   1      40.522  28.002  29.555  1.00  0.00    -0.014 A 
BRANCH  13  14
ATOM     14  C   UNL A   1      40.416  28.896  30.738  1.00  0.00     0.031 A 
ATOM     15  C   UNL A   1      39.386  29.993  30.804  1.00  0.00     0.074 A 
ATOM     16  C   UNL A   1      41.260  28.700  31.770  1.00  0.00     0.049 A 
ATOM     17  N   UNL A   1      39.165  30.854  31.765  1.00  0.00    -0.248 NA
ATOM     18  C   UNL A   1      38.496  30.152  29.643  1.00  0.00     0.031 C 
ATOM     19  C   UNL A   1      42.307  27.674  31.817  1.00  0.00     0.029 A 
ATOM     20  N   UNL A   1      41.370  29.340  32.977  1.00  0.00    -0.354 N 
ATOM     21  C   UNL A   1      38.129  31.670  31.321  1.00  0.00     0.074 A 
ATOM     22  C   UNL A   1      37.781  31.214  29.991  1.00  0.00     0.031 C 
ATOM     23  C   UNL A   1      42.924  27.730  33.004  1.00  0.00     0.029 A 
ATOM     24  C   UNL A   1      42.371  28.838  33.774  1.00  0.00     0.049 A 
ATOM     25  H   UNL A   1      40.788  30.087  33.247  1.00  0.00     0.167 HD
ATOM     26  C   UNL A   1      37.525  32.700  31.963  1.00  0.00     0.031 A 
ATOM     27  C   UNL A   1      42.820  29.237  34.979  1.00  0.00     0.031 A 
ATOM     28  C   UNL A   1      37.886  33.152  33.283  1.00  0.00     0.049 A 
ATOM     29  C   UNL A   1      42.157  30.403  35.652  1.00  0.00     0.074 A 
ATOM     30  C   UNL A   1      37.309  34.161  34.035  1.00  0.00     0.029 A 
ATOM     31  N   UNL A   1      38.922  32.633  34.046  1.00  0.00    -0.354 N 
ATOM     32  N   UNL A   1      41.149  31.129  35.234  1.00  0.00    -0.248 NA
ATOM     33  C   UNL A   1      42.689  30.800  36.961  1.00  0.00     0.031 C 
ATOM     34  C   UNL A   1      38.037  34.296  35.222  1.00  0.00     0.029 A 
ATOM     35  C   UNL A   1      39.023  33.323  35.244  1.00  0.00     0.049 A 
ATOM     36  H   UNL A   1      39.501  31.884  33.776  1.00  0.00     0.167 HD
ATOM     37  C   UNL A   1      40.913  32.060  36.238  1.00  0.00     0.074 A 
ATOM     38  C   UNL A   1      41.871  31.789  37.292  1.00  0.00     0.031 C 
ATOM     39  C   UNL A   1      39.987  33.050  36.282  1.00  0.00     0.031 A 
BRANCH  26  40
ATOM     40  C   UNL A   1      36.431  33.441  31.232  1.00  0.00    -0.014 A 
ATOM     41  C   UNL A   1      36.573  33.821  29.885  1.00  0.00     0.010 A 
ATOM     42  C   UNL A   1      35.219  33.719  31.892  1.00  0.00     0.010 A 
ATOM     43  C   UNL A   1      35.544  34.503  29.228  1.00  0.00     0.020 A 
ATOM     44  C   UNL A   1      34.175  34.374  31.230  1.00  0.00     0.020 A 
ATOM     45  C   UNL A   1      34.352  34.779  29.905  1.00  0.00     0.054 A 
BRANCH  45  46
ATOM     46  S   UNL A   1      33.032  35.659  29.024  1.00  0.00     0.124 S 
ATOM     47  O   UNL A   1      32.202  36.137  30.128  1.00  0.00    -0.237 OA
ATOM     48  O   UNL A   1      33.766  36.691  28.297  1.00  0.00    -0.237 OA
ATOM     49  O   UNL A   1      32.422  34.626  28.190  1.00  0.00    -0.744 OA
ENDBRANCH  45  46
ENDBRANCH  26  40
BRANCH  27  50
ATOM     50  C   UNL A   1      43.973  28.531  35.600  1.00  0.00    -0.014 A 
ATOM     51  C   UNL A   1      45.292  28.872  35.264  1.00  0.00     0.010 A 
ATOM     52  C   UNL A   1      43.747  27.538  36.572  1.00  0.00     0.010 A 
ATOM     53  C   UNL A   1      46.367  28.225  35.880  1.00  0.00     0.020 A 
ATOM     54  C   UNL A   1      44.818  26.912  37.214  1.00  0.00     0.020 A 
ATOM     55  C   UNL A   1      46.122  27.252  36.854  1.00  0.00     0.054 A 
BRANCH  55  56
ATOM     56  S   UNL A   1      47.535  26.470  37.683  1.00  0.00     0.124 S 
ATOM     57  O   UNL A   1      47.082  26.420  39.069  1.00  0.00    -0.237 OA
ATOM     58  O   UNL A   1      47.627  25.183  36.999  1.00  0.00    -0.237 OA
ATOM     59  O   UNL A   1      48.639  27.389  37.415  1.00  0.00    -0.744 OA
ENDBRANCH  55  56
ENDBRANCH  27  50
BRANCH  39  60
ATOM     60  C   UNL A   1      39.944  33.897  37.526  1.00  0.00    -0.014 A 
ATOM     61  C   UNL A   1      39.097  33.574  38.601  1.00  0.00     0.010 A 
ATOM     62  C   UNL A   1      40.797  35.010  37.637  1.00  0.00     0.010 A 
ATOM     63  C   UNL A   1      39.081  34.368  39.751  1.00  0.00     0.020 A 
ATOM     64  C   UNL A   1      40.808  35.788  38.797  1.00  0.00     0.020 A 
ATOM     65  C   UNL A   1      39.938  35.470  39.842  1.00  0.00     0.054 A 
BRANCH  65  66
ATOM     66  S   UNL A   1      39.929  36.459  41.361  1.00  0.00     0.124 S 
ATOM     67  O   UNL A   1      41.056  35.895  42.099  1.00  0.00    -0.237 OA
ATOM     68  O   UNL A   1      40.123  37.817  40.859  1.00  0.00    -0.237 OA
ATOM     69  O   UNL A   1      38.613  36.197  41.939  1.00  0.00    -0.744 OA
ENDBRANCH  65  66
ENDBRANCH  39  60
ENDBRANCH  13  14
ENDBRANCH   6   8
ENDBRANCH   3   4
ENDBRANCH   2   3
ENDBRANCH   1   2
BRANCH   1  70
ATOM     70  C   UNL A   1      36.259  22.026  24.878  1.00  0.00     0.116 C 
BRANCH  70  71
ATOM     71  N   UNL A   1      35.453  21.925  26.081  1.00  0.00    -0.352 N 
ATOM     72  C   UNL A   1      34.383  21.090  26.315  1.00  0.00     0.252 C 
ATOM     73  H   UNL A   1      35.699  22.527  26.820  1.00  0.00     0.163 HD
ATOM     74  O   UNL A   1      33.824  21.080  27.407  1.00  0.00    -0.269 OA
BRANCH  72  75
ATOM     75  C   UNL A   1      33.854  20.238  25.227  1.00  0.00     0.050 A 
ATOM     76  C   UNL A   1      34.518  19.023  25.009  1.00  0.00     0.014 A 
ATOM     77  C   UNL A   1      32.747  20.601  24.440  1.00  0.00     0.030 A 
ATOM     78  C   UNL A   1      34.052  18.139  24.038  1.00  0.00     0.001 A 
ATOM     79  C   UNL A   1      32.278  19.692  23.481  1.00  0.00     0.013 A 
ATOM     80  C   UNL A   1      32.926  18.467  23.284  1.00  0.00     0.001 A 
BRANCH  77  81
ATOM     81  C   UNL A   1      32.090  21.886  24.595  1.00  0.00     0.135 A 
ATOM     82  C   UNL A   1      31.056  22.331  25.384  1.00  0.00     0.051 A 
ATOM     83  O   UNL A   1      32.457  22.852  23.706  1.00  0.00    -0.457 OA
ATOM     84  C   UNL A   1      30.746  23.628  24.918  1.00  0.00     0.051 A 
ATOM     85  C   UNL A   1      31.615  23.927  23.872  1.00  0.00     0.128 A 
BRANCH  85  86
ATOM     86  C   UNL A   1      31.613  25.077  23.037  1.00  0.00     0.068 C 
ATOM     87  C   UNL A   1      31.777  26.303  23.542  1.00  0.00     0.084 C 
ATOM     88  S   UNL A   1      31.349  27.761  22.741  1.00  0.00    -0.054 SA
ATOM     89  C   UNL A   1      32.190  26.616  24.927  1.00  0.00     0.266 C 
ATOM     90  C   UNL A   1      31.226  28.638  24.273  1.00  0.00     0.148 C 
ATOM     91  N   UNL A   1      31.688  27.842  25.300  1.00  0.00    -0.288 N 
ATOM     92  O   UNL A   1      32.926  25.903  25.599  1.00  0.00    -0.268 OA
ATOM     93  S   UNL A   1      30.652  30.201  24.354  1.00  0.00    -0.052 S 
BRANCH  91  94
ATOM     94  C   UNL A   1      31.774  28.220  26.707  1.00  0.00     0.163 C 
BRANCH  94  95
ATOM     95  C   UNL A   1      32.939  29.149  27.003  1.00  0.00    -0.028 A 
ATOM     96  C   UNL A   1      34.247  28.647  27.065  1.00  0.00     0.005 A 
ATOM     97  C   UNL A   1      32.739  30.514  27.273  1.00  0.00     0.005 A 
ATOM     98  C   UNL A   1      35.317  29.485  27.392  1.00  0.00     0.000 A 
ATOM     99  C   UNL A   1      33.810  31.355  27.578  1.00  0.00     0.000 A 
ATOM    100  C   UNL A   1      35.099  30.838  27.644  1.00  0.00     0.000 A 
ENDBRANCH  94  95
ENDBRANCH  91  94
ENDBRANCH  85  86
ENDBRANCH  77  81
ENDBRANCH  72  75
ENDBRANCH  70  71
ENDBRANCH   1  70
TORSDOF 18
ENDMDL
