MODEL 1
REMARK VINA RESULT:     -11.3      0.000      0.000
REMARK SMILES CC(C)n1cncc1[C@@H](NC(=O)OC(C)(C)C)C(=O)NCCCCNC(=O)c1ccc(-c2c3nc(c(-c4ccc(S(=O)(=O)[O-])cc4)c4ccc([nH]4)c(-c4ccc(S(=O)(=O)[O-])cc4)c4nc(c(-c5ccc(S(=O)(=O)[O-])cc5)c5ccc2[nH]5)C=C4)C=C3)cc1
REMARK SMILES IDX 22 1 21 2 20 3 18 4 19 5 9 7 8 8 4 9 5 10 6 11 7 12 2 13
REMARK SMILES IDX 1 14 3 15 10 16 11 17 12 19 13 20 14 21 15 22 16 23 17 24
REMARK SMILES IDX 23 25 24 26 25 27 26 28 27 30 28 31 29 32 87 33 30 34 86 35
REMARK SMILES IDX 31 36 32 37 33 38 80 39 34 40 85 41 79 42 81 43 35 44 84 45
REMARK SMILES IDX 78 46 77 47 36 49 66 50 47 51 65 52 48 53 51 54 64 55 82 56
REMARK SMILES IDX 49 57 50 58 63 60 83 61 52 62 37 63 38 64 46 65 39 66 45 67
REMARK SMILES IDX 40 68 41 69 42 70 43 71 44 72 67 73 68 74 76 75 69 76 75 77
REMARK SMILES IDX 70 78 71 79 72 80 73 81 74 82 53 83 54 84 62 85 55 86 61 87
REMARK SMILES IDX 56 88 57 89 58 90 59 91 60 92
REMARK H PARENT 20 6 10 18 25 29 81 48 51 59
REMARK Flexibility Score: inf
ROOT
ATOM      1  C   UNL A   1      31.639  27.690  26.972  1.00  0.00     0.023 C 
ENDROOT
BRANCH   1   2
ATOM      2  C   UNL A   1      32.154  26.361  26.423  1.00  0.00     0.116 C 
BRANCH   2   3
ATOM      3  N   UNL A   1      31.368  25.242  26.893  1.00  0.00    -0.354 N 
ATOM      4  C   UNL A   1      31.646  23.907  26.898  1.00  0.00     0.248 C 
ATOM      5  O   UNL A   1      30.717  23.161  27.237  1.00  0.00    -0.272 OA
ATOM      6  H   UNL A   1      30.491  25.483  27.268  1.00  0.00     0.163 HD
BRANCH   4   7
ATOM      7  C   UNL A   1      32.977  23.290  26.348  1.00  0.00     0.223 C 
BRANCH   7   8
ATOM      8  C   UNL A   1      32.681  22.712  24.981  1.00  0.00     0.070 A 
ATOM      9  N   UNL A   1      32.613  23.351  23.754  1.00  0.00    -0.330 N 
ATOM     10  C   UNL A   1      32.514  22.345  22.809  1.00  0.00     0.199 A 
ATOM     11  N   UNL A   1      32.396  21.156  23.337  1.00  0.00    -0.245 NA
ATOM     12  C   UNL A   1      32.459  21.375  24.673  1.00  0.00     0.137 A 
BRANCH   9  13
ATOM     13  C   UNL A   1      32.447  24.754  23.370  1.00  0.00     0.082 C 
ATOM     14  C   UNL A   1      33.268  25.285  22.197  1.00  0.00     0.031 C 
ATOM     15  C   UNL A   1      30.974  25.131  23.141  1.00  0.00     0.031 C 
ENDBRANCH   9  13
ENDBRANCH   7   8
BRANCH   7  16
ATOM     16  N   UNL A   1      34.166  24.104  26.175  1.00  0.00    -0.304 N 
ATOM     17  C   UNL A   1      35.385  23.681  25.771  1.00  0.00     0.408 C 
ATOM     18  H   UNL A   1      34.075  25.063  26.374  1.00  0.00     0.168 HD
ATOM     19  O   UNL A   1      36.216  24.494  25.376  1.00  0.00    -0.225 OA
BRANCH  17  20
ATOM     20  O   UNL A   1      35.591  22.372  26.009  1.00  0.00    -0.444 OA
BRANCH  20  21
ATOM     21  C   UNL A   1      36.290  21.582  25.023  1.00  0.00     0.106 C 
ATOM     22  C   UNL A   1      35.770  20.153  25.018  1.00  0.00     0.056 C 
ATOM     23  C   UNL A   1      36.159  22.225  23.638  1.00  0.00     0.056 C 
ATOM     24  C   UNL A   1      37.770  21.583  25.450  1.00  0.00     0.056 C 
ENDBRANCH  20  21
ENDBRANCH  17  20
ENDBRANCH   7  16
ENDBRANCH   4   7
ENDBRANCH   2   3
ENDBRANCH   1   2
BRANCH   1  25
ATOM     25  C   UNL A   1      32.357  28.933  26.429  1.00  0.00     0.023 C 
BRANCH  25  26
ATOM     26  C   UNL A   1      33.553  29.406  27.254  1.00  0.00     0.116 C 
BRANCH  26  27
ATOM     27  N   UNL A   1      33.877  30.824  27.062  1.00  0.00    -0.352 N 
ATOM     28  C   UNL A   1      34.934  31.546  27.597  1.00  0.00     0.251 C 
ATOM     29  H   UNL A   1      33.265  31.328  26.478  1.00  0.00     0.163 HD
ATOM     30  O   UNL A   1      34.871  32.764  27.708  1.00  0.00    -0.269 OA
BRANCH  28  31
ATOM     31  C   UNL A   1      36.156  30.820  27.992  1.00  0.00     0.039 A 
ATOM     32  C   UNL A   1      36.437  29.500  27.620  1.00  0.00     0.014 A 
ATOM     33  C   UNL A   1      37.062  31.532  28.760  1.00  0.00     0.014 A 
ATOM     34  C   UNL A   1      37.670  28.939  27.979  1.00  0.00     0.010 A 
ATOM     35  C   UNL A   1      38.331  31.056  28.922  1.00  0.00     0.010 A 
ATOM     36  C   UNL A   1      38.617  29.732  28.637  1.00  0.00    -0.014 A 
BRANCH  36  37
ATOM     37  C   UNL A   1      39.981  29.307  28.940  1.00  0.00     0.031 A 
ATOM     38  C   UNL A   1      40.256  29.108  30.381  1.00  0.00     0.074 A 
ATOM     39  C   UNL A   1      40.815  28.821  27.989  1.00  0.00     0.049 A 
ATOM     40  N   UNL A   1      41.053  29.809  31.114  1.00  0.00    -0.248 NA
ATOM     41  C   UNL A   1      39.462  28.123  31.134  1.00  0.00     0.031 C 
ATOM     42  C   UNL A   1      40.582  28.711  26.546  1.00  0.00     0.029 A 
ATOM     43  N   UNL A   1      42.009  28.183  28.131  1.00  0.00    -0.354 N 
ATOM     44  C   UNL A   1      41.053  29.201  32.362  1.00  0.00     0.074 A 
ATOM     45  C   UNL A   1      39.908  28.326  32.376  1.00  0.00     0.031 C 
ATOM     46  C   UNL A   1      41.450  27.826  26.003  1.00  0.00     0.029 A 
ATOM     47  C   UNL A   1      42.422  27.458  27.012  1.00  0.00     0.049 A 
ATOM     48  H   UNL A   1      42.539  28.230  28.958  1.00  0.00     0.167 HD
ATOM     49  C   UNL A   1      42.150  29.254  33.169  1.00  0.00     0.031 A 
ATOM     50  C   UNL A   1      43.502  26.636  26.915  1.00  0.00     0.031 A 
ATOM     51  C   UNL A   1      43.108  30.225  32.694  1.00  0.00     0.049 A 
ATOM     52  C   UNL A   1      44.450  27.080  27.961  1.00  0.00     0.074 A 
ATOM     53  C   UNL A   1      43.076  31.582  32.442  1.00  0.00     0.029 A 
ATOM     54  N   UNL A   1      44.191  29.740  31.995  1.00  0.00    -0.354 N 
ATOM     55  N   UNL A   1      44.998  28.263  27.958  1.00  0.00    -0.248 NA
ATOM     56  C   UNL A   1      44.398  26.414  29.251  1.00  0.00     0.031 C 
ATOM     57  C   UNL A   1      43.823  31.750  31.236  1.00  0.00     0.029 A 
ATOM     58  C   UNL A   1      44.338  30.506  30.867  1.00  0.00     0.049 A 
ATOM     59  H   UNL A   1      44.758  28.979  32.258  1.00  0.00     0.167 HD
ATOM     60  C   UNL A   1      44.936  28.678  29.279  1.00  0.00     0.074 A 
ATOM     61  C   UNL A   1      44.657  27.459  30.042  1.00  0.00     0.031 C 
ATOM     62  C   UNL A   1      44.828  30.003  29.599  1.00  0.00     0.031 A 
BRANCH  49  63
ATOM     63  C   UNL A   1      42.545  28.150  34.121  1.00  0.00    -0.014 A 
ATOM     64  C   UNL A   1      42.699  28.460  35.487  1.00  0.00     0.010 A 
ATOM     65  C   UNL A   1      43.038  26.899  33.693  1.00  0.00     0.010 A 
ATOM     66  C   UNL A   1      43.386  27.603  36.356  1.00  0.00     0.020 A 
ATOM     67  C   UNL A   1      43.684  26.017  34.559  1.00  0.00     0.020 A 
ATOM     68  C   UNL A   1      43.891  26.393  35.877  1.00  0.00     0.054 A 
BRANCH  68  69
ATOM     69  S   UNL A   1      44.889  25.354  36.970  1.00  0.00     0.124 S 
ATOM     70  O   UNL A   1      44.263  25.598  38.265  1.00  0.00    -0.237 OA
ATOM     71  O   UNL A   1      44.683  24.024  36.403  1.00  0.00    -0.237 OA
ATOM     72  O   UNL A   1      46.238  25.892  36.812  1.00  0.00    -0.744 OA
ENDBRANCH  68  69
ENDBRANCH  49  63
BRANCH  50  73
ATOM     73  C   UNL A   1      43.606  25.306  26.257  1.00  0.00    -0.014 A 
ATOM     74  C   UNL A   1      44.535  25.034  25.236  1.00  0.00     0.010 A 
ATOM     75  C   UNL A   1      42.970  24.201  26.856  1.00  0.00     0.010 A 
ATOM     76  C   UNL A   1      44.819  23.708  24.841  1.00  0.00     0.020 A 
ATOM     77  C   UNL A   1      43.222  22.883  26.451  1.00  0.00     0.020 A 
ATOM     78  C   UNL A   1      44.163  22.639  25.457  1.00  0.00     0.054 A 
BRANCH  78  79
ATOM     79  S   UNL A   1      44.623  20.927  25.039  1.00  0.00     0.124 S 
ATOM     80  O   UNL A   1      45.967  20.814  25.597  1.00  0.00    -0.237 OA
ATOM     81  O   UNL A   1      43.591  20.149  25.718  1.00  0.00    -0.237 OA
ATOM     82  O   UNL A   1      44.556  20.898  23.579  1.00  0.00    -0.744 OA
ENDBRANCH  78  79
ENDBRANCH  50  73
BRANCH  62  83
ATOM     83  C   UNL A   1      45.017  31.029  28.498  1.00  0.00    -0.014 A 
ATOM     84  C   UNL A   1      43.992  31.445  27.622  1.00  0.00     0.010 A 
ATOM     85  C   UNL A   1      46.241  31.717  28.461  1.00  0.00     0.010 A 
ATOM     86  C   UNL A   1      44.196  32.509  26.726  1.00  0.00     0.020 A 
ATOM     87  C   UNL A   1      46.445  32.785  27.583  1.00  0.00     0.020 A 
ATOM     88  C   UNL A   1      45.425  33.174  26.714  1.00  0.00     0.054 A 
BRANCH  88  89
ATOM     89  S   UNL A   1      45.675  34.583  25.594  1.00  0.00     0.124 S 
ATOM     90  O   UNL A   1      44.833  34.237  24.454  1.00  0.00    -0.237 OA
ATOM     91  O   UNL A   1      45.220  35.719  26.392  1.00  0.00    -0.237 OA
ATOM     92  O   UNL A   1      47.114  34.565  25.328  1.00  0.00    -0.744 OA
ENDBRANCH  88  89
ENDBRANCH  62  83
ENDBRANCH  36  37
ENDBRANCH  28  31
ENDBRANCH  26  27
ENDBRANCH  25  26
ENDBRANCH   1  25
TORSDOF 19
ENDMDL
MODEL 2
REMARK VINA RESULT:     -11.0      2.646      8.980
REMARK SMILES CC(C)n1cncc1[C@@H](NC(=O)OC(C)(C)C)C(=O)NCCCCNC(=O)c1ccc(-c2c3nc(c(-c4ccc(S(=O)(=O)[O-])cc4)c4ccc([nH]4)c(-c4ccc(S(=O)(=O)[O-])cc4)c4nc(c(-c5ccc(S(=O)(=O)[O-])cc5)c5ccc2[nH]5)C=C4)C=C3)cc1
REMARK SMILES IDX 22 1 21 2 20 3 18 4 19 5 9 7 8 8 4 9 5 10 6 11 7 12 2 13
REMARK SMILES IDX 1 14 3 15 10 16 11 17 12 19 13 20 14 21 15 22 16 23 17 24
REMARK SMILES IDX 23 25 24 26 25 27 26 28 27 30 28 31 29 32 87 33 30 34 86 35
REMARK SMILES IDX 31 36 32 37 33 38 80 39 34 40 85 41 79 42 81 43 35 44 84 45
REMARK SMILES IDX 78 46 77 47 36 49 66 50 47 51 65 52 48 53 51 54 64 55 82 56
REMARK SMILES IDX 49 57 50 58 63 60 83 61 52 62 37 63 38 64 46 65 39 66 45 67
REMARK SMILES IDX 40 68 41 69 42 70 43 71 44 72 67 73 68 74 76 75 69 76 75 77
REMARK SMILES IDX 70 78 71 79 72 80 73 81 74 82 53 83 54 84 62 85 55 86 61 87
REMARK SMILES IDX 56 88 57 89 58 90 59 91 60 92
REMARK H PARENT 20 6 10 18 25 29 81 48 51 59
REMARK Flexibility Score: inf
ROOT
ATOM      1  C   UNL A   1      37.127  21.047  24.968  1.00  0.00     0.023 C 
ENDROOT
BRANCH   1   2
ATOM      2  C   UNL A   1      35.711  21.620  25.012  1.00  0.00     0.116 C 
BRANCH   2   3
ATOM      3  N   UNL A   1      35.187  21.661  26.359  1.00  0.00    -0.354 N 
ATOM      4  C   UNL A   1      33.899  21.664  26.806  1.00  0.00     0.248 C 
ATOM      5  O   UNL A   1      33.747  21.849  28.022  1.00  0.00    -0.272 OA
ATOM      6  H   UNL A   1      35.870  21.692  27.066  1.00  0.00     0.163 HD
BRANCH   4   7
ATOM      7  C   UNL A   1      32.647  21.624  25.864  1.00  0.00     0.223 C 
BRANCH   7   8
ATOM      8  C   UNL A   1      31.986  22.984  25.926  1.00  0.00     0.070 A 
ATOM      9  N   UNL A   1      31.992  24.007  24.992  1.00  0.00    -0.330 N 
ATOM     10  C   UNL A   1      31.078  24.940  25.447  1.00  0.00     0.199 A 
ATOM     11  N   UNL A   1      30.596  24.653  26.626  1.00  0.00    -0.245 NA
ATOM     12  C   UNL A   1      31.178  23.471  26.947  1.00  0.00     0.137 A 
BRANCH   9  13
ATOM     13  C   UNL A   1      32.855  24.304  23.848  1.00  0.00     0.082 C 
ATOM     14  C   UNL A   1      32.304  25.197  22.738  1.00  0.00     0.031 C 
ATOM     15  C   UNL A   1      34.228  24.852  24.273  1.00  0.00     0.031 C 
ENDBRANCH   9  13
ENDBRANCH   7   8
BRANCH   7  16
ATOM     16  N   UNL A   1      32.782  21.323  24.451  1.00  0.00    -0.304 N 
ATOM     17  C   UNL A   1      32.358  20.205  23.817  1.00  0.00     0.408 C 
ATOM     18  H   UNL A   1      33.228  22.002  23.896  1.00  0.00     0.168 HD
ATOM     19  O   UNL A   1      32.256  20.196  22.594  1.00  0.00    -0.225 OA
BRANCH  17  20
ATOM     20  O   UNL A   1      32.244  19.147  24.642  1.00  0.00    -0.444 OA
BRANCH  20  21
ATOM     21  C   UNL A   1      33.027  17.964  24.376  1.00  0.00     0.106 C 
ATOM     22  C   UNL A   1      34.512  18.268  24.509  1.00  0.00     0.056 C 
ATOM     23  C   UNL A   1      32.608  16.827  25.314  1.00  0.00     0.056 C 
ATOM     24  C   UNL A   1      32.718  17.568  22.920  1.00  0.00     0.056 C 
ENDBRANCH  20  21
ENDBRANCH  17  20
ENDBRANCH   7  16
ENDBRANCH   4   7
ENDBRANCH   2   3
ENDBRANCH   1   2
BRANCH   1  25
ATOM     25  C   UNL A   1      38.244  22.069  25.220  1.00  0.00     0.023 C 
BRANCH  25  26
ATOM     26  C   UNL A   1      39.257  21.673  26.293  1.00  0.00     0.116 C 
BRANCH  26  27
ATOM     27  N   UNL A   1      40.620  21.496  25.779  1.00  0.00    -0.352 N 
ATOM     28  C   UNL A   1      41.640  22.434  25.704  1.00  0.00     0.251 C 
ATOM     29  H   UNL A   1      40.838  20.597  25.443  1.00  0.00     0.163 HD
ATOM     30  O   UNL A   1      42.558  22.301  24.904  1.00  0.00    -0.269 OA
BRANCH  28  31
ATOM     31  C   UNL A   1      41.620  23.575  26.640  1.00  0.00     0.039 A 
ATOM     32  C   UNL A   1      42.191  23.549  27.917  1.00  0.00     0.014 A 
ATOM     33  C   UNL A   1      41.006  24.726  26.177  1.00  0.00     0.014 A 
ATOM     34  C   UNL A   1      42.190  24.719  28.688  1.00  0.00     0.010 A 
ATOM     35  C   UNL A   1      41.193  25.904  26.841  1.00  0.00     0.010 A 
ATOM     36  C   UNL A   1      41.682  25.901  28.136  1.00  0.00    -0.014 A 
BRANCH  36  37
ATOM     37  C   UNL A   1      41.749  27.209  28.783  1.00  0.00     0.031 A 
ATOM     38  C   UNL A   1      42.877  28.057  28.335  1.00  0.00     0.074 A 
ATOM     39  C   UNL A   1      40.706  27.728  29.474  1.00  0.00     0.049 A 
ATOM     40  N   UNL A   1      43.888  28.427  29.044  1.00  0.00    -0.248 NA
ATOM     41  C   UNL A   1      42.979  28.422  26.912  1.00  0.00     0.031 C 
ATOM     42  C   UNL A   1      39.416  27.103  29.778  1.00  0.00     0.029 A 
ATOM     43  N   UNL A   1      40.521  28.995  29.935  1.00  0.00    -0.354 N 
ATOM     44  C   UNL A   1      44.629  29.276  28.234  1.00  0.00     0.074 A 
ATOM     45  C   UNL A   1      44.153  29.058  26.891  1.00  0.00     0.031 C 
ATOM     46  C   UNL A   1      38.510  28.051  30.116  1.00  0.00     0.029 A 
ATOM     47  C   UNL A   1      39.199  29.319  30.244  1.00  0.00     0.049 A 
ATOM     48  H   UNL A   1      41.262  29.634  30.042  1.00  0.00     0.167 HD
ATOM     49  C   UNL A   1      45.371  30.287  28.768  1.00  0.00     0.031 A 
ATOM     50  C   UNL A   1      38.711  30.536  30.606  1.00  0.00     0.031 A 
ATOM     51  C   UNL A   1      45.502  30.146  30.199  1.00  0.00     0.049 A 
ATOM     52  C   UNL A   1      39.858  31.288  31.163  1.00  0.00     0.074 A 
ATOM     53  C   UNL A   1      46.001  29.171  31.041  1.00  0.00     0.029 A 
ATOM     54  N   UNL A   1      44.680  30.928  30.980  1.00  0.00    -0.354 N 
ATOM     55  N   UNL A   1      40.490  30.909  32.239  1.00  0.00    -0.248 NA
ATOM     56  C   UNL A   1      40.602  32.154  30.267  1.00  0.00     0.031 C 
ATOM     57  C   UNL A   1      45.082  29.123  32.134  1.00  0.00     0.029 A 
ATOM     58  C   UNL A   1      44.127  30.123  31.943  1.00  0.00     0.049 A 
ATOM     59  H   UNL A   1      44.517  31.892  30.866  1.00  0.00     0.167 HD
ATOM     60  C   UNL A   1      41.830  31.096  31.936  1.00  0.00     0.074 A 
ATOM     61  C   UNL A   1      41.832  31.962  30.755  1.00  0.00     0.031 C 
ATOM     62  C   UNL A   1      42.796  30.303  32.490  1.00  0.00     0.031 A 
BRANCH  49  63
ATOM     63  C   UNL A   1      45.610  31.609  28.077  1.00  0.00    -0.014 A 
ATOM     64  C   UNL A   1      46.824  32.283  28.312  1.00  0.00     0.010 A 
ATOM     65  C   UNL A   1      44.589  32.341  27.434  1.00  0.00     0.010 A 
ATOM     66  C   UNL A   1      46.975  33.641  28.000  1.00  0.00     0.020 A 
ATOM     67  C   UNL A   1      44.744  33.680  27.078  1.00  0.00     0.020 A 
ATOM     68  C   UNL A   1      45.923  34.334  27.401  1.00  0.00     0.054 A 
BRANCH  68  69
ATOM     69  S   UNL A   1      46.078  36.114  27.122  1.00  0.00     0.124 S 
ATOM     70  O   UNL A   1      46.790  36.541  28.323  1.00  0.00    -0.237 OA
ATOM     71  O   UNL A   1      46.839  36.166  25.877  1.00  0.00    -0.237 OA
ATOM     72  O   UNL A   1      44.692  36.564  27.020  1.00  0.00    -0.744 OA
ENDBRANCH  68  69
ENDBRANCH  49  63
BRANCH  50  73
ATOM     73  C   UNL A   1      37.455  31.204  30.173  1.00  0.00    -0.014 A 
ATOM     74  C   UNL A   1      36.334  31.332  31.013  1.00  0.00     0.010 A 
ATOM     75  C   UNL A   1      37.472  31.989  29.004  1.00  0.00     0.010 A 
ATOM     76  C   UNL A   1      35.280  32.218  30.695  1.00  0.00     0.020 A 
ATOM     77  C   UNL A   1      36.418  32.848  28.663  1.00  0.00     0.020 A 
ATOM     78  C   UNL A   1      35.332  32.976  29.523  1.00  0.00     0.054 A 
BRANCH  78  79
ATOM     79  S   UNL A   1      34.038  34.210  29.178  1.00  0.00     0.124 S 
ATOM     80  O   UNL A   1      33.088  33.455  28.367  1.00  0.00    -0.237 OA
ATOM     81  O   UNL A   1      33.581  34.569  30.517  1.00  0.00    -0.237 OA
ATOM     82  O   UNL A   1      34.752  35.269  28.466  1.00  0.00    -0.744 OA
ENDBRANCH  78  79
ENDBRANCH  50  73
BRANCH  62  83
ATOM     83  C   UNL A   1      42.406  29.372  33.621  1.00  0.00    -0.014 A 
ATOM     84  C   UNL A   1      41.630  28.206  33.452  1.00  0.00     0.010 A 
ATOM     85  C   UNL A   1      42.989  29.603  34.878  1.00  0.00     0.010 A 
ATOM     86  C   UNL A   1      41.433  27.307  34.516  1.00  0.00     0.020 A 
ATOM     87  C   UNL A   1      42.810  28.707  35.936  1.00  0.00     0.020 A 
ATOM     88  C   UNL A   1      42.028  27.566  35.755  1.00  0.00     0.054 A 
BRANCH  88  89
ATOM     89  S   UNL A   1      41.819  26.384  37.118  1.00  0.00     0.124 S 
ATOM     90  O   UNL A   1      42.933  26.714  38.000  1.00  0.00    -0.237 OA
ATOM     91  O   UNL A   1      40.491  26.709  37.631  1.00  0.00    -0.237 OA
ATOM     92  O   UNL A   1      41.916  25.079  36.464  1.00  0.00    -0.744 OA
ENDBRANCH  88  89
ENDBRANCH  62  83
ENDBRANCH  36  37
ENDBRANCH  28  31
ENDBRANCH  26  27
ENDBRANCH  25  26
ENDBRANCH   1  25
TORSDOF 19
ENDMDL
MODEL 3
REMARK VINA RESULT:     -11.0      2.736      9.189
REMARK SMILES CC(C)n1cncc1[C@@H](NC(=O)OC(C)(C)C)C(=O)NCCCCNC(=O)c1ccc(-c2c3nc(c(-c4ccc(S(=O)(=O)[O-])cc4)c4ccc([nH]4)c(-c4ccc(S(=O)(=O)[O-])cc4)c4nc(c(-c5ccc(S(=O)(=O)[O-])cc5)c5ccc2[nH]5)C=C4)C=C3)cc1
REMARK SMILES IDX 22 1 21 2 20 3 18 4 19 5 9 7 8 8 4 9 5 10 6 11 7 12 2 13
REMARK SMILES IDX 1 14 3 15 10 16 11 17 12 19 13 20 14 21 15 22 16 23 17 24
REMARK SMILES IDX 23 25 24 26 25 27 26 28 27 30 28 31 29 32 87 33 30 34 86 35
REMARK SMILES IDX 31 36 32 37 33 38 80 39 34 40 85 41 79 42 81 43 35 44 84 45
REMARK SMILES IDX 78 46 77 47 36 49 66 50 47 51 65 52 48 53 51 54 64 55 82 56
REMARK SMILES IDX 49 57 50 58 63 60 83 61 52 62 37 63 38 64 46 65 39 66 45 67
REMARK SMILES IDX 40 68 41 69 42 70 43 71 44 72 67 73 68 74 76 75 69 76 75 77
REMARK SMILES IDX 70 78 71 79 72 80 73 81 74 82 53 83 54 84 62 85 55 86 61 87
REMARK SMILES IDX 56 88 57 89 58 90 59 91 60 92
REMARK H PARENT 20 6 10 18 25 29 81 48 51 59
REMARK Flexibility Score: inf
ROOT
ATOM      1  C   UNL A   1      38.838  22.450  26.099  1.00  0.00     0.023 C 
ENDROOT
BRANCH   1   2
ATOM      2  C   UNL A   1      37.526  23.156  25.762  1.00  0.00     0.116 C 
BRANCH   2   3
ATOM      3  N   UNL A   1      36.418  22.631  26.528  1.00  0.00    -0.354 N 
ATOM      4  C   UNL A   1      35.342  21.893  26.133  1.00  0.00     0.248 C 
ATOM      5  O   UNL A   1      34.470  21.703  26.993  1.00  0.00    -0.272 OA
ATOM      6  H   UNL A   1      36.446  22.842  27.489  1.00  0.00     0.163 HD
BRANCH   4   7
ATOM      7  C   UNL A   1      35.086  21.444  24.654  1.00  0.00     0.223 C 
BRANCH   7   8
ATOM      8  C   UNL A   1      33.975  20.416  24.675  1.00  0.00     0.070 A 
ATOM      9  N   UNL A   1      34.058  19.034  24.699  1.00  0.00    -0.330 N 
ATOM     10  C   UNL A   1      32.769  18.581  24.915  1.00  0.00     0.199 A 
ATOM     11  N   UNL A   1      31.882  19.539  24.909  1.00  0.00    -0.245 NA
ATOM     12  C   UNL A   1      32.609  20.669  24.723  1.00  0.00     0.137 A 
BRANCH   9  13
ATOM     13  C   UNL A   1      35.133  18.096  24.372  1.00  0.00     0.082 C 
ATOM     14  C   UNL A   1      36.514  18.337  24.978  1.00  0.00     0.031 C 
ATOM     15  C   UNL A   1      34.738  16.633  24.635  1.00  0.00     0.031 C 
ENDBRANCH   9  13
ENDBRANCH   7   8
BRANCH   7  16
ATOM     16  N   UNL A   1      34.705  22.404  23.635  1.00  0.00    -0.304 N 
ATOM     17  C   UNL A   1      34.392  23.706  23.826  1.00  0.00     0.408 C 
ATOM     18  H   UNL A   1      34.670  22.073  22.709  1.00  0.00     0.168 HD
ATOM     19  O   UNL A   1      34.383  24.480  22.873  1.00  0.00    -0.225 OA
BRANCH  17  20
ATOM     20  O   UNL A   1      33.962  23.964  25.076  1.00  0.00    -0.444 OA
BRANCH  20  21
ATOM     21  C   UNL A   1      32.668  24.579  25.258  1.00  0.00     0.106 C 
ATOM     22  C   UNL A   1      31.750  24.242  24.093  1.00  0.00     0.056 C 
ATOM     23  C   UNL A   1      32.055  24.140  26.591  1.00  0.00     0.056 C 
ATOM     24  C   UNL A   1      32.920  26.098  25.284  1.00  0.00     0.056 C 
ENDBRANCH  20  21
ENDBRANCH  17  20
ENDBRANCH   7  16
ENDBRANCH   4   7
ENDBRANCH   2   3
ENDBRANCH   1   2
BRANCH   1  25
ATOM     25  C   UNL A   1      39.657  23.109  27.218  1.00  0.00     0.023 C 
BRANCH  25  26
ATOM     26  C   UNL A   1      40.902  22.338  27.652  1.00  0.00     0.116 C 
BRANCH  26  27
ATOM     27  N   UNL A   1      41.950  22.288  26.627  1.00  0.00    -0.352 N 
ATOM     28  C   UNL A   1      42.440  23.325  25.846  1.00  0.00     0.251 C 
ATOM     29  H   UNL A   1      42.358  21.405  26.475  1.00  0.00     0.163 HD
ATOM     30  O   UNL A   1      42.991  23.098  24.775  1.00  0.00    -0.269 OA
BRANCH  28  31
ATOM     31  C   UNL A   1      42.324  24.706  26.351  1.00  0.00     0.039 A 
ATOM     32  C   UNL A   1      41.496  25.680  25.782  1.00  0.00     0.014 A 
ATOM     33  C   UNL A   1      43.083  25.007  27.470  1.00  0.00     0.014 A 
ATOM     34  C   UNL A   1      41.398  26.935  26.398  1.00  0.00     0.010 A 
ATOM     35  C   UNL A   1      42.823  26.147  28.175  1.00  0.00     0.010 A 
ATOM     36  C   UNL A   1      42.074  27.160  27.604  1.00  0.00    -0.014 A 
BRANCH  36  37
ATOM     37  C   UNL A   1      41.942  28.371  28.409  1.00  0.00     0.031 A 
ATOM     38  C   UNL A   1      42.968  29.404  28.136  1.00  0.00     0.074 A 
ATOM     39  C   UNL A   1      40.810  28.664  29.094  1.00  0.00     0.049 A 
ATOM     40  N   UNL A   1      43.890  29.802  28.945  1.00  0.00    -0.248 NA
ATOM     41  C   UNL A   1      43.083  29.959  26.778  1.00  0.00     0.031 C 
ATOM     42  C   UNL A   1      39.600  27.850  29.242  1.00  0.00     0.029 A 
ATOM     43  N   UNL A   1      40.441  29.828  29.695  1.00  0.00    -0.354 N 
ATOM     44  C   UNL A   1      44.548  30.834  28.291  1.00  0.00     0.074 A 
ATOM     45  C   UNL A   1      44.164  30.734  26.906  1.00  0.00     0.031 C 
ATOM     46  C   UNL A   1      38.565  28.627  29.638  1.00  0.00     0.029 A 
ATOM     47  C   UNL A   1      39.076  29.943  29.961  1.00  0.00     0.049 A 
ATOM     48  H   UNL A   1      41.087  30.534  29.924  1.00  0.00     0.167 HD
ATOM     49  C   UNL A   1      45.128  31.851  28.988  1.00  0.00     0.031 A 
ATOM     50  C   UNL A   1      38.418  31.033  30.440  1.00  0.00     0.031 A 
ATOM     51  C   UNL A   1      45.212  31.543  30.397  1.00  0.00     0.049 A 
ATOM     52  C   UNL A   1      39.431  31.843  31.153  1.00  0.00     0.074 A 
ATOM     53  C   UNL A   1      45.797  30.537  31.141  1.00  0.00     0.029 A 
ATOM     54  N   UNL A   1      44.262  32.110  31.217  1.00  0.00    -0.354 N 
ATOM     55  N   UNL A   1      40.060  31.410  32.210  1.00  0.00    -0.248 NA
ATOM     56  C   UNL A   1      40.095  32.903  30.416  1.00  0.00     0.031 C 
ATOM     57  C   UNL A   1      44.846  30.235  32.163  1.00  0.00     0.029 A 
ATOM     58  C   UNL A   1      43.778  31.125  32.039  1.00  0.00     0.049 A 
ATOM     59  H   UNL A   1      43.980  33.054  31.213  1.00  0.00     0.167 HD
ATOM     60  C   UNL A   1      41.376  31.798  32.014  1.00  0.00     0.074 A 
ATOM     61  C   UNL A   1      41.316  32.804  30.950  1.00  0.00     0.031 C 
ATOM     62  C   UNL A   1      42.412  31.067  32.523  1.00  0.00     0.031 A 
BRANCH  49  63
ATOM     63  C   UNL A   1      45.222  33.270  28.480  1.00  0.00    -0.014 A 
ATOM     64  C   UNL A   1      46.447  33.954  28.611  1.00  0.00     0.010 A 
ATOM     65  C   UNL A   1      44.093  34.045  28.136  1.00  0.00     0.010 A 
ATOM     66  C   UNL A   1      46.518  35.348  28.492  1.00  0.00     0.020 A 
ATOM     67  C   UNL A   1      44.163  35.428  27.970  1.00  0.00     0.020 A 
ATOM     68  C   UNL A   1      45.368  36.076  28.190  1.00  0.00     0.054 A 
BRANCH  68  69
ATOM     69  S   UNL A   1      45.441  37.883  28.168  1.00  0.00     0.124 S 
ATOM     70  O   UNL A   1      44.029  38.239  28.257  1.00  0.00    -0.237 OA
ATOM     71  O   UNL A   1      46.247  38.173  29.351  1.00  0.00    -0.237 OA
ATOM     72  O   UNL A   1      46.086  38.182  26.892  1.00  0.00    -0.744 OA
ENDBRANCH  68  69
ENDBRANCH  49  63
BRANCH  50  73
ATOM     73  C   UNL A   1      37.105  31.590  30.017  1.00  0.00    -0.014 A 
ATOM     74  C   UNL A   1      36.160  32.088  30.933  1.00  0.00     0.010 A 
ATOM     75  C   UNL A   1      36.908  31.905  28.659  1.00  0.00     0.010 A 
ATOM     76  C   UNL A   1      35.069  32.874  30.503  1.00  0.00     0.020 A 
ATOM     77  C   UNL A   1      35.812  32.659  28.216  1.00  0.00     0.020 A 
ATOM     78  C   UNL A   1      34.906  33.161  29.145  1.00  0.00     0.054 A 
BRANCH  78  79
ATOM     79  S   UNL A   1      33.574  34.280  28.604  1.00  0.00     0.124 S 
ATOM     80  O   UNL A   1      34.315  35.396  28.024  1.00  0.00    -0.237 OA
ATOM     81  O   UNL A   1      32.833  33.454  27.657  1.00  0.00    -0.237 OA
ATOM     82  O   UNL A   1      32.860  34.591  29.842  1.00  0.00    -0.744 OA
ENDBRANCH  78  79
ENDBRANCH  50  73
BRANCH  62  83
ATOM     83  C   UNL A   1      42.097  29.956  33.506  1.00  0.00    -0.014 A 
ATOM     84  C   UNL A   1      41.712  28.652  33.128  1.00  0.00     0.010 A 
ATOM     85  C   UNL A   1      42.363  30.201  34.864  1.00  0.00     0.010 A 
ATOM     86  C   UNL A   1      41.583  27.630  34.086  1.00  0.00     0.020 A 
ATOM     87  C   UNL A   1      42.251  29.187  35.819  1.00  0.00     0.020 A 
ATOM     88  C   UNL A   1      41.856  27.907  35.429  1.00  0.00     0.054 A 
BRANCH  88  89
ATOM     89  S   UNL A   1      41.741  26.578  36.662  1.00  0.00     0.124 S 
ATOM     90  O   UNL A   1      41.668  25.380  35.833  1.00  0.00    -0.237 OA
ATOM     91  O   UNL A   1      42.973  26.739  37.431  1.00  0.00    -0.237 OA
ATOM     92  O   UNL A   1      40.518  26.893  37.401  1.00  0.00    -0.744 OA
ENDBRANCH  88  89
ENDBRANCH  62  83
ENDBRANCH  36  37
ENDBRANCH  28  31
ENDBRANCH  26  27
ENDBRANCH  25  26
ENDBRANCH   1  25
TORSDOF 19
ENDMDL
