MODEL 1
REMARK VINA RESULT:      -9.6      0.000      0.000
REMARK SMILES CCCOc1ccc(N[C@H](C)[C@H](C)C(=O)NCCCCNC(=O)c2ccc(-c3c4nc(c(-c5ccc(S(=O)(=O)[O-])cc5)c5ccc([nH]5)c(-c5ccc(S(=O)(=O)[O-])cc5)c5nc(c(-c6ccc(S(=O)(=O)[O-])cc6)c6ccc3[nH]6)C=C5)C=C4)cc2)cc1
REMARK SMILES IDX 17 1 16 2 14 3 15 4 12 6 13 7 10 8 11 9 9 10 8 12 5 13 6 14
REMARK SMILES IDX 85 15 7 16 84 17 4 18 3 19 2 20 1 21 18 22 19 23 20 24 21 25
REMARK SMILES IDX 22 26 23 28 24 29 25 30 83 31 26 32 82 33 27 34 28 35 29 36
REMARK SMILES IDX 76 37 30 38 81 39 75 40 77 41 31 42 80 43 74 44 73 45 32 47
REMARK SMILES IDX 62 48 43 49 61 50 44 51 47 52 60 53 78 54 45 55 46 56 59 58
REMARK SMILES IDX 79 59 48 60 33 61 34 62 42 63 35 64 41 65 36 66 37 67 38 68
REMARK SMILES IDX 39 69 40 70 63 71 64 72 72 73 65 74 71 75 66 76 67 77 68 78
REMARK SMILES IDX 69 79 70 80 49 81 50 82 58 83 51 84 57 85 52 86 53 87 54 88
REMARK SMILES IDX 55 89 56 90
REMARK H PARENT 16 5 9 11 21 27 77 46 47 57
REMARK Flexibility Score: inf
ROOT
ATOM      1  C   UNL A   1      37.840  23.168  26.034  1.00  0.00     0.116 C 
ENDROOT
BRANCH   1   2
ATOM      2  N   UNL A   1      37.647  23.255  24.602  1.00  0.00    -0.356 N 
ATOM      3  C   UNL A   1      36.565  22.895  23.859  1.00  0.00     0.224 C 
ATOM      4  O   UNL A   1      36.515  23.299  22.692  1.00  0.00    -0.275 OA
ATOM      5  H   UNL A   1      38.405  23.628  24.095  1.00  0.00     0.163 HD
BRANCH   3   6
ATOM      6  C   UNL A   1      35.422  22.044  24.415  1.00  0.00     0.097 C 
ATOM      7  C   UNL A   1      35.866  20.748  25.091  1.00  0.00     0.020 C 
BRANCH   6   8
ATOM      8  C   UNL A   1      34.348  22.884  25.143  1.00  0.00     0.088 C 
ATOM      9  C   UNL A   1      34.347  22.690  26.655  1.00  0.00     0.031 C 
BRANCH   8  10
ATOM     10  N   UNL A   1      34.279  24.278  24.701  1.00  0.00    -0.382 N 
ATOM     11  H   UNL A   1      35.022  24.818  25.055  1.00  0.00     0.160 HD
BRANCH  10  12
ATOM     12  C   UNL A   1      33.429  25.015  23.913  1.00  0.00     0.034 A 
ATOM     13  C   UNL A   1      31.507  26.530  22.499  1.00  0.00     0.119 A 
ATOM     14  C   UNL A   1      32.819  26.468  22.050  1.00  0.00     0.048 A 
ATOM     15  C   UNL A   1      31.113  25.750  23.571  1.00  0.00     0.048 A 
ATOM     16  C   UNL A   1      33.766  25.698  22.745  1.00  0.00     0.029 A 
ATOM     17  C   UNL A   1      32.074  25.049  24.295  1.00  0.00     0.029 A 
BRANCH  13  18
ATOM     18  O   UNL A   1      30.609  27.333  21.857  1.00  0.00    -0.494 OA
BRANCH  18  19
ATOM     19  C   UNL A   1      29.994  28.269  22.765  1.00  0.00     0.229 C 
BRANCH  19  20
ATOM     20  C   UNL A   1      30.014  29.701  22.215  1.00  0.00     0.038 C 
ATOM     21  C   UNL A   1      29.023  30.628  22.915  1.00  0.00     0.007 C 
ENDBRANCH  19  20
ENDBRANCH  18  19
ENDBRANCH  13  18
ENDBRANCH  10  12
ENDBRANCH   8  10
ENDBRANCH   6   8
ENDBRANCH   3   6
ENDBRANCH   1   2
BRANCH   1  22
ATOM     22  C   UNL A   1      39.222  22.684  26.448  1.00  0.00     0.023 C 
BRANCH  22  23
ATOM     23  C   UNL A   1      39.602  21.304  25.918  1.00  0.00     0.023 C 
BRANCH  23  24
ATOM     24  C   UNL A   1      40.443  20.438  26.853  1.00  0.00     0.116 C 
BRANCH  24  25
ATOM     25  N   UNL A   1      41.296  19.478  26.166  1.00  0.00    -0.352 N 
ATOM     26  C   UNL A   1      42.580  19.651  25.685  1.00  0.00     0.251 C 
ATOM     27  H   UNL A   1      40.906  18.585  26.026  1.00  0.00     0.163 HD
ATOM     28  O   UNL A   1      43.142  18.767  25.068  1.00  0.00    -0.269 OA
BRANCH  26  29
ATOM     29  C   UNL A   1      43.246  20.955  25.905  1.00  0.00     0.039 A 
ATOM     30  C   UNL A   1      43.571  21.744  24.800  1.00  0.00     0.014 A 
ATOM     31  C   UNL A   1      43.469  21.421  27.202  1.00  0.00     0.014 A 
ATOM     32  C   UNL A   1      44.032  23.048  24.998  1.00  0.00     0.010 A 
ATOM     33  C   UNL A   1      43.860  22.742  27.396  1.00  0.00     0.010 A 
ATOM     34  C   UNL A   1      44.128  23.574  26.296  1.00  0.00    -0.014 A 
BRANCH  34  35
ATOM     35  C   UNL A   1      44.479  24.998  26.538  1.00  0.00     0.031 A 
ATOM     36  C   UNL A   1      45.904  25.458  26.389  1.00  0.00     0.074 A 
ATOM     37  C   UNL A   1      43.538  25.854  26.984  1.00  0.00     0.049 A 
ATOM     38  N   UNL A   1      46.428  26.621  26.675  1.00  0.00    -0.248 NA
ATOM     39  C   UNL A   1      46.869  24.470  25.881  1.00  0.00     0.031 C 
ATOM     40  C   UNL A   1      42.127  25.525  27.211  1.00  0.00     0.029 A 
ATOM     41  N   UNL A   1      43.629  27.176  27.347  1.00  0.00    -0.354 N 
ATOM     42  C   UNL A   1      47.787  26.498  26.408  1.00  0.00     0.074 A 
ATOM     43  C   UNL A   1      48.010  25.136  25.976  1.00  0.00     0.031 C 
ATOM     44  C   UNL A   1      41.485  26.619  27.654  1.00  0.00     0.029 A 
ATOM     45  C   UNL A   1      42.442  27.714  27.785  1.00  0.00     0.049 A 
ATOM     46  H   UNL A   1      44.467  27.691  27.297  1.00  0.00     0.167 HD
ATOM     47  C   UNL A   1      48.758  27.437  26.498  1.00  0.00     0.031 A 
ATOM     48  C   UNL A   1      42.154  28.945  28.252  1.00  0.00     0.031 A 
ATOM     49  C   UNL A   1      48.531  28.798  26.908  1.00  0.00     0.049 A 
ATOM     50  C   UNL A   1      43.249  29.973  28.340  1.00  0.00     0.074 A 
ATOM     51  C   UNL A   1      49.441  29.838  26.975  1.00  0.00     0.029 A 
ATOM     52  N   UNL A   1      47.308  29.308  27.315  1.00  0.00    -0.354 N 
ATOM     53  N   UNL A   1      44.518  29.851  28.031  1.00  0.00    -0.248 NA
ATOM     54  C   UNL A   1      42.872  31.305  28.834  1.00  0.00     0.031 C 
ATOM     55  C   UNL A   1      48.776  30.968  27.461  1.00  0.00     0.029 A 
ATOM     56  C   UNL A   1      47.442  30.644  27.651  1.00  0.00     0.049 A 
ATOM     57  H   UNL A   1      46.469  28.796  27.360  1.00  0.00     0.167 HD
ATOM     58  C   UNL A   1      45.085  31.098  28.268  1.00  0.00     0.074 A 
ATOM     59  C   UNL A   1      44.020  31.962  28.736  1.00  0.00     0.031 C 
ATOM     60  C   UNL A   1      46.372  31.493  28.108  1.00  0.00     0.031 A 
BRANCH  47  61
ATOM     61  C   UNL A   1      50.160  27.019  26.149  1.00  0.00    -0.014 A 
ATOM     62  C   UNL A   1      51.043  26.553  27.140  1.00  0.00     0.010 A 
ATOM     63  C   UNL A   1      50.593  27.065  24.812  1.00  0.00     0.010 A 
ATOM     64  C   UNL A   1      52.349  26.183  26.807  1.00  0.00     0.020 A 
ATOM     65  C   UNL A   1      51.890  26.672  24.470  1.00  0.00     0.020 A 
ATOM     66  C   UNL A   1      52.765  26.252  25.474  1.00  0.00     0.054 A 
BRANCH  66  67
ATOM     67  S   UNL A   1      54.462  25.756  25.067  1.00  0.00     0.124 S 
ATOM     68  O   UNL A   1      54.342  24.300  25.010  1.00  0.00    -0.237 OA
ATOM     69  O   UNL A   1      54.693  26.415  23.784  1.00  0.00    -0.237 OA
ATOM     70  O   UNL A   1      55.251  26.273  26.181  1.00  0.00    -0.744 OA
ENDBRANCH  66  67
ENDBRANCH  47  61
BRANCH  48  71
ATOM     71  C   UNL A   1      40.763  29.280  28.661  1.00  0.00    -0.014 A 
ATOM     72  C   UNL A   1      39.765  29.472  27.690  1.00  0.00     0.010 A 
ATOM     73  C   UNL A   1      40.427  29.395  30.021  1.00  0.00     0.010 A 
ATOM     74  C   UNL A   1      38.459  29.792  28.070  1.00  0.00     0.020 A 
ATOM     75  C   UNL A   1      39.114  29.690  30.406  1.00  0.00     0.020 A 
ATOM     76  C   UNL A   1      38.141  29.897  29.427  1.00  0.00     0.054 A 
BRANCH  76  77
ATOM     77  S   UNL A   1      36.427  30.260  29.901  1.00  0.00     0.124 S 
ATOM     78  O   UNL A   1      36.436  31.716  29.982  1.00  0.00    -0.237 OA
ATOM     79  O   UNL A   1      35.665  29.692  28.791  1.00  0.00    -0.237 OA
ATOM     80  O   UNL A   1      36.271  29.559  31.173  1.00  0.00    -0.744 OA
ENDBRANCH  76  77
ENDBRANCH  48  71
BRANCH  60  81
ATOM     81  C   UNL A   1      46.701  32.930  28.406  1.00  0.00    -0.014 A 
ATOM     82  C   UNL A   1      46.887  33.375  29.727  1.00  0.00     0.010 A 
ATOM     83  C   UNL A   1      46.898  33.830  27.342  1.00  0.00     0.010 A 
ATOM     84  C   UNL A   1      47.245  34.702  29.979  1.00  0.00     0.020 A 
ATOM     85  C   UNL A   1      47.277  35.151  27.590  1.00  0.00     0.020 A 
ATOM     86  C   UNL A   1      47.439  35.581  28.908  1.00  0.00     0.054 A 
BRANCH  86  87
ATOM     87  S   UNL A   1      47.964  37.283  29.258  1.00  0.00     0.124 S 
ATOM     88  O   UNL A   1      46.729  38.032  29.044  1.00  0.00    -0.237 OA
ATOM     89  O   UNL A   1      48.418  37.201  30.644  1.00  0.00    -0.237 OA
ATOM     90  O   UNL A   1      49.020  37.527  28.276  1.00  0.00    -0.744 OA
ENDBRANCH  86  87
ENDBRANCH  60  81
ENDBRANCH  34  35
ENDBRANCH  26  29
ENDBRANCH  24  25
ENDBRANCH  23  24
ENDBRANCH  22  23
ENDBRANCH   1  22
TORSDOF 20
ENDMDL
MODEL 2
REMARK VINA RESULT:      -9.6      4.509      5.357
REMARK SMILES CCCOc1ccc(N[C@H](C)[C@H](C)C(=O)NCCCCNC(=O)c2ccc(-c3c4nc(c(-c5ccc(S(=O)(=O)[O-])cc5)c5ccc([nH]5)c(-c5ccc(S(=O)(=O)[O-])cc5)c5nc(c(-c6ccc(S(=O)(=O)[O-])cc6)c6ccc3[nH]6)C=C5)C=C4)cc2)cc1
REMARK SMILES IDX 17 1 16 2 14 3 15 4 12 6 13 7 10 8 11 9 9 10 8 12 5 13 6 14
REMARK SMILES IDX 85 15 7 16 84 17 4 18 3 19 2 20 1 21 18 22 19 23 20 24 21 25
REMARK SMILES IDX 22 26 23 28 24 29 25 30 83 31 26 32 82 33 27 34 28 35 29 36
REMARK SMILES IDX 76 37 30 38 81 39 75 40 77 41 31 42 80 43 74 44 73 45 32 47
REMARK SMILES IDX 62 48 43 49 61 50 44 51 47 52 60 53 78 54 45 55 46 56 59 58
REMARK SMILES IDX 79 59 48 60 33 61 34 62 42 63 35 64 41 65 36 66 37 67 38 68
REMARK SMILES IDX 39 69 40 70 63 71 64 72 72 73 65 74 71 75 66 76 67 77 68 78
REMARK SMILES IDX 69 79 70 80 49 81 50 82 58 83 51 84 57 85 52 86 53 87 54 88
REMARK SMILES IDX 55 89 56 90
REMARK H PARENT 16 5 9 11 21 27 77 46 47 57
REMARK Flexibility Score: inf
ROOT
ATOM      1  C   UNL A   1      37.715  23.633  26.007  1.00  0.00     0.116 C 
ENDROOT
BRANCH   1   2
ATOM      2  N   UNL A   1      37.519  23.480  24.581  1.00  0.00    -0.356 N 
ATOM      3  C   UNL A   1      36.444  22.984  23.910  1.00  0.00     0.224 C 
ATOM      4  O   UNL A   1      36.387  23.191  22.693  1.00  0.00    -0.275 OA
ATOM      5  H   UNL A   1      38.271  23.777  24.018  1.00  0.00     0.163 HD
BRANCH   3   6
ATOM      6  C   UNL A   1      35.315  22.219  24.602  1.00  0.00     0.097 C 
ATOM      7  C   UNL A   1      35.765  20.970  25.358  1.00  0.00     0.020 C 
BRANCH   6   8
ATOM      8  C   UNL A   1      34.309  23.148  25.318  1.00  0.00     0.088 C 
ATOM      9  C   UNL A   1      34.348  23.030  26.838  1.00  0.00     0.031 C 
BRANCH   8  10
ATOM     10  N   UNL A   1      34.296  24.520  24.808  1.00  0.00    -0.382 N 
ATOM     11  H   UNL A   1      35.167  24.786  24.433  1.00  0.00     0.160 HD
BRANCH  10  12
ATOM     12  C   UNL A   1      33.365  25.526  24.724  1.00  0.00     0.034 A 
ATOM     13  C   UNL A   1      31.526  27.628  24.293  1.00  0.00     0.119 A 
ATOM     14  C   UNL A   1      31.391  26.794  25.395  1.00  0.00     0.048 A 
ATOM     15  C   UNL A   1      32.632  27.506  23.472  1.00  0.00     0.048 A 
ATOM     16  C   UNL A   1      32.320  25.763  25.615  1.00  0.00     0.029 A 
ATOM     17  C   UNL A   1      33.504  26.437  23.658  1.00  0.00     0.029 A 
BRANCH  13  18
ATOM     18  O   UNL A   1      30.583  28.585  24.050  1.00  0.00    -0.494 OA
BRANCH  18  19
ATOM     19  C   UNL A   1      30.167  28.577  22.669  1.00  0.00     0.229 C 
BRANCH  19  20
ATOM     20  C   UNL A   1      28.820  29.284  22.470  1.00  0.00     0.038 C 
ATOM     21  C   UNL A   1      28.948  30.801  22.358  1.00  0.00     0.007 C 
ENDBRANCH  19  20
ENDBRANCH  18  19
ENDBRANCH  13  18
ENDBRANCH  10  12
ENDBRANCH   8  10
ENDBRANCH   6   8
ENDBRANCH   3   6
ENDBRANCH   1   2
BRANCH   1  22
ATOM     22  C   UNL A   1      38.964  22.948  26.542  1.00  0.00     0.023 C 
BRANCH  22  23
ATOM     23  C   UNL A   1      39.385  21.696  25.777  1.00  0.00     0.023 C 
BRANCH  23  24
ATOM     24  C   UNL A   1      40.089  20.618  26.598  1.00  0.00     0.116 C 
BRANCH  24  25
ATOM     25  N   UNL A   1      41.318  20.121  25.994  1.00  0.00    -0.352 N 
ATOM     26  C   UNL A   1      42.582  20.679  26.019  1.00  0.00     0.251 C 
ATOM     27  H   UNL A   1      41.238  19.272  25.502  1.00  0.00     0.163 HD
ATOM     28  O   UNL A   1      43.502  20.176  25.405  1.00  0.00    -0.269 OA
BRANCH  26  29
ATOM     29  C   UNL A   1      42.785  21.932  26.783  1.00  0.00     0.039 A 
ATOM     30  C   UNL A   1      43.153  23.091  26.097  1.00  0.00     0.014 A 
ATOM     31  C   UNL A   1      42.530  21.968  28.155  1.00  0.00     0.014 A 
ATOM     32  C   UNL A   1      43.171  24.314  26.773  1.00  0.00     0.010 A 
ATOM     33  C   UNL A   1      42.479  23.196  28.809  1.00  0.00     0.010 A 
ATOM     34  C   UNL A   1      42.782  24.382  28.120  1.00  0.00    -0.014 A 
BRANCH  34  35
ATOM     35  C   UNL A   1      42.654  25.681  28.831  1.00  0.00     0.031 A 
ATOM     36  C   UNL A   1      43.742  26.139  29.763  1.00  0.00     0.074 A 
ATOM     37  C   UNL A   1      41.519  26.400  28.715  1.00  0.00     0.049 A 
ATOM     38  N   UNL A   1      43.760  27.172  30.565  1.00  0.00    -0.248 NA
ATOM     39  C   UNL A   1      44.957  25.310  29.823  1.00  0.00     0.031 C 
ATOM     40  C   UNL A   1      40.370  26.046  27.877  1.00  0.00     0.029 A 
ATOM     41  N   UNL A   1      41.136  27.572  29.320  1.00  0.00    -0.354 N 
ATOM     42  C   UNL A   1      44.971  27.103  31.243  1.00  0.00     0.074 A 
ATOM     43  C   UNL A   1      45.642  25.905  30.787  1.00  0.00     0.031 C 
ATOM     44  C   UNL A   1      39.422  26.990  28.007  1.00  0.00     0.029 A 
ATOM     45  C   UNL A   1      39.875  27.992  28.967  1.00  0.00     0.049 A 
ATOM     46  H   UNL A   1      41.712  28.067  29.948  1.00  0.00     0.167 HD
ATOM     47  C   UNL A   1      45.486  27.966  32.150  1.00  0.00     0.031 A 
ATOM     48  C   UNL A   1      39.156  29.055  29.378  1.00  0.00     0.031 A 
ATOM     49  C   UNL A   1      44.828  29.168  32.587  1.00  0.00     0.049 A 
ATOM     50  C   UNL A   1      39.750  30.001  30.384  1.00  0.00     0.074 A 
ATOM     51  C   UNL A   1      45.295  30.136  33.460  1.00  0.00     0.029 A 
ATOM     52  N   UNL A   1      43.564  29.570  32.183  1.00  0.00    -0.354 N 
ATOM     53  N   UNL A   1      40.921  29.946  30.974  1.00  0.00    -0.248 NA
ATOM     54  C   UNL A   1      38.930  31.156  30.777  1.00  0.00     0.031 C 
ATOM     55  C   UNL A   1      44.297  31.103  33.613  1.00  0.00     0.029 A 
ATOM     56  C   UNL A   1      43.228  30.762  32.800  1.00  0.00     0.049 A 
ATOM     57  H   UNL A   1      42.991  29.079  31.551  1.00  0.00     0.167 HD
ATOM     58  C   UNL A   1      40.988  31.073  31.786  1.00  0.00     0.074 A 
ATOM     59  C   UNL A   1      39.745  31.796  31.605  1.00  0.00     0.031 C 
ATOM     60  C   UNL A   1      41.990  31.473  32.605  1.00  0.00     0.031 A 
BRANCH  47  61
ATOM     61  C   UNL A   1      46.832  27.633  32.735  1.00  0.00    -0.014 A 
ATOM     62  C   UNL A   1      48.016  28.102  32.136  1.00  0.00     0.010 A 
ATOM     63  C   UNL A   1      46.915  26.866  33.911  1.00  0.00     0.010 A 
ATOM     64  C   UNL A   1      49.261  27.772  32.678  1.00  0.00     0.020 A 
ATOM     65  C   UNL A   1      48.158  26.556  34.471  1.00  0.00     0.020 A 
ATOM     66  C   UNL A   1      49.323  26.994  33.839  1.00  0.00     0.054 A 
BRANCH  66  67
ATOM     67  S   UNL A   1      50.952  26.590  34.528  1.00  0.00     0.124 S 
ATOM     68  O   UNL A   1      51.847  27.033  33.461  1.00  0.00    -0.237 OA
ATOM     69  O   UNL A   1      50.992  27.386  35.751  1.00  0.00    -0.237 OA
ATOM     70  O   UNL A   1      50.893  25.145  34.731  1.00  0.00    -0.744 OA
ENDBRANCH  66  67
ENDBRANCH  47  61
BRANCH  48  71
ATOM     71  C   UNL A   1      37.794  29.290  28.825  1.00  0.00    -0.014 A 
ATOM     72  C   UNL A   1      36.675  29.299  29.675  1.00  0.00     0.010 A 
ATOM     73  C   UNL A   1      37.611  29.518  27.450  1.00  0.00     0.010 A 
ATOM     74  C   UNL A   1      35.394  29.516  29.159  1.00  0.00     0.020 A 
ATOM     75  C   UNL A   1      36.334  29.760  26.933  1.00  0.00     0.020 A 
ATOM     76  C   UNL A   1      35.232  29.746  27.790  1.00  0.00     0.054 A 
BRANCH  76  77
ATOM     77  S   UNL A   1      33.568  30.078  27.148  1.00  0.00     0.124 S 
ATOM     78  O   UNL A   1      32.787  29.009  27.760  1.00  0.00    -0.237 OA
ATOM     79  O   UNL A   1      33.298  31.425  27.647  1.00  0.00    -0.237 OA
ATOM     80  O   UNL A   1      33.736  29.984  25.700  1.00  0.00    -0.744 OA
ENDBRANCH  76  77
ENDBRANCH  48  71
BRANCH  60  81
ATOM     81  C   UNL A   1      41.808  32.770  33.345  1.00  0.00    -0.014 A 
ATOM     82  C   UNL A   1      41.217  32.803  34.620  1.00  0.00     0.010 A 
ATOM     83  C   UNL A   1      42.302  33.962  32.784  1.00  0.00     0.010 A 
ATOM     84  C   UNL A   1      41.105  34.011  35.313  1.00  0.00     0.020 A 
ATOM     85  C   UNL A   1      42.212  35.168  33.484  1.00  0.00     0.020 A 
ATOM     86  C   UNL A   1      41.605  35.186  34.741  1.00  0.00     0.054 A 
BRANCH  86  87
ATOM     87  S   UNL A   1      41.505  36.731  35.687  1.00  0.00     0.124 S 
ATOM     88  O   UNL A   1      42.287  36.409  36.878  1.00  0.00    -0.237 OA
ATOM     89  O   UNL A   1      42.112  37.703  34.781  1.00  0.00    -0.237 OA
ATOM     90  O   UNL A   1      40.072  36.907  35.910  1.00  0.00    -0.744 OA
ENDBRANCH  86  87
ENDBRANCH  60  81
ENDBRANCH  34  35
ENDBRANCH  26  29
ENDBRANCH  24  25
ENDBRANCH  23  24
ENDBRANCH  22  23
ENDBRANCH   1  22
TORSDOF 20
ENDMDL
MODEL 3
REMARK VINA RESULT:      -9.5      7.423     12.394
REMARK SMILES CCCOc1ccc(N[C@H](C)[C@H](C)C(=O)NCCCCNC(=O)c2ccc(-c3c4nc(c(-c5ccc(S(=O)(=O)[O-])cc5)c5ccc([nH]5)c(-c5ccc(S(=O)(=O)[O-])cc5)c5nc(c(-c6ccc(S(=O)(=O)[O-])cc6)c6ccc3[nH]6)C=C5)C=C4)cc2)cc1
REMARK SMILES IDX 17 1 16 2 14 3 15 4 12 6 13 7 10 8 11 9 9 10 8 12 5 13 6 14
REMARK SMILES IDX 85 15 7 16 84 17 4 18 3 19 2 20 1 21 18 22 19 23 20 24 21 25
REMARK SMILES IDX 22 26 23 28 24 29 25 30 83 31 26 32 82 33 27 34 28 35 29 36
REMARK SMILES IDX 76 37 30 38 81 39 75 40 77 41 31 42 80 43 74 44 73 45 32 47
REMARK SMILES IDX 62 48 43 49 61 50 44 51 47 52 60 53 78 54 45 55 46 56 59 58
REMARK SMILES IDX 79 59 48 60 33 61 34 62 42 63 35 64 41 65 36 66 37 67 38 68
REMARK SMILES IDX 39 69 40 70 63 71 64 72 72 73 65 74 71 75 66 76 67 77 68 78
REMARK SMILES IDX 69 79 70 80 49 81 50 82 58 83 51 84 57 85 52 86 53 87 54 88
REMARK SMILES IDX 55 89 56 90
REMARK H PARENT 16 5 9 11 21 27 77 46 47 57
REMARK Flexibility Score: inf
ROOT
ATOM      1  C   UNL A   1      44.368  24.017  32.034  1.00  0.00     0.116 C 
ENDROOT
BRANCH   1   2
ATOM      2  N   UNL A   1      45.403  24.780  32.699  1.00  0.00    -0.356 N 
ATOM      3  C   UNL A   1      45.745  24.796  34.017  1.00  0.00     0.224 C 
ATOM      4  O   UNL A   1      46.823  25.318  34.318  1.00  0.00    -0.275 OA
ATOM      5  H   UNL A   1      45.934  25.370  32.115  1.00  0.00     0.163 HD
BRANCH   3   6
ATOM      6  C   UNL A   1      44.868  24.181  35.108  1.00  0.00     0.097 C 
ATOM      7  C   UNL A   1      43.368  24.399  34.916  1.00  0.00     0.020 C 
BRANCH   6   8
ATOM      8  C   UNL A   1      45.325  22.763  35.518  1.00  0.00     0.088 C 
ATOM      9  C   UNL A   1      44.757  21.661  34.630  1.00  0.00     0.031 C 
BRANCH   8  10
ATOM     10  N   UNL A   1      46.758  22.654  35.794  1.00  0.00    -0.382 N 
ATOM     11  H   UNL A   1      47.001  23.051  36.661  1.00  0.00     0.160 HD
BRANCH  10  12
ATOM     12  C   UNL A   1      47.846  22.133  35.138  1.00  0.00     0.034 A 
ATOM     13  C   UNL A   1      49.919  20.862  33.697  1.00  0.00     0.119 A 
ATOM     14  C   UNL A   1      50.070  22.170  34.134  1.00  0.00     0.048 A 
ATOM     15  C   UNL A   1      48.801  20.138  34.073  1.00  0.00     0.048 A 
ATOM     16  C   UNL A   1      49.044  22.791  34.867  1.00  0.00     0.029 A 
ATOM     17  C   UNL A   1      47.762  20.785  34.735  1.00  0.00     0.029 A 
BRANCH  13  18
ATOM     18  O   UNL A   1      50.892  20.288  32.930  1.00  0.00    -0.494 OA
BRANCH  18  19
ATOM     19  C   UNL A   1      52.108  21.062  32.954  1.00  0.00     0.229 C 
BRANCH  19  20
ATOM     20  C   UNL A   1      53.355  20.177  32.837  1.00  0.00     0.038 C 
ATOM     21  C   UNL A   1      53.613  19.333  34.083  1.00  0.00     0.007 C 
ENDBRANCH  19  20
ENDBRANCH  18  19
ENDBRANCH  13  18
ENDBRANCH  10  12
ENDBRANCH   8  10
ENDBRANCH   6   8
ENDBRANCH   3   6
ENDBRANCH   1   2
BRANCH   1  22
ATOM     22  C   UNL A   1      44.211  24.337  30.555  1.00  0.00     0.023 C 
BRANCH  22  23
ATOM     23  C   UNL A   1      43.945  23.128  29.662  1.00  0.00     0.023 C 
BRANCH  23  24
ATOM     24  C   UNL A   1      42.528  23.005  29.109  1.00  0.00     0.116 C 
BRANCH  24  25
ATOM     25  N   UNL A   1      42.425  23.256  27.677  1.00  0.00    -0.352 N 
ATOM     26  C   UNL A   1      42.050  24.416  27.028  1.00  0.00     0.251 C 
ATOM     27  H   UNL A   1      42.654  22.497  27.095  1.00  0.00     0.163 HD
ATOM     28  O   UNL A   1      41.946  24.451  25.818  1.00  0.00    -0.269 OA
BRANCH  26  29
ATOM     29  C   UNL A   1      41.738  25.613  27.843  1.00  0.00     0.039 A 
ATOM     30  C   UNL A   1      40.524  25.666  28.530  1.00  0.00     0.014 A 
ATOM     31  C   UNL A   1      42.682  26.632  27.987  1.00  0.00     0.014 A 
ATOM     32  C   UNL A   1      40.295  26.700  29.443  1.00  0.00     0.010 A 
ATOM     33  C   UNL A   1      42.482  27.619  28.946  1.00  0.00     0.010 A 
ATOM     34  C   UNL A   1      41.294  27.653  29.696  1.00  0.00    -0.014 A 
BRANCH  34  35
ATOM     35  C   UNL A   1      41.142  28.681  30.759  1.00  0.00     0.031 A 
ATOM     36  C   UNL A   1      42.016  28.635  31.981  1.00  0.00     0.074 A 
ATOM     37  C   UNL A   1      40.154  29.595  30.670  1.00  0.00     0.049 A 
ATOM     38  N   UNL A   1      41.953  29.361  33.067  1.00  0.00    -0.248 NA
ATOM     39  C   UNL A   1      43.082  27.620  31.996  1.00  0.00     0.031 C 
ATOM     40  C   UNL A   1      39.209  29.722  29.557  1.00  0.00     0.029 A 
ATOM     41  N   UNL A   1      39.767  30.582  31.543  1.00  0.00    -0.354 N 
ATOM     42  C   UNL A   1      42.950  28.874  33.905  1.00  0.00     0.074 A 
ATOM     43  C   UNL A   1      43.575  27.766  33.216  1.00  0.00     0.031 C 
ATOM     44  C   UNL A   1      38.368  30.740  29.806  1.00  0.00     0.029 A 
ATOM     45  C   UNL A   1      38.683  31.310  31.113  1.00  0.00     0.049 A 
ATOM     46  H   UNL A   1      40.225  30.755  32.398  1.00  0.00     0.167 HD
ATOM     47  C   UNL A   1      43.322  29.319  35.128  1.00  0.00     0.031 A 
ATOM     48  C   UNL A   1      38.006  32.313  31.705  1.00  0.00     0.031 A 
ATOM     49  C   UNL A   1      42.714  30.434  35.803  1.00  0.00     0.049 A 
ATOM     50  C   UNL A   1      38.440  32.793  33.063  1.00  0.00     0.074 A 
ATOM     51  C   UNL A   1      43.060  30.996  37.019  1.00  0.00     0.029 A 
ATOM     52  N   UNL A   1      41.637  31.161  35.318  1.00  0.00    -0.354 N 
ATOM     53  N   UNL A   1      39.421  32.353  33.816  1.00  0.00    -0.248 NA
ATOM     54  C   UNL A   1      37.681  33.906  33.649  1.00  0.00     0.031 C 
ATOM     55  C   UNL A   1      42.167  32.037  37.289  1.00  0.00     0.029 A 
ATOM     56  C   UNL A   1      41.295  32.155  36.218  1.00  0.00     0.049 A 
ATOM     57  H   UNL A   1      41.183  30.993  34.461  1.00  0.00     0.167 HD
ATOM     58  C   UNL A   1      39.413  33.154  34.951  1.00  0.00     0.074 A 
ATOM     59  C   UNL A   1      38.338  34.110  34.784  1.00  0.00     0.031 C 
ATOM     60  C   UNL A   1      40.226  33.104  36.034  1.00  0.00     0.031 A 
BRANCH  47  61
ATOM     61  C   UNL A   1      44.443  28.589  35.818  1.00  0.00    -0.014 A 
ATOM     62  C   UNL A   1      44.176  27.573  36.754  1.00  0.00     0.010 A 
ATOM     63  C   UNL A   1      45.779  28.902  35.508  1.00  0.00     0.010 A 
ATOM     64  C   UNL A   1      45.225  26.915  37.401  1.00  0.00     0.020 A 
ATOM     65  C   UNL A   1      46.831  28.228  36.134  1.00  0.00     0.020 A 
ATOM     66  C   UNL A   1      46.546  27.252  37.091  1.00  0.00     0.054 A 
BRANCH  66  67
ATOM     67  S   UNL A   1      47.888  26.373  37.937  1.00  0.00     0.124 S 
ATOM     68  O   UNL A   1      49.056  27.158  37.541  1.00  0.00    -0.237 OA
ATOM     69  O   UNL A   1      47.509  26.481  39.344  1.00  0.00    -0.237 OA
ATOM     70  O   UNL A   1      47.825  25.025  37.380  1.00  0.00    -0.744 OA
ENDBRANCH  66  67
ENDBRANCH  47  61
BRANCH  48  71
ATOM     71  C   UNL A   1      36.852  32.945  31.010  1.00  0.00    -0.014 A 
ATOM     72  C   UNL A   1      35.548  32.781  31.505  1.00  0.00     0.010 A 
ATOM     73  C   UNL A   1      37.053  33.725  29.856  1.00  0.00     0.010 A 
ATOM     74  C   UNL A   1      34.461  33.369  30.852  1.00  0.00     0.020 A 
ATOM     75  C   UNL A   1      35.971  34.336  29.214  1.00  0.00     0.020 A 
ATOM     76  C   UNL A   1      34.681  34.145  29.710  1.00  0.00     0.054 A 
BRANCH  76  77
ATOM     77  S   UNL A   1      33.263  34.944  28.908  1.00  0.00     0.124 S 
ATOM     78  O   UNL A   1      32.346  35.132  30.027  1.00  0.00    -0.237 OA
ATOM     79  O   UNL A   1      33.854  36.165  28.362  1.00  0.00    -0.237 OA
ATOM     80  O   UNL A   1      32.842  33.967  27.907  1.00  0.00    -0.744 OA
ENDBRANCH  76  77
ENDBRANCH  48  71
BRANCH  60  81
ATOM     81  C   UNL A   1      40.014  34.131  37.112  1.00  0.00    -0.014 A 
ATOM     82  C   UNL A   1      40.607  35.404  37.031  1.00  0.00     0.010 A 
ATOM     83  C   UNL A   1      39.151  33.841  38.185  1.00  0.00     0.010 A 
ATOM     84  C   UNL A   1      40.354  36.362  38.016  1.00  0.00     0.020 A 
ATOM     85  C   UNL A   1      38.879  34.805  39.159  1.00  0.00     0.020 A 
ATOM     86  C   UNL A   1      39.490  36.056  39.073  1.00  0.00     0.054 A 
BRANCH  86  87
ATOM     87  S   UNL A   1      39.129  37.338  40.306  1.00  0.00     0.124 S 
ATOM     88  O   UNL A   1      38.302  38.269  39.542  1.00  0.00    -0.237 OA
ATOM     89  O   UNL A   1      38.433  36.592  41.351  1.00  0.00    -0.237 OA
ATOM     90  O   UNL A   1      40.450  37.839  40.681  1.00  0.00    -0.744 OA
ENDBRANCH  86  87
ENDBRANCH  60  81
ENDBRANCH  34  35
ENDBRANCH  26  29
ENDBRANCH  24  25
ENDBRANCH  23  24
ENDBRANCH  22  23
ENDBRANCH   1  22
TORSDOF 20
ENDMDL
