MODEL 1
REMARK VINA RESULT:     -11.9      0.000      0.000
REMARK SMILES CSc1ccccc1Sc1cc(C(=O)NCCCCNC(=O)c2ccc(-c3c4nc(c(-c5ccc(S(=O)(=O)[O-])cc5)c5ccc([nH]5)c(-c5ccc(S(=O)(=O)[O-])cc5)c5nc(c(-c6ccc(S(=O)(=O)[O-])cc6)c6ccc3[nH]6)C=C5)C=C4)cc2)c2ccccc2n1
REMARK SMILES IDX 17 1 16 2 15 3 13 4 14 5 12 7 10 8 11 9 89 10 88 11 83 12
REMARK SMILES IDX 87 13 84 14 86 15 85 16 9 17 8 18 3 19 4 20 5 21 7 22 6 23
REMARK SMILES IDX 2 24 1 25 18 26 19 27 20 28 21 29 22 31 23 32 24 33 82 34
REMARK SMILES IDX 25 35 81 36 26 37 27 38 28 39 75 40 29 41 80 42 74 43 76 44
REMARK SMILES IDX 30 45 79 46 73 47 72 48 31 50 61 51 42 52 60 53 43 54 46 55
REMARK SMILES IDX 59 56 77 57 44 58 45 59 58 61 78 62 47 63 32 64 33 65 41 66
REMARK SMILES IDX 34 67 40 68 35 69 36 70 37 71 38 72 39 73 62 74 63 75 71 76
REMARK SMILES IDX 64 77 70 78 65 79 66 80 67 81 68 82 69 83 48 84 49 85 57 86
REMARK SMILES IDX 50 87 56 88 51 89 52 90 53 91 54 92 55 93
REMARK H PARENT 15 6 20 30 76 49 46 60
REMARK Flexibility Score: inf
ROOT
ATOM      1  C   UNL A   1      34.060  30.308  27.557  1.00  0.00     0.023 C 
ENDROOT
BRANCH   1   2
ATOM      2  C   UNL A   1      33.049  30.252  26.405  1.00  0.00     0.116 C 
BRANCH   2   3
ATOM      3  N   UNL A   1      33.661  29.671  25.220  1.00  0.00    -0.352 N 
ATOM      4  C   UNL A   1      33.616  28.454  24.588  1.00  0.00     0.252 C 
ATOM      5  O   UNL A   1      34.340  28.356  23.599  1.00  0.00    -0.269 OA
ATOM      6  H   UNL A   1      34.254  30.309  24.759  1.00  0.00     0.163 HD
BRANCH   4   7
ATOM      7  C   UNL A   1      32.734  27.317  25.004  1.00  0.00     0.051 A 
ATOM      8  C   UNL A   1      32.400  25.240  26.135  1.00  0.00     0.102 A 
ATOM      9  C   UNL A   1      33.252  26.262  25.748  1.00  0.00     0.050 A 
ATOM     10  N   UNL A   1      31.068  25.310  25.987  1.00  0.00    -0.241 NA
ATOM     11  C   UNL A   1      30.584  26.227  25.154  1.00  0.00     0.072 A 
ATOM     12  C   UNL A   1      31.390  27.200  24.529  1.00  0.00     0.013 A 
ATOM     13  C   UNL A   1      29.244  26.098  24.817  1.00  0.00     0.029 A 
ATOM     14  C   UNL A   1      30.809  27.892  23.432  1.00  0.00     0.011 A 
ATOM     15  C   UNL A   1      28.701  26.779  23.732  1.00  0.00     0.002 A 
ATOM     16  C   UNL A   1      29.502  27.645  23.009  1.00  0.00     0.001 A 
BRANCH   8  17
ATOM     17  S   UNL A   1      33.123  23.639  26.435  1.00  0.00    -0.069 SA
BRANCH  17  18
ATOM     18  C   UNL A   1      34.589  23.544  25.414  1.00  0.00     0.027 A 
ATOM     19  C   UNL A   1      34.477  23.210  24.046  1.00  0.00     0.021 A 
ATOM     20  C   UNL A   1      35.639  23.073  23.270  1.00  0.00     0.016 A 
ATOM     21  C   UNL A   1      36.903  23.253  23.834  1.00  0.00     0.001 A 
ATOM     22  C   UNL A   1      35.872  23.687  25.972  1.00  0.00     0.016 A 
ATOM     23  C   UNL A   1      37.020  23.554  25.187  1.00  0.00     0.001 A 
BRANCH  19  24
ATOM     24  S   UNL A   1      32.889  22.848  23.275  1.00  0.00    -0.128 SA
ATOM     25  C   UNL A   1      32.587  24.403  22.410  1.00  0.00     0.091 C 
ENDBRANCH  19  24
ENDBRANCH  17  18
ENDBRANCH   8  17
ENDBRANCH   4   7
ENDBRANCH   2   3
ENDBRANCH   1   2
BRANCH   1  26
ATOM     26  C   UNL A   1      34.611  31.711  27.860  1.00  0.00     0.023 C 
BRANCH  26  27
ATOM     27  C   UNL A   1      35.837  31.760  28.772  1.00  0.00     0.116 C 
BRANCH  27  28
ATOM     28  N   UNL A   1      35.635  31.062  30.033  1.00  0.00    -0.352 N 
ATOM     29  C   UNL A   1      36.518  30.275  30.733  1.00  0.00     0.251 C 
ATOM     30  H   UNL A   1      34.745  31.168  30.441  1.00  0.00     0.163 HD
ATOM     31  O   UNL A   1      36.143  29.661  31.729  1.00  0.00    -0.269 OA
BRANCH  29  32
ATOM     32  C   UNL A   1      37.911  30.143  30.260  1.00  0.00     0.039 A 
ATOM     33  C   UNL A   1      38.954  30.235  31.187  1.00  0.00     0.014 A 
ATOM     34  C   UNL A   1      38.184  29.889  28.913  1.00  0.00     0.014 A 
ATOM     35  C   UNL A   1      40.265  29.984  30.778  1.00  0.00     0.010 A 
ATOM     36  C   UNL A   1      39.484  29.587  28.519  1.00  0.00     0.010 A 
ATOM     37  C   UNL A   1      40.535  29.612  29.450  1.00  0.00    -0.014 A 
BRANCH  37  38
ATOM     38  C   UNL A   1      41.893  29.193  29.021  1.00  0.00     0.031 A 
ATOM     39  C   UNL A   1      42.997  30.205  28.899  1.00  0.00     0.074 A 
ATOM     40  C   UNL A   1      42.104  27.914  28.647  1.00  0.00     0.049 A 
ATOM     41  N   UNL A   1      44.207  30.050  28.428  1.00  0.00    -0.248 NA
ATOM     42  C   UNL A   1      42.693  31.574  29.344  1.00  0.00     0.031 C 
ATOM     43  C   UNL A   1      41.104  26.843  28.689  1.00  0.00     0.029 A 
ATOM     44  N   UNL A   1      43.222  27.302  28.139  1.00  0.00    -0.354 N 
ATOM     45  C   UNL A   1      44.805  31.303  28.502  1.00  0.00     0.074 A 
ATOM     46  C   UNL A   1      43.811  32.214  29.029  1.00  0.00     0.031 C 
ATOM     47  C   UNL A   1      41.658  25.706  28.239  1.00  0.00     0.029 A 
ATOM     48  C   UNL A   1      43.034  25.974  27.831  1.00  0.00     0.049 A 
ATOM     49  H   UNL A   1      44.079  27.769  28.007  1.00  0.00     0.167 HD
ATOM     50  C   UNL A   1      46.069  31.659  28.172  1.00  0.00     0.031 A 
ATOM     51  C   UNL A   1      43.865  25.077  27.266  1.00  0.00     0.031 A 
ATOM     52  C   UNL A   1      47.056  30.748  27.656  1.00  0.00     0.049 A 
ATOM     53  C   UNL A   1      45.252  25.505  26.874  1.00  0.00     0.074 A 
ATOM     54  C   UNL A   1      48.382  31.000  27.351  1.00  0.00     0.029 A 
ATOM     55  N   UNL A   1      46.823  29.414  27.358  1.00  0.00    -0.354 N 
ATOM     56  N   UNL A   1      45.819  26.679  27.015  1.00  0.00    -0.248 NA
ATOM     57  C   UNL A   1      46.109  24.490  26.247  1.00  0.00     0.031 C 
ATOM     58  C   UNL A   1      48.938  29.831  26.820  1.00  0.00     0.029 A 
ATOM     59  C   UNL A   1      47.972  28.838  26.842  1.00  0.00     0.049 A 
ATOM     60  H   UNL A   1      45.969  28.945  27.493  1.00  0.00     0.167 HD
ATOM     61  C   UNL A   1      47.105  26.539  26.507  1.00  0.00     0.074 A 
ATOM     62  C   UNL A   1      47.239  25.164  26.071  1.00  0.00     0.031 C 
ATOM     63  C   UNL A   1      48.087  27.469  26.408  1.00  0.00     0.031 A 
BRANCH  50  64
ATOM     64  C   UNL A   1      46.456  33.102  28.355  1.00  0.00    -0.014 A 
ATOM     65  C   UNL A   1      46.369  34.016  27.290  1.00  0.00     0.010 A 
ATOM     66  C   UNL A   1      46.873  33.559  29.618  1.00  0.00     0.010 A 
ATOM     67  C   UNL A   1      46.731  35.353  27.475  1.00  0.00     0.020 A 
ATOM     68  C   UNL A   1      47.212  34.901  29.814  1.00  0.00     0.020 A 
ATOM     69  C   UNL A   1      47.155  35.786  28.735  1.00  0.00     0.054 A 
BRANCH  69  70
ATOM     70  S   UNL A   1      47.602  37.531  28.949  1.00  0.00     0.124 S 
ATOM     71  O   UNL A   1      46.971  38.148  27.785  1.00  0.00    -0.237 OA
ATOM     72  O   UNL A   1      46.999  37.861  30.238  1.00  0.00    -0.237 OA
ATOM     73  O   UNL A   1      49.063  37.519  28.932  1.00  0.00    -0.744 OA
ENDBRANCH  69  70
ENDBRANCH  50  64
BRANCH  51  74
ATOM     74  C   UNL A   1      43.401  23.683  27.027  1.00  0.00    -0.014 A 
ATOM     75  C   UNL A   1      43.151  22.821  28.108  1.00  0.00     0.010 A 
ATOM     76  C   UNL A   1      43.191  23.215  25.716  1.00  0.00     0.010 A 
ATOM     77  C   UNL A   1      42.714  21.513  27.885  1.00  0.00     0.020 A 
ATOM     78  C   UNL A   1      42.729  21.915  25.490  1.00  0.00     0.020 A 
ATOM     79  C   UNL A   1      42.503  21.068  26.576  1.00  0.00     0.054 A 
BRANCH  79  80
ATOM     80  S   UNL A   1      41.881  19.384  26.313  1.00  0.00     0.124 S 
ATOM     81  O   UNL A   1      42.390  18.687  27.489  1.00  0.00    -0.237 OA
ATOM     82  O   UNL A   1      40.435  19.584  26.271  1.00  0.00    -0.237 OA
ATOM     83  O   UNL A   1      42.485  18.994  25.040  1.00  0.00    -0.744 OA
ENDBRANCH  79  80
ENDBRANCH  51  74
BRANCH  63  84
ATOM     84  C   UNL A   1      49.401  27.034  25.818  1.00  0.00    -0.014 A 
ATOM     85  C   UNL A   1      49.730  27.344  24.487  1.00  0.00     0.010 A 
ATOM     86  C   UNL A   1      50.348  26.380  26.627  1.00  0.00     0.010 A 
ATOM     87  C   UNL A   1      50.983  26.999  23.972  1.00  0.00     0.020 A 
ATOM     88  C   UNL A   1      51.610  26.056  26.123  1.00  0.00     0.020 A 
ATOM     89  C   UNL A   1      51.918  26.362  24.795  1.00  0.00     0.054 A 
BRANCH  89  90
ATOM     90  S   UNL A   1      53.562  25.994  24.126  1.00  0.00     0.124 S 
ATOM     91  O   UNL A   1      54.359  27.099  24.650  1.00  0.00    -0.237 OA
ATOM     92  O   UNL A   1      53.855  24.681  24.697  1.00  0.00    -0.237 OA
ATOM     93  O   UNL A   1      53.357  26.005  22.679  1.00  0.00    -0.744 OA
ENDBRANCH  89  90
ENDBRANCH  63  84
ENDBRANCH  37  38
ENDBRANCH  29  32
ENDBRANCH  27  28
ENDBRANCH  26  27
ENDBRANCH   1  26
TORSDOF 17
ENDMDL
MODEL 2
REMARK VINA RESULT:     -11.7      2.179      8.589
REMARK SMILES CSc1ccccc1Sc1cc(C(=O)NCCCCNC(=O)c2ccc(-c3c4nc(c(-c5ccc(S(=O)(=O)[O-])cc5)c5ccc([nH]5)c(-c5ccc(S(=O)(=O)[O-])cc5)c5nc(c(-c6ccc(S(=O)(=O)[O-])cc6)c6ccc3[nH]6)C=C5)C=C4)cc2)c2ccccc2n1
REMARK SMILES IDX 17 1 16 2 15 3 13 4 14 5 12 7 10 8 11 9 89 10 88 11 83 12
REMARK SMILES IDX 87 13 84 14 86 15 85 16 9 17 8 18 3 19 4 20 5 21 7 22 6 23
REMARK SMILES IDX 2 24 1 25 18 26 19 27 20 28 21 29 22 31 23 32 24 33 82 34
REMARK SMILES IDX 25 35 81 36 26 37 27 38 28 39 75 40 29 41 80 42 74 43 76 44
REMARK SMILES IDX 30 45 79 46 73 47 72 48 31 50 61 51 42 52 60 53 43 54 46 55
REMARK SMILES IDX 59 56 77 57 44 58 45 59 58 61 78 62 47 63 32 64 33 65 41 66
REMARK SMILES IDX 34 67 40 68 35 69 36 70 37 71 38 72 39 73 62 74 63 75 71 76
REMARK SMILES IDX 64 77 70 78 65 79 66 80 67 81 68 82 69 83 48 84 49 85 57 86
REMARK SMILES IDX 50 87 56 88 51 89 52 90 53 91 54 92 55 93
REMARK H PARENT 15 6 20 30 76 49 46 60
REMARK Flexibility Score: inf
ROOT
ATOM      1  C   UNL A   1      39.077  23.409  26.507  1.00  0.00     0.023 C 
ENDROOT
BRANCH   1   2
ATOM      2  C   UNL A   1      37.609  23.558  26.090  1.00  0.00     0.116 C 
BRANCH   2   3
ATOM      3  N   UNL A   1      37.474  23.426  24.648  1.00  0.00    -0.352 N 
ATOM      4  C   UNL A   1      36.432  23.261  23.770  1.00  0.00     0.252 C 
ATOM      5  O   UNL A   1      36.759  23.150  22.591  1.00  0.00    -0.269 OA
ATOM      6  H   UNL A   1      38.344  23.466  24.189  1.00  0.00     0.163 HD
BRANCH   4   7
ATOM      7  C   UNL A   1      34.987  23.256  24.165  1.00  0.00     0.051 A 
ATOM      8  C   UNL A   1      32.981  24.408  24.761  1.00  0.00     0.102 A 
ATOM      9  C   UNL A   1      34.324  24.452  24.422  1.00  0.00     0.050 A 
ATOM     10  N   UNL A   1      32.246  23.289  24.673  1.00  0.00    -0.241 NA
ATOM     11  C   UNL A   1      32.891  22.129  24.578  1.00  0.00     0.072 A 
ATOM     12  C   UNL A   1      34.290  22.037  24.438  1.00  0.00     0.013 A 
ATOM     13  C   UNL A   1      32.123  20.989  24.761  1.00  0.00     0.029 A 
ATOM     14  C   UNL A   1      34.866  20.760  24.676  1.00  0.00     0.011 A 
ATOM     15  C   UNL A   1      32.710  19.751  25.003  1.00  0.00     0.002 A 
ATOM     16  C   UNL A   1      34.090  19.648  25.007  1.00  0.00     0.001 A 
BRANCH   8  17
ATOM     17  S   UNL A   1      32.337  25.754  25.735  1.00  0.00    -0.069 SA
BRANCH  17  18
ATOM     18  C   UNL A   1      31.133  26.592  24.711  1.00  0.00     0.027 A 
ATOM     19  C   UNL A   1      31.457  27.826  24.104  1.00  0.00     0.021 A 
ATOM     20  C   UNL A   1      30.483  28.507  23.358  1.00  0.00     0.016 A 
ATOM     21  C   UNL A   1      29.196  27.986  23.214  1.00  0.00     0.001 A 
ATOM     22  C   UNL A   1      29.821  26.101  24.584  1.00  0.00     0.016 A 
ATOM     23  C   UNL A   1      28.863  26.786  23.832  1.00  0.00     0.001 A 
BRANCH  19  24
ATOM     24  S   UNL A   1      33.058  28.619  24.341  1.00  0.00    -0.128 SA
ATOM     25  C   UNL A   1      32.661  29.754  25.688  1.00  0.00     0.091 C 
ENDBRANCH  19  24
ENDBRANCH  17  18
ENDBRANCH   8  17
ENDBRANCH   4   7
ENDBRANCH   2   3
ENDBRANCH   1   2
BRANCH   1  26
ATOM     26  C   UNL A   1      39.496  21.977  26.879  1.00  0.00     0.023 C 
BRANCH  26  27
ATOM     27  C   UNL A   1      39.493  20.966  25.733  1.00  0.00     0.116 C 
BRANCH  27  28
ATOM     28  N   UNL A   1      40.262  19.766  26.030  1.00  0.00    -0.352 N 
ATOM     29  C   UNL A   1      41.581  19.659  26.406  1.00  0.00     0.251 C 
ATOM     30  H   UNL A   1      39.773  18.916  25.952  1.00  0.00     0.163 HD
ATOM     31  O   UNL A   1      42.107  18.553  26.503  1.00  0.00    -0.269 OA
BRANCH  29  32
ATOM     32  C   UNL A   1      42.370  20.883  26.657  1.00  0.00     0.039 A 
ATOM     33  C   UNL A   1      42.843  21.619  25.567  1.00  0.00     0.014 A 
ATOM     34  C   UNL A   1      42.606  21.321  27.962  1.00  0.00     0.014 A 
ATOM     35  C   UNL A   1      43.477  22.844  25.785  1.00  0.00     0.010 A 
ATOM     36  C   UNL A   1      43.191  22.566  28.175  1.00  0.00     0.010 A 
ATOM     37  C   UNL A   1      43.614  23.350  27.088  1.00  0.00    -0.014 A 
BRANCH  37  38
ATOM     38  C   UNL A   1      44.146  24.712  27.342  1.00  0.00     0.031 A 
ATOM     39  C   UNL A   1      43.219  25.830  27.729  1.00  0.00     0.074 A 
ATOM     40  C   UNL A   1      45.455  24.962  27.129  1.00  0.00     0.049 A 
ATOM     41  N   UNL A   1      43.480  27.103  27.873  1.00  0.00    -0.248 NA
ATOM     42  C   UNL A   1      41.810  25.473  27.960  1.00  0.00     0.031 C 
ATOM     43  C   UNL A   1      46.451  23.968  26.722  1.00  0.00     0.029 A 
ATOM     44  N   UNL A   1      46.168  26.132  27.206  1.00  0.00    -0.354 N 
ATOM     45  C   UNL A   1      42.269  27.704  28.194  1.00  0.00     0.074 A 
ATOM     46  C   UNL A   1      41.266  26.661  28.187  1.00  0.00     0.031 C 
ATOM     47  C   UNL A   1      47.646  24.568  26.598  1.00  0.00     0.029 A 
ATOM     48  C   UNL A   1      47.494  25.994  26.868  1.00  0.00     0.049 A 
ATOM     49  H   UNL A   1      45.767  26.989  27.478  1.00  0.00     0.167 HD
ATOM     50  C   UNL A   1      42.018  29.003  28.481  1.00  0.00     0.031 A 
ATOM     51  C   UNL A   1      48.474  26.912  26.766  1.00  0.00     0.031 A 
ATOM     52  C   UNL A   1      43.020  30.036  28.495  1.00  0.00     0.049 A 
ATOM     53  C   UNL A   1      48.163  28.355  27.053  1.00  0.00     0.074 A 
ATOM     54  C   UNL A   1      42.875  31.369  28.833  1.00  0.00     0.029 A 
ATOM     55  N   UNL A   1      44.349  29.854  28.145  1.00  0.00    -0.354 N 
ATOM     56  N   UNL A   1      47.025  28.892  27.421  1.00  0.00    -0.248 NA
ATOM     57  C   UNL A   1      49.266  29.315  26.910  1.00  0.00     0.031 C 
ATOM     58  C   UNL A   1      44.105  32.006  28.640  1.00  0.00     0.029 A 
ATOM     59  C   UNL A   1      45.029  31.057  28.228  1.00  0.00     0.049 A 
ATOM     60  H   UNL A   1      44.752  28.996  27.877  1.00  0.00     0.167 HD
ATOM     61  C   UNL A   1      47.278  30.250  27.568  1.00  0.00     0.074 A 
ATOM     62  C   UNL A   1      48.681  30.452  27.266  1.00  0.00     0.031 C 
ATOM     63  C   UNL A   1      46.424  31.242  27.919  1.00  0.00     0.031 A 
BRANCH  50  64
ATOM     64  C   UNL A   1      40.597  29.384  28.798  1.00  0.00    -0.014 A 
ATOM     65  C   UNL A   1      39.592  29.320  27.816  1.00  0.00     0.010 A 
ATOM     66  C   UNL A   1      40.252  29.772  30.106  1.00  0.00     0.010 A 
ATOM     67  C   UNL A   1      38.277  29.676  28.126  1.00  0.00     0.020 A 
ATOM     68  C   UNL A   1      38.932  30.104  30.426  1.00  0.00     0.020 A 
ATOM     69  C   UNL A   1      37.957  30.070  29.428  1.00  0.00     0.054 A 
BRANCH  69  70
ATOM     70  S   UNL A   1      36.237  30.510  29.805  1.00  0.00     0.124 S 
ATOM     71  O   UNL A   1      35.545  30.085  28.591  1.00  0.00    -0.237 OA
ATOM     72  O   UNL A   1      35.957  29.715  30.997  1.00  0.00    -0.237 OA
ATOM     73  O   UNL A   1      36.288  31.954  30.020  1.00  0.00    -0.744 OA
ENDBRANCH  69  70
ENDBRANCH  50  64
BRANCH  51  74
ATOM     74  C   UNL A   1      49.845  26.494  26.363  1.00  0.00    -0.014 A 
ATOM     75  C   UNL A   1      50.265  26.624  25.028  1.00  0.00     0.010 A 
ATOM     76  C   UNL A   1      50.742  25.976  27.315  1.00  0.00     0.010 A 
ATOM     77  C   UNL A   1      51.552  26.234  24.649  1.00  0.00     0.020 A 
ATOM     78  C   UNL A   1      52.039  25.608  26.945  1.00  0.00     0.020 A 
ATOM     79  C   UNL A   1      52.432  25.729  25.611  1.00  0.00     0.054 A 
BRANCH  79  80
ATOM     80  S   UNL A   1      54.116  25.281  25.107  1.00  0.00     0.124 S 
ATOM     81  O   UNL A   1      54.003  23.838  24.920  1.00  0.00    -0.237 OA
ATOM     82  O   UNL A   1      54.301  26.065  23.888  1.00  0.00    -0.237 OA
ATOM     83  O   UNL A   1      54.936  25.705  26.240  1.00  0.00    -0.744 OA
ENDBRANCH  79  80
ENDBRANCH  51  74
BRANCH  63  84
ATOM     84  C   UNL A   1      46.978  32.638  28.011  1.00  0.00    -0.014 A 
ATOM     85  C   UNL A   1      47.570  33.103  29.198  1.00  0.00     0.010 A 
ATOM     86  C   UNL A   1      46.980  33.465  26.872  1.00  0.00     0.010 A 
ATOM     87  C   UNL A   1      48.147  34.375  29.248  1.00  0.00     0.020 A 
ATOM     88  C   UNL A   1      47.577  34.727  26.911  1.00  0.00     0.020 A 
ATOM     89  C   UNL A   1      48.152  35.177  28.102  1.00  0.00     0.054 A 
BRANCH  89  90
ATOM     90  S   UNL A   1      48.974  36.792  28.172  1.00  0.00     0.124 S 
ATOM     91  O   UNL A   1      49.959  36.679  27.101  1.00  0.00    -0.237 OA
ATOM     92  O   UNL A   1      47.876  37.722  27.920  1.00  0.00    -0.237 OA
ATOM     93  O   UNL A   1      49.525  36.841  29.524  1.00  0.00    -0.744 OA
ENDBRANCH  89  90
ENDBRANCH  63  84
ENDBRANCH  37  38
ENDBRANCH  29  32
ENDBRANCH  27  28
ENDBRANCH  26  27
ENDBRANCH   1  26
TORSDOF 17
ENDMDL
MODEL 3
REMARK VINA RESULT:     -11.4      5.742     10.407
REMARK SMILES CSc1ccccc1Sc1cc(C(=O)NCCCCNC(=O)c2ccc(-c3c4nc(c(-c5ccc(S(=O)(=O)[O-])cc5)c5ccc([nH]5)c(-c5ccc(S(=O)(=O)[O-])cc5)c5nc(c(-c6ccc(S(=O)(=O)[O-])cc6)c6ccc3[nH]6)C=C5)C=C4)cc2)c2ccccc2n1
REMARK SMILES IDX 17 1 16 2 15 3 13 4 14 5 12 7 10 8 11 9 89 10 88 11 83 12
REMARK SMILES IDX 87 13 84 14 86 15 85 16 9 17 8 18 3 19 4 20 5 21 7 22 6 23
REMARK SMILES IDX 2 24 1 25 18 26 19 27 20 28 21 29 22 31 23 32 24 33 82 34
REMARK SMILES IDX 25 35 81 36 26 37 27 38 28 39 75 40 29 41 80 42 74 43 76 44
REMARK SMILES IDX 30 45 79 46 73 47 72 48 31 50 61 51 42 52 60 53 43 54 46 55
REMARK SMILES IDX 59 56 77 57 44 58 45 59 58 61 78 62 47 63 32 64 33 65 41 66
REMARK SMILES IDX 34 67 40 68 35 69 36 70 37 71 38 72 39 73 62 74 63 75 71 76
REMARK SMILES IDX 64 77 70 78 65 79 66 80 67 81 68 82 69 83 48 84 49 85 57 86
REMARK SMILES IDX 50 87 56 88 51 89 52 90 53 91 54 92 55 93
REMARK H PARENT 15 6 20 30 76 49 46 60
REMARK Flexibility Score: inf
ROOT
ATOM      1  C   UNL A   1      31.767  30.292  26.798  1.00  0.00     0.023 C 
ENDROOT
BRANCH   1   2
ATOM      2  C   UNL A   1      33.143  29.658  26.559  1.00  0.00     0.116 C 
BRANCH   2   3
ATOM      3  N   UNL A   1      33.467  29.667  25.141  1.00  0.00    -0.352 N 
ATOM      4  C   UNL A   1      33.057  28.966  24.035  1.00  0.00     0.252 C 
ATOM      5  O   UNL A   1      33.629  29.265  22.989  1.00  0.00    -0.269 OA
ATOM      6  H   UNL A   1      34.148  30.344  24.921  1.00  0.00     0.163 HD
BRANCH   4   7
ATOM      7  C   UNL A   1      31.969  27.936  24.042  1.00  0.00     0.051 A 
ATOM      8  C   UNL A   1      31.221  25.690  24.361  1.00  0.00     0.102 A 
ATOM      9  C   UNL A   1      32.258  26.609  24.340  1.00  0.00     0.050 A 
ATOM     10  N   UNL A   1      29.931  26.050  24.289  1.00  0.00    -0.241 NA
ATOM     11  C   UNL A   1      29.652  27.278  23.857  1.00  0.00     0.072 A 
ATOM     12  C   UNL A   1      30.645  28.245  23.599  1.00  0.00     0.013 A 
ATOM     13  C   UNL A   1      28.325  27.525  23.538  1.00  0.00     0.029 A 
ATOM     14  C   UNL A   1      30.240  29.378  22.843  1.00  0.00     0.011 A 
ATOM     15  C   UNL A   1      27.955  28.637  22.789  1.00  0.00     0.002 A 
ATOM     16  C   UNL A   1      28.926  29.543  22.401  1.00  0.00     0.001 A 
BRANCH   8  17
ATOM     17  S   UNL A   1      31.630  23.985  24.042  1.00  0.00    -0.069 SA
BRANCH  17  18
ATOM     18  C   UNL A   1      32.666  23.449  25.399  1.00  0.00     0.027 A 
ATOM     19  C   UNL A   1      34.059  23.305  25.211  1.00  0.00     0.021 A 
ATOM     20  C   UNL A   1      34.852  22.820  26.262  1.00  0.00     0.016 A 
ATOM     21  C   UNL A   1      34.283  22.469  27.487  1.00  0.00     0.001 A 
ATOM     22  C   UNL A   1      32.106  23.057  26.628  1.00  0.00     0.016 A 
ATOM     23  C   UNL A   1      32.909  22.582  27.669  1.00  0.00     0.001 A 
BRANCH  19  24
ATOM     24  S   UNL A   1      34.849  23.625  23.623  1.00  0.00    -0.128 SA
ATOM     25  C   UNL A   1      36.412  22.753  23.859  1.00  0.00     0.091 C 
ENDBRANCH  19  24
ENDBRANCH  17  18
ENDBRANCH   8  17
ENDBRANCH   4   7
ENDBRANCH   2   3
ENDBRANCH   1   2
BRANCH   1  26
ATOM     26  C   UNL A   1      31.745  31.827  26.719  1.00  0.00     0.023 C 
BRANCH  26  27
ATOM     27  C   UNL A   1      33.024  32.532  27.170  1.00  0.00     0.116 C 
BRANCH  27  28
ATOM     28  N   UNL A   1      32.772  33.824  27.793  1.00  0.00    -0.352 N 
ATOM     29  C   UNL A   1      33.461  34.438  28.812  1.00  0.00     0.251 C 
ATOM     30  H   UNL A   1      32.004  34.326  27.436  1.00  0.00     0.163 HD
ATOM     31  O   UNL A   1      33.038  35.483  29.300  1.00  0.00    -0.269 OA
BRANCH  29  32
ATOM     32  C   UNL A   1      34.692  33.816  29.340  1.00  0.00     0.039 A 
ATOM     33  C   UNL A   1      35.930  34.234  28.844  1.00  0.00     0.014 A 
ATOM     34  C   UNL A   1      34.624  32.851  30.349  1.00  0.00     0.014 A 
ATOM     35  C   UNL A   1      37.105  33.750  29.423  1.00  0.00     0.010 A 
ATOM     36  C   UNL A   1      35.795  32.411  30.960  1.00  0.00     0.010 A 
ATOM     37  C   UNL A   1      37.046  32.871  30.517  1.00  0.00    -0.014 A 
BRANCH  37  38
ATOM     38  C   UNL A   1      38.270  32.457  31.249  1.00  0.00     0.031 A 
ATOM     39  C   UNL A   1      39.125  31.338  30.726  1.00  0.00     0.074 A 
ATOM     40  C   UNL A   1      38.555  33.029  32.438  1.00  0.00     0.049 A 
ATOM     41  N   UNL A   1      40.157  30.761  31.286  1.00  0.00    -0.248 NA
ATOM     42  C   UNL A   1      38.759  30.780  29.415  1.00  0.00     0.031 C 
ATOM     43  C   UNL A   1      37.784  34.104  33.067  1.00  0.00     0.029 A 
ATOM     44  N   UNL A   1      39.559  32.772  33.337  1.00  0.00    -0.354 N 
ATOM     45  C   UNL A   1      40.554  29.761  30.406  1.00  0.00     0.074 A 
ATOM     46  C   UNL A   1      39.629  29.786  29.293  1.00  0.00     0.031 C 
ATOM     47  C   UNL A   1      38.350  34.421  34.242  1.00  0.00     0.029 A 
ATOM     48  C   UNL A   1      39.493  33.543  34.474  1.00  0.00     0.049 A 
ATOM     49  H   UNL A   1      40.260  32.098  33.184  1.00  0.00     0.167 HD
ATOM     50  C   UNL A   1      41.601  28.908  30.510  1.00  0.00     0.031 A 
ATOM     51  C   UNL A   1      40.251  33.534  35.587  1.00  0.00     0.031 A 
ATOM     52  C   UNL A   1      42.523  28.892  31.614  1.00  0.00     0.049 A 
ATOM     53  C   UNL A   1      41.385  32.552  35.696  1.00  0.00     0.074 A 
ATOM     54  C   UNL A   1      43.651  28.108  31.781  1.00  0.00     0.029 A 
ATOM     55  N   UNL A   1      42.419  29.689  32.744  1.00  0.00    -0.354 N 
ATOM     56  N   UNL A   1      41.785  31.660  34.822  1.00  0.00    -0.248 NA
ATOM     57  C   UNL A   1      42.169  32.576  36.939  1.00  0.00     0.031 C 
ATOM     58  C   UNL A   1      44.201  28.394  33.035  1.00  0.00     0.029 A 
ATOM     59  C   UNL A   1      43.444  29.392  33.627  1.00  0.00     0.049 A 
ATOM     60  H   UNL A   1      41.721  30.366  32.897  1.00  0.00     0.167 HD
ATOM     61  C   UNL A   1      42.876  31.025  35.404  1.00  0.00     0.074 A 
ATOM     62  C   UNL A   1      43.084  31.646  36.696  1.00  0.00     0.031 C 
ATOM     63  C   UNL A   1      43.635  30.016  34.912  1.00  0.00     0.031 A 
BRANCH  50  64
ATOM     64  C   UNL A   1      41.802  27.914  29.398  1.00  0.00    -0.014 A 
ATOM     65  C   UNL A   1      42.795  28.107  28.423  1.00  0.00     0.010 A 
ATOM     66  C   UNL A   1      41.014  26.749  29.352  1.00  0.00     0.010 A 
ATOM     67  C   UNL A   1      42.971  27.175  27.397  1.00  0.00     0.020 A 
ATOM     68  C   UNL A   1      41.203  25.800  28.342  1.00  0.00     0.020 A 
ATOM     69  C   UNL A   1      42.170  26.029  27.361  1.00  0.00     0.054 A 
BRANCH  69  70
ATOM     70  S   UNL A   1      42.432  24.827  26.027  1.00  0.00     0.124 S 
ATOM     71  O   UNL A   1      41.559  23.730  26.436  1.00  0.00    -0.237 OA
ATOM     72  O   UNL A   1      41.999  25.565  24.843  1.00  0.00    -0.237 OA
ATOM     73  O   UNL A   1      43.863  24.543  26.092  1.00  0.00    -0.744 OA
ENDBRANCH  69  70
ENDBRANCH  50  64
BRANCH  51  74
ATOM     74  C   UNL A   1      39.955  34.482  36.696  1.00  0.00    -0.014 A 
ATOM     75  C   UNL A   1      39.119  34.097  37.758  1.00  0.00     0.010 A 
ATOM     76  C   UNL A   1      40.520  35.771  36.703  1.00  0.00     0.010 A 
ATOM     77  C   UNL A   1      38.842  34.985  38.800  1.00  0.00     0.020 A 
ATOM     78  C   UNL A   1      40.265  36.654  37.756  1.00  0.00     0.020 A 
ATOM     79  C   UNL A   1      39.419  36.259  38.794  1.00  0.00     0.054 A 
BRANCH  79  80
ATOM     80  S   UNL A   1      39.089  37.376  40.185  1.00  0.00     0.124 S 
ATOM     81  O   UNL A   1      38.519  36.467  41.174  1.00  0.00    -0.237 OA
ATOM     82  O   UNL A   1      40.419  37.896  40.495  1.00  0.00    -0.237 OA
ATOM     83  O   UNL A   1      38.162  38.356  39.623  1.00  0.00    -0.744 OA
ENDBRANCH  79  80
ENDBRANCH  51  74
BRANCH  63  84
ATOM     84  C   UNL A   1      44.773  29.522  35.763  1.00  0.00    -0.014 A 
ATOM     85  C   UNL A   1      46.003  30.202  35.787  1.00  0.00     0.010 A 
ATOM     86  C   UNL A   1      44.582  28.414  36.610  1.00  0.00     0.010 A 
ATOM     87  C   UNL A   1      47.028  29.776  36.637  1.00  0.00     0.020 A 
ATOM     88  C   UNL A   1      45.595  28.001  37.478  1.00  0.00     0.020 A 
ATOM     89  C   UNL A   1      46.815  28.681  37.482  1.00  0.00     0.054 A 
BRANCH  89  90
ATOM     90  S   UNL A   1      48.133  28.197  38.630  1.00  0.00     0.124 S 
ATOM     91  O   UNL A   1      48.623  26.962  38.028  1.00  0.00    -0.237 OA
ATOM     92  O   UNL A   1      49.048  29.334  38.565  1.00  0.00    -0.237 OA
ATOM     93  O   UNL A   1      47.439  28.037  39.906  1.00  0.00    -0.744 OA
ENDBRANCH  89  90
ENDBRANCH  63  84
ENDBRANCH  37  38
ENDBRANCH  29  32
ENDBRANCH  27  28
ENDBRANCH  26  27
ENDBRANCH   1  26
TORSDOF 17
ENDMDL
