MODEL 1
REMARK VINA RESULT:     -11.9      0.000      0.000
REMARK SMILES CS(=O)(=O)c1ccc(N2N=C(C(=O)NCCCCNC(=O)c3ccc(-c4c5nc(c(-c6ccc(S(=O)(=O)[O-])cc6)c6ccc([nH]6)c(-c6ccc(S(=O)(=O)[O-])cc6)c6nc(c(-c7ccc(S(=O)(=O)[O-])cc7)c7ccc4[nH]7)C=C6)C=C5)cc3)C[C@H]2c2cccs2)cc1
REMARK SMILES IDX 17 1 16 2 15 3 14 4 12 5 13 6 11 8 9 9 10 10 83 11 82 12
REMARK SMILES IDX 8 13 5 14 6 15 90 16 7 17 89 18 2 19 1 20 3 21 4 22 84 23
REMARK SMILES IDX 85 24 88 25 86 26 87 27 18 28 19 29 20 30 21 32 22 33 23 34
REMARK SMILES IDX 81 35 24 36 80 37 25 38 26 39 27 40 74 41 28 42 79 43 73 44
REMARK SMILES IDX 75 45 29 46 78 47 72 48 71 49 30 51 60 52 41 53 59 54 42 55
REMARK SMILES IDX 45 56 58 57 76 58 43 59 44 60 57 62 77 63 46 64 31 65 32 66
REMARK SMILES IDX 40 67 33 68 39 69 34 70 35 71 36 72 37 73 38 74 61 75 62 76
REMARK SMILES IDX 70 77 63 78 69 79 64 80 65 81 66 82 67 83 68 84 47 85 48 86
REMARK SMILES IDX 56 87 49 88 55 89 50 90 51 91 52 92 53 93 54 94
REMARK H PARENT 14 7 19 31 75 50 45 61
REMARK Flexibility Score: inf
ROOT
ATOM      1  C   UNL A   1      37.268  23.295  25.615  1.00  0.00     0.023 C 
ENDROOT
BRANCH   1   2
ATOM      2  C   UNL A   1      35.799  23.702  25.557  1.00  0.00     0.023 C 
BRANCH   2   3
ATOM      3  C   UNL A   1      35.240  23.836  24.147  1.00  0.00     0.116 C 
BRANCH   3   4
ATOM      4  N   UNL A   1      33.965  23.161  24.010  1.00  0.00    -0.351 N 
ATOM      5  C   UNL A   1      32.665  23.499  24.289  1.00  0.00     0.267 C 
ATOM      6  O   UNL A   1      31.805  22.636  24.122  1.00  0.00    -0.268 OA
ATOM      7  H   UNL A   1      34.051  22.257  23.631  1.00  0.00     0.163 HD
BRANCH   5   8
ATOM      8  C   UNL A   1      32.218  24.880  24.744  1.00  0.00     0.128 C 
ATOM      9  N   UNL A   1      31.565  26.906  24.571  1.00  0.00    -0.256 N 
ATOM     10  N   UNL A   1      31.710  25.732  23.902  1.00  0.00    -0.171 NA
ATOM     11  C   UNL A   1      31.893  26.824  25.996  1.00  0.00     0.154 C 
ATOM     12  C   UNL A   1      32.296  25.356  26.155  1.00  0.00     0.097 C 
BRANCH   9  13
ATOM     13  C   UNL A   1      30.742  27.912  24.076  1.00  0.00     0.060 A 
ATOM     14  C   UNL A   1      29.039  29.967  23.201  1.00  0.00     0.067 A 
ATOM     15  C   UNL A   1      28.747  28.640  22.875  1.00  0.00     0.022 A 
ATOM     16  C   UNL A   1      30.184  30.279  23.932  1.00  0.00     0.022 A 
ATOM     17  C   UNL A   1      29.609  27.622  23.302  1.00  0.00     0.029 A 
ATOM     18  C   UNL A   1      31.024  29.254  24.361  1.00  0.00     0.029 A 
BRANCH  14  19
ATOM     19  S   UNL A   1      27.980  31.295  22.688  1.00  0.00     0.175 S 
ATOM     20  C   UNL A   1      28.953  32.770  22.793  1.00  0.00     0.163 C 
ATOM     21  O   UNL A   1      26.928  31.417  23.685  1.00  0.00    -0.224 OA
ATOM     22  O   UNL A   1      27.659  31.060  21.296  1.00  0.00    -0.224 OA
ENDBRANCH  14  19
ENDBRANCH   9  13
BRANCH  11  23
ATOM     23  C   UNL A   1      32.927  27.808  26.520  1.00  0.00     0.030 A 
ATOM     24  C   UNL A   1      32.826  28.586  27.662  1.00  0.00     0.017 A 
ATOM     25  S   UNL A   1      34.403  28.137  25.699  1.00  0.00    -0.147 S 
ATOM     26  C   UNL A   1      33.970  29.406  27.878  1.00  0.00     0.012 A 
ATOM     27  C   UNL A   1      34.928  29.214  26.911  1.00  0.00     0.065 A 
ENDBRANCH  11  23
ENDBRANCH   5   8
ENDBRANCH   3   4
ENDBRANCH   2   3
ENDBRANCH   1   2
BRANCH   1  28
ATOM     28  C   UNL A   1      38.161  24.223  26.434  1.00  0.00     0.116 C 
BRANCH  28  29
ATOM     29  N   UNL A   1      39.580  24.058  26.150  1.00  0.00    -0.352 N 
ATOM     30  C   UNL A   1      40.638  24.818  26.588  1.00  0.00     0.251 C 
ATOM     31  H   UNL A   1      39.812  23.299  25.568  1.00  0.00     0.163 HD
ATOM     32  O   UNL A   1      41.766  24.615  26.151  1.00  0.00    -0.269 OA
BRANCH  30  33
ATOM     33  C   UNL A   1      40.389  25.903  27.558  1.00  0.00     0.039 A 
ATOM     34  C   UNL A   1      39.469  25.692  28.586  1.00  0.00     0.014 A 
ATOM     35  C   UNL A   1      41.111  27.097  27.485  1.00  0.00     0.014 A 
ATOM     36  C   UNL A   1      39.329  26.655  29.588  1.00  0.00     0.010 A 
ATOM     37  C   UNL A   1      41.034  28.012  28.529  1.00  0.00     0.010 A 
ATOM     38  C   UNL A   1      40.142  27.801  29.591  1.00  0.00    -0.014 A 
BRANCH  38  39
ATOM     39  C   UNL A   1      40.079  28.785  30.702  1.00  0.00     0.031 A 
ATOM     40  C   UNL A   1      40.973  28.626  31.902  1.00  0.00     0.074 A 
ATOM     41  C   UNL A   1      39.179  29.786  30.655  1.00  0.00     0.049 A 
ATOM     42  N   UNL A   1      41.038  29.362  32.982  1.00  0.00    -0.248 NA
ATOM     43  C   UNL A   1      41.895  27.479  31.901  1.00  0.00     0.031 C 
ATOM     44  C   UNL A   1      38.224  30.020  29.568  1.00  0.00     0.029 A 
ATOM     45  N   UNL A   1      38.916  30.798  31.545  1.00  0.00    -0.354 N 
ATOM     46  C   UNL A   1      41.997  28.762  33.790  1.00  0.00     0.074 A 
ATOM     47  C   UNL A   1      42.442  27.570  33.104  1.00  0.00     0.031 C 
ATOM     48  C   UNL A   1      37.511  31.126  29.838  1.00  0.00     0.029 A 
ATOM     49  C   UNL A   1      37.923  31.654  31.134  1.00  0.00     0.049 A 
ATOM     50  H   UNL A   1      39.397  30.901  32.399  1.00  0.00     0.167 HD
ATOM     51  C   UNL A   1      42.482  29.179  34.984  1.00  0.00     0.031 A 
ATOM     52  C   UNL A   1      37.398  32.741  31.733  1.00  0.00     0.031 A 
ATOM     53  C   UNL A   1      42.039  30.368  35.662  1.00  0.00     0.049 A 
ATOM     54  C   UNL A   1      37.940  33.173  33.068  1.00  0.00     0.074 A 
ATOM     55  C   UNL A   1      42.502  30.902  36.851  1.00  0.00     0.029 A 
ATOM     56  N   UNL A   1      41.028  31.206  35.213  1.00  0.00    -0.354 N 
ATOM     57  N   UNL A   1      38.895  32.630  33.784  1.00  0.00    -0.248 NA
ATOM     58  C   UNL A   1      37.341  34.372  33.670  1.00  0.00     0.031 C 
ATOM     59  C   UNL A   1      41.732  32.031  37.151  1.00  0.00     0.029 A 
ATOM     60  C   UNL A   1      40.837  32.239  36.114  1.00  0.00     0.049 A 
ATOM     61  H   UNL A   1      40.523  31.084  34.376  1.00  0.00     0.167 HD
ATOM     62  C   UNL A   1      39.032  33.439  34.908  1.00  0.00     0.074 A 
ATOM     63  C   UNL A   1      38.073  34.516  34.765  1.00  0.00     0.031 C 
ATOM     64  C   UNL A   1      39.876  33.303  35.962  1.00  0.00     0.031 A 
BRANCH  51  65
ATOM     65  C   UNL A   1      43.549  28.335  35.634  1.00  0.00    -0.014 A 
ATOM     66  C   UNL A   1      43.215  27.312  36.539  1.00  0.00     0.010 A 
ATOM     67  C   UNL A   1      44.901  28.542  35.306  1.00  0.00     0.010 A 
ATOM     68  C   UNL A   1      44.214  26.541  37.138  1.00  0.00     0.020 A 
ATOM     69  C   UNL A   1      45.903  27.751  35.878  1.00  0.00     0.020 A 
ATOM     70  C   UNL A   1      45.552  26.766  36.805  1.00  0.00     0.054 A 
BRANCH  70  71
ATOM     71  S   UNL A   1      46.825  25.733  37.579  1.00  0.00     0.124 S 
ATOM     72  O   UNL A   1      48.044  26.235  36.950  1.00  0.00    -0.237 OA
ATOM     73  O   UNL A   1      46.675  26.051  38.998  1.00  0.00    -0.237 OA
ATOM     74  O   UNL A   1      46.446  24.373  37.205  1.00  0.00    -0.744 OA
ENDBRANCH  70  71
ENDBRANCH  51  65
BRANCH  52  75
ATOM     75  C   UNL A   1      36.312  33.510  31.063  1.00  0.00    -0.014 A 
ATOM     76  C   UNL A   1      35.155  33.878  31.773  1.00  0.00     0.010 A 
ATOM     77  C   UNL A   1      36.431  33.885  29.712  1.00  0.00     0.010 A 
ATOM     78  C   UNL A   1      34.131  34.590  31.141  1.00  0.00     0.020 A 
ATOM     79  C   UNL A   1      35.422  34.622  29.085  1.00  0.00     0.020 A 
ATOM     80  C   UNL A   1      34.273  34.960  29.801  1.00  0.00     0.054 A 
BRANCH  80  81
ATOM     81  S   UNL A   1      32.952  35.924  29.016  1.00  0.00     0.124 S 
ATOM     82  O   UNL A   1      33.704  36.974  28.335  1.00  0.00    -0.237 OA
ATOM     83  O   UNL A   1      32.313  34.937  28.149  1.00  0.00    -0.237 OA
ATOM     84  O   UNL A   1      32.137  36.369  30.146  1.00  0.00    -0.744 OA
ENDBRANCH  80  81
ENDBRANCH  52  75
BRANCH  64  85
ATOM     85  C   UNL A   1      39.827  34.364  37.029  1.00  0.00    -0.014 A 
ATOM     86  C   UNL A   1      39.064  34.194  38.198  1.00  0.00     0.010 A 
ATOM     87  C   UNL A   1      40.596  35.533  36.877  1.00  0.00     0.010 A 
ATOM     88  C   UNL A   1      39.041  35.191  39.177  1.00  0.00     0.020 A 
ATOM     89  C   UNL A   1      40.602  36.516  37.869  1.00  0.00     0.020 A 
ATOM     90  C   UNL A   1      39.811  36.346  39.007  1.00  0.00     0.054 A 
BRANCH  90  91
ATOM     91  S   UNL A   1      39.791  37.608  40.309  1.00  0.00     0.124 S 
ATOM     92  O   UNL A   1      39.051  38.692  39.670  1.00  0.00    -0.237 OA
ATOM     93  O   UNL A   1      39.094  36.930  41.400  1.00  0.00    -0.237 OA
ATOM     94  O   UNL A   1      41.206  37.877  40.553  1.00  0.00    -0.744 OA
ENDBRANCH  90  91
ENDBRANCH  64  85
ENDBRANCH  38  39
ENDBRANCH  30  33
ENDBRANCH  28  29
ENDBRANCH   1  28
TORSDOF 17
ENDMDL
MODEL 2
REMARK VINA RESULT:     -11.9      2.095      3.268
REMARK SMILES CS(=O)(=O)c1ccc(N2N=C(C(=O)NCCCCNC(=O)c3ccc(-c4c5nc(c(-c6ccc(S(=O)(=O)[O-])cc6)c6ccc([nH]6)c(-c6ccc(S(=O)(=O)[O-])cc6)c6nc(c(-c7ccc(S(=O)(=O)[O-])cc7)c7ccc4[nH]7)C=C6)C=C5)cc3)C[C@H]2c2cccs2)cc1
REMARK SMILES IDX 17 1 16 2 15 3 14 4 12 5 13 6 11 8 9 9 10 10 83 11 82 12
REMARK SMILES IDX 8 13 5 14 6 15 90 16 7 17 89 18 2 19 1 20 3 21 4 22 84 23
REMARK SMILES IDX 85 24 88 25 86 26 87 27 18 28 19 29 20 30 21 32 22 33 23 34
REMARK SMILES IDX 81 35 24 36 80 37 25 38 26 39 27 40 74 41 28 42 79 43 73 44
REMARK SMILES IDX 75 45 29 46 78 47 72 48 71 49 30 51 60 52 41 53 59 54 42 55
REMARK SMILES IDX 45 56 58 57 76 58 43 59 44 60 57 62 77 63 46 64 31 65 32 66
REMARK SMILES IDX 40 67 33 68 39 69 34 70 35 71 36 72 37 73 38 74 61 75 62 76
REMARK SMILES IDX 70 77 63 78 69 79 64 80 65 81 66 82 67 83 68 84 47 85 48 86
REMARK SMILES IDX 56 87 49 88 55 89 50 90 51 91 52 92 53 93 54 94
REMARK H PARENT 14 7 19 31 75 50 45 61
REMARK Flexibility Score: inf
ROOT
ATOM      1  C   UNL A   1      38.009  23.757  26.114  1.00  0.00     0.023 C 
ENDROOT
BRANCH   1   2
ATOM      2  C   UNL A   1      36.518  23.888  26.410  1.00  0.00     0.023 C 
BRANCH   2   3
ATOM      3  C   UNL A   1      35.611  23.351  25.310  1.00  0.00     0.116 C 
BRANCH   3   4
ATOM      4  N   UNL A   1      34.268  23.109  25.796  1.00  0.00    -0.351 N 
ATOM      5  C   UNL A   1      33.161  23.894  25.992  1.00  0.00     0.267 C 
ATOM      6  O   UNL A   1      32.177  23.371  26.510  1.00  0.00    -0.268 OA
ATOM      7  H   UNL A   1      34.115  22.167  26.039  1.00  0.00     0.163 HD
BRANCH   5   8
ATOM      8  C   UNL A   1      33.060  25.353  25.569  1.00  0.00     0.128 C 
ATOM      9  N   UNL A   1      32.842  27.466  25.786  1.00  0.00    -0.256 N 
ATOM     10  N   UNL A   1      33.121  26.311  26.447  1.00  0.00    -0.171 NA
ATOM     11  C   UNL A   1      32.686  27.302  24.340  1.00  0.00     0.154 C 
ATOM     12  C   UNL A   1      32.911  25.800  24.155  1.00  0.00     0.097 C 
BRANCH   9  13
ATOM     13  C   UNL A   1      33.158  28.700  26.344  1.00  0.00     0.060 A 
ATOM     14  C   UNL A   1      33.807  31.132  27.590  1.00  0.00     0.067 A 
ATOM     15  C   UNL A   1      32.522  30.937  27.079  1.00  0.00     0.022 A 
ATOM     16  C   UNL A   1      34.777  30.139  27.460  1.00  0.00     0.022 A 
ATOM     17  C   UNL A   1      32.211  29.728  26.446  1.00  0.00     0.029 A 
ATOM     18  C   UNL A   1      34.447  28.936  26.840  1.00  0.00     0.029 A 
BRANCH  14  19
ATOM     19  S   UNL A   1      34.256  32.644  28.404  1.00  0.00     0.175 S 
ATOM     20  C   UNL A   1      35.954  32.935  28.002  1.00  0.00     0.163 C 
ATOM     21  O   UNL A   1      34.203  32.393  29.836  1.00  0.00    -0.224 OA
ATOM     22  O   UNL A   1      33.458  33.693  27.805  1.00  0.00    -0.224 OA
ENDBRANCH  14  19
ENDBRANCH   9  13
BRANCH  11  23
ATOM     23  C   UNL A   1      31.392  27.813  23.727  1.00  0.00     0.030 A 
ATOM     24  C   UNL A   1      30.109  27.375  24.016  1.00  0.00     0.017 A 
ATOM     25  S   UNL A   1      31.352  29.020  22.502  1.00  0.00    -0.147 S 
ATOM     26  C   UNL A   1      29.108  28.060  23.269  1.00  0.00     0.012 A 
ATOM     27  C   UNL A   1      29.649  29.022  22.450  1.00  0.00     0.065 A 
ENDBRANCH  11  23
ENDBRANCH   5   8
ENDBRANCH   3   4
ENDBRANCH   2   3
ENDBRANCH   1   2
BRANCH   1  28
ATOM     28  C   UNL A   1      38.901  24.752  26.850  1.00  0.00     0.116 C 
BRANCH  28  29
ATOM     29  N   UNL A   1      39.979  25.281  26.026  1.00  0.00    -0.352 N 
ATOM     30  C   UNL A   1      40.710  26.432  26.201  1.00  0.00     0.251 C 
ATOM     31  H   UNL A   1      40.218  24.741  25.239  1.00  0.00     0.163 HD
ATOM     32  O   UNL A   1      41.503  26.797  25.339  1.00  0.00    -0.269 OA
BRANCH  30  33
ATOM     33  C   UNL A   1      40.497  27.238  27.420  1.00  0.00     0.039 A 
ATOM     34  C   UNL A   1      39.946  26.627  28.547  1.00  0.00     0.014 A 
ATOM     35  C   UNL A   1      40.900  28.575  27.462  1.00  0.00     0.014 A 
ATOM     36  C   UNL A   1      39.870  27.341  29.744  1.00  0.00     0.010 A 
ATOM     37  C   UNL A   1      40.905  29.253  28.676  1.00  0.00     0.010 A 
ATOM     38  C   UNL A   1      40.389  28.644  29.830  1.00  0.00    -0.014 A 
BRANCH  38  39
ATOM     39  C   UNL A   1      40.410  29.380  31.120  1.00  0.00     0.031 A 
ATOM     40  C   UNL A   1      41.496  29.110  32.125  1.00  0.00     0.074 A 
ATOM     41  C   UNL A   1      39.420  30.248  31.408  1.00  0.00     0.049 A 
ATOM     42  N   UNL A   1      41.662  29.627  33.317  1.00  0.00    -0.248 NA
ATOM     43  C   UNL A   1      42.515  28.112  31.758  1.00  0.00     0.031 C 
ATOM     44  C   UNL A   1      38.285  30.561  30.536  1.00  0.00     0.029 A 
ATOM     45  N   UNL A   1      39.207  31.027  32.517  1.00  0.00    -0.354 N 
ATOM     46  C   UNL A   1      42.793  29.011  33.841  1.00  0.00     0.074 A 
ATOM     47  C   UNL A   1      43.236  28.040  32.866  1.00  0.00     0.031 C 
ATOM     48  C   UNL A   1      37.520  31.494  31.126  1.00  0.00     0.029 A 
ATOM     49  C   UNL A   1      38.081  31.812  32.435  1.00  0.00     0.049 A 
ATOM     50  H   UNL A   1      39.806  31.025  33.299  1.00  0.00     0.167 HD
ATOM     51  C   UNL A   1      43.421  29.250  35.017  1.00  0.00     0.031 A 
ATOM     52  C   UNL A   1      37.556  32.688  33.314  1.00  0.00     0.031 A 
ATOM     53  C   UNL A   1      42.978  30.220  35.983  1.00  0.00     0.049 A 
ATOM     54  C   UNL A   1      38.261  32.921  34.623  1.00  0.00     0.074 A 
ATOM     55  C   UNL A   1      43.572  30.571  37.183  1.00  0.00     0.029 A 
ATOM     56  N   UNL A   1      41.832  30.992  35.862  1.00  0.00    -0.354 N 
ATOM     57  N   UNL A   1      39.367  32.378  35.071  1.00  0.00    -0.248 NA
ATOM     58  C   UNL A   1      37.652  33.896  35.539  1.00  0.00     0.031 C 
ATOM     59  C   UNL A   1      42.754  31.513  37.814  1.00  0.00     0.029 A 
ATOM     60  C   UNL A   1      41.687  31.800  36.978  1.00  0.00     0.049 A 
ATOM     61  H   UNL A   1      41.213  30.969  35.097  1.00  0.00     0.167 HD
ATOM     62  C   UNL A   1      39.603  32.967  36.309  1.00  0.00     0.074 A 
ATOM     63  C   UNL A   1      38.534  33.919  36.528  1.00  0.00     0.031 C 
ATOM     64  C   UNL A   1      40.615  32.741  37.185  1.00  0.00     0.031 A 
BRANCH  51  65
ATOM     65  C   UNL A   1      44.656  28.441  35.323  1.00  0.00    -0.014 A 
ATOM     66  C   UNL A   1      44.569  27.209  35.995  1.00  0.00     0.010 A 
ATOM     67  C   UNL A   1      45.916  28.901  34.899  1.00  0.00     0.010 A 
ATOM     68  C   UNL A   1      45.722  26.472  36.276  1.00  0.00     0.020 A 
ATOM     69  C   UNL A   1      47.069  28.151  35.150  1.00  0.00     0.020 A 
ATOM     70  C   UNL A   1      46.966  26.948  35.853  1.00  0.00     0.054 A 
BRANCH  70  71
ATOM     71  S   UNL A   1      48.442  25.958  36.211  1.00  0.00     0.124 S 
ATOM     72  O   UNL A   1      49.511  26.824  35.719  1.00  0.00    -0.237 OA
ATOM     73  O   UNL A   1      48.378  25.803  37.662  1.00  0.00    -0.237 OA
ATOM     74  O   UNL A   1      48.233  24.732  35.446  1.00  0.00    -0.744 OA
ENDBRANCH  70  71
ENDBRANCH  51  65
BRANCH  52  75
ATOM     75  C   UNL A   1      36.306  33.425  32.977  1.00  0.00    -0.014 A 
ATOM     76  C   UNL A   1      36.359  34.622  32.242  1.00  0.00     0.010 A 
ATOM     77  C   UNL A   1      35.054  32.929  33.383  1.00  0.00     0.010 A 
ATOM     78  C   UNL A   1      35.187  35.320  31.935  1.00  0.00     0.020 A 
ATOM     79  C   UNL A   1      33.877  33.607  33.053  1.00  0.00     0.020 A 
ATOM     80  C   UNL A   1      33.952  34.805  32.341  1.00  0.00     0.054 A 
BRANCH  80  81
ATOM     81  S   UNL A   1      32.441  35.702  31.889  1.00  0.00     0.124 S 
ATOM     82  O   UNL A   1      32.377  35.485  30.447  1.00  0.00    -0.237 OA
ATOM     83  O   UNL A   1      31.421  35.019  32.680  1.00  0.00    -0.237 OA
ATOM     84  O   UNL A   1      32.723  37.076  32.304  1.00  0.00    -0.744 OA
ENDBRANCH  80  81
ENDBRANCH  52  75
BRANCH  64  85
ATOM     85  C   UNL A   1      40.635  33.562  38.446  1.00  0.00    -0.014 A 
ATOM     86  C   UNL A   1      41.255  34.824  38.490  1.00  0.00     0.010 A 
ATOM     87  C   UNL A   1      39.979  33.082  39.595  1.00  0.00     0.010 A 
ATOM     88  C   UNL A   1      41.252  35.571  39.671  1.00  0.00     0.020 A 
ATOM     89  C   UNL A   1      39.946  33.840  40.768  1.00  0.00     0.020 A 
ATOM     90  C   UNL A   1      40.598  35.074  40.803  1.00  0.00     0.054 A 
BRANCH  90  91
ATOM     91  S   UNL A   1      40.580  36.079  42.312  1.00  0.00     0.124 S 
ATOM     92  O   UNL A   1      40.946  35.101  43.333  1.00  0.00    -0.237 OA
ATOM     93  O   UNL A   1      41.587  37.099  42.029  1.00  0.00    -0.237 OA
ATOM     94  O   UNL A   1      39.206  36.571  42.385  1.00  0.00    -0.744 OA
ENDBRANCH  90  91
ENDBRANCH  64  85
ENDBRANCH  38  39
ENDBRANCH  30  33
ENDBRANCH  28  29
ENDBRANCH   1  28
TORSDOF 17
ENDMDL
MODEL 3
REMARK VINA RESULT:     -11.4      4.936      6.424
REMARK SMILES CS(=O)(=O)c1ccc(N2N=C(C(=O)NCCCCNC(=O)c3ccc(-c4c5nc(c(-c6ccc(S(=O)(=O)[O-])cc6)c6ccc([nH]6)c(-c6ccc(S(=O)(=O)[O-])cc6)c6nc(c(-c7ccc(S(=O)(=O)[O-])cc7)c7ccc4[nH]7)C=C6)C=C5)cc3)C[C@H]2c2cccs2)cc1
REMARK SMILES IDX 17 1 16 2 15 3 14 4 12 5 13 6 11 8 9 9 10 10 83 11 82 12
REMARK SMILES IDX 8 13 5 14 6 15 90 16 7 17 89 18 2 19 1 20 3 21 4 22 84 23
REMARK SMILES IDX 85 24 88 25 86 26 87 27 18 28 19 29 20 30 21 32 22 33 23 34
REMARK SMILES IDX 81 35 24 36 80 37 25 38 26 39 27 40 74 41 28 42 79 43 73 44
REMARK SMILES IDX 75 45 29 46 78 47 72 48 71 49 30 51 60 52 41 53 59 54 42 55
REMARK SMILES IDX 45 56 58 57 76 58 43 59 44 60 57 62 77 63 46 64 31 65 32 66
REMARK SMILES IDX 40 67 33 68 39 69 34 70 35 71 36 72 37 73 38 74 61 75 62 76
REMARK SMILES IDX 70 77 63 78 69 79 64 80 65 81 66 82 67 83 68 84 47 85 48 86
REMARK SMILES IDX 56 87 49 88 55 89 50 90 51 91 52 92 53 93 54 94
REMARK H PARENT 14 7 19 31 75 50 45 61
REMARK Flexibility Score: inf
ROOT
ATOM      1  C   UNL A   1      35.300  23.484  26.643  1.00  0.00     0.023 C 
ENDROOT
BRANCH   1   2
ATOM      2  C   UNL A   1      34.590  22.181  26.289  1.00  0.00     0.023 C 
BRANCH   2   3
ATOM      3  C   UNL A   1      33.373  22.354  25.390  1.00  0.00     0.116 C 
BRANCH   3   4
ATOM      4  N   UNL A   1      32.163  22.562  26.161  1.00  0.00    -0.351 N 
ATOM      5  C   UNL A   1      31.412  23.660  26.491  1.00  0.00     0.267 C 
ATOM      6  O   UNL A   1      30.461  23.490  27.251  1.00  0.00    -0.268 OA
ATOM      7  H   UNL A   1      31.800  21.725  26.531  1.00  0.00     0.163 HD
BRANCH   5   8
ATOM      8  C   UNL A   1      31.651  25.059  25.942  1.00  0.00     0.128 C 
ATOM      9  N   UNL A   1      31.901  27.179  25.967  1.00  0.00    -0.256 N 
ATOM     10  N   UNL A   1      31.893  26.059  26.737  1.00  0.00    -0.171 NA
ATOM     11  C   UNL A   1      31.763  26.917  24.534  1.00  0.00     0.154 C 
ATOM     12  C   UNL A   1      31.655  25.392  24.488  1.00  0.00     0.097 C 
BRANCH   9  13
ATOM     13  C   UNL A   1      32.464  28.362  26.436  1.00  0.00     0.060 A 
ATOM     14  C   UNL A   1      33.598  30.698  27.505  1.00  0.00     0.067 A 
ATOM     15  C   UNL A   1      32.298  30.730  26.997  1.00  0.00     0.022 A 
ATOM     16  C   UNL A   1      34.346  29.523  27.458  1.00  0.00     0.022 A 
ATOM     17  C   UNL A   1      31.744  29.565  26.452  1.00  0.00     0.029 A 
ATOM     18  C   UNL A   1      33.776  28.368  26.925  1.00  0.00     0.029 A 
BRANCH  14  19
ATOM     19  S   UNL A   1      34.348  32.144  28.210  1.00  0.00     0.175 S 
ATOM     20  C   UNL A   1      36.021  32.162  27.634  1.00  0.00     0.163 C 
ATOM     21  O   UNL A   1      34.403  31.942  29.649  1.00  0.00    -0.224 OA
ATOM     22  O   UNL A   1      33.660  33.287  27.648  1.00  0.00    -0.224 OA
ENDBRANCH  14  19
ENDBRANCH   9  13
BRANCH  11  23
ATOM     23  C   UNL A   1      30.637  27.638  23.809  1.00  0.00     0.030 A 
ATOM     24  C   UNL A   1      30.741  28.805  23.069  1.00  0.00     0.017 A 
ATOM     25  S   UNL A   1      29.003  27.102  23.857  1.00  0.00    -0.147 S 
ATOM     26  C   UNL A   1      29.498  29.223  22.515  1.00  0.00     0.012 A 
ATOM     27  C   UNL A   1      28.481  28.350  22.820  1.00  0.00     0.065 A 
ENDBRANCH  11  23
ENDBRANCH   5   8
ENDBRANCH   3   4
ENDBRANCH   2   3
ENDBRANCH   1   2
BRANCH   1  28
ATOM     28  C   UNL A   1      36.588  23.746  25.868  1.00  0.00     0.116 C 
BRANCH  28  29
ATOM     29  N   UNL A   1      37.602  22.721  26.069  1.00  0.00    -0.352 N 
ATOM     30  C   UNL A   1      38.898  22.867  26.503  1.00  0.00     0.251 C 
ATOM     31  H   UNL A   1      37.322  21.799  25.868  1.00  0.00     0.163 HD
ATOM     32  O   UNL A   1      39.663  21.908  26.498  1.00  0.00    -0.269 OA
BRANCH  30  33
ATOM     33  C   UNL A   1      39.363  24.199  26.938  1.00  0.00     0.039 A 
ATOM     34  C   UNL A   1      39.264  24.542  28.288  1.00  0.00     0.014 A 
ATOM     35  C   UNL A   1      39.950  25.077  26.024  1.00  0.00     0.014 A 
ATOM     36  C   UNL A   1      39.827  25.740  28.733  1.00  0.00     0.010 A 
ATOM     37  C   UNL A   1      40.586  26.225  26.484  1.00  0.00     0.010 A 
ATOM     38  C   UNL A   1      40.530  26.570  27.843  1.00  0.00    -0.014 A 
BRANCH  38  39
ATOM     39  C   UNL A   1      41.222  27.795  28.318  1.00  0.00     0.031 A 
ATOM     40  C   UNL A   1      42.720  27.897  28.232  1.00  0.00     0.074 A 
ATOM     41  C   UNL A   1      40.505  28.790  28.878  1.00  0.00     0.049 A 
ATOM     42  N   UNL A   1      43.503  28.870  28.625  1.00  0.00    -0.248 NA
ATOM     43  C   UNL A   1      43.437  26.749  27.652  1.00  0.00     0.031 C 
ATOM     44  C   UNL A   1      39.051  28.790  29.061  1.00  0.00     0.029 A 
ATOM     45  N   UNL A   1      40.902  29.996  29.398  1.00  0.00    -0.354 N 
ATOM     46  C   UNL A   1      44.798  28.447  28.351  1.00  0.00     0.074 A 
ATOM     47  C   UNL A   1      44.701  27.108  27.815  1.00  0.00     0.031 C 
ATOM     48  C   UNL A   1      38.678  29.955  29.615  1.00  0.00     0.029 A 
ATOM     49  C   UNL A   1      39.864  30.765  29.867  1.00  0.00     0.049 A 
ATOM     50  H   UNL A   1      41.843  30.284  29.431  1.00  0.00     0.167 HD
ATOM     51  C   UNL A   1      45.962  29.121  28.506  1.00  0.00     0.031 A 
ATOM     52  C   UNL A   1      39.865  31.985  30.440  1.00  0.00     0.031 A 
ATOM     53  C   UNL A   1      46.054  30.456  29.036  1.00  0.00     0.049 A 
ATOM     54  C   UNL A   1      41.173  32.706  30.621  1.00  0.00     0.074 A 
ATOM     55  C   UNL A   1      47.181  31.245  29.189  1.00  0.00     0.029 A 
ATOM     56  N   UNL A   1      44.979  31.199  29.503  1.00  0.00    -0.354 N 
ATOM     57  N   UNL A   1      42.381  32.316  30.292  1.00  0.00    -0.248 NA
ATOM     58  C   UNL A   1      41.115  34.038  31.239  1.00  0.00     0.031 C 
ATOM     59  C   UNL A   1      46.796  32.441  29.801  1.00  0.00     0.029 A 
ATOM     60  C   UNL A   1      45.420  32.427  29.967  1.00  0.00     0.049 A 
ATOM     61  H   UNL A   1      44.042  30.898  29.503  1.00  0.00     0.167 HD
ATOM     62  C   UNL A   1      43.224  33.368  30.637  1.00  0.00     0.074 A 
ATOM     63  C   UNL A   1      42.385  34.414  31.182  1.00  0.00     0.031 C 
ATOM     64  C   UNL A   1      44.573  33.459  30.511  1.00  0.00     0.031 A 
BRANCH  51  65
ATOM     65  C   UNL A   1      47.232  28.420  28.099  1.00  0.00    -0.014 A 
ATOM     66  C   UNL A   1      47.994  27.696  29.035  1.00  0.00     0.010 A 
ATOM     67  C   UNL A   1      47.650  28.452  26.757  1.00  0.00     0.010 A 
ATOM     68  C   UNL A   1      49.172  27.055  28.645  1.00  0.00     0.020 A 
ATOM     69  C   UNL A   1      48.812  27.784  26.356  1.00  0.00     0.020 A 
ATOM     70  C   UNL A   1      49.574  27.103  27.308  1.00  0.00     0.054 A 
BRANCH  70  71
ATOM     71  S   UNL A   1      51.095  26.240  26.827  1.00  0.00     0.124 S 
ATOM     72  O   UNL A   1      51.330  26.770  25.485  1.00  0.00    -0.237 OA
ATOM     73  O   UNL A   1      52.046  26.676  27.848  1.00  0.00    -0.237 OA
ATOM     74  O   UNL A   1      50.727  24.828  26.883  1.00  0.00    -0.744 OA
ENDBRANCH  70  71
ENDBRANCH  51  65
BRANCH  52  75
ATOM     75  C   UNL A   1      38.581  32.611  30.866  1.00  0.00    -0.014 A 
ATOM     76  C   UNL A   1      37.959  32.219  32.063  1.00  0.00     0.010 A 
ATOM     77  C   UNL A   1      37.978  33.607  30.078  1.00  0.00     0.010 A 
ATOM     78  C   UNL A   1      36.748  32.797  32.456  1.00  0.00     0.020 A 
ATOM     79  C   UNL A   1      36.783  34.210  30.481  1.00  0.00     0.020 A 
ATOM     80  C   UNL A   1      36.169  33.793  31.663  1.00  0.00     0.054 A 
BRANCH  80  81
ATOM     81  S   UNL A   1      34.624  34.563  32.218  1.00  0.00     0.124 S 
ATOM     82  O   UNL A   1      35.108  35.591  33.135  1.00  0.00    -0.237 OA
ATOM     83  O   UNL A   1      34.047  35.050  30.967  1.00  0.00    -0.237 OA
ATOM     84  O   UNL A   1      33.896  33.459  32.841  1.00  0.00    -0.744 OA
ENDBRANCH  80  81
ENDBRANCH  52  75
BRANCH  64  85
ATOM     85  C   UNL A   1      45.222  34.748  30.939  1.00  0.00    -0.014 A 
ATOM     86  C   UNL A   1      45.360  35.830  30.050  1.00  0.00     0.010 A 
ATOM     87  C   UNL A   1      45.659  34.895  32.268  1.00  0.00     0.010 A 
ATOM     88  C   UNL A   1      45.958  37.019  30.474  1.00  0.00     0.020 A 
ATOM     89  C   UNL A   1      46.228  36.094  32.704  1.00  0.00     0.020 A 
ATOM     90  C   UNL A   1      46.390  37.144  31.798  1.00  0.00     0.054 A 
BRANCH  90  91
ATOM     91  S   UNL A   1      47.131  38.710  32.331  1.00  0.00     0.124 S 
ATOM     92  O   UNL A   1      46.997  38.632  33.783  1.00  0.00    -0.237 OA
ATOM     93  O   UNL A   1      48.496  38.608  31.819  1.00  0.00    -0.237 OA
ATOM     94  O   UNL A   1      46.304  39.725  31.682  1.00  0.00    -0.744 OA
ENDBRANCH  90  91
ENDBRANCH  64  85
ENDBRANCH  38  39
ENDBRANCH  30  33
ENDBRANCH  28  29
ENDBRANCH   1  28
TORSDOF 17
ENDMDL
