MODEL 1
REMARK VINA RESULT:     -10.6      0.000      0.000
REMARK SMILES O=C(NCCCCNC(=O)[C@@H]1C=C[C@H](NC(=O)[C@@H]2CCSC2)C1)c1ccc(-c2c3nc(c(-c4ccc(S(=O)(=O)[O-])cc4)c4ccc([nH]4)c(-c4ccc(S(=O)(=O)[O-])cc4)c4nc(c(-c5ccc(S(=O)(=O)[O-])cc5)c5ccc2[nH]5)C=C4)C=C3)cc1
REMARK SMILES IDX 5 1 4 2 3 3 1 4 2 5 24 7 25 8 83 9 26 10 82 11 27 12 28 13
REMARK SMILES IDX 29 14 76 15 30 16 81 17 75 18 77 19 31 20 80 21 74 22 73 23
REMARK SMILES IDX 32 25 62 26 43 27 61 28 44 29 47 30 60 31 78 32 45 33 46 34
REMARK SMILES IDX 59 36 79 37 48 38 33 39 34 40 42 41 35 42 41 43 36 44 37 45
REMARK SMILES IDX 38 46 39 47 40 48 63 49 64 50 72 51 65 52 71 53 66 54 67 55
REMARK SMILES IDX 68 56 69 57 70 58 49 59 50 60 58 61 51 62 57 63 52 64 53 65
REMARK SMILES IDX 54 66 55 67 56 68 6 69 7 70 8 71 9 72 10 74 11 75 12 76
REMARK SMILES IDX 23 77 13 78 14 79 15 80 16 81 17 83 18 84 19 85 22 86 20 87
REMARK SMILES IDX 21 88
REMARK H PARENT 3 6 77 24 47 35 8 73 15 82
REMARK Flexibility Score: inf
ROOT
ATOM      1  C   UNL A   1      32.596  27.335  26.704  1.00  0.00     0.023 C 
ENDROOT
BRANCH   1   2
ATOM      2  C   UNL A   1      33.858  28.172  26.882  1.00  0.00     0.116 C 
BRANCH   2   3
ATOM      3  N   UNL A   1      33.576  29.577  27.126  1.00  0.00    -0.352 N 
ATOM      4  O   UNL A   1      33.903  31.632  27.991  1.00  0.00    -0.269 OA
ATOM      5  C   UNL A   1      34.359  30.518  27.750  1.00  0.00     0.251 C 
ATOM      6  H   UNL A   1      32.706  29.900  26.797  1.00  0.00     0.163 HD
BRANCH   5   7
ATOM      7  C   UNL A   1      35.739  30.172  28.157  1.00  0.00     0.039 A 
ATOM      8  C   UNL A   1      36.797  30.280  27.251  1.00  0.00     0.014 A 
ATOM      9  C   UNL A   1      35.973  29.732  29.462  1.00  0.00     0.014 A 
ATOM     10  C   UNL A   1      38.064  29.829  27.610  1.00  0.00     0.010 A 
ATOM     11  C   UNL A   1      37.260  29.347  29.843  1.00  0.00     0.010 A 
ATOM     12  C   UNL A   1      38.310  29.366  28.912  1.00  0.00    -0.014 A 
BRANCH  12  13
ATOM     13  C   UNL A   1      39.687  28.969  29.299  1.00  0.00     0.031 A 
ATOM     14  C   UNL A   1      40.586  29.905  30.057  1.00  0.00     0.074 A 
ATOM     15  C   UNL A   1      40.122  27.740  28.960  1.00  0.00     0.049 A 
ATOM     16  N   UNL A   1      41.810  29.708  30.474  1.00  0.00    -0.248 NA
ATOM     17  C   UNL A   1      40.046  31.235  30.382  1.00  0.00     0.031 C 
ATOM     18  C   UNL A   1      39.347  26.750  28.207  1.00  0.00     0.029 A 
ATOM     19  N   UNL A   1      41.316  27.112  29.204  1.00  0.00    -0.354 N 
ATOM     20  C   UNL A   1      42.199  30.892  31.090  1.00  0.00     0.074 A 
ATOM     21  C   UNL A   1      41.083  31.810  30.975  1.00  0.00     0.031 C 
ATOM     22  C   UNL A   1      40.074  25.631  28.075  1.00  0.00     0.029 A 
ATOM     23  C   UNL A   1      41.383  25.842  28.684  1.00  0.00     0.049 A 
ATOM     24  H   UNL A   1      42.054  27.530  29.704  1.00  0.00     0.167 HD
ATOM     25  C   UNL A   1      43.375  31.187  31.696  1.00  0.00     0.031 A 
ATOM     26  C   UNL A   1      42.390  24.949  28.673  1.00  0.00     0.031 A 
ATOM     27  C   UNL A   1      44.480  30.271  31.804  1.00  0.00     0.049 A 
ATOM     28  C   UNL A   1      43.685  25.300  29.340  1.00  0.00     0.074 A 
ATOM     29  C   UNL A   1      45.696  30.461  32.438  1.00  0.00     0.029 A 
ATOM     30  N   UNL A   1      44.511  28.996  31.256  1.00  0.00    -0.354 N 
ATOM     31  N   UNL A   1      44.014  26.406  29.963  1.00  0.00    -0.248 NA
ATOM     32  C   UNL A   1      44.745  24.284  29.308  1.00  0.00     0.031 C 
ATOM     33  C   UNL A   1      46.481  29.320  32.232  1.00  0.00     0.029 A 
ATOM     34  C   UNL A   1      45.735  28.399  31.512  1.00  0.00     0.049 A 
ATOM     35  H   UNL A   1      43.773  28.579  30.757  1.00  0.00     0.167 HD
ATOM     36  C   UNL A   1      45.317  26.219  30.403  1.00  0.00     0.074 A 
ATOM     37  C   UNL A   1      45.709  24.884  29.994  1.00  0.00     0.031 C 
ATOM     38  C   UNL A   1      46.116  27.076  31.085  1.00  0.00     0.031 A 
BRANCH  25  39
ATOM     39  C   UNL A   1      43.538  32.575  32.257  1.00  0.00    -0.014 A 
ATOM     40  C   UNL A   1      44.010  33.635  31.461  1.00  0.00     0.010 A 
ATOM     41  C   UNL A   1      43.191  32.828  33.596  1.00  0.00     0.010 A 
ATOM     42  C   UNL A   1      44.178  34.910  32.008  1.00  0.00     0.020 A 
ATOM     43  C   UNL A   1      43.336  34.108  34.141  1.00  0.00     0.020 A 
ATOM     44  C   UNL A   1      43.851  35.136  33.349  1.00  0.00     0.054 A 
BRANCH  44  45
ATOM     45  S   UNL A   1      44.089  36.797  34.039  1.00  0.00     0.124 S 
ATOM     46  O   UNL A   1      44.207  36.513  35.467  1.00  0.00    -0.237 OA
ATOM     47  O   UNL A   1      45.315  37.246  33.385  1.00  0.00    -0.237 OA
ATOM     48  O   UNL A   1      42.878  37.512  33.644  1.00  0.00    -0.744 OA
ENDBRANCH  44  45
ENDBRANCH  25  39
BRANCH  26  49
ATOM     49  C   UNL A   1      42.193  23.647  27.984  1.00  0.00    -0.014 A 
ATOM     50  C   UNL A   1      42.787  23.400  26.735  1.00  0.00     0.010 A 
ATOM     51  C   UNL A   1      41.469  22.620  28.618  1.00  0.00     0.010 A 
ATOM     52  C   UNL A   1      42.665  22.143  26.134  1.00  0.00     0.020 A 
ATOM     53  C   UNL A   1      41.366  21.357  28.031  1.00  0.00     0.020 A 
ATOM     54  C   UNL A   1      41.961  21.128  26.789  1.00  0.00     0.054 A 
BRANCH  54  55
ATOM     55  S   UNL A   1      41.897  19.477  26.039  1.00  0.00     0.124 S 
ATOM     56  O   UNL A   1      42.742  19.648  24.861  1.00  0.00    -0.237 OA
ATOM     57  O   UNL A   1      42.444  18.627  27.093  1.00  0.00    -0.237 OA
ATOM     58  O   UNL A   1      40.475  19.281  25.768  1.00  0.00    -0.744 OA
ENDBRANCH  54  55
ENDBRANCH  26  49
BRANCH  38  59
ATOM     59  C   UNL A   1      47.495  26.593  31.440  1.00  0.00    -0.014 A 
ATOM     60  C   UNL A   1      47.706  25.755  32.548  1.00  0.00     0.010 A 
ATOM     61  C   UNL A   1      48.587  26.941  30.623  1.00  0.00     0.010 A 
ATOM     62  C   UNL A   1      48.989  25.292  32.849  1.00  0.00     0.020 A 
ATOM     63  C   UNL A   1      49.867  26.462  30.907  1.00  0.00     0.020 A 
ATOM     64  C   UNL A   1      50.063  25.649  32.026  1.00  0.00     0.054 A 
BRANCH  64  65
ATOM     65  S   UNL A   1      51.711  24.997  32.407  1.00  0.00     0.124 S 
ATOM     66  O   UNL A   1      52.443  25.282  31.175  1.00  0.00    -0.237 OA
ATOM     67  O   UNL A   1      52.110  25.785  33.571  1.00  0.00    -0.237 OA
ATOM     68  O   UNL A   1      51.469  23.581  32.675  1.00  0.00    -0.744 OA
ENDBRANCH  64  65
ENDBRANCH  38  59
ENDBRANCH  12  13
ENDBRANCH   5   7
ENDBRANCH   2   3
ENDBRANCH   1   2
BRANCH   1  69
ATOM     69  C   UNL A   1      32.533  26.513  25.417  1.00  0.00     0.023 C 
BRANCH  69  70
ATOM     70  C   UNL A   1      33.696  26.736  24.453  1.00  0.00     0.116 C 
BRANCH  70  71
ATOM     71  N   UNL A   1      33.669  25.809  23.335  1.00  0.00    -0.356 N 
ATOM     72  C   UNL A   1      34.151  24.529  23.264  1.00  0.00     0.227 C 
ATOM     73  H   UNL A   1      33.247  26.149  22.513  1.00  0.00     0.163 HD
ATOM     74  O   UNL A   1      34.076  23.923  22.195  1.00  0.00    -0.274 OA
BRANCH  72  75
ATOM     75  C   UNL A   1      34.775  23.915  24.515  1.00  0.00     0.103 C 
ATOM     76  C   UNL A   1      35.888  22.995  24.113  1.00  0.00    -0.016 C 
ATOM     77  C   UNL A   1      33.815  22.988  25.282  1.00  0.00     0.047 C 
ATOM     78  C   UNL A   1      35.606  21.716  24.371  1.00  0.00    -0.006 C 
ATOM     79  C   UNL A   1      34.280  21.546  25.027  1.00  0.00     0.106 C 
BRANCH  79  80
ATOM     80  N   UNL A   1      33.399  20.833  24.129  1.00  0.00    -0.350 N 
ATOM     81  C   UNL A   1      33.053  19.511  24.117  1.00  0.00     0.224 C 
ATOM     82  H   UNL A   1      32.988  21.380  23.422  1.00  0.00     0.164 HD
ATOM     83  O   UNL A   1      32.210  19.130  23.306  1.00  0.00    -0.275 OA
BRANCH  81  84
ATOM     84  C   UNL A   1      33.751  18.546  25.075  1.00  0.00     0.089 C 
ATOM     85  C   UNL A   1      34.811  17.718  24.347  1.00  0.00     0.025 C 
ATOM     86  C   UNL A   1      32.784  17.560  25.734  1.00  0.00     0.083 C 
ATOM     87  C   UNL A   1      34.096  16.594  23.617  1.00  0.00     0.070 C 
ATOM     88  S   UNL A   1      32.884  15.995  24.813  1.00  0.00    -0.161 SA
ENDBRANCH  81  84
ENDBRANCH  79  80
ENDBRANCH  72  75
ENDBRANCH  70  71
ENDBRANCH  69  70
ENDBRANCH   1  69
TORSDOF 16
ENDMDL
MODEL 2
REMARK VINA RESULT:     -10.5      4.453     10.255
REMARK SMILES O=C(NCCCCNC(=O)[C@@H]1C=C[C@H](NC(=O)[C@@H]2CCSC2)C1)c1ccc(-c2c3nc(c(-c4ccc(S(=O)(=O)[O-])cc4)c4ccc([nH]4)c(-c4ccc(S(=O)(=O)[O-])cc4)c4nc(c(-c5ccc(S(=O)(=O)[O-])cc5)c5ccc2[nH]5)C=C4)C=C3)cc1
REMARK SMILES IDX 5 1 4 2 3 3 1 4 2 5 24 7 25 8 83 9 26 10 82 11 27 12 28 13
REMARK SMILES IDX 29 14 76 15 30 16 81 17 75 18 77 19 31 20 80 21 74 22 73 23
REMARK SMILES IDX 32 25 62 26 43 27 61 28 44 29 47 30 60 31 78 32 45 33 46 34
REMARK SMILES IDX 59 36 79 37 48 38 33 39 34 40 42 41 35 42 41 43 36 44 37 45
REMARK SMILES IDX 38 46 39 47 40 48 63 49 64 50 72 51 65 52 71 53 66 54 67 55
REMARK SMILES IDX 68 56 69 57 70 58 49 59 50 60 58 61 51 62 57 63 52 64 53 65
REMARK SMILES IDX 54 66 55 67 56 68 6 69 7 70 8 71 9 72 10 74 11 75 12 76
REMARK SMILES IDX 23 77 13 78 14 79 15 80 16 81 17 83 18 84 19 85 22 86 20 87
REMARK SMILES IDX 21 88
REMARK H PARENT 3 6 77 24 47 35 8 73 15 82
REMARK Flexibility Score: inf
ROOT
ATOM      1  C   UNL A   1      41.463  22.413  28.128  1.00  0.00     0.023 C 
ENDROOT
BRANCH   1   2
ATOM      2  C   UNL A   1      42.682  23.221  27.699  1.00  0.00     0.116 C 
BRANCH   2   3
ATOM      3  N   UNL A   1      42.500  23.883  26.417  1.00  0.00    -0.352 N 
ATOM      4  O   UNL A   1      41.820  25.500  25.004  1.00  0.00    -0.269 OA
ATOM      5  C   UNL A   1      42.039  25.151  26.160  1.00  0.00     0.251 C 
ATOM      6  H   UNL A   1      42.742  23.351  25.626  1.00  0.00     0.163 HD
BRANCH   5   7
ATOM      7  C   UNL A   1      41.780  26.080  27.282  1.00  0.00     0.039 A 
ATOM      8  C   UNL A   1      42.667  27.123  27.564  1.00  0.00     0.014 A 
ATOM      9  C   UNL A   1      40.634  25.902  28.062  1.00  0.00     0.014 A 
ATOM     10  C   UNL A   1      42.476  27.905  28.699  1.00  0.00     0.010 A 
ATOM     11  C   UNL A   1      40.406  26.735  29.159  1.00  0.00     0.010 A 
ATOM     12  C   UNL A   1      41.340  27.725  29.503  1.00  0.00    -0.014 A 
BRANCH  12  13
ATOM     13  C   UNL A   1      41.112  28.626  30.661  1.00  0.00     0.031 A 
ATOM     14  C   UNL A   1      41.962  28.540  31.897  1.00  0.00     0.074 A 
ATOM     15  C   UNL A   1      40.121  29.535  30.584  1.00  0.00     0.049 A 
ATOM     16  N   UNL A   1      41.897  29.256  32.989  1.00  0.00    -0.248 NA
ATOM     17  C   UNL A   1      43.017  27.514  31.913  1.00  0.00     0.031 C 
ATOM     18  C   UNL A   1      39.216  29.700  29.443  1.00  0.00     0.029 A 
ATOM     19  N   UNL A   1      39.710  30.492  31.476  1.00  0.00    -0.354 N 
ATOM     20  C   UNL A   1      42.881  28.757  33.834  1.00  0.00     0.074 A 
ATOM     21  C   UNL A   1      43.520  27.662  33.131  1.00  0.00     0.031 C 
ATOM     22  C   UNL A   1      38.375  30.714  29.693  1.00  0.00     0.029 A 
ATOM     23  C   UNL A   1      38.644  31.234  31.029  1.00  0.00     0.049 A 
ATOM     24  H   UNL A   1      40.137  30.632  32.351  1.00  0.00     0.167 HD
ATOM     25  C   UNL A   1      43.223  29.173  35.078  1.00  0.00     0.031 A 
ATOM     26  C   UNL A   1      37.940  32.212  31.630  1.00  0.00     0.031 A 
ATOM     27  C   UNL A   1      42.582  30.260  35.771  1.00  0.00     0.049 A 
ATOM     28  C   UNL A   1      38.329  32.649  33.011  1.00  0.00     0.074 A 
ATOM     29  C   UNL A   1      42.886  30.785  37.015  1.00  0.00     0.029 A 
ATOM     30  N   UNL A   1      41.500  30.982  35.287  1.00  0.00    -0.354 N 
ATOM     31  N   UNL A   1      39.298  32.199  33.771  1.00  0.00    -0.248 NA
ATOM     32  C   UNL A   1      37.535  33.726  33.614  1.00  0.00     0.031 C 
ATOM     33  C   UNL A   1      41.958  31.792  37.304  1.00  0.00     0.029 A 
ATOM     34  C   UNL A   1      41.106  31.929  36.219  1.00  0.00     0.049 A 
ATOM     35  H   UNL A   1      41.075  30.841  34.411  1.00  0.00     0.167 HD
ATOM     36  C   UNL A   1      39.236  32.942  34.942  1.00  0.00     0.074 A 
ATOM     37  C   UNL A   1      38.146  33.886  34.780  1.00  0.00     0.031 C 
ATOM     38  C   UNL A   1      40.011  32.851  36.050  1.00  0.00     0.031 A 
BRANCH  25  39
ATOM     39  C   UNL A   1      44.320  28.421  35.784  1.00  0.00    -0.014 A 
ATOM     40  C   UNL A   1      45.667  28.808  35.664  1.00  0.00     0.010 A 
ATOM     41  C   UNL A   1      43.995  27.323  36.601  1.00  0.00     0.010 A 
ATOM     42  C   UNL A   1      46.672  28.081  36.307  1.00  0.00     0.020 A 
ATOM     43  C   UNL A   1      44.996  26.606  37.265  1.00  0.00     0.020 A 
ATOM     44  C   UNL A   1      46.331  26.977  37.095  1.00  0.00     0.054 A 
BRANCH  44  45
ATOM     45  S   UNL A   1      47.655  26.042  37.911  1.00  0.00     0.124 S 
ATOM     46  O   UNL A   1      48.208  27.040  38.823  1.00  0.00    -0.237 OA
ATOM     47  O   UNL A   1      46.932  24.944  38.547  1.00  0.00    -0.237 OA
ATOM     48  O   UNL A   1      48.531  25.651  36.810  1.00  0.00    -0.744 OA
ENDBRANCH  44  45
ENDBRANCH  25  39
BRANCH  26  49
ATOM     49  C   UNL A   1      36.787  32.816  30.915  1.00  0.00    -0.014 A 
ATOM     50  C   UNL A   1      35.469  32.498  31.281  1.00  0.00     0.010 A 
ATOM     51  C   UNL A   1      37.010  33.777  29.911  1.00  0.00     0.010 A 
ATOM     52  C   UNL A   1      34.392  33.135  30.658  1.00  0.00     0.020 A 
ATOM     53  C   UNL A   1      35.936  34.433  29.304  1.00  0.00     0.020 A 
ATOM     54  C   UNL A   1      34.633  34.103  29.678  1.00  0.00     0.054 A 
BRANCH  54  55
ATOM     55  S   UNL A   1      33.225  34.988  28.951  1.00  0.00     0.124 S 
ATOM     56  O   UNL A   1      33.872  36.162  28.373  1.00  0.00    -0.237 OA
ATOM     57  O   UNL A   1      32.700  34.019  27.993  1.00  0.00    -0.237 OA
ATOM     58  O   UNL A   1      32.359  35.250  30.099  1.00  0.00    -0.744 OA
ENDBRANCH  54  55
ENDBRANCH  26  49
BRANCH  38  59
ATOM     59  C   UNL A   1      39.713  33.802  37.175  1.00  0.00    -0.014 A 
ATOM     60  C   UNL A   1      39.052  33.366  38.337  1.00  0.00     0.010 A 
ATOM     61  C   UNL A   1      40.147  35.138  37.092  1.00  0.00     0.010 A 
ATOM     62  C   UNL A   1      38.808  34.255  39.386  1.00  0.00     0.020 A 
ATOM     63  C   UNL A   1      39.924  36.025  38.147  1.00  0.00     0.020 A 
ATOM     64  C   UNL A   1      39.245  35.580  39.284  1.00  0.00     0.054 A 
BRANCH  64  65
ATOM     65  S   UNL A   1      38.960  36.705  40.678  1.00  0.00     0.124 S 
ATOM     66  O   UNL A   1      40.301  36.831  41.245  1.00  0.00    -0.237 OA
ATOM     67  O   UNL A   1      38.439  37.904  40.025  1.00  0.00    -0.237 OA
ATOM     68  O   UNL A   1      37.997  35.988  41.509  1.00  0.00    -0.744 OA
ENDBRANCH  64  65
ENDBRANCH  38  59
ENDBRANCH  12  13
ENDBRANCH   5   7
ENDBRANCH   2   3
ENDBRANCH   1   2
BRANCH   1  69
ATOM     69  C   UNL A   1      41.145  21.197  27.256  1.00  0.00     0.023 C 
BRANCH  69  70
ATOM     70  C   UNL A   1      39.983  21.388  26.284  1.00  0.00     0.116 C 
BRANCH  70  71
ATOM     71  N   UNL A   1      39.232  22.601  26.556  1.00  0.00    -0.356 N 
ATOM     72  C   UNL A   1      38.043  23.018  26.021  1.00  0.00     0.227 C 
ATOM     73  H   UNL A   1      39.636  23.209  27.218  1.00  0.00     0.163 HD
ATOM     74  O   UNL A   1      37.595  24.117  26.349  1.00  0.00    -0.274 OA
BRANCH  72  75
ATOM     75  C   UNL A   1      37.332  22.104  25.025  1.00  0.00     0.103 C 
ATOM     76  C   UNL A   1      36.954  22.894  23.809  1.00  0.00    -0.016 C 
ATOM     77  C   UNL A   1      35.977  21.582  25.538  1.00  0.00     0.047 C 
ATOM     78  C   UNL A   1      35.632  23.035  23.687  1.00  0.00    -0.006 C 
ATOM     79  C   UNL A   1      34.882  22.336  24.768  1.00  0.00     0.106 C 
BRANCH  79  80
ATOM     80  N   UNL A   1      34.209  23.320  25.585  1.00  0.00    -0.350 N 
ATOM     81  C   UNL A   1      33.005  23.935  25.393  1.00  0.00     0.224 C 
ATOM     82  H   UNL A   1      34.689  23.586  26.403  1.00  0.00     0.164 HD
ATOM     83  O   UNL A   1      32.580  24.685  26.270  1.00  0.00    -0.275 OA
BRANCH  81  84
ATOM     84  C   UNL A   1      32.250  23.709  24.083  1.00  0.00     0.089 C 
ATOM     85  C   UNL A   1      32.674  24.723  23.020  1.00  0.00     0.025 C 
ATOM     86  C   UNL A   1      30.733  23.831  24.243  1.00  0.00     0.083 C 
ATOM     87  C   UNL A   1      31.940  26.023  23.305  1.00  0.00     0.070 C 
ATOM     88  S   UNL A   1      30.258  25.499  23.695  1.00  0.00    -0.161 SA
ENDBRANCH  81  84
ENDBRANCH  79  80
ENDBRANCH  72  75
ENDBRANCH  70  71
ENDBRANCH  69  70
ENDBRANCH   1  69
TORSDOF 16
ENDMDL
MODEL 3
REMARK VINA RESULT:     -10.4      4.639      9.945
REMARK SMILES O=C(NCCCCNC(=O)[C@@H]1C=C[C@H](NC(=O)[C@@H]2CCSC2)C1)c1ccc(-c2c3nc(c(-c4ccc(S(=O)(=O)[O-])cc4)c4ccc([nH]4)c(-c4ccc(S(=O)(=O)[O-])cc4)c4nc(c(-c5ccc(S(=O)(=O)[O-])cc5)c5ccc2[nH]5)C=C4)C=C3)cc1
REMARK SMILES IDX 5 1 4 2 3 3 1 4 2 5 24 7 25 8 83 9 26 10 82 11 27 12 28 13
REMARK SMILES IDX 29 14 76 15 30 16 81 17 75 18 77 19 31 20 80 21 74 22 73 23
REMARK SMILES IDX 32 25 62 26 43 27 61 28 44 29 47 30 60 31 78 32 45 33 46 34
REMARK SMILES IDX 59 36 79 37 48 38 33 39 34 40 42 41 35 42 41 43 36 44 37 45
REMARK SMILES IDX 38 46 39 47 40 48 63 49 64 50 72 51 65 52 71 53 66 54 67 55
REMARK SMILES IDX 68 56 69 57 70 58 49 59 50 60 58 61 51 62 57 63 52 64 53 65
REMARK SMILES IDX 54 66 55 67 56 68 6 69 7 70 8 71 9 72 10 74 11 75 12 76
REMARK SMILES IDX 23 77 13 78 14 79 15 80 16 81 17 83 18 84 19 85 22 86 20 87
REMARK SMILES IDX 21 88
REMARK H PARENT 3 6 77 24 47 35 8 73 15 82
REMARK Flexibility Score: inf
ROOT
ATOM      1  C   UNL A   1      40.209  22.620  27.677  1.00  0.00     0.023 C 
ENDROOT
BRANCH   1   2
ATOM      2  C   UNL A   1      41.500  23.422  27.555  1.00  0.00     0.116 C 
BRANCH   2   3
ATOM      3  N   UNL A   1      41.587  24.171  26.312  1.00  0.00    -0.352 N 
ATOM      4  O   UNL A   1      41.372  25.957  24.955  1.00  0.00    -0.269 OA
ATOM      5  C   UNL A   1      41.393  25.514  26.100  1.00  0.00     0.251 C 
ATOM      6  H   UNL A   1      41.817  23.644  25.514  1.00  0.00     0.163 HD
BRANCH   5   7
ATOM      7  C   UNL A   1      41.178  26.417  27.253  1.00  0.00     0.039 A 
ATOM      8  C   UNL A   1      42.054  27.477  27.501  1.00  0.00     0.014 A 
ATOM      9  C   UNL A   1      40.086  26.195  28.095  1.00  0.00     0.014 A 
ATOM     10  C   UNL A   1      41.912  28.234  28.660  1.00  0.00     0.010 A 
ATOM     11  C   UNL A   1      39.903  27.003  29.220  1.00  0.00     0.010 A 
ATOM     12  C   UNL A   1      40.831  28.011  29.527  1.00  0.00    -0.014 A 
BRANCH  12  13
ATOM     13  C   UNL A   1      40.651  28.885  30.712  1.00  0.00     0.031 A 
ATOM     14  C   UNL A   1      39.578  29.937  30.751  1.00  0.00     0.074 A 
ATOM     15  C   UNL A   1      41.471  28.717  31.768  1.00  0.00     0.049 A 
ATOM     16  N   UNL A   1      39.286  30.776  31.711  1.00  0.00    -0.248 NA
ATOM     17  C   UNL A   1      38.728  30.071  29.557  1.00  0.00     0.031 C 
ATOM     18  C   UNL A   1      42.563  27.741  31.838  1.00  0.00     0.029 A 
ATOM     19  N   UNL A   1      41.516  29.355  32.980  1.00  0.00    -0.354 N 
ATOM     20  C   UNL A   1      38.238  31.554  31.234  1.00  0.00     0.074 A 
ATOM     21  C   UNL A   1      37.956  31.096  29.889  1.00  0.00     0.031 C 
ATOM     22  C   UNL A   1      43.151  27.827  33.040  1.00  0.00     0.029 A 
ATOM     23  C   UNL A   1      42.516  28.897  33.802  1.00  0.00     0.049 A 
ATOM     24  H   UNL A   1      40.892  30.072  33.236  1.00  0.00     0.167 HD
ATOM     25  C   UNL A   1      37.571  32.554  31.860  1.00  0.00     0.031 A 
ATOM     26  C   UNL A   1      42.902  29.303  35.027  1.00  0.00     0.031 A 
ATOM     27  C   UNL A   1      37.858  33.005  33.197  1.00  0.00     0.049 A 
ATOM     28  C   UNL A   1      42.156  30.418  35.696  1.00  0.00     0.074 A 
ATOM     29  C   UNL A   1      37.209  33.981  33.934  1.00  0.00     0.029 A 
ATOM     30  N   UNL A   1      38.885  32.521  33.994  1.00  0.00    -0.354 N 
ATOM     31  N   UNL A   1      41.133  31.105  35.248  1.00  0.00    -0.248 NA
ATOM     32  C   UNL A   1      42.612  30.812  37.035  1.00  0.00     0.031 C 
ATOM     33  C   UNL A   1      37.874  34.120  35.158  1.00  0.00     0.029 A 
ATOM     34  C   UNL A   1      38.906  33.196  35.204  1.00  0.00     0.049 A 
ATOM     35  H   UNL A   1      39.508  31.803  33.737  1.00  0.00     0.167 HD
ATOM     36  C   UNL A   1      40.816  32.010  36.252  1.00  0.00     0.074 A 
ATOM     37  C   UNL A   1      41.744  31.768  37.340  1.00  0.00     0.031 C 
ATOM     38  C   UNL A   1      39.845  32.955  36.271  1.00  0.00     0.031 A 
BRANCH  25  39
ATOM     39  C   UNL A   1      36.486  33.255  31.086  1.00  0.00    -0.014 A 
ATOM     40  C   UNL A   1      36.751  33.874  29.850  1.00  0.00     0.010 A 
ATOM     41  C   UNL A   1      35.173  33.274  31.591  1.00  0.00     0.010 A 
ATOM     42  C   UNL A   1      35.736  34.541  29.160  1.00  0.00     0.020 A 
ATOM     43  C   UNL A   1      34.149  33.921  30.893  1.00  0.00     0.020 A 
ATOM     44  C   UNL A   1      34.442  34.570  29.692  1.00  0.00     0.054 A 
BRANCH  44  45
ATOM     45  S   UNL A   1      33.143  35.452  28.782  1.00  0.00     0.124 S 
ATOM     46  O   UNL A   1      33.924  36.390  27.980  1.00  0.00    -0.237 OA
ATOM     47  O   UNL A   1      32.487  34.382  28.036  1.00  0.00    -0.237 OA
ATOM     48  O   UNL A   1      32.334  36.058  29.836  1.00  0.00    -0.744 OA
ENDBRANCH  44  45
ENDBRANCH  25  39
BRANCH  26  49
ATOM     49  C   UNL A   1      44.067  28.645  35.672  1.00  0.00    -0.014 A 
ATOM     50  C   UNL A   1      43.891  27.533  36.512  1.00  0.00     0.010 A 
ATOM     51  C   UNL A   1      45.372  29.088  35.382  1.00  0.00     0.010 A 
ATOM     52  C   UNL A   1      45.001  26.872  37.047  1.00  0.00     0.020 A 
ATOM     53  C   UNL A   1      46.482  28.415  35.895  1.00  0.00     0.020 A 
ATOM     54  C   UNL A   1      46.289  27.312  36.729  1.00  0.00     0.054 A 
BRANCH  54  55
ATOM     55  S   UNL A   1      47.716  26.381  37.354  1.00  0.00     0.124 S 
ATOM     56  O   UNL A   1      48.424  26.051  36.121  1.00  0.00    -0.237 OA
ATOM     57  O   UNL A   1      48.375  27.354  38.221  1.00  0.00    -0.237 OA
ATOM     58  O   UNL A   1      47.106  25.251  38.050  1.00  0.00    -0.744 OA
ENDBRANCH  54  55
ENDBRANCH  26  49
BRANCH  38  59
ATOM     59  C   UNL A   1      39.731  33.796  37.511  1.00  0.00    -0.014 A 
ATOM     60  C   UNL A   1      40.291  35.084  37.568  1.00  0.00     0.010 A 
ATOM     61  C   UNL A   1      39.008  33.312  38.618  1.00  0.00     0.010 A 
ATOM     62  C   UNL A   1      40.152  35.864  38.717  1.00  0.00     0.020 A 
ATOM     63  C   UNL A   1      38.848  34.098  39.761  1.00  0.00     0.020 A 
ATOM     64  C   UNL A   1      39.432  35.366  39.808  1.00  0.00     0.054 A 
BRANCH  64  65
ATOM     65  S   UNL A   1      39.222  36.415  41.272  1.00  0.00     0.124 S 
ATOM     66  O   UNL A   1      38.136  35.739  41.978  1.00  0.00    -0.237 OA
ATOM     67  O   UNL A   1      40.532  36.340  41.914  1.00  0.00    -0.237 OA
ATOM     68  O   UNL A   1      38.884  37.723  40.714  1.00  0.00    -0.744 OA
ENDBRANCH  64  65
ENDBRANCH  38  59
ENDBRANCH  12  13
ENDBRANCH   5   7
ENDBRANCH   2   3
ENDBRANCH   1   2
BRANCH   1  69
ATOM     69  C   UNL A   1      39.566  22.213  26.350  1.00  0.00     0.023 C 
BRANCH  69  70
ATOM     70  C   UNL A   1      38.198  22.836  26.080  1.00  0.00     0.116 C 
BRANCH  70  71
ATOM     71  N   UNL A   1      37.890  22.890  24.661  1.00  0.00    -0.356 N 
ATOM     72  C   UNL A   1      36.668  22.929  24.045  1.00  0.00     0.227 C 
ATOM     73  H   UNL A   1      38.669  22.899  24.059  1.00  0.00     0.163 HD
ATOM     74  O   UNL A   1      36.620  22.918  22.815  1.00  0.00    -0.274 OA
BRANCH  72  75
ATOM     75  C   UNL A   1      35.414  22.969  24.915  1.00  0.00     0.103 C 
ATOM     76  C   UNL A   1      34.332  22.163  24.263  1.00  0.00    -0.016 C 
ATOM     77  C   UNL A   1      34.790  24.372  25.022  1.00  0.00     0.047 C 
ATOM     78  C   UNL A   1      33.319  22.924  23.840  1.00  0.00    -0.006 C 
ATOM     79  C   UNL A   1      33.513  24.364  24.166  1.00  0.00     0.106 C 
BRANCH  79  80
ATOM     80  N   UNL A   1      33.667  25.108  22.937  1.00  0.00    -0.350 N 
ATOM     81  C   UNL A   1      33.365  26.412  22.665  1.00  0.00     0.224 C 
ATOM     82  H   UNL A   1      34.047  24.601  22.184  1.00  0.00     0.164 HD
ATOM     83  O   UNL A   1      33.662  26.868  21.562  1.00  0.00    -0.275 OA
BRANCH  81  84
ATOM     84  C   UNL A   1      32.633  27.245  23.716  1.00  0.00     0.089 C 
ATOM     85  C   UNL A   1      31.185  26.780  23.878  1.00  0.00     0.025 C 
ATOM     86  C   UNL A   1      32.590  28.735  23.370  1.00  0.00     0.083 C 
ATOM     87  C   UNL A   1      30.379  27.376  22.736  1.00  0.00     0.070 C 
ATOM     88  S   UNL A   1      30.966  29.080  22.629  1.00  0.00    -0.161 SA
ENDBRANCH  81  84
ENDBRANCH  79  80
ENDBRANCH  72  75
ENDBRANCH  70  71
ENDBRANCH  69  70
ENDBRANCH   1  69
TORSDOF 16
ENDMDL
