MODEL 1
REMARK VINA RESULT:     -11.4      0.000      0.000
REMARK SMILES COc1ccc(-n2c(SCc3cn(-c4ccc(C(=O)NCCCCNC(=O)c5ccc(-c6c7nc(c(-c8ccc(S(=O)(=O)[O-])cc8)c8ccc([nH]8)c(-c8ccc(S(=O)(=O)[O-])cc8)c8nc(c(-c9ccc(S(=O)(=O)[O-])cc9)c9ccc6[nH]9)C=C8)C=C7)cc5)cc4)nn3)nc3ccccc3c2=O)cc1
REMARK SMILES IDX 21 1 20 2 18 3 19 4 17 6 14 7 15 8 89 9 16 10 88 11 13 12
REMARK SMILES IDX 11 13 12 14 91 15 90 16 10 17 9 18 8 19 7 20 99 21 92 22
REMARK SMILES IDX 98 23 100 24 93 25 97 26 94 27 96 28 95 29 6 30 3 31 4 32
REMARK SMILES IDX 102 33 5 34 101 35 2 36 1 37 22 38 23 39 24 40 25 41 26 42
REMARK SMILES IDX 27 44 28 45 29 46 87 47 30 48 86 49 31 50 32 51 33 52 80 53
REMARK SMILES IDX 34 54 85 55 79 56 81 57 35 58 84 59 78 60 77 61 36 63 66 64
REMARK SMILES IDX 47 65 65 66 48 67 51 68 64 69 82 70 49 71 50 72 63 74 83 75
REMARK SMILES IDX 52 76 37 77 38 78 46 79 39 80 45 81 40 82 41 83 42 84 43 85
REMARK SMILES IDX 44 86 67 87 68 88 76 89 69 90 75 91 70 92 71 93 72 94 73 95
REMARK SMILES IDX 74 96 53 97 54 98 62 99 55 100 61 101 56 102 57 103 58 104
REMARK SMILES IDX 59 105 60 106
REMARK H PARENT 20 5 25 43 81 62 51 73
REMARK Flexibility Score: inf
ROOT
ATOM      1  C   UNL A   1      40.943  33.424  32.434  1.00  0.00     0.116 C 
ENDROOT
BRANCH   1   2
ATOM      2  N   UNL A   1      41.073  34.206  31.219  1.00  0.00    -0.352 N 
ATOM      3  C   UNL A   1      40.395  34.208  30.027  1.00  0.00     0.251 C 
ATOM      4  O   UNL A   1      40.794  34.967  29.145  1.00  0.00    -0.269 OA
ATOM      5  H   UNL A   1      41.798  34.873  31.259  1.00  0.00     0.163 HD
BRANCH   3   6
ATOM      6  C   UNL A   1      39.167  33.405  29.782  1.00  0.00     0.039 A 
ATOM      7  C   UNL A   1      37.085  31.768  28.934  1.00  0.00     0.066 A 
ATOM      8  C   UNL A   1      38.265  31.174  29.370  1.00  0.00     0.029 A 
ATOM      9  C   UNL A   1      36.880  33.145  29.056  1.00  0.00     0.029 A 
ATOM     10  C   UNL A   1      39.316  32.004  29.760  1.00  0.00     0.016 A 
ATOM     11  C   UNL A   1      37.908  33.949  29.531  1.00  0.00     0.016 A 
BRANCH   7  12
ATOM     12  N   UNL A   1      36.139  31.002  28.244  1.00  0.00    -0.220 N 
ATOM     13  C   UNL A   1      34.309  30.326  27.305  1.00  0.00     0.093 A 
ATOM     14  C   UNL A   1      34.857  31.385  27.983  1.00  0.00     0.141 A 
ATOM     15  N   UNL A   1      35.269  29.373  27.116  1.00  0.00    -0.134 NA
ATOM     16  N   UNL A   1      36.402  29.822  27.646  1.00  0.00    -0.062 NA
BRANCH  13  17
ATOM     17  C   UNL A   1      32.946  30.166  26.783  1.00  0.00     0.138 C 
BRANCH  17  18
ATOM     18  S   UNL A   1      32.430  28.451  26.669  1.00  0.00    -0.081 SA
BRANCH  18  19
ATOM     19  C   UNL A   1      32.616  28.033  24.918  1.00  0.00     0.176 A 
ATOM     20  N   UNL A   1      31.401  27.905  24.281  1.00  0.00    -0.255 N 
ATOM     21  C   UNL A   1      30.797  26.659  24.375  1.00  0.00     0.266 A 
ATOM     22  N   UNL A   1      33.536  27.151  24.654  1.00  0.00    -0.223 NA
ATOM     23  C   UNL A   1      31.667  25.629  25.035  1.00  0.00     0.066 A 
ATOM     24  O   UNL A   1      29.660  26.372  24.015  1.00  0.00    -0.268 OA
ATOM     25  C   UNL A   1      33.060  25.871  25.030  1.00  0.00     0.079 A 
ATOM     26  C   UNL A   1      31.133  24.632  25.846  1.00  0.00     0.016 A 
ATOM     27  C   UNL A   1      33.922  25.018  25.714  1.00  0.00     0.029 A 
ATOM     28  C   UNL A   1      31.999  23.860  26.627  1.00  0.00     0.001 A 
ATOM     29  C   UNL A   1      33.387  24.025  26.531  1.00  0.00     0.002 A 
BRANCH  20  30
ATOM     30  C   UNL A   1      30.833  29.030  23.645  1.00  0.00     0.052 A 
ATOM     31  C   UNL A   1      29.076  30.884  22.531  1.00  0.00     0.119 A 
ATOM     32  C   UNL A   1      29.485  31.042  23.852  1.00  0.00     0.048 A 
ATOM     33  C   UNL A   1      29.633  29.883  21.734  1.00  0.00     0.048 A 
ATOM     34  C   UNL A   1      30.339  30.093  24.421  1.00  0.00     0.030 A 
ATOM     35  C   UNL A   1      30.542  28.976  22.282  1.00  0.00     0.030 A 
BRANCH  31  36
ATOM     36  O   UNL A   1      28.150  31.746  22.010  1.00  0.00    -0.497 OA
ATOM     37  C   UNL A   1      28.401  33.084  22.457  1.00  0.00     0.278 C 
ENDBRANCH  31  36
ENDBRANCH  20  30
ENDBRANCH  18  19
ENDBRANCH  17  18
ENDBRANCH  13  17
ENDBRANCH   7  12
ENDBRANCH   3   6
ENDBRANCH   1   2
BRANCH   1  38
ATOM     38  C   UNL A   1      40.001  34.112  33.431  1.00  0.00     0.023 C 
BRANCH  38  39
ATOM     39  C   UNL A   1      38.507  33.851  33.194  1.00  0.00     0.023 C 
BRANCH  39  40
ATOM     40  C   UNL A   1      38.108  32.380  33.206  1.00  0.00     0.116 C 
BRANCH  40  41
ATOM     41  N   UNL A   1      38.215  31.778  34.535  1.00  0.00    -0.352 N 
ATOM     42  C   UNL A   1      38.749  30.547  34.876  1.00  0.00     0.251 C 
ATOM     43  H   UNL A   1      37.863  32.317  35.281  1.00  0.00     0.163 HD
ATOM     44  O   UNL A   1      38.423  29.985  35.905  1.00  0.00    -0.269 OA
BRANCH  42  45
ATOM     45  C   UNL A   1      39.744  29.946  33.966  1.00  0.00     0.039 A 
ATOM     46  C   UNL A   1      39.395  29.470  32.702  1.00  0.00     0.014 A 
ATOM     47  C   UNL A   1      41.065  29.909  34.404  1.00  0.00     0.014 A 
ATOM     48  C   UNL A   1      40.412  29.039  31.850  1.00  0.00     0.010 A 
ATOM     49  C   UNL A   1      42.073  29.639  33.515  1.00  0.00     0.010 A 
ATOM     50  C   UNL A   1      41.753  29.151  32.255  1.00  0.00    -0.014 A 
BRANCH  50  51
ATOM     51  C   UNL A   1      42.845  28.867  31.330  1.00  0.00     0.031 A 
ATOM     52  C   UNL A   1      43.098  29.933  30.327  1.00  0.00     0.074 A 
ATOM     53  C   UNL A   1      43.699  27.829  31.468  1.00  0.00     0.049 A 
ATOM     54  N   UNL A   1      42.811  29.899  29.069  1.00  0.00    -0.248 NA
ATOM     55  C   UNL A   1      43.589  31.240  30.792  1.00  0.00     0.031 C 
ATOM     56  C   UNL A   1      43.796  26.850  32.559  1.00  0.00     0.029 A 
ATOM     57  N   UNL A   1      44.752  27.492  30.679  1.00  0.00    -0.354 N 
ATOM     58  C   UNL A   1      43.289  31.089  28.533  1.00  0.00     0.074 A 
ATOM     59  C   UNL A   1      43.581  31.944  29.657  1.00  0.00     0.031 C 
ATOM     60  C   UNL A   1      44.974  26.191  32.477  1.00  0.00     0.029 A 
ATOM     61  C   UNL A   1      45.624  26.560  31.234  1.00  0.00     0.049 A 
ATOM     62  H   UNL A   1      44.888  27.876  29.783  1.00  0.00     0.167 HD
ATOM     63  C   UNL A   1      43.633  31.187  27.217  1.00  0.00     0.031 A 
ATOM     64  C   UNL A   1      46.795  26.128  30.702  1.00  0.00     0.031 A 
ATOM     65  C   UNL A   1      43.157  30.059  26.457  1.00  0.00     0.049 A 
ATOM     66  C   UNL A   1      46.717  26.386  29.243  1.00  0.00     0.074 A 
ATOM     67  C   UNL A   1      41.910  29.515  26.215  1.00  0.00     0.029 A 
ATOM     68  N   UNL A   1      44.062  29.059  26.183  1.00  0.00    -0.354 N 
ATOM     69  N   UNL A   1      45.868  25.782  28.459  1.00  0.00    -0.248 NA
ATOM     70  C   UNL A   1      47.248  27.642  28.740  1.00  0.00     0.031 C 
ATOM     71  C   UNL A   1      42.104  28.104  26.309  1.00  0.00     0.029 A 
ATOM     72  C   UNL A   1      43.465  27.866  26.509  1.00  0.00     0.049 A 
ATOM     73  H   UNL A   1      44.969  29.178  25.820  1.00  0.00     0.167 HD
ATOM     74  C   UNL A   1      45.422  26.770  27.594  1.00  0.00     0.074 A 
ATOM     75  C   UNL A   1      46.375  27.869  27.753  1.00  0.00     0.031 C 
ATOM     76  C   UNL A   1      44.174  26.717  27.038  1.00  0.00     0.031 A 
BRANCH  63  77
ATOM     77  C   UNL A   1      44.716  32.101  26.704  1.00  0.00    -0.014 A 
ATOM     78  C   UNL A   1      46.066  31.754  26.915  1.00  0.00     0.010 A 
ATOM     79  C   UNL A   1      44.456  33.409  26.246  1.00  0.00     0.010 A 
ATOM     80  C   UNL A   1      47.095  32.685  26.720  1.00  0.00     0.020 A 
ATOM     81  C   UNL A   1      45.477  34.331  26.008  1.00  0.00     0.020 A 
ATOM     82  C   UNL A   1      46.790  33.971  26.272  1.00  0.00     0.054 A 
BRANCH  82  83
ATOM     83  S   UNL A   1      48.117  35.188  26.092  1.00  0.00     0.124 S 
ATOM     84  O   UNL A   1      48.710  35.187  27.426  1.00  0.00    -0.237 OA
ATOM     85  O   UNL A   1      48.933  34.600  25.033  1.00  0.00    -0.237 OA
ATOM     86  O   UNL A   1      47.411  36.412  25.720  1.00  0.00    -0.744 OA
ENDBRANCH  82  83
ENDBRANCH  63  77
BRANCH  64  87
ATOM     87  C   UNL A   1      48.070  25.813  31.393  1.00  0.00    -0.014 A 
ATOM     88  C   UNL A   1      48.080  25.451  32.755  1.00  0.00     0.010 A 
ATOM     89  C   UNL A   1      49.235  25.561  30.641  1.00  0.00     0.010 A 
ATOM     90  C   UNL A   1      49.182  24.785  33.321  1.00  0.00     0.020 A 
ATOM     91  C   UNL A   1      50.339  24.902  31.200  1.00  0.00     0.020 A 
ATOM     92  C   UNL A   1      50.295  24.490  32.531  1.00  0.00     0.054 A 
BRANCH  92  93
ATOM     93  S   UNL A   1      51.621  23.446  33.209  1.00  0.00     0.124 S 
ATOM     94  O   UNL A   1      52.800  23.944  32.506  1.00  0.00    -0.237 OA
ATOM     95  O   UNL A   1      51.564  23.746  34.637  1.00  0.00    -0.237 OA
ATOM     96  O   UNL A   1      51.210  22.090  32.848  1.00  0.00    -0.744 OA
ENDBRANCH  92  93
ENDBRANCH  64  87
BRANCH  76  97
ATOM     97  C   UNL A   1      43.376  25.434  27.169  1.00  0.00    -0.014 A 
ATOM     98  C   UNL A   1      42.480  25.161  28.224  1.00  0.00     0.010 A 
ATOM     99  C   UNL A   1      43.432  24.528  26.095  1.00  0.00     0.010 A 
ATOM    100  C   UNL A   1      41.686  24.002  28.214  1.00  0.00     0.020 A 
ATOM    101  C   UNL A   1      42.632  23.383  26.069  1.00  0.00     0.020 A 
ATOM    102  C   UNL A   1      41.770  23.117  27.134  1.00  0.00     0.054 A 
BRANCH 102 103
ATOM    103  S   UNL A   1      40.721  21.636  27.102  1.00  0.00     0.124 S 
ATOM    104  O   UNL A   1      39.412  22.181  26.753  1.00  0.00    -0.237 OA
ATOM    105  O   UNL A   1      41.353  20.811  26.076  1.00  0.00    -0.237 OA
ATOM    106  O   UNL A   1      40.825  21.105  28.462  1.00  0.00    -0.744 OA
ENDBRANCH 102 103
ENDBRANCH  76  97
ENDBRANCH  50  51
ENDBRANCH  42  45
ENDBRANCH  40  41
ENDBRANCH  39  40
ENDBRANCH  38  39
ENDBRANCH   1  38
TORSDOF 20
ENDMDL
MODEL 2
REMARK VINA RESULT:     -11.1      1.096      3.241
REMARK SMILES COc1ccc(-n2c(SCc3cn(-c4ccc(C(=O)NCCCCNC(=O)c5ccc(-c6c7nc(c(-c8ccc(S(=O)(=O)[O-])cc8)c8ccc([nH]8)c(-c8ccc(S(=O)(=O)[O-])cc8)c8nc(c(-c9ccc(S(=O)(=O)[O-])cc9)c9ccc6[nH]9)C=C8)C=C7)cc5)cc4)nn3)nc3ccccc3c2=O)cc1
REMARK SMILES IDX 21 1 20 2 18 3 19 4 17 6 14 7 15 8 89 9 16 10 88 11 13 12
REMARK SMILES IDX 11 13 12 14 91 15 90 16 10 17 9 18 8 19 7 20 99 21 92 22
REMARK SMILES IDX 98 23 100 24 93 25 97 26 94 27 96 28 95 29 6 30 3 31 4 32
REMARK SMILES IDX 102 33 5 34 101 35 2 36 1 37 22 38 23 39 24 40 25 41 26 42
REMARK SMILES IDX 27 44 28 45 29 46 87 47 30 48 86 49 31 50 32 51 33 52 80 53
REMARK SMILES IDX 34 54 85 55 79 56 81 57 35 58 84 59 78 60 77 61 36 63 66 64
REMARK SMILES IDX 47 65 65 66 48 67 51 68 64 69 82 70 49 71 50 72 63 74 83 75
REMARK SMILES IDX 52 76 37 77 38 78 46 79 39 80 45 81 40 82 41 83 42 84 43 85
REMARK SMILES IDX 44 86 67 87 68 88 76 89 69 90 75 91 70 92 71 93 72 94 73 95
REMARK SMILES IDX 74 96 53 97 54 98 62 99 55 100 61 101 56 102 57 103 58 104
REMARK SMILES IDX 59 105 60 106
REMARK H PARENT 20 5 25 43 81 62 51 73
REMARK Flexibility Score: inf
ROOT
ATOM      1  C   UNL A   1      41.108  33.802  32.714  1.00  0.00     0.116 C 
ENDROOT
BRANCH   1   2
ATOM      2  N   UNL A   1      41.356  34.457  31.444  1.00  0.00    -0.352 N 
ATOM      3  C   UNL A   1      40.806  34.320  30.195  1.00  0.00     0.251 C 
ATOM      4  O   UNL A   1      41.287  34.992  29.283  1.00  0.00    -0.269 OA
ATOM      5  H   UNL A   1      42.066  35.140  31.487  1.00  0.00     0.163 HD
BRANCH   3   6
ATOM      6  C   UNL A   1      39.619  33.470  29.911  1.00  0.00     0.039 A 
ATOM      7  C   UNL A   1      37.656  31.706  29.035  1.00  0.00     0.066 A 
ATOM      8  C   UNL A   1      38.784  31.190  29.663  1.00  0.00     0.029 A 
ATOM      9  C   UNL A   1      37.429  33.084  28.974  1.00  0.00     0.029 A 
ATOM     10  C   UNL A   1      39.780  32.079  30.067  1.00  0.00     0.016 A 
ATOM     11  C   UNL A   1      38.392  33.956  29.462  1.00  0.00     0.016 A 
BRANCH   7  12
ATOM     12  N   UNL A   1      36.798  30.847  28.339  1.00  0.00    -0.220 N 
ATOM     13  C   UNL A   1      35.077  30.020  27.319  1.00  0.00     0.093 A 
ATOM     14  C   UNL A   1      35.528  31.152  27.948  1.00  0.00     0.141 A 
ATOM     15  N   UNL A   1      36.084  29.098  27.284  1.00  0.00    -0.134 NA
ATOM     16  N   UNL A   1      37.152  29.636  27.862  1.00  0.00    -0.062 NA
BRANCH  13  17
ATOM     17  C   UNL A   1      33.767  29.760  26.708  1.00  0.00     0.138 C 
BRANCH  17  18
ATOM     18  S   UNL A   1      33.830  28.537  25.396  1.00  0.00    -0.081 SA
BRANCH  18  19
ATOM     19  C   UNL A   1      32.549  27.334  25.832  1.00  0.00     0.176 A 
ATOM     20  N   UNL A   1      32.707  26.140  25.162  1.00  0.00    -0.255 N 
ATOM     21  C   UNL A   1      32.144  26.078  23.895  1.00  0.00     0.266 A 
ATOM     22  N   UNL A   1      31.346  27.819  25.934  1.00  0.00    -0.223 NA
ATOM     23  C   UNL A   1      31.328  27.290  23.551  1.00  0.00     0.066 A 
ATOM     24  O   UNL A   1      32.292  25.177  23.076  1.00  0.00    -0.268 OA
ATOM     25  C   UNL A   1      30.842  28.061  24.632  1.00  0.00     0.079 A 
ATOM     26  C   UNL A   1      31.277  27.793  22.254  1.00  0.00     0.016 A 
ATOM     27  C   UNL A   1      30.169  29.256  24.394  1.00  0.00     0.029 A 
ATOM     28  C   UNL A   1      30.709  29.053  22.041  1.00  0.00     0.001 A 
ATOM     29  C   UNL A   1      30.124  29.762  23.097  1.00  0.00     0.002 A 
BRANCH  20  30
ATOM     30  C   UNL A   1      33.461  25.107  25.760  1.00  0.00     0.052 A 
ATOM     31  C   UNL A   1      34.749  22.701  26.322  1.00  0.00     0.119 A 
ATOM     32  C   UNL A   1      35.458  23.723  25.698  1.00  0.00     0.048 A 
ATOM     33  C   UNL A   1      33.447  22.918  26.774  1.00  0.00     0.048 A 
ATOM     34  C   UNL A   1      34.802  24.917  25.385  1.00  0.00     0.030 A 
ATOM     35  C   UNL A   1      32.813  24.138  26.526  1.00  0.00     0.030 A 
BRANCH  31  36
ATOM     36  O   UNL A   1      35.356  21.491  26.523  1.00  0.00    -0.497 OA
ATOM     37  C   UNL A   1      35.973  21.031  25.313  1.00  0.00     0.278 C 
ENDBRANCH  31  36
ENDBRANCH  20  30
ENDBRANCH  18  19
ENDBRANCH  17  18
ENDBRANCH  13  17
ENDBRANCH   7  12
ENDBRANCH   3   6
ENDBRANCH   1   2
BRANCH   1  38
ATOM     38  C   UNL A   1      40.050  34.562  33.526  1.00  0.00     0.023 C 
BRANCH  38  39
ATOM     39  C   UNL A   1      38.603  34.110  33.282  1.00  0.00     0.023 C 
BRANCH  39  40
ATOM     40  C   UNL A   1      38.418  32.601  33.171  1.00  0.00     0.116 C 
BRANCH  40  41
ATOM     41  N   UNL A   1      38.387  31.940  34.474  1.00  0.00    -0.352 N 
ATOM     42  C   UNL A   1      38.825  30.666  34.797  1.00  0.00     0.251 C 
ATOM     43  H   UNL A   1      38.007  32.465  35.215  1.00  0.00     0.163 HD
ATOM     44  O   UNL A   1      38.389  30.082  35.772  1.00  0.00    -0.269 OA
BRANCH  42  45
ATOM     45  C   UNL A   1      39.855  30.048  33.940  1.00  0.00     0.039 A 
ATOM     46  C   UNL A   1      39.524  29.328  32.791  1.00  0.00     0.014 A 
ATOM     47  C   UNL A   1      41.185  30.246  34.300  1.00  0.00     0.014 A 
ATOM     48  C   UNL A   1      40.555  28.889  31.961  1.00  0.00     0.010 A 
ATOM     49  C   UNL A   1      42.185  29.956  33.409  1.00  0.00     0.010 A 
ATOM     50  C   UNL A   1      41.885  29.229  32.264  1.00  0.00    -0.014 A 
BRANCH  50  51
ATOM     51  C   UNL A   1      42.969  28.931  31.335  1.00  0.00     0.031 A 
ATOM     52  C   UNL A   1      43.233  29.993  30.331  1.00  0.00     0.074 A 
ATOM     53  C   UNL A   1      43.809  27.882  31.470  1.00  0.00     0.049 A 
ATOM     54  N   UNL A   1      42.940  29.964  29.075  1.00  0.00    -0.248 NA
ATOM     55  C   UNL A   1      43.744  31.294  30.794  1.00  0.00     0.031 C 
ATOM     56  C   UNL A   1      43.897  26.901  32.560  1.00  0.00     0.029 A 
ATOM     57  N   UNL A   1      44.854  27.530  30.677  1.00  0.00    -0.354 N 
ATOM     58  C   UNL A   1      43.432  31.147  28.536  1.00  0.00     0.074 A 
ATOM     59  C   UNL A   1      43.740  31.998  29.659  1.00  0.00     0.031 C 
ATOM     60  C   UNL A   1      45.066  26.226  32.474  1.00  0.00     0.029 A 
ATOM     61  C   UNL A   1      45.716  26.587  31.228  1.00  0.00     0.049 A 
ATOM     62  H   UNL A   1      44.992  27.912  29.780  1.00  0.00     0.167 HD
ATOM     63  C   UNL A   1      43.771  31.240  27.219  1.00  0.00     0.031 A 
ATOM     64  C   UNL A   1      46.879  26.138  30.691  1.00  0.00     0.031 A 
ATOM     65  C   UNL A   1      43.277  30.119  26.461  1.00  0.00     0.049 A 
ATOM     66  C   UNL A   1      46.798  26.397  29.232  1.00  0.00     0.074 A 
ATOM     67  C   UNL A   1      42.022  29.592  26.224  1.00  0.00     0.029 A 
ATOM     68  N   UNL A   1      44.167  29.107  26.183  1.00  0.00    -0.354 N 
ATOM     69  N   UNL A   1      45.938  25.805  28.452  1.00  0.00    -0.248 NA
ATOM     70  C   UNL A   1      47.344  27.646  28.727  1.00  0.00     0.031 C 
ATOM     71  C   UNL A   1      42.197  28.179  26.317  1.00  0.00     0.029 A 
ATOM     72  C   UNL A   1      43.556  27.921  26.511  1.00  0.00     0.049 A 
ATOM     73  H   UNL A   1      45.075  29.213  25.816  1.00  0.00     0.167 HD
ATOM     74  C   UNL A   1      45.501  26.799  27.589  1.00  0.00     0.074 A 
ATOM     75  C   UNL A   1      46.470  27.885  27.744  1.00  0.00     0.031 C 
ATOM     76  C   UNL A   1      44.251  26.763  27.038  1.00  0.00     0.031 A 
BRANCH  63  77
ATOM     77  C   UNL A   1      44.865  32.139  26.701  1.00  0.00    -0.014 A 
ATOM     78  C   UNL A   1      46.208  31.827  26.994  1.00  0.00     0.010 A 
ATOM     79  C   UNL A   1      44.609  33.414  26.155  1.00  0.00     0.010 A 
ATOM     80  C   UNL A   1      47.233  32.762  26.790  1.00  0.00     0.020 A 
ATOM     81  C   UNL A   1      45.627  34.336  25.908  1.00  0.00     0.020 A 
ATOM     82  C   UNL A   1      46.931  34.014  26.252  1.00  0.00     0.054 A 
BRANCH  82  83
ATOM     83  S   UNL A   1      48.249  35.239  26.060  1.00  0.00     0.124 S 
ATOM     84  O   UNL A   1      48.830  34.858  24.776  1.00  0.00    -0.237 OA
ATOM     85  O   UNL A   1      47.506  36.495  26.074  1.00  0.00    -0.237 OA
ATOM     86  O   UNL A   1      49.100  35.011  27.226  1.00  0.00    -0.744 OA
ENDBRANCH  82  83
ENDBRANCH  63  77
BRANCH  64  87
ATOM     87  C   UNL A   1      48.152  25.806  31.377  1.00  0.00    -0.014 A 
ATOM     88  C   UNL A   1      48.163  25.441  32.738  1.00  0.00     0.010 A 
ATOM     89  C   UNL A   1      49.311  25.541  30.619  1.00  0.00     0.010 A 
ATOM     90  C   UNL A   1      49.258  24.760  33.298  1.00  0.00     0.020 A 
ATOM     91  C   UNL A   1      50.409  24.867  31.173  1.00  0.00     0.020 A 
ATOM     92  C   UNL A   1      50.365  24.453  32.503  1.00  0.00     0.054 A 
BRANCH  92  93
ATOM     93  S   UNL A   1      51.680  23.391  33.174  1.00  0.00     0.124 S 
ATOM     94  O   UNL A   1      51.496  22.154  32.420  1.00  0.00    -0.237 OA
ATOM     95  O   UNL A   1      52.890  24.147  32.863  1.00  0.00    -0.237 OA
ATOM     96  O   UNL A   1      51.359  23.303  34.598  1.00  0.00    -0.744 OA
ENDBRANCH  92  93
ENDBRANCH  64  87
BRANCH  76  97
ATOM     97  C   UNL A   1      43.436  25.491  27.172  1.00  0.00    -0.014 A 
ATOM     98  C   UNL A   1      42.556  25.222  28.241  1.00  0.00     0.010 A 
ATOM     99  C   UNL A   1      43.458  24.594  26.089  1.00  0.00     0.010 A 
ATOM    100  C   UNL A   1      41.744  24.075  28.235  1.00  0.00     0.020 A 
ATOM    101  C   UNL A   1      42.640  23.462  26.068  1.00  0.00     0.020 A 
ATOM    102  C   UNL A   1      41.794  23.200  27.146  1.00  0.00     0.054 A 
BRANCH 102 103
ATOM    103  S   UNL A   1      40.722  21.734  27.120  1.00  0.00     0.124 S 
ATOM    104  O   UNL A   1      40.825  21.241  28.491  1.00  0.00    -0.237 OA
ATOM    105  O   UNL A   1      39.423  22.287  26.747  1.00  0.00    -0.237 OA
ATOM    106  O   UNL A   1      41.334  20.872  26.108  1.00  0.00    -0.744 OA
ENDBRANCH 102 103
ENDBRANCH  76  97
ENDBRANCH  50  51
ENDBRANCH  42  45
ENDBRANCH  40  41
ENDBRANCH  39  40
ENDBRANCH  38  39
ENDBRANCH   1  38
TORSDOF 20
ENDMDL
MODEL 3
REMARK VINA RESULT:     -10.8      3.920      9.882
REMARK SMILES COc1ccc(-n2c(SCc3cn(-c4ccc(C(=O)NCCCCNC(=O)c5ccc(-c6c7nc(c(-c8ccc(S(=O)(=O)[O-])cc8)c8ccc([nH]8)c(-c8ccc(S(=O)(=O)[O-])cc8)c8nc(c(-c9ccc(S(=O)(=O)[O-])cc9)c9ccc6[nH]9)C=C8)C=C7)cc5)cc4)nn3)nc3ccccc3c2=O)cc1
REMARK SMILES IDX 21 1 20 2 18 3 19 4 17 6 14 7 15 8 89 9 16 10 88 11 13 12
REMARK SMILES IDX 11 13 12 14 91 15 90 16 10 17 9 18 8 19 7 20 99 21 92 22
REMARK SMILES IDX 98 23 100 24 93 25 97 26 94 27 96 28 95 29 6 30 3 31 4 32
REMARK SMILES IDX 102 33 5 34 101 35 2 36 1 37 22 38 23 39 24 40 25 41 26 42
REMARK SMILES IDX 27 44 28 45 29 46 87 47 30 48 86 49 31 50 32 51 33 52 80 53
REMARK SMILES IDX 34 54 85 55 79 56 81 57 35 58 84 59 78 60 77 61 36 63 66 64
REMARK SMILES IDX 47 65 65 66 48 67 51 68 64 69 82 70 49 71 50 72 63 74 83 75
REMARK SMILES IDX 52 76 37 77 38 78 46 79 39 80 45 81 40 82 41 83 42 84 43 85
REMARK SMILES IDX 44 86 67 87 68 88 76 89 69 90 75 91 70 92 71 93 72 94 73 95
REMARK SMILES IDX 74 96 53 97 54 98 62 99 55 100 61 101 56 102 57 103 58 104
REMARK SMILES IDX 59 105 60 106
REMARK H PARENT 20 5 25 43 81 62 51 73
REMARK Flexibility Score: inf
ROOT
ATOM      1  C   UNL A   1      43.677  23.366  25.975  1.00  0.00     0.116 C 
ENDROOT
BRANCH   1   2
ATOM      2  N   UNL A   1      43.494  23.273  27.411  1.00  0.00    -0.352 N 
ATOM      3  C   UNL A   1      42.383  23.244  28.215  1.00  0.00     0.251 C 
ATOM      4  O   UNL A   1      42.561  23.225  29.433  1.00  0.00    -0.269 OA
ATOM      5  H   UNL A   1      44.341  23.222  27.912  1.00  0.00     0.163 HD
BRANCH   3   6
ATOM      6  C   UNL A   1      40.994  23.153  27.691  1.00  0.00     0.039 A 
ATOM      7  C   UNL A   1      38.599  22.909  26.299  1.00  0.00     0.066 A 
ATOM      8  C   UNL A   1      39.381  21.774  26.485  1.00  0.00     0.029 A 
ATOM      9  C   UNL A   1      38.921  24.119  26.921  1.00  0.00     0.029 A 
ATOM     10  C   UNL A   1      40.597  21.912  27.153  1.00  0.00     0.016 A 
ATOM     11  C   UNL A   1      40.094  24.216  27.658  1.00  0.00     0.016 A 
BRANCH   7  12
ATOM     12  N   UNL A   1      37.548  22.882  25.375  1.00  0.00    -0.220 N 
ATOM     13  C   UNL A   1      35.792  23.404  24.222  1.00  0.00     0.093 A 
ATOM     14  C   UNL A   1      36.614  23.863  25.219  1.00  0.00     0.141 A 
ATOM     15  N   UNL A   1      36.274  22.211  23.761  1.00  0.00    -0.134 NA
ATOM     16  N   UNL A   1      37.382  21.929  24.436  1.00  0.00    -0.062 NA
BRANCH  13  17
ATOM     17  C   UNL A   1      34.599  24.033  23.642  1.00  0.00     0.138 C 
BRANCH  17  18
ATOM     18  S   UNL A   1      34.050  25.478  24.553  1.00  0.00    -0.081 SA
BRANCH  18  19
ATOM     19  C   UNL A   1      32.646  24.893  25.535  1.00  0.00     0.176 A 
ATOM     20  N   UNL A   1      31.656  24.341  24.752  1.00  0.00    -0.255 N 
ATOM     21  C   UNL A   1      30.737  25.234  24.220  1.00  0.00     0.266 A 
ATOM     22  N   UNL A   1      32.285  25.679  26.507  1.00  0.00    -0.223 NA
ATOM     23  C   UNL A   1      30.911  26.635  24.730  1.00  0.00     0.066 A 
ATOM     24  O   UNL A   1      29.874  24.981  23.385  1.00  0.00    -0.268 OA
ATOM     25  C   UNL A   1      31.591  26.787  25.960  1.00  0.00     0.079 A 
ATOM     26  C   UNL A   1      30.670  27.743  23.922  1.00  0.00     0.016 A 
ATOM     27  C   UNL A   1      31.886  28.058  26.446  1.00  0.00     0.029 A 
ATOM     28  C   UNL A   1      31.083  29.004  24.364  1.00  0.00     0.001 A 
ATOM     29  C   UNL A   1      31.651  29.166  25.634  1.00  0.00     0.002 A 
BRANCH  20  30
ATOM     30  C   UNL A   1      31.672  22.953  24.495  1.00  0.00     0.052 A 
ATOM     31  C   UNL A   1      32.436  20.337  23.915  1.00  0.00     0.119 A 
ATOM     32  C   UNL A   1      32.324  20.734  25.244  1.00  0.00     0.048 A 
ATOM     33  C   UNL A   1      32.051  21.196  22.886  1.00  0.00     0.048 A 
ATOM     34  C   UNL A   1      31.975  22.056  25.534  1.00  0.00     0.030 A 
ATOM     35  C   UNL A   1      31.632  22.496  23.178  1.00  0.00     0.030 A 
BRANCH  31  36
ATOM     36  O   UNL A   1      32.891  19.078  23.630  1.00  0.00    -0.497 OA
ATOM     37  C   UNL A   1      32.390  18.638  22.361  1.00  0.00     0.278 C 
ENDBRANCH  31  36
ENDBRANCH  20  30
ENDBRANCH  18  19
ENDBRANCH  17  18
ENDBRANCH  13  17
ENDBRANCH   7  12
ENDBRANCH   3   6
ENDBRANCH   1   2
BRANCH   1  38
ATOM     38  C   UNL A   1      45.104  22.968  25.577  1.00  0.00     0.023 C 
BRANCH  38  39
ATOM     39  C   UNL A   1      45.925  24.085  24.918  1.00  0.00     0.023 C 
BRANCH  39  40
ATOM     40  C   UNL A   1      46.016  25.371  25.730  1.00  0.00     0.116 C 
BRANCH  40  41
ATOM     41  N   UNL A   1      46.707  26.443  25.013  1.00  0.00    -0.352 N 
ATOM     42  C   UNL A   1      46.396  27.792  24.986  1.00  0.00     0.251 C 
ATOM     43  H   UNL A   1      47.492  26.170  24.485  1.00  0.00     0.163 HD
ATOM     44  O   UNL A   1      46.762  28.501  24.066  1.00  0.00    -0.269 OA
BRANCH  42  45
ATOM     45  C   UNL A   1      45.629  28.351  26.116  1.00  0.00     0.039 A 
ATOM     46  C   UNL A   1      46.218  28.600  27.357  1.00  0.00     0.014 A 
ATOM     47  C   UNL A   1      44.292  28.660  25.886  1.00  0.00     0.014 A 
ATOM     48  C   UNL A   1      45.464  29.250  28.333  1.00  0.00     0.010 A 
ATOM     49  C   UNL A   1      43.606  29.438  26.782  1.00  0.00     0.010 A 
ATOM     50  C   UNL A   1      44.164  29.690  28.029  1.00  0.00    -0.014 A 
BRANCH  50  51
ATOM     51  C   UNL A   1      43.410  30.517  28.964  1.00  0.00     0.031 A 
ATOM     52  C   UNL A   1      44.119  31.742  29.417  1.00  0.00     0.074 A 
ATOM     53  C   UNL A   1      42.107  30.321  29.262  1.00  0.00     0.049 A 
ATOM     54  N   UNL A   1      44.647  31.949  30.576  1.00  0.00    -0.248 NA
ATOM     55  C   UNL A   1      44.405  32.798  28.432  1.00  0.00     0.031 C 
ATOM     56  C   UNL A   1      41.162  29.354  28.688  1.00  0.00     0.029 A 
ATOM     57  N   UNL A   1      41.315  31.040  30.100  1.00  0.00    -0.354 N 
ATOM     58  C   UNL A   1      45.136  33.250  30.548  1.00  0.00     0.074 A 
ATOM     59  C   UNL A   1      45.130  33.649  29.162  1.00  0.00     0.031 C 
ATOM     60  C   UNL A   1      39.897  29.701  29.018  1.00  0.00     0.029 A 
ATOM     61  C   UNL A   1      39.952  30.790  29.975  1.00  0.00     0.049 A 
ATOM     62  H   UNL A   1      41.678  31.688  30.746  1.00  0.00     0.167 HD
ATOM     63  C   UNL A   1      45.281  33.978  31.691  1.00  0.00     0.031 A 
ATOM     64  C   UNL A   1      38.946  31.437  30.616  1.00  0.00     0.031 A 
ATOM     65  C   UNL A   1      45.168  33.153  32.867  1.00  0.00     0.049 A 
ATOM     66  C   UNL A   1      39.543  32.046  31.830  1.00  0.00     0.074 A 
ATOM     67  C   UNL A   1      45.851  32.049  33.341  1.00  0.00     0.029 A 
ATOM     68  N   UNL A   1      43.957  33.153  33.522  1.00  0.00    -0.354 N 
ATOM     69  N   UNL A   1      40.032  31.342  32.813  1.00  0.00    -0.248 NA
ATOM     70  C   UNL A   1      40.024  33.416  31.744  1.00  0.00     0.031 C 
ATOM     71  C   UNL A   1      44.837  31.183  33.850  1.00  0.00     0.029 A 
ATOM     72  C   UNL A   1      43.610  31.843  33.743  1.00  0.00     0.049 A 
ATOM     73  H   UNL A   1      43.436  33.946  33.782  1.00  0.00     0.167 HD
ATOM     74  C   UNL A   1      41.188  32.011  33.186  1.00  0.00     0.074 A 
ATOM     75  C   UNL A   1      41.080  33.328  32.558  1.00  0.00     0.031 C 
ATOM     76  C   UNL A   1      42.248  31.346  33.737  1.00  0.00     0.031 A 
BRANCH  63  77
ATOM     77  C   UNL A   1      45.141  35.478  31.749  1.00  0.00    -0.014 A 
ATOM     78  C   UNL A   1      43.907  36.067  31.406  1.00  0.00     0.010 A 
ATOM     79  C   UNL A   1      46.247  36.343  31.880  1.00  0.00     0.010 A 
ATOM     80  C   UNL A   1      43.800  37.444  31.166  1.00  0.00     0.020 A 
ATOM     81  C   UNL A   1      46.143  37.721  31.685  1.00  0.00     0.020 A 
ATOM     82  C   UNL A   1      44.924  38.260  31.303  1.00  0.00     0.054 A 
BRANCH  82  83
ATOM     83  S   UNL A   1      44.792  40.024  30.920  1.00  0.00     0.124 S 
ATOM     84  O   UNL A   1      44.604  40.006  29.473  1.00  0.00    -0.237 OA
ATOM     85  O   UNL A   1      43.630  40.424  31.708  1.00  0.00    -0.237 OA
ATOM     86  O   UNL A   1      46.068  40.569  31.380  1.00  0.00    -0.744 OA
ENDBRANCH  82  83
ENDBRANCH  63  77
BRANCH  64  87
ATOM     87  C   UNL A   1      37.611  31.824  30.100  1.00  0.00    -0.014 A 
ATOM     88  C   UNL A   1      36.489  31.852  30.953  1.00  0.00     0.010 A 
ATOM     89  C   UNL A   1      37.499  32.469  28.851  1.00  0.00     0.010 A 
ATOM     90  C   UNL A   1      35.331  32.569  30.605  1.00  0.00     0.020 A 
ATOM     91  C   UNL A   1      36.344  33.182  28.496  1.00  0.00     0.020 A 
ATOM     92  C   UNL A   1      35.276  33.253  29.389  1.00  0.00     0.054 A 
BRANCH  92  93
ATOM     93  S   UNL A   1      33.866  34.348  29.042  1.00  0.00     0.124 S 
ATOM     94  O   UNL A   1      33.047  33.528  28.153  1.00  0.00    -0.237 OA
ATOM     95  O   UNL A   1      33.313  34.586  30.372  1.00  0.00    -0.237 OA
ATOM     96  O   UNL A   1      34.484  35.516  28.414  1.00  0.00    -0.744 OA
ENDBRANCH  92  93
ENDBRANCH  64  87
BRANCH  76  97
ATOM     97  C   UNL A   1      42.052  29.908  34.177  1.00  0.00    -0.014 A 
ATOM     98  C   UNL A   1      42.272  28.788  33.349  1.00  0.00     0.010 A 
ATOM     99  C   UNL A   1      41.772  29.683  35.536  1.00  0.00     0.010 A 
ATOM    100  C   UNL A   1      42.186  27.483  33.863  1.00  0.00     0.020 A 
ATOM    101  C   UNL A   1      41.703  28.389  36.059  1.00  0.00     0.020 A 
ATOM    102  C   UNL A   1      41.899  27.293  35.218  1.00  0.00     0.054 A 
BRANCH 102 103
ATOM    103  S   UNL A   1      41.820  25.609  35.893  1.00  0.00     0.124 S 
ATOM    104  O   UNL A   1      42.434  24.814  34.834  1.00  0.00    -0.237 OA
ATOM    105  O   UNL A   1      42.592  25.716  37.128  1.00  0.00    -0.237 OA
ATOM    106  O   UNL A   1      40.387  25.377  36.085  1.00  0.00    -0.744 OA
ENDBRANCH 102 103
ENDBRANCH  76  97
ENDBRANCH  50  51
ENDBRANCH  42  45
ENDBRANCH  40  41
ENDBRANCH  39  40
ENDBRANCH  38  39
ENDBRANCH   1  38
TORSDOF 20
ENDMDL
