MODEL 1
REMARK VINA RESULT:     -11.5      0.000      0.000
REMARK SMILES C[C@H]1[C@@H](C(=O)NCCCCNC(=O)c2ccc(-c3c4nc(c(-c5ccc(S(=O)(=O)[O-])cc5)c5ccc([nH]5)c(-c5ccc(S(=O)(=O)[O-])cc5)c5nc(c(-c6ccc(S(=O)(=O)[O-])cc6)c6ccc3[nH]6)C=C5)C=C4)cc2)CCN1C(=O)N1CCn2cnnc2C1
REMARK SMILES IDX 9 1 8 2 7 3 6 4 4 5 5 6 3 8 1 9 2 10 76 11 74 12 75 13 77 14
REMARK SMILES IDX 78 15 79 16 80 17 87 18 81 19 86 20 82 21 85 22 83 23 84 24
REMARK SMILES IDX 10 25 11 26 12 27 13 29 14 30 15 31 73 32 16 33 72 34 17 35
REMARK SMILES IDX 18 36 19 37 66 38 20 39 71 40 65 41 67 42 21 43 70 44 64 45
REMARK SMILES IDX 63 46 22 48 52 49 33 50 51 51 34 52 37 53 50 54 68 55 35 56
REMARK SMILES IDX 36 57 49 59 69 60 38 61 23 62 24 63 32 64 25 65 31 66 26 67
REMARK SMILES IDX 27 68 28 69 29 70 30 71 53 72 54 73 62 74 55 75 61 76 56 77
REMARK SMILES IDX 57 78 58 79 59 80 60 81 39 82 40 83 48 84 41 85 47 86 42 87
REMARK SMILES IDX 43 88 44 89 45 90 46 91
REMARK H PARENT 6 7 11 28 67 47 37 58
REMARK Flexibility Score: inf
ROOT
ATOM      1  C   UNL A   1      32.574  28.874  26.061  1.00  0.00     0.023 C 
ENDROOT
BRANCH   1   2
ATOM      2  C   UNL A   1      33.103  29.118  24.657  1.00  0.00     0.023 C 
BRANCH   2   3
ATOM      3  C   UNL A   1      32.096  28.848  23.536  1.00  0.00     0.116 C 
BRANCH   3   4
ATOM      4  N   UNL A   1      32.743  28.071  22.512  1.00  0.00    -0.356 N 
ATOM      5  C   UNL A   1      33.050  26.753  22.452  1.00  0.00     0.225 C 
ATOM      6  O   UNL A   1      33.891  26.471  21.590  1.00  0.00    -0.275 OA
ATOM      7  H   UNL A   1      33.010  28.587  21.717  1.00  0.00     0.163 HD
BRANCH   5   8
ATOM      8  C   UNL A   1      32.299  25.653  23.236  1.00  0.00     0.102 C 
ATOM      9  C   UNL A   1      33.444  25.667  25.645  1.00  0.00     0.032 C 
ATOM     10  C   UNL A   1      32.860  24.902  24.477  1.00  0.00     0.096 C 
ATOM     11  N   UNL A   1      33.760  23.885  23.918  1.00  0.00    -0.321 N 
ATOM     12  C   UNL A   1      32.203  24.434  22.274  1.00  0.00     0.037 C 
ATOM     13  C   UNL A   1      33.557  23.757  22.489  1.00  0.00     0.122 C 
BRANCH  11  14
ATOM     14  C   UNL A   1      34.745  23.171  24.554  1.00  0.00     0.320 C 
ATOM     15  O   UNL A   1      35.900  23.578  24.648  1.00  0.00    -0.248 OA
BRANCH  14  16
ATOM     16  N   UNL A   1      34.368  21.941  25.070  1.00  0.00    -0.315 N 
ATOM     17  C   UNL A   1      33.486  21.087  24.265  1.00  0.00     0.144 C 
ATOM     18  C   UNL A   1      34.205  21.839  26.526  1.00  0.00     0.199 C 
ATOM     19  C   UNL A   1      32.057  20.954  24.822  1.00  0.00     0.146 C 
ATOM     20  C   UNL A   1      32.798  22.233  26.793  1.00  0.00     0.152 A 
ATOM     21  N   UNL A   1      31.816  21.853  25.924  1.00  0.00    -0.314 N 
ATOM     22  N   UNL A   1      32.287  23.055  27.683  1.00  0.00    -0.134 NA
ATOM     23  C   UNL A   1      30.711  22.555  26.256  1.00  0.00     0.226 A 
ATOM     24  N   UNL A   1      30.961  23.255  27.341  1.00  0.00    -0.139 NA
ENDBRANCH  14  16
ENDBRANCH  11  14
ENDBRANCH   5   8
ENDBRANCH   3   4
ENDBRANCH   2   3
ENDBRANCH   1   2
BRANCH   1  25
ATOM     25  C   UNL A   1      33.639  29.014  27.133  1.00  0.00     0.116 C 
BRANCH  25  26
ATOM     26  N   UNL A   1      33.642  30.316  27.796  1.00  0.00    -0.352 N 
ATOM     27  C   UNL A   1      34.674  30.909  28.486  1.00  0.00     0.251 C 
ATOM     28  H   UNL A   1      32.804  30.831  27.743  1.00  0.00     0.163 HD
ATOM     29  O   UNL A   1      34.518  31.985  29.054  1.00  0.00    -0.269 OA
BRANCH  27  30
ATOM     30  C   UNL A   1      35.953  30.182  28.567  1.00  0.00     0.039 A 
ATOM     31  C   UNL A   1      36.842  30.251  27.495  1.00  0.00     0.014 A 
ATOM     32  C   UNL A   1      36.326  29.586  29.774  1.00  0.00     0.014 A 
ATOM     33  C   UNL A   1      38.151  29.803  27.669  1.00  0.00     0.010 A 
ATOM     34  C   UNL A   1      37.654  29.249  29.978  1.00  0.00     0.010 A 
ATOM     35  C   UNL A   1      38.581  29.351  28.928  1.00  0.00    -0.014 A 
BRANCH  35  36
ATOM     36  C   UNL A   1      39.993  28.969  29.180  1.00  0.00     0.031 A 
ATOM     37  C   UNL A   1      40.935  29.977  29.783  1.00  0.00     0.074 A 
ATOM     38  C   UNL A   1      40.448  27.762  28.786  1.00  0.00     0.049 A 
ATOM     39  N   UNL A   1      42.223  29.884  29.983  1.00  0.00    -0.248 NA
ATOM     40  C   UNL A   1      40.359  31.278  30.168  1.00  0.00     0.031 C 
ATOM     41  C   UNL A   1      39.653  26.722  28.127  1.00  0.00     0.029 A 
ATOM     42  N   UNL A   1      41.700  27.206  28.880  1.00  0.00    -0.354 N 
ATOM     43  C   UNL A   1      42.614  31.124  30.477  1.00  0.00     0.074 A 
ATOM     44  C   UNL A   1      41.441  31.968  30.488  1.00  0.00     0.031 C 
ATOM     45  C   UNL A   1      40.425  25.644  27.913  1.00  0.00     0.029 A 
ATOM     46  C   UNL A   1      41.776  25.927  28.385  1.00  0.00     0.049 A 
ATOM     47  H   UNL A   1      42.471  27.682  29.267  1.00  0.00     0.167 HD
ATOM     48  C   UNL A   1      43.833  31.517  30.911  1.00  0.00     0.031 A 
ATOM     49  C   UNL A   1      42.819  25.075  28.322  1.00  0.00     0.031 A 
ATOM     50  C   UNL A   1      44.984  30.659  30.950  1.00  0.00     0.049 A 
ATOM     51  C   UNL A   1      44.151  25.513  28.865  1.00  0.00     0.074 A 
ATOM     52  C   UNL A   1      46.246  30.932  31.445  1.00  0.00     0.029 A 
ATOM     53  N   UNL A   1      45.006  29.352  30.488  1.00  0.00    -0.354 N 
ATOM     54  N   UNL A   1      44.487  26.669  29.388  1.00  0.00    -0.248 NA
ATOM     55  C   UNL A   1      45.242  24.530  28.820  1.00  0.00     0.031 C 
ATOM     56  C   UNL A   1      47.042  29.796  31.255  1.00  0.00     0.029 A 
ATOM     57  C   UNL A   1      46.261  28.805  30.680  1.00  0.00     0.049 A 
ATOM     58  H   UNL A   1      44.241  28.883  30.082  1.00  0.00     0.167 HD
ATOM     59  C   UNL A   1      45.821  26.542  29.758  1.00  0.00     0.074 A 
ATOM     60  C   UNL A   1      46.225  25.195  29.411  1.00  0.00     0.031 C 
ATOM     61  C   UNL A   1      46.638  27.459  30.332  1.00  0.00     0.031 A 
BRANCH  48  62
ATOM     62  C   UNL A   1      43.968  32.935  31.394  1.00  0.00    -0.014 A 
ATOM     63  C   UNL A   1      43.849  33.249  32.761  1.00  0.00     0.010 A 
ATOM     64  C   UNL A   1      44.216  33.968  30.473  1.00  0.00     0.010 A 
ATOM     65  C   UNL A   1      43.920  34.577  33.190  1.00  0.00     0.020 A 
ATOM     66  C   UNL A   1      44.318  35.295  30.904  1.00  0.00     0.020 A 
ATOM     67  C   UNL A   1      44.148  35.591  32.257  1.00  0.00     0.054 A 
BRANCH  67  68
ATOM     68  S   UNL A   1      44.242  37.305  32.842  1.00  0.00     0.124 S 
ATOM     69  O   UNL A   1      43.007  37.426  33.615  1.00  0.00    -0.237 OA
ATOM     70  O   UNL A   1      45.474  37.312  33.625  1.00  0.00    -0.237 OA
ATOM     71  O   UNL A   1      44.285  38.089  31.610  1.00  0.00    -0.744 OA
ENDBRANCH  67  68
ENDBRANCH  48  62
BRANCH  49  72
ATOM     72  C   UNL A   1      42.634  23.709  27.762  1.00  0.00    -0.014 A 
ATOM     73  C   UNL A   1      42.199  22.658  28.589  1.00  0.00     0.010 A 
ATOM     74  C   UNL A   1      42.879  23.451  26.401  1.00  0.00     0.010 A 
ATOM     75  C   UNL A   1      42.028  21.371  28.071  1.00  0.00     0.020 A 
ATOM     76  C   UNL A   1      42.687  22.169  25.874  1.00  0.00     0.020 A 
ATOM     77  C   UNL A   1      42.274  21.134  26.716  1.00  0.00     0.054 A 
BRANCH  77  78
ATOM     78  S   UNL A   1      41.995  19.468  26.053  1.00  0.00     0.124 S 
ATOM     79  O   UNL A   1      40.550  19.461  25.853  1.00  0.00    -0.237 OA
ATOM     80  O   UNL A   1      42.803  19.472  24.835  1.00  0.00    -0.237 OA
ATOM     81  O   UNL A   1      42.487  18.593  27.114  1.00  0.00    -0.744 OA
ENDBRANCH  77  78
ENDBRANCH  49  72
BRANCH  61  82
ATOM     82  C   UNL A   1      48.042  27.027  30.652  1.00  0.00    -0.014 A 
ATOM     83  C   UNL A   1      49.095  27.265  29.753  1.00  0.00     0.010 A 
ATOM     84  C   UNL A   1      48.317  26.435  31.898  1.00  0.00     0.010 A 
ATOM     85  C   UNL A   1      50.400  26.895  30.085  1.00  0.00     0.020 A 
ATOM     86  C   UNL A   1      49.624  26.086  32.243  1.00  0.00     0.020 A 
ATOM     87  C   UNL A   1      50.656  26.307  31.329  1.00  0.00     0.054 A 
BRANCH  87  88
ATOM     88  S   UNL A   1      52.365  25.883  31.760  1.00  0.00     0.124 S 
ATOM     89  O   UNL A   1      52.664  26.855  32.808  1.00  0.00    -0.237 OA
ATOM     90  O   UNL A   1      52.252  24.496  32.203  1.00  0.00    -0.237 OA
ATOM     91  O   UNL A   1      53.094  26.072  30.508  1.00  0.00    -0.744 OA
ENDBRANCH  87  88
ENDBRANCH  61  82
ENDBRANCH  35  36
ENDBRANCH  27  30
ENDBRANCH  25  26
ENDBRANCH   1  25
TORSDOF 16
ENDMDL
MODEL 2
REMARK VINA RESULT:     -11.4      2.605      9.270
REMARK SMILES C[C@H]1[C@@H](C(=O)NCCCCNC(=O)c2ccc(-c3c4nc(c(-c5ccc(S(=O)(=O)[O-])cc5)c5ccc([nH]5)c(-c5ccc(S(=O)(=O)[O-])cc5)c5nc(c(-c6ccc(S(=O)(=O)[O-])cc6)c6ccc3[nH]6)C=C5)C=C4)cc2)CCN1C(=O)N1CCn2cnnc2C1
REMARK SMILES IDX 9 1 8 2 7 3 6 4 4 5 5 6 3 8 1 9 2 10 76 11 74 12 75 13 77 14
REMARK SMILES IDX 78 15 79 16 80 17 87 18 81 19 86 20 82 21 85 22 83 23 84 24
REMARK SMILES IDX 10 25 11 26 12 27 13 29 14 30 15 31 73 32 16 33 72 34 17 35
REMARK SMILES IDX 18 36 19 37 66 38 20 39 71 40 65 41 67 42 21 43 70 44 64 45
REMARK SMILES IDX 63 46 22 48 52 49 33 50 51 51 34 52 37 53 50 54 68 55 35 56
REMARK SMILES IDX 36 57 49 59 69 60 38 61 23 62 24 63 32 64 25 65 31 66 26 67
REMARK SMILES IDX 27 68 28 69 29 70 30 71 53 72 54 73 62 74 55 75 61 76 56 77
REMARK SMILES IDX 57 78 58 79 59 80 60 81 39 82 40 83 48 84 41 85 47 86 42 87
REMARK SMILES IDX 43 88 44 89 45 90 46 91
REMARK H PARENT 6 7 11 28 67 47 37 58
REMARK Flexibility Score: inf
ROOT
ATOM      1  C   UNL A   1      35.833  22.133  25.555  1.00  0.00     0.023 C 
ENDROOT
BRANCH   1   2
ATOM      2  C   UNL A   1      34.924  21.887  26.748  1.00  0.00     0.023 C 
BRANCH   2   3
ATOM      3  C   UNL A   1      33.603  21.189  26.414  1.00  0.00     0.116 C 
BRANCH   3   4
ATOM      4  N   UNL A   1      32.522  21.953  26.980  1.00  0.00    -0.356 N 
ATOM      5  C   UNL A   1      32.020  23.168  26.652  1.00  0.00     0.225 C 
ATOM      6  O   UNL A   1      31.319  23.677  27.535  1.00  0.00    -0.275 OA
ATOM      7  H   UNL A   1      32.069  21.517  27.738  1.00  0.00     0.163 HD
BRANCH   5   8
ATOM      8  C   UNL A   1      32.131  23.798  25.245  1.00  0.00     0.102 C 
ATOM      9  C   UNL A   1      34.239  25.423  25.419  1.00  0.00     0.032 C 
ATOM     10  C   UNL A   1      32.835  25.148  24.927  1.00  0.00     0.096 C 
ATOM     11  N   UNL A   1      31.856  26.174  25.306  1.00  0.00    -0.321 N 
ATOM     12  C   UNL A   1      30.685  24.213  24.849  1.00  0.00     0.037 C 
ATOM     13  C   UNL A   1      30.554  25.579  25.524  1.00  0.00     0.122 C 
BRANCH  11  14
ATOM     14  C   UNL A   1      32.063  27.512  25.536  1.00  0.00     0.320 C 
ATOM     15  O   UNL A   1      32.458  27.944  26.616  1.00  0.00    -0.248 OA
BRANCH  14  16
ATOM     16  N   UNL A   1      31.778  28.362  24.478  1.00  0.00    -0.315 N 
ATOM     17  C   UNL A   1      30.442  28.298  23.873  1.00  0.00     0.144 C 
ATOM     18  C   UNL A   1      32.879  28.703  23.569  1.00  0.00     0.199 C 
ATOM     19  C   UNL A   1      30.419  27.694  22.457  1.00  0.00     0.146 C 
ATOM     20  C   UNL A   1      32.881  27.636  22.536  1.00  0.00     0.152 A 
ATOM     21  N   UNL A   1      31.694  27.134  22.084  1.00  0.00    -0.314 N 
ATOM     22  N   UNL A   1      33.865  26.922  22.036  1.00  0.00    -0.134 NA
ATOM     23  C   UNL A   1      31.989  26.023  21.373  1.00  0.00     0.226 A 
ATOM     24  N   UNL A   1      33.296  25.901  21.296  1.00  0.00    -0.139 NA
ENDBRANCH  14  16
ENDBRANCH  11  14
ENDBRANCH   5   8
ENDBRANCH   3   4
ENDBRANCH   2   3
ENDBRANCH   1   2
BRANCH   1  25
ATOM     25  C   UNL A   1      37.014  23.029  25.879  1.00  0.00     0.116 C 
BRANCH  25  26
ATOM     26  N   UNL A   1      38.287  22.319  25.968  1.00  0.00    -0.352 N 
ATOM     27  C   UNL A   1      39.489  22.796  26.440  1.00  0.00     0.251 C 
ATOM     28  H   UNL A   1      38.286  21.386  25.652  1.00  0.00     0.163 HD
ATOM     29  O   UNL A   1      40.503  22.108  26.396  1.00  0.00    -0.269 OA
BRANCH  27  30
ATOM     30  C   UNL A   1      39.527  24.180  26.945  1.00  0.00     0.039 A 
ATOM     31  C   UNL A   1      39.119  24.435  28.254  1.00  0.00     0.014 A 
ATOM     32  C   UNL A   1      40.130  25.174  26.171  1.00  0.00     0.014 A 
ATOM     33  C   UNL A   1      39.408  25.675  28.824  1.00  0.00     0.010 A 
ATOM     34  C   UNL A   1      40.515  26.360  26.777  1.00  0.00     0.010 A 
ATOM     35  C   UNL A   1      40.157  26.625  28.109  1.00  0.00    -0.014 A 
BRANCH  35  36
ATOM     36  C   UNL A   1      40.575  27.910  28.721  1.00  0.00     0.031 A 
ATOM     37  C   UNL A   1      41.967  28.044  29.278  1.00  0.00     0.074 A 
ATOM     38  C   UNL A   1      39.687  28.916  28.858  1.00  0.00     0.049 A 
ATOM     39  N   UNL A   1      42.496  29.035  29.947  1.00  0.00    -0.248 NA
ATOM     40  C   UNL A   1      42.868  26.891  29.102  1.00  0.00     0.031 C 
ATOM     41  C   UNL A   1      38.288  28.886  28.422  1.00  0.00     0.029 A 
ATOM     42  N   UNL A   1      39.831  30.163  29.411  1.00  0.00    -0.354 N 
ATOM     43  C   UNL A   1      43.770  28.608  30.302  1.00  0.00     0.074 A 
ATOM     44  C   UNL A   1      43.913  27.250  29.830  1.00  0.00     0.031 C 
ATOM     45  C   UNL A   1      37.717  30.072  28.689  1.00  0.00     0.029 A 
ATOM     46  C   UNL A   1      38.694  30.933  29.346  1.00  0.00     0.049 A 
ATOM     47  H   UNL A   1      40.672  30.478  29.817  1.00  0.00     0.167 HD
ATOM     48  C   UNL A   1      44.748  29.294  30.938  1.00  0.00     0.031 A 
ATOM     49  C   UNL A   1      38.466  32.192  29.766  1.00  0.00     0.031 A 
ATOM     50  C   UNL A   1      44.622  30.662  31.357  1.00  0.00     0.049 A 
ATOM     51  C   UNL A   1      39.585  32.957  30.418  1.00  0.00     0.074 A 
ATOM     52  C   UNL A   1      45.578  31.476  31.937  1.00  0.00     0.029 A 
ATOM     53  N   UNL A   1      43.470  31.423  31.224  1.00  0.00    -0.354 N 
ATOM     54  N   UNL A   1      40.806  32.558  30.688  1.00  0.00    -0.248 NA
ATOM     55  C   UNL A   1      39.302  34.345  30.810  1.00  0.00     0.031 C 
ATOM     56  C   UNL A   1      44.993  32.724  32.183  1.00  0.00     0.029 A 
ATOM     57  C   UNL A   1      43.687  32.696  31.717  1.00  0.00     0.049 A 
ATOM     58  H   UNL A   1      42.624  31.103  30.837  1.00  0.00     0.167 HD
ATOM     59  C   UNL A   1      41.443  33.654  31.259  1.00  0.00     0.074 A 
ATOM     60  C   UNL A   1      40.478  34.734  31.283  1.00  0.00     0.031 C 
ATOM     61  C   UNL A   1      42.712  33.757  31.723  1.00  0.00     0.031 A 
BRANCH  48  62
ATOM     62  C   UNL A   1      46.040  28.570  31.197  1.00  0.00    -0.014 A 
ATOM     63  C   UNL A   1      46.243  27.857  32.393  1.00  0.00     0.010 A 
ATOM     64  C   UNL A   1      47.066  28.600  30.235  1.00  0.00     0.010 A 
ATOM     65  C   UNL A   1      47.468  27.234  32.647  1.00  0.00     0.020 A 
ATOM     66  C   UNL A   1      48.282  27.953  30.473  1.00  0.00     0.020 A 
ATOM     67  C   UNL A   1      48.481  27.292  31.687  1.00  0.00     0.054 A 
BRANCH  67  68
ATOM     68  S   UNL A   1      50.059  26.471  32.039  1.00  0.00     0.124 S 
ATOM     69  O   UNL A   1      50.336  25.799  30.772  1.00  0.00    -0.237 OA
ATOM     70  O   UNL A   1      50.940  27.590  32.362  1.00  0.00    -0.237 OA
ATOM     71  O   UNL A   1      49.746  25.586  33.159  1.00  0.00    -0.744 OA
ENDBRANCH  67  68
ENDBRANCH  48  62
BRANCH  49  72
ATOM     72  C   UNL A   1      37.137  32.825  29.544  1.00  0.00    -0.014 A 
ATOM     73  C   UNL A   1      36.213  32.919  30.599  1.00  0.00     0.010 A 
ATOM     74  C   UNL A   1      36.793  33.349  28.285  1.00  0.00     0.010 A 
ATOM     75  C   UNL A   1      34.962  33.508  30.396  1.00  0.00     0.020 A 
ATOM     76  C   UNL A   1      35.550  33.960  28.084  1.00  0.00     0.020 A 
ATOM     77  C   UNL A   1      34.638  34.024  29.139  1.00  0.00     0.054 A 
BRANCH  77  78
ATOM     78  S   UNL A   1      33.029  34.833  28.912  1.00  0.00     0.124 S 
ATOM     79  O   UNL A   1      33.419  36.150  28.421  1.00  0.00    -0.237 OA
ATOM     80  O   UNL A   1      32.372  33.963  27.939  1.00  0.00    -0.237 OA
ATOM     81  O   UNL A   1      32.444  34.809  30.251  1.00  0.00    -0.744 OA
ENDBRANCH  77  78
ENDBRANCH  49  72
BRANCH  61  82
ATOM     82  C   UNL A   1      43.142  35.090  32.267  1.00  0.00    -0.014 A 
ATOM     83  C   UNL A   1      43.804  36.025  31.453  1.00  0.00     0.010 A 
ATOM     84  C   UNL A   1      42.819  35.435  33.592  1.00  0.00     0.010 A 
ATOM     85  C   UNL A   1      44.160  37.275  31.963  1.00  0.00     0.020 A 
ATOM     86  C   UNL A   1      43.152  36.693  34.098  1.00  0.00     0.020 A 
ATOM     87  C   UNL A   1      43.831  37.601  33.284  1.00  0.00     0.054 A 
BRANCH  87  88
ATOM     88  S   UNL A   1      44.254  39.249  33.909  1.00  0.00     0.124 S 
ATOM     89  O   UNL A   1      45.309  39.661  32.987  1.00  0.00    -0.237 OA
ATOM     90  O   UNL A   1      42.993  39.975  33.786  1.00  0.00    -0.237 OA
ATOM     91  O   UNL A   1      44.689  38.997  35.281  1.00  0.00    -0.744 OA
ENDBRANCH  87  88
ENDBRANCH  61  82
ENDBRANCH  35  36
ENDBRANCH  27  30
ENDBRANCH  25  26
ENDBRANCH   1  25
TORSDOF 16
ENDMDL
MODEL 3
REMARK VINA RESULT:     -11.2      1.248      2.019
REMARK SMILES C[C@H]1[C@@H](C(=O)NCCCCNC(=O)c2ccc(-c3c4nc(c(-c5ccc(S(=O)(=O)[O-])cc5)c5ccc([nH]5)c(-c5ccc(S(=O)(=O)[O-])cc5)c5nc(c(-c6ccc(S(=O)(=O)[O-])cc6)c6ccc3[nH]6)C=C5)C=C4)cc2)CCN1C(=O)N1CCn2cnnc2C1
REMARK SMILES IDX 9 1 8 2 7 3 6 4 4 5 5 6 3 8 1 9 2 10 76 11 74 12 75 13 77 14
REMARK SMILES IDX 78 15 79 16 80 17 87 18 81 19 86 20 82 21 85 22 83 23 84 24
REMARK SMILES IDX 10 25 11 26 12 27 13 29 14 30 15 31 73 32 16 33 72 34 17 35
REMARK SMILES IDX 18 36 19 37 66 38 20 39 71 40 65 41 67 42 21 43 70 44 64 45
REMARK SMILES IDX 63 46 22 48 52 49 33 50 51 51 34 52 37 53 50 54 68 55 35 56
REMARK SMILES IDX 36 57 49 59 69 60 38 61 23 62 24 63 32 64 25 65 31 66 26 67
REMARK SMILES IDX 27 68 28 69 29 70 30 71 53 72 54 73 62 74 55 75 61 76 56 77
REMARK SMILES IDX 57 78 58 79 59 80 60 81 39 82 40 83 48 84 41 85 47 86 42 87
REMARK SMILES IDX 43 88 44 89 45 90 46 91
REMARK H PARENT 6 7 11 28 67 47 37 58
REMARK Flexibility Score: inf
ROOT
ATOM      1  C   UNL A   1      32.187  28.379  26.698  1.00  0.00     0.023 C 
ENDROOT
BRANCH   1   2
ATOM      2  C   UNL A   1      31.817  28.976  25.349  1.00  0.00     0.023 C 
BRANCH   2   3
ATOM      3  C   UNL A   1      32.129  28.083  24.146  1.00  0.00     0.116 C 
BRANCH   3   4
ATOM      4  N   UNL A   1      31.600  26.768  24.398  1.00  0.00    -0.356 N 
ATOM      5  C   UNL A   1      32.082  25.538  24.098  1.00  0.00     0.225 C 
ATOM      6  O   UNL A   1      31.236  24.638  24.156  1.00  0.00    -0.275 OA
ATOM      7  H   UNL A   1      30.736  26.761  24.870  1.00  0.00     0.163 HD
BRANCH   5   8
ATOM      8  C   UNL A   1      33.581  25.224  23.890  1.00  0.00     0.102 C 
ATOM      9  C   UNL A   1      33.589  23.133  22.235  1.00  0.00     0.032 C 
ATOM     10  C   UNL A   1      34.149  23.846  23.446  1.00  0.00     0.096 C 
ATOM     11  N   UNL A   1      34.152  23.035  24.669  1.00  0.00    -0.321 N 
ATOM     12  C   UNL A   1      34.227  25.276  25.304  1.00  0.00     0.037 C 
ATOM     13  C   UNL A   1      33.937  23.871  25.834  1.00  0.00     0.122 C 
BRANCH  11  14
ATOM     14  C   UNL A   1      34.246  21.671  24.793  1.00  0.00     0.320 C 
ATOM     15  O   UNL A   1      35.251  21.046  24.465  1.00  0.00    -0.248 OA
BRANCH  14  16
ATOM     16  N   UNL A   1      33.125  21.027  25.293  1.00  0.00    -0.315 N 
ATOM     17  C   UNL A   1      33.316  19.965  26.289  1.00  0.00     0.144 C 
ATOM     18  C   UNL A   1      31.981  20.859  24.387  1.00  0.00     0.199 C 
ATOM     19  C   UNL A   1      33.014  18.549  25.766  1.00  0.00     0.146 C 
ATOM     20  C   UNL A   1      32.230  19.582  23.671  1.00  0.00     0.152 A 
ATOM     21  N   UNL A   1      32.787  18.531  24.342  1.00  0.00    -0.314 N 
ATOM     22  N   UNL A   1      32.154  19.281  22.393  1.00  0.00    -0.134 NA
ATOM     23  C   UNL A   1      33.141  17.620  23.409  1.00  0.00     0.226 A 
ATOM     24  N   UNL A   1      32.730  18.034  22.231  1.00  0.00    -0.139 NA
ENDBRANCH  14  16
ENDBRANCH  11  14
ENDBRANCH   5   8
ENDBRANCH   3   4
ENDBRANCH   2   3
ENDBRANCH   1   2
BRANCH   1  25
ATOM     25  C   UNL A   1      33.555  28.815  27.188  1.00  0.00     0.116 C 
BRANCH  25  26
ATOM     26  N   UNL A   1      33.576  30.158  27.763  1.00  0.00    -0.352 N 
ATOM     27  C   UNL A   1      34.626  30.793  28.384  1.00  0.00     0.251 C 
ATOM     28  H   UNL A   1      32.736  30.669  27.699  1.00  0.00     0.163 HD
ATOM     29  O   UNL A   1      34.485  31.905  28.885  1.00  0.00    -0.269 OA
BRANCH  27  30
ATOM     30  C   UNL A   1      35.906  30.070  28.480  1.00  0.00     0.039 A 
ATOM     31  C   UNL A   1      36.815  30.160  27.426  1.00  0.00     0.014 A 
ATOM     32  C   UNL A   1      36.259  29.458  29.685  1.00  0.00     0.014 A 
ATOM     33  C   UNL A   1      38.123  29.715  27.620  1.00  0.00     0.010 A 
ATOM     34  C   UNL A   1      37.585  29.124  29.909  1.00  0.00     0.010 A 
ATOM     35  C   UNL A   1      38.531  29.247  28.880  1.00  0.00    -0.014 A 
BRANCH  35  36
ATOM     36  C   UNL A   1      39.940  28.867  29.153  1.00  0.00     0.031 A 
ATOM     37  C   UNL A   1      40.870  29.877  29.770  1.00  0.00     0.074 A 
ATOM     38  C   UNL A   1      40.403  27.661  28.766  1.00  0.00     0.049 A 
ATOM     39  N   UNL A   1      42.155  29.787  29.990  1.00  0.00    -0.248 NA
ATOM     40  C   UNL A   1      40.286  31.176  30.146  1.00  0.00     0.031 C 
ATOM     41  C   UNL A   1      39.620  26.619  28.094  1.00  0.00     0.029 A 
ATOM     42  N   UNL A   1      41.654  27.108  28.880  1.00  0.00    -0.354 N 
ATOM     43  C   UNL A   1      42.536  31.027  30.490  1.00  0.00     0.074 A 
ATOM     44  C   UNL A   1      41.362  31.868  30.483  1.00  0.00     0.031 C 
ATOM     45  C   UNL A   1      40.398  25.543  27.893  1.00  0.00     0.029 A 
ATOM     46  C   UNL A   1      41.741  25.828  28.385  1.00  0.00     0.049 A 
ATOM     47  H   UNL A   1      42.418  27.584  29.278  1.00  0.00     0.167 HD
ATOM     48  C   UNL A   1      43.748  31.422  30.943  1.00  0.00     0.031 A 
ATOM     49  C   UNL A   1      42.786  24.979  28.338  1.00  0.00     0.031 A 
ATOM     50  C   UNL A   1      44.900  30.567  30.999  1.00  0.00     0.049 A 
ATOM     51  C   UNL A   1      44.109  25.419  28.902  1.00  0.00     0.074 A 
ATOM     52  C   UNL A   1      46.154  30.842  31.514  1.00  0.00     0.029 A 
ATOM     53  N   UNL A   1      44.931  29.259  30.538  1.00  0.00    -0.354 N 
ATOM     54  N   UNL A   1      44.434  26.576  29.430  1.00  0.00    -0.248 NA
ATOM     55  C   UNL A   1      45.202  24.438  28.874  1.00  0.00     0.031 C 
ATOM     56  C   UNL A   1      46.954  29.707  31.336  1.00  0.00     0.029 A 
ATOM     57  C   UNL A   1      46.185  28.715  30.749  1.00  0.00     0.049 A 
ATOM     58  H   UNL A   1      44.173  28.789  30.121  1.00  0.00     0.167 HD
ATOM     59  C   UNL A   1      45.763  26.452  29.820  1.00  0.00     0.074 A 
ATOM     60  C   UNL A   1      46.175  25.105  29.480  1.00  0.00     0.031 C 
ATOM     61  C   UNL A   1      46.569  27.369  30.407  1.00  0.00     0.031 A 
BRANCH  48  62
ATOM     62  C   UNL A   1      43.872  32.841  31.428  1.00  0.00    -0.014 A 
ATOM     63  C   UNL A   1      44.202  33.883  30.540  1.00  0.00     0.010 A 
ATOM     64  C   UNL A   1      43.656  33.139  32.785  1.00  0.00     0.010 A 
ATOM     65  C   UNL A   1      44.368  35.187  31.012  1.00  0.00     0.020 A 
ATOM     66  C   UNL A   1      43.793  34.450  33.254  1.00  0.00     0.020 A 
ATOM     67  C   UNL A   1      44.169  35.460  32.368  1.00  0.00     0.054 A 
BRANCH  67  68
ATOM     68  S   UNL A   1      44.387  37.163  32.952  1.00  0.00     0.124 S 
ATOM     69  O   UNL A   1      43.364  37.255  33.992  1.00  0.00    -0.237 OA
ATOM     70  O   UNL A   1      45.767  37.167  33.428  1.00  0.00    -0.237 OA
ATOM     71  O   UNL A   1      44.139  37.972  31.761  1.00  0.00    -0.744 OA
ENDBRANCH  67  68
ENDBRANCH  48  62
BRANCH  49  72
ATOM     72  C   UNL A   1      42.612  23.612  27.776  1.00  0.00    -0.014 A 
ATOM     73  C   UNL A   1      43.033  23.327  26.465  1.00  0.00     0.010 A 
ATOM     74  C   UNL A   1      42.041  22.584  28.550  1.00  0.00     0.010 A 
ATOM     75  C   UNL A   1      42.868  22.046  25.930  1.00  0.00     0.020 A 
ATOM     76  C   UNL A   1      41.896  21.296  28.025  1.00  0.00     0.020 A 
ATOM     77  C   UNL A   1      42.301  21.038  26.713  1.00  0.00     0.054 A 
BRANCH  77  78
ATOM     78  S   UNL A   1      42.146  19.369  26.016  1.00  0.00     0.124 S 
ATOM     79  O   UNL A   1      42.656  18.540  27.103  1.00  0.00    -0.237 OA
ATOM     80  O   UNL A   1      40.711  19.265  25.759  1.00  0.00    -0.237 OA
ATOM     81  O   UNL A   1      42.983  19.421  24.820  1.00  0.00    -0.744 OA
ENDBRANCH  77  78
ENDBRANCH  49  72
BRANCH  61  82
ATOM     82  C   UNL A   1      47.968  26.941  30.748  1.00  0.00    -0.014 A 
ATOM     83  C   UNL A   1      49.029  27.150  29.852  1.00  0.00     0.010 A 
ATOM     84  C   UNL A   1      48.232  26.380  32.012  1.00  0.00     0.010 A 
ATOM     85  C   UNL A   1      50.330  26.783  30.203  1.00  0.00     0.020 A 
ATOM     86  C   UNL A   1      49.535  26.034  32.375  1.00  0.00     0.020 A 
ATOM     87  C   UNL A   1      50.574  26.227  31.463  1.00  0.00     0.054 A 
BRANCH  87  88
ATOM     88  S   UNL A   1      52.279  25.807  31.918  1.00  0.00     0.124 S 
ATOM     89  O   UNL A   1      52.492  26.641  33.099  1.00  0.00    -0.237 OA
ATOM     90  O   UNL A   1      52.202  24.370  32.168  1.00  0.00    -0.237 OA
ATOM     91  O   UNL A   1      53.053  26.187  30.739  1.00  0.00    -0.744 OA
ENDBRANCH  87  88
ENDBRANCH  61  82
ENDBRANCH  35  36
ENDBRANCH  27  30
ENDBRANCH  25  26
ENDBRANCH   1  25
TORSDOF 16
ENDMDL
