MODEL 1
REMARK VINA RESULT:     -11.6      0.000      0.000
REMARK SMILES CCc1cccc(C)c1Nc1ccccc1CC(=O)NCCCCNC(=O)c1ccc(-c2c3nc(c(-c4ccc(S(=O)(=O)[O-])cc4)c4ccc([nH]4)c(-c4ccc(S(=O)(=O)[O-])cc4)c4nc(c(-c5ccc(S(=O)(=O)[O-])cc5)c5ccc2[nH]5)C=C4)C=C3)cc1
REMARK SMILES IDX 22 1 21 2 20 3 18 4 19 5 17 7 16 8 11 9 12 10 13 11 15 12
REMARK SMILES IDX 14 13 10 14 9 16 3 17 4 18 5 19 7 20 6 21 8 22 2 23 1 24
REMARK SMILES IDX 23 25 24 26 25 27 26 28 27 30 28 31 29 32 87 33 30 34 86 35
REMARK SMILES IDX 31 36 32 37 33 38 80 39 34 40 85 41 79 42 81 43 35 44 84 45
REMARK SMILES IDX 78 46 77 47 36 49 66 50 47 51 65 52 48 53 51 54 64 55 82 56
REMARK SMILES IDX 49 57 50 58 63 60 83 61 52 62 37 63 38 64 46 65 39 66 45 67
REMARK SMILES IDX 40 68 41 69 42 70 43 71 44 72 67 73 68 74 76 75 69 76 75 77
REMARK SMILES IDX 70 78 71 79 72 80 73 81 74 82 53 83 54 84 62 85 55 86 61 87
REMARK SMILES IDX 56 88 57 89 58 90 59 91 60 92
REMARK H PARENT 20 6 10 15 25 29 81 48 51 59
REMARK Flexibility Score: inf
ROOT
ATOM      1  C   UNL A   1      33.000  32.940  27.436  1.00  0.00     0.023 C 
ENDROOT
BRANCH   1   2
ATOM      2  C   UNL A   1      32.296  31.595  27.244  1.00  0.00     0.116 C 
BRANCH   2   3
ATOM      3  N   UNL A   1      33.101  30.431  27.567  1.00  0.00    -0.356 N 
ATOM      4  C   UNL A   1      33.044  29.148  27.126  1.00  0.00     0.224 C 
ATOM      5  O   UNL A   1      34.022  28.425  27.343  1.00  0.00    -0.275 OA
ATOM      6  H   UNL A   1      33.815  30.603  28.224  1.00  0.00     0.163 HD
BRANCH   4   7
ATOM      7  C   UNL A   1      31.897  28.644  26.284  1.00  0.00     0.137 C 
BRANCH   7   8
ATOM      8  C   UNL A   1      32.250  28.043  24.944  1.00  0.00    -0.015 A 
ATOM      9  C   UNL A   1      32.978  26.844  24.788  1.00  0.00     0.042 A 
ATOM     10  C   UNL A   1      33.271  26.402  23.485  1.00  0.00     0.026 A 
ATOM     11  C   UNL A   1      32.805  27.085  22.360  1.00  0.00     0.002 A 
ATOM     12  C   UNL A   1      31.835  28.749  23.792  1.00  0.00     0.006 A 
ATOM     13  C   UNL A   1      32.085  28.261  22.514  1.00  0.00     0.000 A 
BRANCH   9  14
ATOM     14  N   UNL A   1      33.478  26.081  25.873  1.00  0.00    -0.355 N 
ATOM     15  H   UNL A   1      34.026  26.581  26.521  1.00  0.00     0.167 HD
BRANCH  14  16
ATOM     16  C   UNL A   1      33.305  24.702  26.161  1.00  0.00     0.045 A 
ATOM     17  C   UNL A   1      34.384  23.800  26.071  1.00  0.00    -0.024 A 
ATOM     18  C   UNL A   1      34.323  22.589  26.796  1.00  0.00     0.006 A 
ATOM     19  C   UNL A   1      33.166  22.209  27.459  1.00  0.00     0.001 A 
ATOM     20  C   UNL A   1      32.063  24.146  26.508  1.00  0.00    -0.027 A 
ATOM     21  C   UNL A   1      32.015  22.949  27.246  1.00  0.00     0.005 A 
ATOM     22  C   UNL A   1      30.780  24.746  26.013  1.00  0.00     0.046 C 
BRANCH  17  23
ATOM     23  C   UNL A   1      35.568  23.925  25.132  1.00  0.00     0.034 C 
ATOM     24  C   UNL A   1      36.977  23.703  25.667  1.00  0.00     0.009 C 
ENDBRANCH  17  23
ENDBRANCH  14  16
ENDBRANCH   9  14
ENDBRANCH   7   8
ENDBRANCH   4   7
ENDBRANCH   2   3
ENDBRANCH   1   2
BRANCH   1  25
ATOM     25  C   UNL A   1      34.209  32.941  28.376  1.00  0.00     0.023 C 
BRANCH  25  26
ATOM     26  C   UNL A   1      35.248  34.006  28.119  1.00  0.00     0.116 C 
BRANCH  26  27
ATOM     27  N   UNL A   1      36.513  33.358  27.999  1.00  0.00    -0.352 N 
ATOM     28  C   UNL A   1      36.823  32.258  28.764  1.00  0.00     0.251 C 
ATOM     29  H   UNL A   1      37.175  33.702  27.358  1.00  0.00     0.163 HD
ATOM     30  O   UNL A   1      37.754  32.408  29.543  1.00  0.00    -0.269 OA
BRANCH  28  31
ATOM     31  C   UNL A   1      36.229  30.902  28.402  1.00  0.00     0.039 A 
ATOM     32  C   UNL A   1      36.170  30.180  29.599  1.00  0.00     0.014 A 
ATOM     33  C   UNL A   1      36.901  30.294  27.347  1.00  0.00     0.014 A 
ATOM     34  C   UNL A   1      37.320  29.507  29.973  1.00  0.00     0.010 A 
ATOM     35  C   UNL A   1      38.099  29.714  27.681  1.00  0.00     0.010 A 
ATOM     36  C   UNL A   1      38.341  29.454  29.036  1.00  0.00    -0.014 A 
BRANCH  36  37
ATOM     37  C   UNL A   1      39.715  29.165  29.365  1.00  0.00     0.031 A 
ATOM     38  C   UNL A   1      40.123  27.787  29.113  1.00  0.00     0.074 A 
ATOM     39  C   UNL A   1      40.513  30.203  29.702  1.00  0.00     0.049 A 
ATOM     40  N   UNL A   1      41.201  27.255  29.542  1.00  0.00    -0.248 NA
ATOM     41  C   UNL A   1      39.273  26.850  28.370  1.00  0.00     0.031 C 
ATOM     42  C   UNL A   1      41.967  30.295  29.812  1.00  0.00     0.029 A 
ATOM     43  N   UNL A   1      40.067  31.411  30.250  1.00  0.00    -0.354 N 
ATOM     44  C   UNL A   1      41.359  26.080  28.845  1.00  0.00     0.074 A 
ATOM     45  C   UNL A   1      40.081  25.799  28.252  1.00  0.00     0.031 C 
ATOM     46  C   UNL A   1      42.269  31.307  30.655  1.00  0.00     0.029 A 
ATOM     47  C   UNL A   1      41.008  31.784  31.220  1.00  0.00     0.049 A 
ATOM     48  H   UNL A   1      39.252  31.904  30.003  1.00  0.00     0.167 HD
ATOM     49  C   UNL A   1      42.625  25.610  28.702  1.00  0.00     0.031 A 
ATOM     50  C   UNL A   1      40.657  31.664  32.537  1.00  0.00     0.031 A 
ATOM     51  C   UNL A   1      43.517  26.335  29.615  1.00  0.00     0.049 A 
ATOM     52  C   UNL A   1      41.458  30.539  33.196  1.00  0.00     0.074 A 
ATOM     53  C   UNL A   1      44.410  27.378  29.436  1.00  0.00     0.029 A 
ATOM     54  N   UNL A   1      43.202  26.322  30.975  1.00  0.00    -0.354 N 
ATOM     55  N   UNL A   1      41.917  29.477  32.574  1.00  0.00    -0.248 NA
ATOM     56  C   UNL A   1      41.906  30.599  34.584  1.00  0.00     0.031 C 
ATOM     57  C   UNL A   1      44.511  28.076  30.680  1.00  0.00     0.029 A 
ATOM     58  C   UNL A   1      43.703  27.444  31.613  1.00  0.00     0.049 A 
ATOM     59  H   UNL A   1      42.691  25.609  31.421  1.00  0.00     0.167 HD
ATOM     60  C   UNL A   1      42.742  28.764  33.412  1.00  0.00     0.074 A 
ATOM     61  C   UNL A   1      42.686  29.507  34.663  1.00  0.00     0.031 C 
ATOM     62  C   UNL A   1      43.444  27.645  33.039  1.00  0.00     0.031 A 
BRANCH  49  63
ATOM     63  C   UNL A   1      43.063  24.738  27.547  1.00  0.00    -0.014 A 
ATOM     64  C   UNL A   1      42.800  23.357  27.600  1.00  0.00     0.010 A 
ATOM     65  C   UNL A   1      43.814  25.179  26.436  1.00  0.00     0.010 A 
ATOM     66  C   UNL A   1      43.274  22.471  26.620  1.00  0.00     0.020 A 
ATOM     67  C   UNL A   1      44.296  24.308  25.449  1.00  0.00     0.020 A 
ATOM     68  C   UNL A   1      44.023  22.952  25.548  1.00  0.00     0.054 A 
BRANCH  68  69
ATOM     69  S   UNL A   1      44.618  21.799  24.286  1.00  0.00     0.124 S 
ATOM     70  O   UNL A   1      44.155  22.422  23.049  1.00  0.00    -0.237 OA
ATOM     71  O   UNL A   1      46.062  21.819  24.502  1.00  0.00    -0.237 OA
ATOM     72  O   UNL A   1      43.959  20.539  24.627  1.00  0.00    -0.744 OA
ENDBRANCH  68  69
ENDBRANCH  49  63
BRANCH  50  73
ATOM     73  C   UNL A   1      39.220  32.051  32.824  1.00  0.00    -0.014 A 
ATOM     74  C   UNL A   1      38.835  33.416  32.717  1.00  0.00     0.010 A 
ATOM     75  C   UNL A   1      38.185  31.108  32.892  1.00  0.00     0.010 A 
ATOM     76  C   UNL A   1      37.485  33.812  32.581  1.00  0.00     0.020 A 
ATOM     77  C   UNL A   1      36.829  31.501  32.765  1.00  0.00     0.020 A 
ATOM     78  C   UNL A   1      36.482  32.847  32.585  1.00  0.00     0.054 A 
BRANCH  78  79
ATOM     79  S   UNL A   1      34.727  33.317  32.283  1.00  0.00     0.124 S 
ATOM     80  O   UNL A   1      34.872  34.651  31.703  1.00  0.00    -0.237 OA
ATOM     81  O   UNL A   1      34.195  32.327  31.353  1.00  0.00    -0.237 OA
ATOM     82  O   UNL A   1      34.136  33.286  33.622  1.00  0.00    -0.744 OA
ENDBRANCH  78  79
ENDBRANCH  50  73
BRANCH  62  83
ATOM     83  C   UNL A   1      44.021  26.614  34.001  1.00  0.00    -0.014 A 
ATOM     84  C   UNL A   1      43.262  25.866  34.911  1.00  0.00     0.010 A 
ATOM     85  C   UNL A   1      45.391  26.255  33.885  1.00  0.00     0.010 A 
ATOM     86  C   UNL A   1      43.845  24.869  35.707  1.00  0.00     0.020 A 
ATOM     87  C   UNL A   1      45.965  25.213  34.615  1.00  0.00     0.020 A 
ATOM     88  C   UNL A   1      45.191  24.546  35.551  1.00  0.00     0.054 A 
BRANCH  88  89
ATOM     89  S   UNL A   1      45.908  23.224  36.551  1.00  0.00     0.124 S 
ATOM     90  O   UNL A   1      45.334  22.035  35.926  1.00  0.00    -0.237 OA
ATOM     91  O   UNL A   1      47.342  23.409  36.347  1.00  0.00    -0.237 OA
ATOM     92  O   UNL A   1      45.433  23.514  37.901  1.00  0.00    -0.744 OA
ENDBRANCH  88  89
ENDBRANCH  62  83
ENDBRANCH  36  37
ENDBRANCH  28  31
ENDBRANCH  26  27
ENDBRANCH  25  26
ENDBRANCH   1  25
TORSDOF 18
ENDMDL
MODEL 2
REMARK VINA RESULT:     -11.0      3.429      5.719
REMARK SMILES CCc1cccc(C)c1Nc1ccccc1CC(=O)NCCCCNC(=O)c1ccc(-c2c3nc(c(-c4ccc(S(=O)(=O)[O-])cc4)c4ccc([nH]4)c(-c4ccc(S(=O)(=O)[O-])cc4)c4nc(c(-c5ccc(S(=O)(=O)[O-])cc5)c5ccc2[nH]5)C=C4)C=C3)cc1
REMARK SMILES IDX 22 1 21 2 20 3 18 4 19 5 17 7 16 8 11 9 12 10 13 11 15 12
REMARK SMILES IDX 14 13 10 14 9 16 3 17 4 18 5 19 7 20 6 21 8 22 2 23 1 24
REMARK SMILES IDX 23 25 24 26 25 27 26 28 27 30 28 31 29 32 87 33 30 34 86 35
REMARK SMILES IDX 31 36 32 37 33 38 80 39 34 40 85 41 79 42 81 43 35 44 84 45
REMARK SMILES IDX 78 46 77 47 36 49 66 50 47 51 65 52 48 53 51 54 64 55 82 56
REMARK SMILES IDX 49 57 50 58 63 60 83 61 52 62 37 63 38 64 46 65 39 66 45 67
REMARK SMILES IDX 40 68 41 69 42 70 43 71 44 72 67 73 68 74 76 75 69 76 75 77
REMARK SMILES IDX 70 78 71 79 72 80 73 81 74 82 53 83 54 84 62 85 55 86 61 87
REMARK SMILES IDX 56 88 57 89 58 90 59 91 60 92
REMARK H PARENT 20 6 10 15 25 29 81 48 51 59
REMARK Flexibility Score: inf
ROOT
ATOM      1  C   UNL A   1      38.501  24.373  26.739  1.00  0.00     0.023 C 
ENDROOT
BRANCH   1   2
ATOM      2  C   UNL A   1      38.257  23.009  26.089  1.00  0.00     0.116 C 
BRANCH   2   3
ATOM      3  N   UNL A   1      37.769  23.061  24.723  1.00  0.00    -0.356 N 
ATOM      4  C   UNL A   1      36.507  23.066  24.219  1.00  0.00     0.224 C 
ATOM      5  O   UNL A   1      36.365  23.402  23.039  1.00  0.00    -0.275 OA
ATOM      6  H   UNL A   1      38.479  23.099  24.041  1.00  0.00     0.163 HD
BRANCH   4   7
ATOM      7  C   UNL A   1      35.302  22.801  25.088  1.00  0.00     0.137 C 
BRANCH   7   8
ATOM      8  C   UNL A   1      34.280  21.826  24.552  1.00  0.00    -0.015 A 
ATOM      9  C   UNL A   1      33.208  22.194  23.710  1.00  0.00     0.042 A 
ATOM     10  C   UNL A   1      32.305  21.196  23.301  1.00  0.00     0.026 A 
ATOM     11  C   UNL A   1      32.484  19.858  23.654  1.00  0.00     0.002 A 
ATOM     12  C   UNL A   1      34.413  20.474  24.943  1.00  0.00     0.006 A 
ATOM     13  C   UNL A   1      33.541  19.496  24.477  1.00  0.00     0.000 A 
BRANCH   9  14
ATOM     14  N   UNL A   1      32.957  23.524  23.293  1.00  0.00    -0.355 N 
ATOM     15  H   UNL A   1      32.847  23.647  22.322  1.00  0.00     0.167 HD
BRANCH  14  16
ATOM     16  C   UNL A   1      32.841  24.707  24.071  1.00  0.00     0.045 A 
ATOM     17  C   UNL A   1      32.074  24.725  25.253  1.00  0.00    -0.024 A 
ATOM     18  C   UNL A   1      32.350  25.709  26.229  1.00  0.00     0.006 A 
ATOM     19  C   UNL A   1      33.243  26.739  25.975  1.00  0.00     0.001 A 
ATOM     20  C   UNL A   1      33.436  25.924  23.701  1.00  0.00    -0.027 A 
ATOM     21  C   UNL A   1      33.721  26.889  24.685  1.00  0.00     0.005 A 
ATOM     22  C   UNL A   1      33.674  26.263  22.259  1.00  0.00     0.046 C 
BRANCH  17  23
ATOM     23  C   UNL A   1      30.850  23.874  25.530  1.00  0.00     0.034 C 
ATOM     24  C   UNL A   1      30.947  22.719  26.517  1.00  0.00     0.009 C 
ENDBRANCH  17  23
ENDBRANCH  14  16
ENDBRANCH   9  14
ENDBRANCH   7   8
ENDBRANCH   4   7
ENDBRANCH   2   3
ENDBRANCH   1   2
BRANCH   1  25
ATOM     25  C   UNL A   1      39.965  24.806  26.871  1.00  0.00     0.023 C 
BRANCH  25  26
ATOM     26  C   UNL A   1      40.547  25.545  25.691  1.00  0.00     0.116 C 
BRANCH  26  27
ATOM     27  N   UNL A   1      41.726  26.213  26.138  1.00  0.00    -0.352 N 
ATOM     28  C   UNL A   1      42.029  27.484  25.709  1.00  0.00     0.251 C 
ATOM     29  H   UNL A   1      42.333  25.757  26.764  1.00  0.00     0.163 HD
ATOM     30  O   UNL A   1      43.057  27.585  25.054  1.00  0.00    -0.269 OA
BRANCH  28  31
ATOM     31  C   UNL A   1      41.279  28.672  26.298  1.00  0.00     0.039 A 
ATOM     32  C   UNL A   1      42.204  29.720  26.347  1.00  0.00     0.014 A 
ATOM     33  C   UNL A   1      40.640  28.357  27.493  1.00  0.00     0.014 A 
ATOM     34  C   UNL A   1      43.026  29.769  27.459  1.00  0.00     0.010 A 
ATOM     35  C   UNL A   1      41.462  28.293  28.589  1.00  0.00     0.010 A 
ATOM     36  C   UNL A   1      42.721  28.900  28.494  1.00  0.00    -0.014 A 
BRANCH  36  37
ATOM     37  C   UNL A   1      43.658  28.522  29.525  1.00  0.00     0.031 A 
ATOM     38  C   UNL A   1      44.589  27.466  29.142  1.00  0.00     0.074 A 
ATOM     39  C   UNL A   1      43.694  29.273  30.648  1.00  0.00     0.049 A 
ATOM     40  N   UNL A   1      45.332  26.819  29.953  1.00  0.00    -0.248 NA
ATOM     41  C   UNL A   1      44.709  27.004  27.754  1.00  0.00     0.031 C 
ATOM     42  C   UNL A   1      44.680  29.336  31.725  1.00  0.00     0.029 A 
ATOM     43  N   UNL A   1      42.625  30.033  31.139  1.00  0.00    -0.354 N 
ATOM     44  C   UNL A   1      46.260  26.155  29.184  1.00  0.00     0.074 A 
ATOM     45  C   UNL A   1      45.746  26.175  27.843  1.00  0.00     0.031 C 
ATOM     46  C   UNL A   1      44.069  29.798  32.838  1.00  0.00     0.029 A 
ATOM     47  C   UNL A   1      42.642  29.895  32.534  1.00  0.00     0.049 A 
ATOM     48  H   UNL A   1      41.987  30.561  30.609  1.00  0.00     0.167 HD
ATOM     49  C   UNL A   1      47.448  25.853  29.769  1.00  0.00     0.031 A 
ATOM     50  C   UNL A   1      41.674  29.124  33.116  1.00  0.00     0.031 A 
ATOM     51  C   UNL A   1      47.336  26.048  31.220  1.00  0.00     0.049 A 
ATOM     52  C   UNL A   1      42.290  27.841  33.681  1.00  0.00     0.074 A 
ATOM     53  C   UNL A   1      47.735  27.064  32.072  1.00  0.00     0.029 A 
ATOM     54  N   UNL A   1      46.333  25.349  31.893  1.00  0.00    -0.354 N 
ATOM     55  N   UNL A   1      43.358  27.246  33.203  1.00  0.00    -0.248 NA
ATOM     56  C   UNL A   1      41.811  27.211  34.908  1.00  0.00     0.031 C 
ATOM     57  C   UNL A   1      46.857  27.049  33.200  1.00  0.00     0.029 A 
ATOM     58  C   UNL A   1      45.948  26.013  33.044  1.00  0.00     0.049 A 
ATOM     59  H   UNL A   1      45.949  24.495  31.588  1.00  0.00     0.167 HD
ATOM     60  C   UNL A   1      43.745  26.231  34.047  1.00  0.00     0.074 A 
ATOM     61  C   UNL A   1      42.730  26.247  35.091  1.00  0.00     0.031 C 
ATOM     62  C   UNL A   1      44.872  25.468  33.874  1.00  0.00     0.031 A 
BRANCH  49  63
ATOM     63  C   UNL A   1      48.737  25.688  28.998  1.00  0.00    -0.014 A 
ATOM     64  C   UNL A   1      49.908  26.289  29.494  1.00  0.00     0.010 A 
ATOM     65  C   UNL A   1      48.857  25.048  27.745  1.00  0.00     0.010 A 
ATOM     66  C   UNL A   1      51.115  26.273  28.776  1.00  0.00     0.020 A 
ATOM     67  C   UNL A   1      50.054  25.023  27.015  1.00  0.00     0.020 A 
ATOM     68  C   UNL A   1      51.181  25.639  27.536  1.00  0.00     0.054 A 
BRANCH  68  69
ATOM     69  S   UNL A   1      52.746  25.617  26.628  1.00  0.00     0.124 S 
ATOM     70  O   UNL A   1      52.636  24.389  25.845  1.00  0.00    -0.237 OA
ATOM     71  O   UNL A   1      52.681  26.861  25.866  1.00  0.00    -0.237 OA
ATOM     72  O   UNL A   1      53.760  25.589  27.682  1.00  0.00    -0.744 OA
ENDBRANCH  68  69
ENDBRANCH  49  63
BRANCH  50  73
ATOM     73  C   UNL A   1      40.307  29.277  32.481  1.00  0.00    -0.014 A 
ATOM     74  C   UNL A   1      39.681  30.554  32.481  1.00  0.00     0.010 A 
ATOM     75  C   UNL A   1      39.758  28.306  31.631  1.00  0.00     0.010 A 
ATOM     76  C   UNL A   1      38.624  30.879  31.600  1.00  0.00     0.020 A 
ATOM     77  C   UNL A   1      38.693  28.624  30.751  1.00  0.00     0.020 A 
ATOM     78  C   UNL A   1      38.144  29.915  30.718  1.00  0.00     0.054 A 
BRANCH  78  79
ATOM     79  S   UNL A   1      36.857  30.341  29.472  1.00  0.00     0.124 S 
ATOM     80  O   UNL A   1      36.236  31.518  30.076  1.00  0.00    -0.237 OA
ATOM     81  O   UNL A   1      37.571  30.624  28.232  1.00  0.00    -0.237 OA
ATOM     82  O   UNL A   1      36.012  29.146  29.439  1.00  0.00    -0.744 OA
ENDBRANCH  78  79
ENDBRANCH  50  73
BRANCH  62  83
ATOM     83  C   UNL A   1      45.116  24.110  34.519  1.00  0.00    -0.014 A 
ATOM     84  C   UNL A   1      44.681  22.888  33.987  1.00  0.00     0.010 A 
ATOM     85  C   UNL A   1      45.969  24.030  35.654  1.00  0.00     0.010 A 
ATOM     86  C   UNL A   1      45.016  21.666  34.587  1.00  0.00     0.020 A 
ATOM     87  C   UNL A   1      46.372  22.816  36.213  1.00  0.00     0.020 A 
ATOM     88  C   UNL A   1      45.863  21.637  35.694  1.00  0.00     0.054 A 
BRANCH  88  89
ATOM     89  S   UNL A   1      46.322  20.048  36.419  1.00  0.00     0.124 S 
ATOM     90  O   UNL A   1      47.771  20.045  36.236  1.00  0.00    -0.237 OA
ATOM     91  O   UNL A   1      45.864  20.181  37.799  1.00  0.00    -0.237 OA
ATOM     92  O   UNL A   1      45.586  19.075  35.615  1.00  0.00    -0.744 OA
ENDBRANCH  88  89
ENDBRANCH  62  83
ENDBRANCH  36  37
ENDBRANCH  28  31
ENDBRANCH  26  27
ENDBRANCH  25  26
ENDBRANCH   1  25
TORSDOF 18
ENDMDL
MODEL 3
REMARK VINA RESULT:     -10.9      3.933      9.689
REMARK SMILES CCc1cccc(C)c1Nc1ccccc1CC(=O)NCCCCNC(=O)c1ccc(-c2c3nc(c(-c4ccc(S(=O)(=O)[O-])cc4)c4ccc([nH]4)c(-c4ccc(S(=O)(=O)[O-])cc4)c4nc(c(-c5ccc(S(=O)(=O)[O-])cc5)c5ccc2[nH]5)C=C4)C=C3)cc1
REMARK SMILES IDX 22 1 21 2 20 3 18 4 19 5 17 7 16 8 11 9 12 10 13 11 15 12
REMARK SMILES IDX 14 13 10 14 9 16 3 17 4 18 5 19 7 20 6 21 8 22 2 23 1 24
REMARK SMILES IDX 23 25 24 26 25 27 26 28 27 30 28 31 29 32 87 33 30 34 86 35
REMARK SMILES IDX 31 36 32 37 33 38 80 39 34 40 85 41 79 42 81 43 35 44 84 45
REMARK SMILES IDX 78 46 77 47 36 49 66 50 47 51 65 52 48 53 51 54 64 55 82 56
REMARK SMILES IDX 49 57 50 58 63 60 83 61 52 62 37 63 38 64 46 65 39 66 45 67
REMARK SMILES IDX 40 68 41 69 42 70 43 71 44 72 67 73 68 74 76 75 69 76 75 77
REMARK SMILES IDX 70 78 71 79 72 80 73 81 74 82 53 83 54 84 62 85 55 86 61 87
REMARK SMILES IDX 56 88 57 89 58 90 59 91 60 92
REMARK H PARENT 20 6 10 15 25 29 81 48 51 59
REMARK Flexibility Score: inf
ROOT
ATOM      1  C   UNL A   1      39.248  22.976  26.283  1.00  0.00     0.023 C 
ENDROOT
BRANCH   1   2
ATOM      2  C   UNL A   1      37.950  22.300  25.834  1.00  0.00     0.116 C 
BRANCH   2   3
ATOM      3  N   UNL A   1      37.676  22.387  24.411  1.00  0.00    -0.356 N 
ATOM      4  C   UNL A   1      36.584  22.827  23.732  1.00  0.00     0.224 C 
ATOM      5  O   UNL A   1      36.718  23.060  22.526  1.00  0.00    -0.275 OA
ATOM      6  H   UNL A   1      38.410  22.070  23.838  1.00  0.00     0.163 HD
BRANCH   4   7
ATOM      7  C   UNL A   1      35.287  23.151  24.432  1.00  0.00     0.137 C 
BRANCH   7   8
ATOM      8  C   UNL A   1      34.229  22.073  24.434  1.00  0.00    -0.015 A 
ATOM      9  C   UNL A   1      32.894  22.280  24.025  1.00  0.00     0.042 A 
ATOM     10  C   UNL A   1      31.994  21.202  24.101  1.00  0.00     0.026 A 
ATOM     11  C   UNL A   1      32.408  19.933  24.507  1.00  0.00     0.002 A 
ATOM     12  C   UNL A   1      34.614  20.793  24.894  1.00  0.00     0.006 A 
ATOM     13  C   UNL A   1      33.721  19.727  24.904  1.00  0.00     0.000 A 
BRANCH   9  14
ATOM     14  N   UNL A   1      32.392  23.531  23.588  1.00  0.00    -0.355 N 
ATOM     15  H   UNL A   1      31.922  23.517  22.722  1.00  0.00     0.167 HD
BRANCH  14  16
ATOM     16  C   UNL A   1      32.467  24.802  24.216  1.00  0.00     0.045 A 
ATOM     17  C   UNL A   1      31.775  25.060  25.417  1.00  0.00    -0.024 A 
ATOM     18  C   UNL A   1      32.225  26.109  26.250  1.00  0.00     0.006 A 
ATOM     19  C   UNL A   1      33.222  26.977  25.834  1.00  0.00     0.001 A 
ATOM     20  C   UNL A   1      33.185  25.879  23.674  1.00  0.00    -0.027 A 
ATOM     21  C   UNL A   1      33.643  26.909  24.517  1.00  0.00     0.005 A 
ATOM     22  C   UNL A   1      33.383  26.012  22.193  1.00  0.00     0.046 C 
BRANCH  17  23
ATOM     23  C   UNL A   1      30.472  24.414  25.847  1.00  0.00     0.034 C 
ATOM     24  C   UNL A   1      30.502  23.232  26.806  1.00  0.00     0.009 C 
ENDBRANCH  17  23
ENDBRANCH  14  16
ENDBRANCH   9  14
ENDBRANCH   7   8
ENDBRANCH   4   7
ENDBRANCH   2   3
ENDBRANCH   1   2
BRANCH   1  25
ATOM     25  C   UNL A   1      39.186  24.494  26.481  1.00  0.00     0.023 C 
BRANCH  25  26
ATOM     26  C   UNL A   1      40.509  25.192  26.679  1.00  0.00     0.116 C 
BRANCH  26  27
ATOM     27  N   UNL A   1      40.404  25.993  27.854  1.00  0.00    -0.352 N 
ATOM     28  C   UNL A   1      41.249  27.056  28.068  1.00  0.00     0.251 C 
ATOM     29  H   UNL A   1      39.714  25.783  28.524  1.00  0.00     0.163 HD
ATOM     30  O   UNL A   1      41.982  26.955  29.042  1.00  0.00    -0.269 OA
BRANCH  28  31
ATOM     31  C   UNL A   1      41.024  28.357  27.307  1.00  0.00     0.039 A 
ATOM     32  C   UNL A   1      42.048  29.219  27.715  1.00  0.00     0.014 A 
ATOM     33  C   UNL A   1      39.725  28.834  27.445  1.00  0.00     0.014 A 
ATOM     34  C   UNL A   1      41.828  29.935  28.878  1.00  0.00     0.010 A 
ATOM     35  C   UNL A   1      39.459  29.452  28.641  1.00  0.00     0.010 A 
ATOM     36  C   UNL A   1      40.549  29.876  29.411  1.00  0.00    -0.014 A 
BRANCH  36  37
ATOM     37  C   UNL A   1      40.236  30.204  30.780  1.00  0.00     0.031 A 
ATOM     38  C   UNL A   1      39.579  31.495  30.959  1.00  0.00     0.074 A 
ATOM     39  C   UNL A   1      40.420  29.246  31.716  1.00  0.00     0.049 A 
ATOM     40  N   UNL A   1      39.427  32.087  32.079  1.00  0.00    -0.248 NA
ATOM     41  C   UNL A   1      39.072  32.272  29.822  1.00  0.00     0.031 C 
ATOM     42  C   UNL A   1      39.954  29.157  33.097  1.00  0.00     0.029 A 
ATOM     43  N   UNL A   1      41.326  28.184  31.607  1.00  0.00    -0.354 N 
ATOM     44  C   UNL A   1      38.511  33.091  31.868  1.00  0.00     0.074 A 
ATOM     45  C   UNL A   1      38.437  33.263  30.444  1.00  0.00     0.031 C 
ATOM     46  C   UNL A   1      40.785  28.336  33.777  1.00  0.00     0.029 A 
ATOM     47  C   UNL A   1      41.889  28.005  32.878  1.00  0.00     0.049 A 
ATOM     48  H   UNL A   1      41.528  27.664  30.797  1.00  0.00     0.167 HD
ATOM     49  C   UNL A   1      37.783  33.502  32.939  1.00  0.00     0.031 A 
ATOM     50  C   UNL A   1      43.185  28.399  33.068  1.00  0.00     0.031 A 
ATOM     51  C   UNL A   1      38.384  32.966  34.167  1.00  0.00     0.049 A 
ATOM     52  C   UNL A   1      43.235  29.624  33.986  1.00  0.00     0.074 A 
ATOM     53  C   UNL A   1      38.069  31.896  34.985  1.00  0.00     0.029 A 
ATOM     54  N   UNL A   1      39.725  33.264  34.414  1.00  0.00    -0.354 N 
ATOM     55  N   UNL A   1      42.287  30.527  34.087  1.00  0.00    -0.248 NA
ATOM     56  C   UNL A   1      44.310  29.844  34.948  1.00  0.00     0.031 C 
ATOM     57  C   UNL A   1      39.279  31.467  35.617  1.00  0.00     0.029 A 
ATOM     58  C   UNL A   1      40.314  32.291  35.203  1.00  0.00     0.049 A 
ATOM     59  H   UNL A   1      40.191  34.062  34.073  1.00  0.00     0.167 HD
ATOM     60  C   UNL A   1      42.568  31.385  35.125  1.00  0.00     0.074 A 
ATOM     61  C   UNL A   1      43.855  30.917  35.619  1.00  0.00     0.031 C 
ATOM     62  C   UNL A   1      41.735  32.392  35.543  1.00  0.00     0.031 A 
BRANCH  49  63
ATOM     63  C   UNL A   1      36.404  34.109  32.824  1.00  0.00    -0.014 A 
ATOM     64  C   UNL A   1      35.651  33.870  31.659  1.00  0.00     0.010 A 
ATOM     65  C   UNL A   1      35.826  34.994  33.760  1.00  0.00     0.010 A 
ATOM     66  C   UNL A   1      34.411  34.491  31.435  1.00  0.00     0.020 A 
ATOM     67  C   UNL A   1      34.590  35.623  33.550  1.00  0.00     0.020 A 
ATOM     68  C   UNL A   1      33.888  35.368  32.383  1.00  0.00     0.054 A 
BRANCH  68  69
ATOM     69  S   UNL A   1      32.285  36.151  32.083  1.00  0.00     0.124 S 
ATOM     70  O   UNL A   1      31.346  35.079  32.406  1.00  0.00    -0.237 OA
ATOM     71  O   UNL A   1      32.307  37.274  33.017  1.00  0.00    -0.237 OA
ATOM     72  O   UNL A   1      32.336  36.522  30.669  1.00  0.00    -0.744 OA
ENDBRANCH  68  69
ENDBRANCH  49  63
BRANCH  50  73
ATOM     73  C   UNL A   1      44.094  28.102  31.893  1.00  0.00    -0.014 A 
ATOM     74  C   UNL A   1      44.355  26.748  31.543  1.00  0.00     0.010 A 
ATOM     75  C   UNL A   1      44.446  29.076  30.948  1.00  0.00     0.010 A 
ATOM     76  C   UNL A   1      44.849  26.378  30.271  1.00  0.00     0.020 A 
ATOM     77  C   UNL A   1      44.950  28.711  29.674  1.00  0.00     0.020 A 
ATOM     78  C   UNL A   1      45.127  27.363  29.328  1.00  0.00     0.054 A 
BRANCH  78  79
ATOM     79  S   UNL A   1      45.650  26.908  27.622  1.00  0.00     0.124 S 
ATOM     80  O   UNL A   1      47.010  27.441  27.575  1.00  0.00    -0.237 OA
ATOM     81  O   UNL A   1      45.587  25.452  27.553  1.00  0.00    -0.237 OA
ATOM     82  O   UNL A   1      44.682  27.608  26.776  1.00  0.00    -0.744 OA
ENDBRANCH  78  79
ENDBRANCH  50  73
BRANCH  62  83
ATOM     83  C   UNL A   1      42.163  33.590  36.381  1.00  0.00    -0.014 A 
ATOM     84  C   UNL A   1      41.465  34.066  37.499  1.00  0.00     0.010 A 
ATOM     85  C   UNL A   1      43.426  34.190  36.130  1.00  0.00     0.010 A 
ATOM     86  C   UNL A   1      41.961  35.120  38.279  1.00  0.00     0.020 A 
ATOM     87  C   UNL A   1      43.966  35.186  36.944  1.00  0.00     0.020 A 
ATOM     88  C   UNL A   1      43.211  35.671  37.999  1.00  0.00     0.054 A 
BRANCH  88  89
ATOM     89  S   UNL A   1      43.852  36.994  39.049  1.00  0.00     0.124 S 
ATOM     90  O   UNL A   1      43.027  38.126  38.635  1.00  0.00    -0.237 OA
ATOM     91  O   UNL A   1      43.595  36.489  40.395  1.00  0.00    -0.237 OA
ATOM     92  O   UNL A   1      45.263  37.077  38.680  1.00  0.00    -0.744 OA
ENDBRANCH  88  89
ENDBRANCH  62  83
ENDBRANCH  36  37
ENDBRANCH  28  31
ENDBRANCH  26  27
ENDBRANCH  25  26
ENDBRANCH   1  25
TORSDOF 18
ENDMDL
