MODEL 1
REMARK VINA RESULT:     -15.6      0.000      0.000
REMARK SMILES Cc1ccc([C@@]23C[C@@H]4C[C@@H](C[C@@](C(=O)N5CCC(C(=O)NCCCCNC(=O)c6ccc(-c7c8nc(c(-c9ccc(S(=O)(=O)[O-])cc9)c9ccc([nH]9)c(-c9ccc(S(=O)(=O)[O-])cc9)c9nc(c(-c%10ccc(S(=O)(=O)[O-])cc%10)c%10ccc7[nH]%10)C=C9)C=C8)cc6)CC5)(C4)C2)C3)cc1
REMARK SMILES IDX 24 1 23 2 22 3 21 4 19 5 20 6 18 8 13 9 14 10 15 11 16 12
REMARK SMILES IDX 90 13 17 14 89 15 12 16 6 17 7 18 92 19 93 20 8 21 10 22
REMARK SMILES IDX 9 23 91 24 11 25 5 26 1 27 2 28 3 29 95 30 4 31 94 32 25 33
REMARK SMILES IDX 26 34 27 35 28 37 29 38 30 39 88 40 31 41 87 42 32 43 33 44
REMARK SMILES IDX 34 45 81 46 35 47 86 48 80 49 82 50 36 51 85 52 79 53 78 54
REMARK SMILES IDX 37 56 67 57 48 58 66 59 49 60 52 61 65 62 83 63 50 64 51 65
REMARK SMILES IDX 64 67 84 68 53 69 38 70 39 71 47 72 40 73 46 74 41 75 42 76
REMARK SMILES IDX 43 77 44 78 45 79 68 80 69 81 77 82 70 83 76 84 71 85 72 86
REMARK SMILES IDX 73 87 74 88 75 89 54 90 55 91 63 92 56 93 62 94 57 95 58 96
REMARK SMILES IDX 59 97 60 98 61 99
REMARK H PARENT 21 7 26 36 82 55 52 66
REMARK Flexibility Score: inf
ROOT
ATOM      1  C   UNL A   1      33.093  29.791  26.472  1.00  0.00     0.023 C 
ENDROOT
BRANCH   1   2
ATOM      2  C   UNL A   1      32.634  28.715  25.488  1.00  0.00     0.023 C 
BRANCH   2   3
ATOM      3  C   UNL A   1      33.082  28.917  24.033  1.00  0.00     0.116 C 
BRANCH   3   4
ATOM      4  N   UNL A   1      32.019  29.440  23.175  1.00  0.00    -0.356 N 
ATOM      5  C   UNL A   1      30.973  28.836  22.548  1.00  0.00     0.223 C 
ATOM      6  O   UNL A   1      30.220  29.535  21.866  1.00  0.00    -0.275 OA
ATOM      7  H   UNL A   1      32.070  30.411  23.024  1.00  0.00     0.163 HD
BRANCH   5   8
ATOM      8  C   UNL A   1      30.730  27.339  22.650  1.00  0.00     0.082 C 
ATOM      9  C   UNL A   1      32.263  24.758  25.273  1.00  0.00     0.228 C 
ATOM     10  O   UNL A   1      31.837  25.039  26.398  1.00  0.00    -0.274 OA
ATOM     11  N   UNL A   1      31.493  25.030  24.141  1.00  0.00    -0.342 N 
ATOM     12  C   UNL A   1      30.125  25.501  24.321  1.00  0.00     0.120 C 
ATOM     13  C   UNL A   1      31.925  25.109  22.748  1.00  0.00     0.120 C 
ATOM     14  C   UNL A   1      30.010  26.974  23.961  1.00  0.00     0.035 C 
ATOM     15  C   UNL A   1      32.018  26.566  22.337  1.00  0.00     0.035 C 
BRANCH   9  16
ATOM     16  C   UNL A   1      33.608  24.006  25.137  1.00  0.00     0.051 C 
ATOM     17  C   UNL A   1      34.546  21.615  24.915  1.00  0.00    -0.003 C 
ATOM     18  C   UNL A   1      35.309  22.136  23.660  1.00  0.00     0.015 C 
ATOM     19  C   UNL A   1      33.293  22.500  25.082  1.00  0.00     0.028 C 
ATOM     20  C   UNL A   1      35.427  21.849  26.169  1.00  0.00     0.015 C 
ATOM     21  C   UNL A   1      35.721  23.615  23.817  1.00  0.00    -0.009 C 
ATOM     22  C   UNL A   1      35.781  23.344  26.311  1.00  0.00    -0.009 C 
ATOM     23  C   UNL A   1      36.583  23.780  25.076  1.00  0.00     0.007 C 
ATOM     24  C   UNL A   1      34.467  24.490  23.952  1.00  0.00     0.020 C 
ATOM     25  C   UNL A   1      34.492  24.194  26.410  1.00  0.00     0.020 C 
BRANCH  17  26
ATOM     26  C   UNL A   1      34.162  20.131  24.759  1.00  0.00    -0.042 A 
ATOM     27  C   UNL A   1      33.087  15.928  24.543  1.00  0.00     0.044 C 
ATOM     28  C   UNL A   1      33.439  17.383  24.593  1.00  0.00    -0.051 A 
ATOM     29  C   UNL A   1      34.776  17.766  24.544  1.00  0.00     0.004 A 
ATOM     30  C   UNL A   1      32.461  18.375  24.700  1.00  0.00     0.004 A 
ATOM     31  C   UNL A   1      35.128  19.115  24.617  1.00  0.00     0.004 A 
ATOM     32  C   UNL A   1      32.817  19.729  24.777  1.00  0.00     0.004 A 
ENDBRANCH  17  26
ENDBRANCH   9  16
ENDBRANCH   5   8
ENDBRANCH   3   4
ENDBRANCH   2   3
ENDBRANCH   1   2
BRANCH   1  33
ATOM     33  C   UNL A   1      34.516  29.593  26.973  1.00  0.00     0.116 C 
BRANCH  33  34
ATOM     34  N   UNL A   1      35.190  30.825  27.345  1.00  0.00    -0.352 N 
ATOM     35  C   UNL A   1      36.330  30.933  28.126  1.00  0.00     0.251 C 
ATOM     36  H   UNL A   1      34.799  31.664  27.011  1.00  0.00     0.163 HD
ATOM     37  O   UNL A   1      36.653  31.960  28.699  1.00  0.00    -0.269 OA
BRANCH  35  38
ATOM     38  C   UNL A   1      37.242  29.770  28.100  1.00  0.00     0.039 A 
ATOM     39  C   UNL A   1      37.320  29.003  29.268  1.00  0.00     0.014 A 
ATOM     40  C   UNL A   1      38.193  29.648  27.089  1.00  0.00     0.014 A 
ATOM     41  C   UNL A   1      38.452  28.230  29.503  1.00  0.00     0.010 A 
ATOM     42  C   UNL A   1      39.356  28.957  27.366  1.00  0.00     0.010 A 
ATOM     43  C   UNL A   1      39.504  28.290  28.591  1.00  0.00    -0.014 A 
BRANCH  43  44
ATOM     44  C   UNL A   1      40.822  27.719  28.844  1.00  0.00     0.031 A 
ATOM     45  C   UNL A   1      41.069  26.297  28.517  1.00  0.00     0.074 A 
ATOM     46  C   UNL A   1      41.826  28.496  29.308  1.00  0.00     0.049 A 
ATOM     47  N   UNL A   1      42.028  25.585  29.008  1.00  0.00    -0.248 NA
ATOM     48  C   UNL A   1      40.177  25.534  27.650  1.00  0.00     0.031 C 
ATOM     49  C   UNL A   1      43.248  28.162  29.338  1.00  0.00     0.029 A 
ATOM     50  N   UNL A   1      41.739  29.663  30.069  1.00  0.00    -0.354 N 
ATOM     51  C   UNL A   1      42.075  24.411  28.289  1.00  0.00     0.074 A 
ATOM     52  C   UNL A   1      40.829  24.373  27.564  1.00  0.00     0.031 C 
ATOM     53  C   UNL A   1      43.836  28.886  30.304  1.00  0.00     0.029 A 
ATOM     54  C   UNL A   1      42.777  29.587  31.012  1.00  0.00     0.049 A 
ATOM     55  H   UNL A   1      41.084  30.391  29.966  1.00  0.00     0.167 HD
ATOM     56  C   UNL A   1      43.233  23.690  28.262  1.00  0.00     0.031 A 
ATOM     57  C   UNL A   1      42.577  29.543  32.362  1.00  0.00     0.031 A 
ATOM     58  C   UNL A   1      44.189  24.183  29.255  1.00  0.00     0.049 A 
ATOM     59  C   UNL A   1      43.174  28.308  33.008  1.00  0.00     0.074 A 
ATOM     60  C   UNL A   1      45.344  24.943  29.170  1.00  0.00     0.029 A 
ATOM     61  N   UNL A   1      43.846  24.142  30.604  1.00  0.00    -0.354 N 
ATOM     62  N   UNL A   1      43.544  27.244  32.348  1.00  0.00    -0.248 NA
ATOM     63  C   UNL A   1      43.368  28.157  34.448  1.00  0.00     0.031 C 
ATOM     64  C   UNL A   1      45.633  25.446  30.470  1.00  0.00     0.029 A 
ATOM     65  C   UNL A   1      44.681  24.955  31.346  1.00  0.00     0.049 A 
ATOM     66  H   UNL A   1      43.109  23.606  30.977  1.00  0.00     0.167 HD
ATOM     67  C   UNL A   1      44.026  26.299  33.218  1.00  0.00     0.074 A 
ATOM     68  C   UNL A   1      43.900  26.923  34.523  1.00  0.00     0.031 C 
ATOM     69  C   UNL A   1      44.487  25.085  32.787  1.00  0.00     0.031 A 
BRANCH  56  70
ATOM     70  C   UNL A   1      43.604  22.724  27.146  1.00  0.00    -0.014 A 
ATOM     71  C   UNL A   1      42.771  21.618  26.871  1.00  0.00     0.010 A 
ATOM     72  C   UNL A   1      44.800  22.780  26.403  1.00  0.00     0.010 A 
ATOM     73  C   UNL A   1      43.149  20.598  25.976  1.00  0.00     0.020 A 
ATOM     74  C   UNL A   1      45.195  21.770  25.514  1.00  0.00     0.020 A 
ATOM     75  C   UNL A   1      44.374  20.671  25.318  1.00  0.00     0.054 A 
BRANCH  75  76
ATOM     76  S   UNL A   1      44.896  19.324  24.225  1.00  0.00     0.124 S 
ATOM     77  O   UNL A   1      44.440  19.788  22.916  1.00  0.00    -0.237 OA
ATOM     78  O   UNL A   1      46.343  19.303  24.419  1.00  0.00    -0.237 OA
ATOM     79  O   UNL A   1      44.185  18.157  24.745  1.00  0.00    -0.744 OA
ENDBRANCH  75  76
ENDBRANCH  56  70
BRANCH  57  80
ATOM     80  C   UNL A   1      41.350  30.254  32.825  1.00  0.00    -0.014 A 
ATOM     81  C   UNL A   1      40.200  29.472  33.066  1.00  0.00     0.010 A 
ATOM     82  C   UNL A   1      41.444  31.523  33.422  1.00  0.00     0.010 A 
ATOM     83  C   UNL A   1      39.256  29.865  34.018  1.00  0.00     0.020 A 
ATOM     84  C   UNL A   1      40.492  31.923  34.374  1.00  0.00     0.020 A 
ATOM     85  C   UNL A   1      39.447  31.058  34.715  1.00  0.00     0.054 A 
BRANCH  85  86
ATOM     86  S   UNL A   1      38.430  31.358  36.194  1.00  0.00     0.124 S 
ATOM     87  O   UNL A   1      39.337  32.110  37.055  1.00  0.00    -0.237 OA
ATOM     88  O   UNL A   1      37.306  32.120  35.648  1.00  0.00    -0.237 OA
ATOM     89  O   UNL A   1      38.100  30.012  36.651  1.00  0.00    -0.744 OA
ENDBRANCH  85  86
ENDBRANCH  57  80
BRANCH  69  90
ATOM     90  C   UNL A   1      44.874  23.907  33.658  1.00  0.00    -0.014 A 
ATOM     91  C   UNL A   1      44.046  22.807  33.926  1.00  0.00     0.010 A 
ATOM     92  C   UNL A   1      46.203  23.834  34.146  1.00  0.00     0.010 A 
ATOM     93  C   UNL A   1      44.501  21.717  34.686  1.00  0.00     0.020 A 
ATOM     94  C   UNL A   1      46.681  22.734  34.865  1.00  0.00     0.020 A 
ATOM     95  C   UNL A   1      45.815  21.689  35.152  1.00  0.00     0.054 A 
BRANCH  95  96
ATOM     96  S   UNL A   1      46.417  20.245  36.067  1.00  0.00     0.124 S 
ATOM     97  O   UNL A   1      45.578  19.177  35.529  1.00  0.00    -0.237 OA
ATOM     98  O   UNL A   1      47.827  20.182  35.690  1.00  0.00    -0.237 OA
ATOM     99  O   UNL A   1      46.169  20.596  37.462  1.00  0.00    -0.744 OA
ENDBRANCH  95  96
ENDBRANCH  69  90
ENDBRANCH  43  44
ENDBRANCH  35  38
ENDBRANCH  33  34
ENDBRANCH   1  33
TORSDOF 16
ENDMDL
MODEL 2
REMARK VINA RESULT:     -15.1      4.696     11.452
REMARK SMILES Cc1ccc([C@@]23C[C@@H]4C[C@@H](C[C@@](C(=O)N5CCC(C(=O)NCCCCNC(=O)c6ccc(-c7c8nc(c(-c9ccc(S(=O)(=O)[O-])cc9)c9ccc([nH]9)c(-c9ccc(S(=O)(=O)[O-])cc9)c9nc(c(-c%10ccc(S(=O)(=O)[O-])cc%10)c%10ccc7[nH]%10)C=C9)C=C8)cc6)CC5)(C4)C2)C3)cc1
REMARK SMILES IDX 24 1 23 2 22 3 21 4 19 5 20 6 18 8 13 9 14 10 15 11 16 12
REMARK SMILES IDX 90 13 17 14 89 15 12 16 6 17 7 18 92 19 93 20 8 21 10 22
REMARK SMILES IDX 9 23 91 24 11 25 5 26 1 27 2 28 3 29 95 30 4 31 94 32 25 33
REMARK SMILES IDX 26 34 27 35 28 37 29 38 30 39 88 40 31 41 87 42 32 43 33 44
REMARK SMILES IDX 34 45 81 46 35 47 86 48 80 49 82 50 36 51 85 52 79 53 78 54
REMARK SMILES IDX 37 56 67 57 48 58 66 59 49 60 52 61 65 62 83 63 50 64 51 65
REMARK SMILES IDX 64 67 84 68 53 69 38 70 39 71 47 72 40 73 46 74 41 75 42 76
REMARK SMILES IDX 43 77 44 78 45 79 68 80 69 81 77 82 70 83 76 84 71 85 72 86
REMARK SMILES IDX 73 87 74 88 75 89 54 90 55 91 63 92 56 93 62 94 57 95 58 96
REMARK SMILES IDX 59 97 60 98 61 99
REMARK H PARENT 21 7 26 36 82 55 52 66
REMARK Flexibility Score: inf
ROOT
ATOM      1  C   UNL A   1      37.375  22.487  25.003  1.00  0.00     0.023 C 
ENDROOT
BRANCH   1   2
ATOM      2  C   UNL A   1      36.536  21.401  25.675  1.00  0.00     0.023 C 
BRANCH   2   3
ATOM      3  C   UNL A   1      35.036  21.706  25.795  1.00  0.00     0.116 C 
BRANCH   3   4
ATOM      4  N   UNL A   1      34.214  20.499  25.894  1.00  0.00    -0.356 N 
ATOM      5  C   UNL A   1      32.966  20.206  25.439  1.00  0.00     0.223 C 
ATOM      6  O   UNL A   1      32.505  19.087  25.680  1.00  0.00    -0.275 OA
ATOM      7  H   UNL A   1      34.646  19.761  26.381  1.00  0.00     0.163 HD
BRANCH   5   8
ATOM      8  C   UNL A   1      32.131  21.220  24.674  1.00  0.00     0.082 C 
ATOM      9  C   UNL A   1      33.086  24.957  23.670  1.00  0.00     0.228 C 
ATOM     10  O   UNL A   1      34.023  24.923  22.867  1.00  0.00    -0.274 OA
ATOM     11  N   UNL A   1      32.166  23.909  23.724  1.00  0.00    -0.342 N 
ATOM     12  C   UNL A   1      32.241  22.859  22.715  1.00  0.00     0.120 C 
ATOM     13  C   UNL A   1      31.225  23.581  24.792  1.00  0.00     0.120 C 
ATOM     14  C   UNL A   1      32.773  21.569  23.318  1.00  0.00     0.035 C 
ATOM     15  C   UNL A   1      31.759  22.400  25.581  1.00  0.00     0.035 C 
BRANCH   9  16
ATOM     16  C   UNL A   1      32.878  26.219  24.541  1.00  0.00     0.051 C 
ATOM     17  C   UNL A   1      31.646  28.483  24.515  1.00  0.00    -0.003 C 
ATOM     18  C   UNL A   1      31.062  28.070  25.900  1.00  0.00     0.015 C 
ATOM     19  C   UNL A   1      31.969  27.180  23.754  1.00  0.00     0.028 C 
ATOM     20  C   UNL A   1      32.994  29.214  24.739  1.00  0.00     0.015 C 
ATOM     21  C   UNL A   1      32.063  27.218  26.708  1.00  0.00    -0.009 C 
ATOM     22  C   UNL A   1      33.978  28.313  25.513  1.00  0.00    -0.009 C 
ATOM     23  C   UNL A   1      33.375  27.993  26.889  1.00  0.00     0.007 C 
ATOM     24  C   UNL A   1      32.354  25.911  25.957  1.00  0.00     0.020 C 
ATOM     25  C   UNL A   1      34.219  26.994  24.742  1.00  0.00     0.020 C 
BRANCH  17  26
ATOM     26  C   UNL A   1      30.650  29.355  23.727  1.00  0.00    -0.042 A 
ATOM     27  C   UNL A   1      28.015  31.940  21.437  1.00  0.00     0.044 C 
ATOM     28  C   UNL A   1      28.905  31.025  22.219  1.00  0.00    -0.051 A 
ATOM     29  C   UNL A   1      29.181  31.312  23.552  1.00  0.00     0.004 A 
ATOM     30  C   UNL A   1      29.482  29.889  21.646  1.00  0.00     0.004 A 
ATOM     31  C   UNL A   1      30.030  30.488  24.293  1.00  0.00     0.004 A 
ATOM     32  C   UNL A   1      30.338  29.064  22.390  1.00  0.00     0.004 A 
ENDBRANCH  17  26
ENDBRANCH   9  16
ENDBRANCH   5   8
ENDBRANCH   3   4
ENDBRANCH   2   3
ENDBRANCH   1   2
BRANCH   1  33
ATOM     33  C   UNL A   1      37.898  23.541  25.969  1.00  0.00     0.116 C 
BRANCH  33  34
ATOM     34  N   UNL A   1      39.012  23.094  26.787  1.00  0.00    -0.352 N 
ATOM     35  C   UNL A   1      39.966  23.902  27.386  1.00  0.00     0.251 C 
ATOM     36  H   UNL A   1      39.097  22.124  26.931  1.00  0.00     0.163 HD
ATOM     37  O   UNL A   1      41.054  23.492  27.753  1.00  0.00    -0.269 OA
BRANCH  35  38
ATOM     38  C   UNL A   1      39.534  25.277  27.714  1.00  0.00     0.039 A 
ATOM     39  C   UNL A   1      40.047  26.306  26.918  1.00  0.00     0.014 A 
ATOM     40  C   UNL A   1      38.915  25.544  28.933  1.00  0.00     0.014 A 
ATOM     41  C   UNL A   1      40.095  27.602  27.424  1.00  0.00     0.010 A 
ATOM     42  C   UNL A   1      39.049  26.809  29.470  1.00  0.00     0.010 A 
ATOM     43  C   UNL A   1      39.681  27.823  28.736  1.00  0.00    -0.014 A 
BRANCH  43  44
ATOM     44  C   UNL A   1      39.904  29.075  29.449  1.00  0.00     0.031 A 
ATOM     45  C   UNL A   1      38.917  30.169  29.316  1.00  0.00     0.074 A 
ATOM     46  C   UNL A   1      40.964  29.212  30.276  1.00  0.00     0.049 A 
ATOM     47  N   UNL A   1      39.154  31.411  29.577  1.00  0.00    -0.248 NA
ATOM     48  C   UNL A   1      37.576  29.943  28.786  1.00  0.00     0.031 C 
ATOM     49  C   UNL A   1      41.171  30.265  31.268  1.00  0.00     0.029 A 
ATOM     50  N   UNL A   1      42.193  28.551  30.227  1.00  0.00    -0.354 N 
ATOM     51  C   UNL A   1      37.945  32.070  29.570  1.00  0.00     0.074 A 
ATOM     52  C   UNL A   1      37.029  31.150  28.941  1.00  0.00     0.031 C 
ATOM     53  C   UNL A   1      42.489  30.385  31.494  1.00  0.00     0.029 A 
ATOM     54  C   UNL A   1      43.163  29.517  30.542  1.00  0.00     0.049 A 
ATOM     55  H   UNL A   1      42.348  27.602  30.015  1.00  0.00     0.167 HD
ATOM     56  C   UNL A   1      37.822  33.248  30.247  1.00  0.00     0.031 A 
ATOM     57  C   UNL A   1      44.150  29.911  29.686  1.00  0.00     0.031 A 
ATOM     58  C   UNL A   1      39.127  33.756  30.670  1.00  0.00     0.049 A 
ATOM     59  C   UNL A   1      44.124  31.401  29.400  1.00  0.00     0.074 A 
ATOM     60  C   UNL A   1      39.785  33.797  31.888  1.00  0.00     0.029 A 
ATOM     61  N   UNL A   1      40.078  34.069  29.701  1.00  0.00    -0.354 N 
ATOM     62  N   UNL A   1      43.106  32.177  29.658  1.00  0.00    -0.248 NA
ATOM     63  C   UNL A   1      45.224  32.127  28.773  1.00  0.00     0.031 C 
ATOM     64  C   UNL A   1      41.164  34.035  31.633  1.00  0.00     0.029 A 
ATOM     65  C   UNL A   1      41.333  34.181  30.267  1.00  0.00     0.049 A 
ATOM     66  H   UNL A   1      39.881  34.194  28.745  1.00  0.00     0.167 HD
ATOM     67  C   UNL A   1      43.388  33.462  29.269  1.00  0.00     0.074 A 
ATOM     68  C   UNL A   1      44.733  33.379  28.726  1.00  0.00     0.031 C 
ATOM     69  C   UNL A   1      42.491  34.481  29.429  1.00  0.00     0.031 A 
BRANCH  56  70
ATOM     70  C   UNL A   1      36.499  33.790  30.770  1.00  0.00    -0.014 A 
ATOM     71  C   UNL A   1      35.430  34.012  29.875  1.00  0.00     0.010 A 
ATOM     72  C   UNL A   1      36.271  34.201  32.098  1.00  0.00     0.010 A 
ATOM     73  C   UNL A   1      34.250  34.674  30.266  1.00  0.00     0.020 A 
ATOM     74  C   UNL A   1      35.105  34.868  32.502  1.00  0.00     0.020 A 
ATOM     75  C   UNL A   1      34.105  35.119  31.577  1.00  0.00     0.054 A 
BRANCH  75  76
ATOM     76  S   UNL A   1      32.621  36.037  32.063  1.00  0.00     0.124 S 
ATOM     77  O   UNL A   1      32.225  36.678  30.811  1.00  0.00    -0.237 OA
ATOM     78  O   UNL A   1      31.735  34.978  32.538  1.00  0.00    -0.237 OA
ATOM     79  O   UNL A   1      33.100  36.952  33.097  1.00  0.00    -0.744 OA
ENDBRANCH  75  76
ENDBRANCH  56  70
BRANCH  57  80
ATOM     80  C   UNL A   1      44.593  28.856  28.730  1.00  0.00    -0.014 A 
ATOM     81  C   UNL A   1      43.961  28.817  27.468  1.00  0.00     0.010 A 
ATOM     82  C   UNL A   1      45.849  28.242  28.878  1.00  0.00     0.010 A 
ATOM     83  C   UNL A   1      44.641  28.341  26.344  1.00  0.00     0.020 A 
ATOM     84  C   UNL A   1      46.530  27.756  27.750  1.00  0.00     0.020 A 
ATOM     85  C   UNL A   1      45.949  27.877  26.484  1.00  0.00     0.054 A 
BRANCH  85  86
ATOM     86  S   UNL A   1      46.934  27.624  24.975  1.00  0.00     0.124 S 
ATOM     87  O   UNL A   1      46.390  26.378  24.447  1.00  0.00    -0.237 OA
ATOM     88  O   UNL A   1      46.622  28.825  24.197  1.00  0.00    -0.237 OA
ATOM     89  O   UNL A   1      48.302  27.552  25.477  1.00  0.00    -0.744 OA
ENDBRANCH  85  86
ENDBRANCH  57  80
BRANCH  69  90
ATOM     90  C   UNL A   1      42.620  35.889  28.885  1.00  0.00    -0.014 A 
ATOM     91  C   UNL A   1      41.906  36.387  27.785  1.00  0.00     0.010 A 
ATOM     92  C   UNL A   1      43.419  36.820  29.595  1.00  0.00     0.010 A 
ATOM     93  C   UNL A   1      42.025  37.728  27.380  1.00  0.00     0.020 A 
ATOM     94  C   UNL A   1      43.510  38.167  29.230  1.00  0.00     0.020 A 
ATOM     95  C   UNL A   1      42.828  38.608  28.105  1.00  0.00     0.054 A 
BRANCH  95  96
ATOM     96  S   UNL A   1      42.917  40.352  27.623  1.00  0.00     0.124 S 
ATOM     97  O   UNL A   1      44.172  40.395  26.878  1.00  0.00    -0.237 OA
ATOM     98  O   UNL A   1      41.707  40.533  26.823  1.00  0.00    -0.237 OA
ATOM     99  O   UNL A   1      42.920  41.060  28.901  1.00  0.00    -0.744 OA
ENDBRANCH  95  96
ENDBRANCH  69  90
ENDBRANCH  43  44
ENDBRANCH  35  38
ENDBRANCH  33  34
ENDBRANCH   1  33
TORSDOF 16
ENDMDL
MODEL 3
REMARK VINA RESULT:     -14.8      1.971      2.629
REMARK SMILES Cc1ccc([C@@]23C[C@@H]4C[C@@H](C[C@@](C(=O)N5CCC(C(=O)NCCCCNC(=O)c6ccc(-c7c8nc(c(-c9ccc(S(=O)(=O)[O-])cc9)c9ccc([nH]9)c(-c9ccc(S(=O)(=O)[O-])cc9)c9nc(c(-c%10ccc(S(=O)(=O)[O-])cc%10)c%10ccc7[nH]%10)C=C9)C=C8)cc6)CC5)(C4)C2)C3)cc1
REMARK SMILES IDX 24 1 23 2 22 3 21 4 19 5 20 6 18 8 13 9 14 10 15 11 16 12
REMARK SMILES IDX 90 13 17 14 89 15 12 16 6 17 7 18 92 19 93 20 8 21 10 22
REMARK SMILES IDX 9 23 91 24 11 25 5 26 1 27 2 28 3 29 95 30 4 31 94 32 25 33
REMARK SMILES IDX 26 34 27 35 28 37 29 38 30 39 88 40 31 41 87 42 32 43 33 44
REMARK SMILES IDX 34 45 81 46 35 47 86 48 80 49 82 50 36 51 85 52 79 53 78 54
REMARK SMILES IDX 37 56 67 57 48 58 66 59 49 60 52 61 65 62 83 63 50 64 51 65
REMARK SMILES IDX 64 67 84 68 53 69 38 70 39 71 47 72 40 73 46 74 41 75 42 76
REMARK SMILES IDX 43 77 44 78 45 79 68 80 69 81 77 82 70 83 76 84 71 85 72 86
REMARK SMILES IDX 73 87 74 88 75 89 54 90 55 91 63 92 56 93 62 94 57 95 58 96
REMARK SMILES IDX 59 97 60 98 61 99
REMARK H PARENT 21 7 26 36 82 55 52 66
REMARK Flexibility Score: inf
ROOT
ATOM      1  C   UNL A   1      32.304  28.823  26.227  1.00  0.00     0.023 C 
ENDROOT
BRANCH   1   2
ATOM      2  C   UNL A   1      32.872  29.602  25.041  1.00  0.00     0.023 C 
BRANCH   2   3
ATOM      3  C   UNL A   1      32.839  28.869  23.692  1.00  0.00     0.116 C 
BRANCH   3   4
ATOM      4  N   UNL A   1      31.711  29.270  22.852  1.00  0.00    -0.356 N 
ATOM      5  C   UNL A   1      30.638  28.580  22.376  1.00  0.00     0.223 C 
ATOM      6  O   UNL A   1      29.827  29.181  21.666  1.00  0.00    -0.275 OA
ATOM      7  H   UNL A   1      31.731  30.216  22.581  1.00  0.00     0.163 HD
BRANCH   5   8
ATOM      8  C   UNL A   1      30.434  27.104  22.674  1.00  0.00     0.082 C 
ATOM      9  C   UNL A   1      32.313  24.843  25.367  1.00  0.00     0.228 C 
ATOM     10  O   UNL A   1      32.021  25.249  26.496  1.00  0.00    -0.274 OA
ATOM     11  N   UNL A   1      31.409  24.982  24.313  1.00  0.00    -0.342 N 
ATOM     12  C   UNL A   1      30.065  25.467  24.602  1.00  0.00     0.120 C 
ATOM     13  C   UNL A   1      31.669  24.903  22.878  1.00  0.00     0.120 C 
ATOM     14  C   UNL A   1      29.882  26.888  24.096  1.00  0.00     0.035 C 
ATOM     15  C   UNL A   1      31.688  26.304  22.296  1.00  0.00     0.035 C 
BRANCH   9  16
ATOM     16  C   UNL A   1      33.644  24.085  25.154  1.00  0.00     0.051 C 
ATOM     17  C   UNL A   1      34.553  21.691  24.853  1.00  0.00    -0.003 C 
ATOM     18  C   UNL A   1      35.259  22.225  23.569  1.00  0.00     0.015 C 
ATOM     19  C   UNL A   1      33.316  22.582  25.093  1.00  0.00     0.028 C 
ATOM     20  C   UNL A   1      35.496  21.901  26.065  1.00  0.00     0.015 C 
ATOM     21  C   UNL A   1      35.689  23.699  23.728  1.00  0.00    -0.009 C 
ATOM     22  C   UNL A   1      35.867  23.391  26.211  1.00  0.00    -0.009 C 
ATOM     23  C   UNL A   1      36.612  23.840  24.945  1.00  0.00     0.007 C 
ATOM     24  C   UNL A   1      34.449  24.580  23.936  1.00  0.00     0.020 C 
ATOM     25  C   UNL A   1      34.591  24.248  26.385  1.00  0.00     0.020 C 
BRANCH  17  26
ATOM     26  C   UNL A   1      34.151  20.212  24.694  1.00  0.00    -0.042 A 
ATOM     27  C   UNL A   1      33.008  16.027  24.470  1.00  0.00     0.044 C 
ATOM     28  C   UNL A   1      33.386  17.475  24.521  1.00  0.00    -0.051 A 
ATOM     29  C   UNL A   1      34.730  17.831  24.575  1.00  0.00     0.004 A 
ATOM     30  C   UNL A   1      32.424  18.489  24.528  1.00  0.00     0.004 A 
ATOM     31  C   UNL A   1      35.104  19.174  24.651  1.00  0.00     0.004 A 
ATOM     32  C   UNL A   1      32.801  19.837  24.609  1.00  0.00     0.004 A 
ENDBRANCH  17  26
ENDBRANCH   9  16
ENDBRANCH   5   8
ENDBRANCH   3   4
ENDBRANCH   2   3
ENDBRANCH   1   2
BRANCH   1  33
ATOM     33  C   UNL A   1      32.774  29.341  27.578  1.00  0.00     0.116 C 
BRANCH  33  34
ATOM     34  N   UNL A   1      33.209  30.727  27.563  1.00  0.00    -0.352 N 
ATOM     35  C   UNL A   1      34.357  31.232  28.152  1.00  0.00     0.251 C 
ATOM     36  H   UNL A   1      32.632  31.369  27.089  1.00  0.00     0.163 HD
ATOM     37  O   UNL A   1      34.507  32.412  28.422  1.00  0.00    -0.269 OA
BRANCH  35  38
ATOM     38  C   UNL A   1      35.482  30.284  28.291  1.00  0.00     0.039 A 
ATOM     39  C   UNL A   1      35.741  29.798  29.578  1.00  0.00     0.014 A 
ATOM     40  C   UNL A   1      36.412  30.144  27.264  1.00  0.00     0.014 A 
ATOM     41  C   UNL A   1      37.011  29.318  29.884  1.00  0.00     0.010 A 
ATOM     42  C   UNL A   1      37.696  29.757  27.593  1.00  0.00     0.010 A 
ATOM     43  C   UNL A   1      38.006  29.391  28.911  1.00  0.00    -0.014 A 
BRANCH  43  44
ATOM     44  C   UNL A   1      39.417  29.145  29.183  1.00  0.00     0.031 A 
ATOM     45  C   UNL A   1      39.995  27.821  28.864  1.00  0.00     0.074 A 
ATOM     46  C   UNL A   1      40.205  30.135  29.658  1.00  0.00     0.049 A 
ATOM     47  N   UNL A   1      41.087  27.352  29.370  1.00  0.00    -0.248 NA
ATOM     48  C   UNL A   1      39.318  26.870  27.988  1.00  0.00     0.031 C 
ATOM     49  C   UNL A   1      41.666  30.144  29.708  1.00  0.00     0.029 A 
ATOM     50  N   UNL A   1      39.837  31.250  30.414  1.00  0.00    -0.354 N 
ATOM     51  C   UNL A   1      41.417  26.222  28.656  1.00  0.00     0.074 A 
ATOM     52  C   UNL A   1      40.225  25.894  27.915  1.00  0.00     0.031 C 
ATOM     53  C   UNL A   1      42.054  30.986  30.679  1.00  0.00     0.029 A 
ATOM     54  C   UNL A   1      40.851  31.419  31.371  1.00  0.00     0.049 A 
ATOM     55  H   UNL A   1      39.031  31.804  30.299  1.00  0.00     0.167 HD
ATOM     56  C   UNL A   1      42.712  25.792  28.647  1.00  0.00     0.031 A 
ATOM     57  C   UNL A   1      40.649  31.330  32.718  1.00  0.00     0.031 A 
ATOM     58  C   UNL A   1      43.513  26.496  29.650  1.00  0.00     0.049 A 
ATOM     59  C   UNL A   1      41.509  30.268  33.376  1.00  0.00     0.074 A 
ATOM     60  C   UNL A   1      44.459  27.505  29.578  1.00  0.00     0.029 A 
ATOM     61  N   UNL A   1      43.170  26.376  30.995  1.00  0.00    -0.354 N 
ATOM     62  N   UNL A   1      42.127  29.321  32.724  1.00  0.00    -0.248 NA
ATOM     63  C   UNL A   1      41.714  30.168  34.818  1.00  0.00     0.031 C 
ATOM     64  C   UNL A   1      44.604  28.062  30.880  1.00  0.00     0.029 A 
ATOM     65  C   UNL A   1      43.781  27.362  31.745  1.00  0.00     0.049 A 
ATOM     66  H   UNL A   1      42.574  25.682  31.360  1.00  0.00     0.167 HD
ATOM     67  C   UNL A   1      42.805  28.515  33.603  1.00  0.00     0.074 A 
ATOM     68  C   UNL A   1      42.519  29.093  34.905  1.00  0.00     0.031 C 
ATOM     69  C   UNL A   1      43.543  27.443  33.183  1.00  0.00     0.031 A 
BRANCH  56  70
ATOM     70  C   UNL A   1      43.314  24.940  27.539  1.00  0.00    -0.014 A 
ATOM     71  C   UNL A   1      43.973  23.734  27.861  1.00  0.00     0.010 A 
ATOM     72  C   UNL A   1      43.364  25.311  26.180  1.00  0.00     0.010 A 
ATOM     73  C   UNL A   1      44.699  22.996  26.906  1.00  0.00     0.020 A 
ATOM     74  C   UNL A   1      44.088  24.592  25.218  1.00  0.00     0.020 A 
ATOM     75  C   UNL A   1      44.770  23.445  25.591  1.00  0.00     0.054 A 
BRANCH  75  76
ATOM     76  S   UNL A   1      45.765  22.540  24.377  1.00  0.00     0.124 S 
ATOM     77  O   UNL A   1      46.390  21.502  25.196  1.00  0.00    -0.237 OA
ATOM     78  O   UNL A   1      44.759  22.075  23.427  1.00  0.00    -0.237 OA
ATOM     79  O   UNL A   1      46.686  23.550  23.859  1.00  0.00    -0.744 OA
ENDBRANCH  75  76
ENDBRANCH  56  70
BRANCH  57  80
ATOM     80  C   UNL A   1      39.283  31.734  33.162  1.00  0.00    -0.014 A 
ATOM     81  C   UNL A   1      39.020  33.116  33.271  1.00  0.00     0.010 A 
ATOM     82  C   UNL A   1      38.201  30.845  33.037  1.00  0.00     0.010 A 
ATOM     83  C   UNL A   1      37.728  33.614  33.077  1.00  0.00     0.020 A 
ATOM     84  C   UNL A   1      36.902  31.343  32.850  1.00  0.00     0.020 A 
ATOM     85  C   UNL A   1      36.690  32.725  32.800  1.00  0.00     0.054 A 
BRANCH  85  86
ATOM     86  S   UNL A   1      35.120  33.408  32.183  1.00  0.00     0.124 S 
ATOM     87  O   UNL A   1      35.554  34.239  31.065  1.00  0.00    -0.237 OA
ATOM     88  O   UNL A   1      34.379  32.200  31.816  1.00  0.00    -0.237 OA
ATOM     89  O   UNL A   1      34.593  34.130  33.337  1.00  0.00    -0.744 OA
ENDBRANCH  85  86
ENDBRANCH  57  80
BRANCH  69  90
ATOM     90  C   UNL A   1      44.183  26.389  34.063  1.00  0.00    -0.014 A 
ATOM     91  C   UNL A   1      45.557  26.106  34.098  1.00  0.00     0.010 A 
ATOM     92  C   UNL A   1      43.374  25.714  35.011  1.00  0.00     0.010 A 
ATOM     93  C   UNL A   1      46.088  25.162  34.993  1.00  0.00     0.020 A 
ATOM     94  C   UNL A   1      43.896  24.806  35.937  1.00  0.00     0.020 A 
ATOM     95  C   UNL A   1      45.252  24.517  35.905  1.00  0.00     0.054 A 
BRANCH  95  96
ATOM     96  S   UNL A   1      45.956  23.357  37.107  1.00  0.00     0.124 S 
ATOM     97  O   UNL A   1      45.291  23.763  38.342  1.00  0.00    -0.237 OA
ATOM     98  O   UNL A   1      45.555  22.055  36.579  1.00  0.00    -0.237 OA
ATOM     99  O   UNL A   1      47.389  23.630  37.046  1.00  0.00    -0.744 OA
ENDBRANCH  95  96
ENDBRANCH  69  90
ENDBRANCH  43  44
ENDBRANCH  35  38
ENDBRANCH  33  34
ENDBRANCH   1  33
TORSDOF 16
ENDMDL
