MODEL 1
REMARK VINA RESULT:     -11.3      0.000      0.000
REMARK SMILES COc1ccc(C(=O)NCCCCNC(=O)c2ccc(-c3c4nc(c(-c5ccc(S(=O)(=O)[O-])cc5)c5ccc([nH]5)c(-c5ccc(S(=O)(=O)[O-])cc5)c5nc(c(-c6ccc(S(=O)(=O)[O-])cc6)c6ccc3[nH]6)C=C5)C=C4)cc2)cc1S(=O)(=O)N(C)Cc1cccc(F)c1
REMARK SMILES IDX 11 1 10 2 9 3 7 4 8 5 6 7 3 8 4 9 78 10 5 11 77 12 2 13 1 14
REMARK SMILES IDX 79 15 80 16 81 17 82 18 83 19 84 20 85 21 86 22 91 23 87 24
REMARK SMILES IDX 89 25 88 26 90 27 12 28 13 29 14 30 15 31 16 33 17 34 18 35
REMARK SMILES IDX 76 36 19 37 75 38 20 39 21 40 22 41 69 42 23 43 74 44 68 45
REMARK SMILES IDX 70 46 24 47 73 48 67 49 66 50 25 52 55 53 36 54 54 55 37 56
REMARK SMILES IDX 40 57 53 58 71 59 38 60 39 61 52 63 72 64 41 65 26 66 27 67
REMARK SMILES IDX 35 68 28 69 34 70 29 71 30 72 31 73 32 74 33 75 56 76 57 77
REMARK SMILES IDX 65 78 58 79 64 80 59 81 60 82 61 83 62 84 63 85 42 86 43 87
REMARK SMILES IDX 51 88 44 89 50 90 45 91 46 92 47 93 48 94 49 95
REMARK H PARENT 9 6 14 32 70 51 40 62
REMARK Flexibility Score: inf
ROOT
ATOM      1  C   UNL A   1      33.411  29.363  26.263  1.00  0.00     0.023 C 
ENDROOT
BRANCH   1   2
ATOM      2  C   UNL A   1      33.504  29.272  24.736  1.00  0.00     0.116 C 
BRANCH   2   3
ATOM      3  N   UNL A   1      32.189  29.385  24.125  1.00  0.00    -0.352 N 
ATOM      4  C   UNL A   1      31.146  28.498  24.017  1.00  0.00     0.251 C 
ATOM      5  O   UNL A   1      30.093  28.882  23.510  1.00  0.00    -0.269 OA
ATOM      6  H   UNL A   1      32.013  30.262  23.710  1.00  0.00     0.163 HD
BRANCH   4   7
ATOM      7  C   UNL A   1      31.218  27.109  24.544  1.00  0.00     0.041 A 
ATOM      8  C   UNL A   1      31.487  24.548  25.692  1.00  0.00     0.138 A 
ATOM      9  C   UNL A   1      30.952  25.605  26.435  1.00  0.00     0.049 A 
ATOM     10  C   UNL A   1      31.807  24.754  24.354  1.00  0.00     0.125 A 
ATOM     11  C   UNL A   1      30.838  26.880  25.871  1.00  0.00     0.018 A 
ATOM     12  C   UNL A   1      31.625  26.022  23.777  1.00  0.00     0.039 A 
BRANCH   8  13
ATOM     13  O   UNL A   1      31.583  23.337  26.311  1.00  0.00    -0.495 OA
ATOM     14  C   UNL A   1      30.292  22.811  26.614  1.00  0.00     0.278 C 
ENDBRANCH   8  13
BRANCH  10  15
ATOM     15  S   UNL A   1      32.560  23.561  23.287  1.00  0.00     0.246 S 
ATOM     16  O   UNL A   1      31.565  22.545  23.044  1.00  0.00    -0.207 OA
ATOM     17  O   UNL A   1      33.115  24.336  22.186  1.00  0.00    -0.207 OA
BRANCH  15  18
ATOM     18  N   UNL A   1      33.854  22.823  24.096  1.00  0.00    -0.196 NA
ATOM     19  C   UNL A   1      33.717  21.371  24.326  1.00  0.00     0.125 C 
BRANCH  18  20
ATOM     20  C   UNL A   1      35.197  23.223  23.587  1.00  0.00     0.137 C 
BRANCH  20  21
ATOM     21  C   UNL A   1      36.353  22.949  24.523  1.00  0.00    -0.030 A 
ATOM     22  C   UNL A   1      37.032  21.721  24.479  1.00  0.00     0.005 A 
ATOM     23  C   UNL A   1      36.822  23.947  25.391  1.00  0.00     0.044 A 
ATOM     24  C   UNL A   1      38.183  21.512  25.242  1.00  0.00     0.003 A 
ATOM     25  C   UNL A   1      37.966  23.728  26.149  1.00  0.00     0.123 A 
ATOM     26  C   UNL A   1      38.656  22.525  26.074  1.00  0.00     0.039 A 
ATOM     27  F   UNL A   1      38.422  24.698  26.953  1.00  0.00    -0.207 F 
ENDBRANCH  20  21
ENDBRANCH  18  20
ENDBRANCH  15  18
ENDBRANCH  10  15
ENDBRANCH   4   7
ENDBRANCH   2   3
ENDBRANCH   1   2
BRANCH   1  28
ATOM     28  C   UNL A   1      34.512  28.602  27.004  1.00  0.00     0.023 C 
BRANCH  28  29
ATOM     29  C   UNL A   1      35.617  29.480  27.577  1.00  0.00     0.116 C 
BRANCH  29  30
ATOM     30  N   UNL A   1      35.304  30.021  28.893  1.00  0.00    -0.352 N 
ATOM     31  C   UNL A   1      36.189  30.344  29.897  1.00  0.00     0.251 C 
ATOM     32  H   UNL A   1      34.351  30.171  29.087  1.00  0.00     0.163 HD
ATOM     33  O   UNL A   1      35.791  30.706  30.998  1.00  0.00    -0.269 OA
BRANCH  31  34
ATOM     34  C   UNL A   1      37.634  30.198  29.632  1.00  0.00     0.039 A 
ATOM     35  C   UNL A   1      38.511  30.070  30.712  1.00  0.00     0.014 A 
ATOM     36  C   UNL A   1      38.097  30.093  28.319  1.00  0.00     0.014 A 
ATOM     37  C   UNL A   1      39.849  29.752  30.475  1.00  0.00     0.010 A 
ATOM     38  C   UNL A   1      39.415  29.717  28.088  1.00  0.00     0.010 A 
ATOM     39  C   UNL A   1      40.300  29.529  29.163  1.00  0.00    -0.014 A 
BRANCH  39  40
ATOM     40  C   UNL A   1      41.684  29.079  28.877  1.00  0.00     0.031 A 
ATOM     41  C   UNL A   1      42.803  30.081  28.847  1.00  0.00     0.074 A 
ATOM     42  C   UNL A   1      41.914  27.796  28.534  1.00  0.00     0.049 A 
ATOM     43  N   UNL A   1      44.042  29.924  28.462  1.00  0.00    -0.248 NA
ATOM     44  C   UNL A   1      42.471  31.449  29.280  1.00  0.00     0.031 C 
ATOM     45  C   UNL A   1      40.905  26.735  28.488  1.00  0.00     0.029 A 
ATOM     46  N   UNL A   1      43.069  27.174  28.131  1.00  0.00    -0.354 N 
ATOM     47  C   UNL A   1      44.633  31.176  28.580  1.00  0.00     0.074 A 
ATOM     48  C   UNL A   1      43.605  32.089  29.033  1.00  0.00     0.031 C 
ATOM     49  C   UNL A   1      41.485  25.594  28.082  1.00  0.00     0.029 A 
ATOM     50  C   UNL A   1      42.894  25.851  27.799  1.00  0.00     0.049 A 
ATOM     51  H   UNL A   1      43.940  27.630  28.085  1.00  0.00     0.167 HD
ATOM     52  C   UNL A   1      45.919  31.532  28.346  1.00  0.00     0.031 A 
ATOM     53  C   UNL A   1      43.763  24.950  27.300  1.00  0.00     0.031 A 
ATOM     54  C   UNL A   1      46.939  30.621  27.900  1.00  0.00     0.049 A 
ATOM     55  C   UNL A   1      45.187  25.363  27.050  1.00  0.00     0.074 A 
ATOM     56  C   UNL A   1      48.279  30.875  27.668  1.00  0.00     0.029 A 
ATOM     57  N   UNL A   1      46.730  29.278  27.621  1.00  0.00    -0.354 N 
ATOM     58  N   UNL A   1      45.740  26.541  27.207  1.00  0.00    -0.248 NA
ATOM     59  C   UNL A   1      46.106  24.324  26.565  1.00  0.00     0.031 C 
ATOM     60  C   UNL A   1      48.873  29.692  27.214  1.00  0.00     0.029 A 
ATOM     61  C   UNL A   1      47.914  28.692  27.210  1.00  0.00     0.049 A 
ATOM     62  H   UNL A   1      45.867  28.812  27.703  1.00  0.00     0.167 HD
ATOM     63  C   UNL A   1      47.078  26.381  26.864  1.00  0.00     0.074 A 
ATOM     64  C   UNL A   1      47.252  24.989  26.500  1.00  0.00     0.031 C 
ATOM     65  C   UNL A   1      48.072  27.303  26.857  1.00  0.00     0.031 A 
BRANCH  52  66
ATOM     66  C   UNL A   1      46.278  32.978  28.561  1.00  0.00    -0.014 A 
ATOM     67  C   UNL A   1      46.726  33.434  29.815  1.00  0.00     0.010 A 
ATOM     68  C   UNL A   1      46.163  33.894  27.501  1.00  0.00     0.010 A 
ATOM     69  C   UNL A   1      46.992  34.790  30.021  1.00  0.00     0.020 A 
ATOM     70  C   UNL A   1      46.456  35.248  27.696  1.00  0.00     0.020 A 
ATOM     71  C   UNL A   1      46.844  35.690  28.963  1.00  0.00     0.054 A 
BRANCH  71  72
ATOM     72  S   UNL A   1      47.180  37.448  29.259  1.00  0.00     0.124 S 
ATOM     73  O   UNL A   1      46.489  38.078  28.137  1.00  0.00    -0.237 OA
ATOM     74  O   UNL A   1      46.579  37.674  30.572  1.00  0.00    -0.237 OA
ATOM     75  O   UNL A   1      48.637  37.533  29.221  1.00  0.00    -0.744 OA
ENDBRANCH  71  72
ENDBRANCH  52  66
BRANCH  53  76
ATOM     76  C   UNL A   1      43.302  23.564  27.014  1.00  0.00    -0.014 A 
ATOM     77  C   UNL A   1      43.097  23.140  25.691  1.00  0.00     0.010 A 
ATOM     78  C   UNL A   1      43.107  22.649  28.066  1.00  0.00     0.010 A 
ATOM     79  C   UNL A   1      42.698  21.827  25.423  1.00  0.00     0.020 A 
ATOM     80  C   UNL A   1      42.731  21.329  27.800  1.00  0.00     0.020 A 
ATOM     81  C   UNL A   1      42.523  20.928  26.478  1.00  0.00     0.054 A 
BRANCH  81  82
ATOM     82  S   UNL A   1      42.079  19.209  26.102  1.00  0.00     0.124 S 
ATOM     83  O   UNL A   1      42.570  18.504  27.282  1.00  0.00    -0.237 OA
ATOM     84  O   UNL A   1      40.626  19.279  25.964  1.00  0.00    -0.237 OA
ATOM     85  O   UNL A   1      42.801  18.935  24.862  1.00  0.00    -0.744 OA
ENDBRANCH  81  82
ENDBRANCH  53  76
BRANCH  65  86
ATOM     86  C   UNL A   1      49.451  26.835  26.480  1.00  0.00    -0.014 A 
ATOM     87  C   UNL A   1      50.310  26.257  27.430  1.00  0.00     0.010 A 
ATOM     88  C   UNL A   1      49.860  26.906  25.135  1.00  0.00     0.010 A 
ATOM     89  C   UNL A   1      51.562  25.771  27.043  1.00  0.00     0.020 A 
ATOM     90  C   UNL A   1      51.101  26.401  24.742  1.00  0.00     0.020 A 
ATOM     91  C   UNL A   1      51.949  25.844  25.701  1.00  0.00     0.054 A 
BRANCH  91  92
ATOM     92  S   UNL A   1      53.551  25.147  25.212  1.00  0.00     0.124 S 
ATOM     93  O   UNL A   1      53.283  23.712  25.252  1.00  0.00    -0.237 OA
ATOM     94  O   UNL A   1      53.755  25.712  23.881  1.00  0.00    -0.237 OA
ATOM     95  O   UNL A   1      54.469  25.640  26.237  1.00  0.00    -0.744 OA
ENDBRANCH  91  92
ENDBRANCH  65  86
ENDBRANCH  39  40
ENDBRANCH  31  34
ENDBRANCH  29  30
ENDBRANCH  28  29
ENDBRANCH   1  28
TORSDOF 19
ENDMDL
MODEL 2
REMARK VINA RESULT:     -11.1      6.190     10.646
REMARK SMILES COc1ccc(C(=O)NCCCCNC(=O)c2ccc(-c3c4nc(c(-c5ccc(S(=O)(=O)[O-])cc5)c5ccc([nH]5)c(-c5ccc(S(=O)(=O)[O-])cc5)c5nc(c(-c6ccc(S(=O)(=O)[O-])cc6)c6ccc3[nH]6)C=C5)C=C4)cc2)cc1S(=O)(=O)N(C)Cc1cccc(F)c1
REMARK SMILES IDX 11 1 10 2 9 3 7 4 8 5 6 7 3 8 4 9 78 10 5 11 77 12 2 13 1 14
REMARK SMILES IDX 79 15 80 16 81 17 82 18 83 19 84 20 85 21 86 22 91 23 87 24
REMARK SMILES IDX 89 25 88 26 90 27 12 28 13 29 14 30 15 31 16 33 17 34 18 35
REMARK SMILES IDX 76 36 19 37 75 38 20 39 21 40 22 41 69 42 23 43 74 44 68 45
REMARK SMILES IDX 70 46 24 47 73 48 67 49 66 50 25 52 55 53 36 54 54 55 37 56
REMARK SMILES IDX 40 57 53 58 71 59 38 60 39 61 52 63 72 64 41 65 26 66 27 67
REMARK SMILES IDX 35 68 28 69 34 70 29 71 30 72 31 73 32 74 33 75 56 76 57 77
REMARK SMILES IDX 65 78 58 79 64 80 59 81 60 82 61 83 62 84 63 85 42 86 43 87
REMARK SMILES IDX 51 88 44 89 50 90 45 91 46 92 47 93 48 94 49 95
REMARK H PARENT 9 6 14 32 70 51 40 62
REMARK Flexibility Score: inf
ROOT
ATOM      1  C   UNL A   1      35.350  30.315  27.681  1.00  0.00     0.023 C 
ENDROOT
BRANCH   1   2
ATOM      2  C   UNL A   1      34.351  29.240  27.240  1.00  0.00     0.116 C 
BRANCH   2   3
ATOM      3  N   UNL A   1      34.261  29.175  25.789  1.00  0.00    -0.352 N 
ATOM      4  C   UNL A   1      33.795  28.201  24.941  1.00  0.00     0.251 C 
ATOM      5  O   UNL A   1      33.757  28.437  23.733  1.00  0.00    -0.269 OA
ATOM      6  H   UNL A   1      34.598  29.979  25.329  1.00  0.00     0.163 HD
BRANCH   4   7
ATOM      7  C   UNL A   1      33.276  26.895  25.428  1.00  0.00     0.041 A 
ATOM      8  C   UNL A   1      32.257  24.513  26.539  1.00  0.00     0.138 A 
ATOM      9  C   UNL A   1      31.451  25.650  26.442  1.00  0.00     0.049 A 
ATOM     10  C   UNL A   1      33.541  24.544  26.004  1.00  0.00     0.125 A 
ATOM     11  C   UNL A   1      31.963  26.839  25.910  1.00  0.00     0.018 A 
ATOM     12  C   UNL A   1      34.024  25.722  25.409  1.00  0.00     0.039 A 
BRANCH   8  13
ATOM     13  O   UNL A   1      31.697  23.395  27.084  1.00  0.00    -0.495 OA
ATOM     14  C   UNL A   1      30.666  22.876  26.244  1.00  0.00     0.278 C 
ENDBRANCH   8  13
BRANCH  10  15
ATOM     15  S   UNL A   1      34.722  23.231  26.101  1.00  0.00     0.246 S 
ATOM     16  O   UNL A   1      35.995  23.798  25.724  1.00  0.00    -0.207 OA
ATOM     17  O   UNL A   1      34.531  22.648  27.421  1.00  0.00    -0.207 OA
BRANCH  15  18
ATOM     18  N   UNL A   1      34.335  22.043  24.955  1.00  0.00    -0.196 NA
ATOM     19  C   UNL A   1      34.214  22.517  23.562  1.00  0.00     0.125 C 
BRANCH  18  20
ATOM     20  C   UNL A   1      35.126  20.786  25.093  1.00  0.00     0.137 C 
BRANCH  20  21
ATOM     21  C   UNL A   1      34.329  19.505  24.993  1.00  0.00    -0.030 A 
ATOM     22  C   UNL A   1      33.014  19.442  25.484  1.00  0.00     0.005 A 
ATOM     23  C   UNL A   1      34.855  18.384  24.333  1.00  0.00     0.044 A 
ATOM     24  C   UNL A   1      32.226  18.309  25.273  1.00  0.00     0.003 A 
ATOM     25  C   UNL A   1      34.063  17.260  24.131  1.00  0.00     0.123 A 
ATOM     26  C   UNL A   1      32.751  17.217  24.585  1.00  0.00     0.039 A 
ATOM     27  F   UNL A   1      34.566  16.207  23.474  1.00  0.00    -0.207 F 
ENDBRANCH  20  21
ENDBRANCH  18  20
ENDBRANCH  15  18
ENDBRANCH  10  15
ENDBRANCH   4   7
ENDBRANCH   2   3
ENDBRANCH   1   2
BRANCH   1  28
ATOM     28  C   UNL A   1      34.818  31.746  27.574  1.00  0.00     0.023 C 
BRANCH  28  29
ATOM     29  C   UNL A   1      33.340  31.900  27.910  1.00  0.00     0.116 C 
BRANCH  29  30
ATOM     30  N   UNL A   1      32.888  33.285  27.912  1.00  0.00    -0.352 N 
ATOM     31  C   UNL A   1      33.379  34.325  28.669  1.00  0.00     0.251 C 
ATOM     32  H   UNL A   1      32.146  33.502  27.303  1.00  0.00     0.163 HD
ATOM     33  O   UNL A   1      32.849  35.430  28.646  1.00  0.00    -0.269 OA
BRANCH  31  34
ATOM     34  C   UNL A   1      34.535  34.066  29.551  1.00  0.00     0.039 A 
ATOM     35  C   UNL A   1      34.332  33.370  30.744  1.00  0.00     0.014 A 
ATOM     36  C   UNL A   1      35.821  34.428  29.144  1.00  0.00     0.014 A 
ATOM     37  C   UNL A   1      35.436  32.962  31.497  1.00  0.00     0.010 A 
ATOM     38  C   UNL A   1      36.919  33.969  29.862  1.00  0.00     0.010 A 
ATOM     39  C   UNL A   1      36.737  33.220  31.036  1.00  0.00    -0.014 A 
BRANCH  39  40
ATOM     40  C   UNL A   1      37.935  32.705  31.746  1.00  0.00     0.031 A 
ATOM     41  C   UNL A   1      38.664  31.509  31.205  1.00  0.00     0.074 A 
ATOM     42  C   UNL A   1      38.293  33.241  32.929  1.00  0.00     0.049 A 
ATOM     43  N   UNL A   1      39.624  30.810  31.753  1.00  0.00    -0.248 NA
ATOM     44  C   UNL A   1      38.233  31.017  29.886  1.00  0.00     0.031 C 
ATOM     45  C   UNL A   1      37.642  34.381  33.579  1.00  0.00     0.029 A 
ATOM     46  N   UNL A   1      39.281  32.878  33.810  1.00  0.00    -0.354 N 
ATOM     47  C   UNL A   1      39.895  29.781  30.861  1.00  0.00     0.074 A 
ATOM     48  C   UNL A   1      38.970  29.924  29.755  1.00  0.00     0.031 C 
ATOM     49  C   UNL A   1      38.247  34.624  34.752  1.00  0.00     0.029 A 
ATOM     50  C   UNL A   1      39.301  33.634  34.958  1.00  0.00     0.049 A 
ATOM     51  H   UNL A   1      39.917  32.146  33.636  1.00  0.00     0.167 HD
ATOM     52  C   UNL A   1      40.837  28.811  30.945  1.00  0.00     0.031 A 
ATOM     53  C   UNL A   1      40.063  33.529  36.064  1.00  0.00     0.031 A 
ATOM     54  C   UNL A   1      41.757  28.675  32.043  1.00  0.00     0.049 A 
ATOM     55  C   UNL A   1      41.106  32.449  36.138  1.00  0.00     0.074 A 
ATOM     56  C   UNL A   1      42.772  27.749  32.206  1.00  0.00     0.029 A 
ATOM     57  N   UNL A   1      41.773  29.491  33.164  1.00  0.00    -0.354 N 
ATOM     58  N   UNL A   1      41.378  31.509  35.266  1.00  0.00    -0.248 NA
ATOM     59  C   UNL A   1      41.951  32.421  37.340  1.00  0.00     0.031 C 
ATOM     60  C   UNL A   1      43.379  27.984  33.445  1.00  0.00     0.029 A 
ATOM     61  C   UNL A   1      42.775  29.085  34.028  1.00  0.00     0.049 A 
ATOM     62  H   UNL A   1      41.163  30.247  33.322  1.00  0.00     0.167 HD
ATOM     63  C   UNL A   1      42.442  30.792  35.800  1.00  0.00     0.074 A 
ATOM     64  C   UNL A   1      42.770  31.413  37.068  1.00  0.00     0.031 C 
ATOM     65  C   UNL A   1      43.092  29.719  35.285  1.00  0.00     0.031 A 
BRANCH  52  66
ATOM     66  C   UNL A   1      40.901  27.819  29.815  1.00  0.00    -0.014 A 
ATOM     67  C   UNL A   1      41.931  27.878  28.857  1.00  0.00     0.010 A 
ATOM     68  C   UNL A   1      39.920  26.818  29.704  1.00  0.00     0.010 A 
ATOM     69  C   UNL A   1      41.941  26.995  27.775  1.00  0.00     0.020 A 
ATOM     70  C   UNL A   1      39.944  25.914  28.638  1.00  0.00     0.020 A 
ATOM     71  C   UNL A   1      40.942  26.025  27.666  1.00  0.00     0.054 A 
BRANCH  71  72
ATOM     72  S   UNL A   1      40.968  24.900  26.244  1.00  0.00     0.124 S 
ATOM     73  O   UNL A   1      41.829  23.824  26.730  1.00  0.00    -0.237 OA
ATOM     74  O   UNL A   1      39.559  24.551  26.082  1.00  0.00    -0.237 OA
ATOM     75  O   UNL A   1      41.534  25.713  25.171  1.00  0.00    -0.744 OA
ENDBRANCH  71  72
ENDBRANCH  52  66
BRANCH  53  76
ATOM     76  C   UNL A   1      39.866  34.487  37.186  1.00  0.00    -0.014 A 
ATOM     77  C   UNL A   1      39.055  34.146  38.281  1.00  0.00     0.010 A 
ATOM     78  C   UNL A   1      40.525  35.731  37.182  1.00  0.00     0.010 A 
ATOM     79  C   UNL A   1      38.900  35.033  39.350  1.00  0.00     0.020 A 
ATOM     80  C   UNL A   1      40.391  36.610  38.261  1.00  0.00     0.020 A 
ATOM     81  C   UNL A   1      39.573  36.258  39.336  1.00  0.00     0.054 A 
BRANCH  81  82
ATOM     82  S   UNL A   1      39.418  37.360  40.770  1.00  0.00     0.124 S 
ATOM     83  O   UNL A   1      38.912  36.454  41.795  1.00  0.00    -0.237 OA
ATOM     84  O   UNL A   1      40.789  37.829  40.958  1.00  0.00    -0.237 OA
ATOM     85  O   UNL A   1      38.477  38.380  40.314  1.00  0.00    -0.744 OA
ENDBRANCH  81  82
ENDBRANCH  53  76
BRANCH  65  86
ATOM     86  C   UNL A   1      44.250  29.165  36.068  1.00  0.00    -0.014 A 
ATOM     87  C   UNL A   1      45.525  29.751  35.997  1.00  0.00     0.010 A 
ATOM     88  C   UNL A   1      44.035  28.089  36.949  1.00  0.00     0.010 A 
ATOM     89  C   UNL A   1      46.571  29.258  36.783  1.00  0.00     0.020 A 
ATOM     90  C   UNL A   1      45.072  27.609  37.752  1.00  0.00     0.020 A 
ATOM     91  C   UNL A   1      46.337  28.191  37.658  1.00  0.00     0.054 A 
BRANCH  91  92
ATOM     92  S   UNL A   1      47.692  27.613  38.716  1.00  0.00     0.124 S 
ATOM     93  O   UNL A   1      46.986  27.242  39.939  1.00  0.00    -0.237 OA
ATOM     94  O   UNL A   1      48.248  26.502  37.948  1.00  0.00    -0.237 OA
ATOM     95  O   UNL A   1      48.565  28.780  38.828  1.00  0.00    -0.744 OA
ENDBRANCH  91  92
ENDBRANCH  65  86
ENDBRANCH  39  40
ENDBRANCH  31  34
ENDBRANCH  29  30
ENDBRANCH  28  29
ENDBRANCH   1  28
TORSDOF 19
ENDMDL
MODEL 3
REMARK VINA RESULT:     -11.0      2.094      8.766
REMARK SMILES COc1ccc(C(=O)NCCCCNC(=O)c2ccc(-c3c4nc(c(-c5ccc(S(=O)(=O)[O-])cc5)c5ccc([nH]5)c(-c5ccc(S(=O)(=O)[O-])cc5)c5nc(c(-c6ccc(S(=O)(=O)[O-])cc6)c6ccc3[nH]6)C=C5)C=C4)cc2)cc1S(=O)(=O)N(C)Cc1cccc(F)c1
REMARK SMILES IDX 11 1 10 2 9 3 7 4 8 5 6 7 3 8 4 9 78 10 5 11 77 12 2 13 1 14
REMARK SMILES IDX 79 15 80 16 81 17 82 18 83 19 84 20 85 21 86 22 91 23 87 24
REMARK SMILES IDX 89 25 88 26 90 27 12 28 13 29 14 30 15 31 16 33 17 34 18 35
REMARK SMILES IDX 76 36 19 37 75 38 20 39 21 40 22 41 69 42 23 43 74 44 68 45
REMARK SMILES IDX 70 46 24 47 73 48 67 49 66 50 25 52 55 53 36 54 54 55 37 56
REMARK SMILES IDX 40 57 53 58 71 59 38 60 39 61 52 63 72 64 41 65 26 66 27 67
REMARK SMILES IDX 35 68 28 69 34 70 29 71 30 72 31 73 32 74 33 75 56 76 57 77
REMARK SMILES IDX 65 78 58 79 64 80 59 81 60 82 61 83 62 84 63 85 42 86 43 87
REMARK SMILES IDX 51 88 44 89 50 90 45 91 46 92 47 93 48 94 49 95
REMARK H PARENT 9 6 14 32 70 51 40 62
REMARK Flexibility Score: inf
ROOT
ATOM      1  C   UNL A   1      39.093  23.056  26.579  1.00  0.00     0.023 C 
ENDROOT
BRANCH   1   2
ATOM      2  C   UNL A   1      37.738  23.600  26.114  1.00  0.00     0.116 C 
BRANCH   2   3
ATOM      3  N   UNL A   1      37.646  23.603  24.661  1.00  0.00    -0.352 N 
ATOM      4  C   UNL A   1      36.705  23.097  23.800  1.00  0.00     0.251 C 
ATOM      5  O   UNL A   1      36.830  23.310  22.594  1.00  0.00    -0.269 OA
ATOM      6  H   UNL A   1      38.400  24.052  24.213  1.00  0.00     0.163 HD
BRANCH   4   7
ATOM      7  C   UNL A   1      35.506  22.352  24.270  1.00  0.00     0.041 A 
ATOM      8  C   UNL A   1      33.266  20.803  25.000  1.00  0.00     0.138 A 
ATOM      9  C   UNL A   1      34.546  20.240  24.998  1.00  0.00     0.049 A 
ATOM     10  C   UNL A   1      33.121  22.158  24.719  1.00  0.00     0.125 A 
ATOM     11  C   UNL A   1      35.654  21.003  24.615  1.00  0.00     0.018 A 
ATOM     12  C   UNL A   1      34.249  22.933  24.402  1.00  0.00     0.039 A 
BRANCH   8  13
ATOM     13  O   UNL A   1      32.230  19.996  25.367  1.00  0.00    -0.495 OA
ATOM     14  C   UNL A   1      32.616  18.623  25.344  1.00  0.00     0.278 C 
ENDBRANCH   8  13
BRANCH  10  15
ATOM     15  S   UNL A   1      31.580  23.019  24.601  1.00  0.00     0.246 S 
ATOM     16  O   UNL A   1      31.106  22.825  23.252  1.00  0.00    -0.207 OA
ATOM     17  O   UNL A   1      30.799  22.552  25.737  1.00  0.00    -0.207 OA
BRANCH  15  18
ATOM     18  N   UNL A   1      31.849  24.679  24.813  1.00  0.00    -0.196 NA
ATOM     19  C   UNL A   1      31.141  25.565  23.868  1.00  0.00     0.125 C 
BRANCH  18  20
ATOM     20  C   UNL A   1      31.767  25.132  26.232  1.00  0.00     0.137 C 
BRANCH  20  21
ATOM     21  C   UNL A   1      32.157  26.573  26.475  1.00  0.00    -0.030 A 
ATOM     22  C   UNL A   1      31.248  27.469  27.061  1.00  0.00     0.005 A 
ATOM     23  C   UNL A   1      33.459  27.018  26.200  1.00  0.00     0.044 A 
ATOM     24  C   UNL A   1      31.645  28.761  27.414  1.00  0.00     0.003 A 
ATOM     25  C   UNL A   1      33.843  28.306  26.552  1.00  0.00     0.123 A 
ATOM     26  C   UNL A   1      32.951  29.177  27.166  1.00  0.00     0.039 A 
ATOM     27  F   UNL A   1      35.096  28.711  26.311  1.00  0.00    -0.207 F 
ENDBRANCH  20  21
ENDBRANCH  18  20
ENDBRANCH  15  18
ENDBRANCH  10  15
ENDBRANCH   4   7
ENDBRANCH   2   3
ENDBRANCH   1   2
BRANCH   1  28
ATOM     28  C   UNL A   1      39.437  21.674  26.020  1.00  0.00     0.023 C 
BRANCH  28  29
ATOM     29  C   UNL A   1      40.248  20.792  26.962  1.00  0.00     0.116 C 
BRANCH  29  30
ATOM     30  N   UNL A   1      41.083  19.820  26.270  1.00  0.00    -0.352 N 
ATOM     31  C   UNL A   1      42.344  20.017  25.750  1.00  0.00     0.251 C 
ATOM     32  H   UNL A   1      40.703  18.919  26.160  1.00  0.00     0.163 HD
ATOM     33  O   UNL A   1      42.907  19.140  25.106  1.00  0.00    -0.269 OA
BRANCH  31  34
ATOM     34  C   UNL A   1      42.984  21.334  25.946  1.00  0.00     0.039 A 
ATOM     35  C   UNL A   1      43.009  22.239  24.883  1.00  0.00     0.014 A 
ATOM     36  C   UNL A   1      43.469  21.696  27.204  1.00  0.00     0.014 A 
ATOM     37  C   UNL A   1      43.447  23.546  25.105  1.00  0.00     0.010 A 
ATOM     38  C   UNL A   1      43.847  23.013  27.438  1.00  0.00     0.010 A 
ATOM     39  C   UNL A   1      43.826  23.953  26.395  1.00  0.00    -0.014 A 
BRANCH  39  40
ATOM     40  C   UNL A   1      44.189  25.360  26.696  1.00  0.00     0.031 A 
ATOM     41  C   UNL A   1      45.593  25.836  26.454  1.00  0.00     0.074 A 
ATOM     42  C   UNL A   1      43.292  26.170  27.291  1.00  0.00     0.049 A 
ATOM     43  N   UNL A   1      46.152  26.966  26.797  1.00  0.00    -0.248 NA
ATOM     44  C   UNL A   1      46.493  24.900  25.760  1.00  0.00     0.031 C 
ATOM     45  C   UNL A   1      41.908  25.814  27.614  1.00  0.00     0.029 A 
ATOM     46  N   UNL A   1      43.420  27.456  27.754  1.00  0.00    -0.354 N 
ATOM     47  C   UNL A   1      47.476  26.870  26.386  1.00  0.00     0.074 A 
ATOM     48  C   UNL A   1      47.645  25.555  25.805  1.00  0.00     0.031 C 
ATOM     49  C   UNL A   1      41.316  26.855  28.221  1.00  0.00     0.029 A 
ATOM     50  C   UNL A   1      42.287  27.936  28.368  1.00  0.00     0.049 A 
ATOM     51  H   UNL A   1      44.245  27.985  27.656  1.00  0.00     0.167 HD
ATOM     52  C   UNL A   1      48.460  27.797  26.471  1.00  0.00     0.031 A 
ATOM     53  C   UNL A   1      42.060  29.104  29.000  1.00  0.00     0.031 A 
ATOM     54  C   UNL A   1      48.288  29.105  27.045  1.00  0.00     0.049 A 
ATOM     55  C   UNL A   1      43.163  30.122  29.082  1.00  0.00     0.074 A 
ATOM     56  C   UNL A   1      49.211  30.130  27.147  1.00  0.00     0.029 A 
ATOM     57  N   UNL A   1      47.110  29.568  27.614  1.00  0.00    -0.354 N 
ATOM     58  N   UNL A   1      44.397  30.031  28.650  1.00  0.00    -0.248 NA
ATOM     59  C   UNL A   1      42.841  31.402  29.726  1.00  0.00     0.031 C 
ATOM     60  C   UNL A   1      48.601  31.201  27.810  1.00  0.00     0.029 A 
ATOM     61  C   UNL A   1      47.285  30.860  28.076  1.00  0.00     0.049 A 
ATOM     62  H   UNL A   1      46.273  29.053  27.678  1.00  0.00     0.167 HD
ATOM     63  C   UNL A   1      44.994  31.251  28.947  1.00  0.00     0.074 A 
ATOM     64  C   UNL A   1      43.981  32.066  29.587  1.00  0.00     0.031 C 
ATOM     65  C   UNL A   1      46.264  31.660  28.707  1.00  0.00     0.031 A 
BRANCH  52  66
ATOM     66  C   UNL A   1      49.813  27.410  25.936  1.00  0.00    -0.014 A 
ATOM     67  C   UNL A   1      50.116  27.545  24.568  1.00  0.00     0.010 A 
ATOM     68  C   UNL A   1      50.792  26.902  26.807  1.00  0.00     0.010 A 
ATOM     69  C   UNL A   1      51.350  27.119  24.073  1.00  0.00     0.020 A 
ATOM     70  C   UNL A   1      52.040  26.502  26.319  1.00  0.00     0.020 A 
ATOM     71  C   UNL A   1      52.301  26.590  24.950  1.00  0.00     0.054 A 
BRANCH  71  72
ATOM     72  S   UNL A   1      53.890  26.030  24.279  1.00  0.00     0.124 S 
ATOM     73  O   UNL A   1      54.833  26.903  24.973  1.00  0.00    -0.237 OA
ATOM     74  O   UNL A   1      53.930  24.624  24.675  1.00  0.00    -0.237 OA
ATOM     75  O   UNL A   1      53.763  26.267  22.844  1.00  0.00    -0.744 OA
ENDBRANCH  71  72
ENDBRANCH  52  66
BRANCH  53  76
ATOM     76  C   UNL A   1      40.722  29.369  29.597  1.00  0.00    -0.014 A 
ATOM     77  C   UNL A   1      40.477  29.085  30.950  1.00  0.00     0.010 A 
ATOM     78  C   UNL A   1      39.700  29.947  28.821  1.00  0.00     0.010 A 
ATOM     79  C   UNL A   1      39.231  29.367  31.518  1.00  0.00     0.020 A 
ATOM     80  C   UNL A   1      38.461  30.252  29.391  1.00  0.00     0.020 A 
ATOM     81  C   UNL A   1      38.232  29.954  30.736  1.00  0.00     0.054 A 
BRANCH  81  82
ATOM     82  S   UNL A   1      36.648  30.383  31.513  1.00  0.00     0.124 S 
ATOM     83  O   UNL A   1      36.851  29.926  32.884  1.00  0.00    -0.237 OA
ATOM     84  O   UNL A   1      36.587  31.831  31.329  1.00  0.00    -0.237 OA
ATOM     85  O   UNL A   1      35.672  29.624  30.737  1.00  0.00    -0.744 OA
ENDBRANCH  81  82
ENDBRANCH  53  76
BRANCH  65  86
ATOM     86  C   UNL A   1      46.628  33.066  29.100  1.00  0.00    -0.014 A 
ATOM     87  C   UNL A   1      46.299  34.160  28.284  1.00  0.00     0.010 A 
ATOM     88  C   UNL A   1      47.240  33.296  30.346  1.00  0.00     0.010 A 
ATOM     89  C   UNL A   1      46.591  35.462  28.700  1.00  0.00     0.020 A 
ATOM     90  C   UNL A   1      47.512  34.597  30.776  1.00  0.00     0.020 A 
ATOM     91  C   UNL A   1      47.194  35.672  29.945  1.00  0.00     0.054 A 
BRANCH  91  92
ATOM     92  S   UNL A   1      47.502  37.374  30.493  1.00  0.00     0.124 S 
ATOM     93  O   UNL A   1      46.346  38.082  29.949  1.00  0.00    -0.237 OA
ATOM     94  O   UNL A   1      47.532  37.243  31.947  1.00  0.00    -0.237 OA
ATOM     95  O   UNL A   1      48.784  37.708  29.878  1.00  0.00    -0.744 OA
ENDBRANCH  91  92
ENDBRANCH  65  86
ENDBRANCH  39  40
ENDBRANCH  31  34
ENDBRANCH  29  30
ENDBRANCH  28  29
ENDBRANCH   1  28
TORSDOF 19
ENDMDL
