MODEL 1
REMARK VINA RESULT:     -11.1      0.000      0.000
REMARK SMILES Cc1cc(O[C@@H]2C[C@H](C)C[C@H](C)C2)cc(C(=O)NCCCCNC(=O)c2ccc(-c3c4nc(c(-c5ccc(S(=O)(=O)[O-])cc5)c5ccc([nH]5)c(-c5ccc(S(=O)(=O)[O-])cc5)c5nc(c(-c6ccc(S(=O)(=O)[O-])cc6)c6ccc3[nH]6)C=C5)C=C4)cc2)c1N
REMARK SMILES IDX 21 1 20 2 19 3 18 4 16 5 17 6 15 8 1 9 2 10 3 11 86 12 4 13
REMARK SMILES IDX 14 14 87 15 5 18 6 19 13 20 7 21 11 22 8 23 12 24 10 25 9 26
REMARK SMILES IDX 22 27 23 28 24 29 25 31 26 32 27 33 85 34 28 35 84 36 29 37
REMARK SMILES IDX 30 38 31 39 78 40 32 41 83 42 77 43 79 44 33 45 82 46 76 47
REMARK SMILES IDX 75 48 34 50 64 51 45 52 63 53 46 54 49 55 62 56 80 57 47 58
REMARK SMILES IDX 48 59 61 61 81 62 50 63 35 64 36 65 44 66 37 67 43 68 38 69
REMARK SMILES IDX 39 70 40 71 41 72 42 73 65 74 66 75 74 76 67 77 73 78 68 79
REMARK SMILES IDX 69 80 70 81 71 82 72 83 51 84 52 85 60 86 53 87 59 88 54 89
REMARK SMILES IDX 55 90 56 91 57 92 58 93
REMARK H PARENT 18 7 87 16 87 17 23 30 79 49 49 60
REMARK Flexibility Score: inf
ROOT
ATOM      1  C   UNL A   1      32.929  28.508  25.740  1.00  0.00     0.023 C 
ENDROOT
BRANCH   1   2
ATOM      2  C   UNL A   1      32.077  27.280  25.428  1.00  0.00     0.023 C 
BRANCH   2   3
ATOM      3  C   UNL A   1      32.496  25.972  26.091  1.00  0.00     0.116 C 
BRANCH   3   4
ATOM      4  N   UNL A   1      31.405  25.241  26.697  1.00  0.00    -0.352 N 
ATOM      5  C   UNL A   1      31.030  23.922  26.623  1.00  0.00     0.253 C 
ATOM      6  O   UNL A   1      30.031  23.607  27.278  1.00  0.00    -0.269 OA
ATOM      7  H   UNL A   1      30.824  25.791  27.269  1.00  0.00     0.163 HD
BRANCH   5   8
ATOM      8  C   UNL A   1      31.724  22.879  25.794  1.00  0.00     0.066 A 
ATOM      9  C   UNL A   1      31.699  21.606  22.175  1.00  0.00     0.047 C 
ATOM     10  C   UNL A   1      31.905  21.701  23.664  1.00  0.00    -0.024 A 
ATOM     11  C   UNL A   1      32.825  20.826  24.253  1.00  0.00     0.052 A 
ATOM     12  C   UNL A   1      31.330  22.733  24.434  1.00  0.00     0.048 A 
ATOM     13  C   UNL A   1      33.435  21.195  25.433  1.00  0.00     0.120 A 
ATOM     14  C   UNL A   1      32.770  22.078  26.282  1.00  0.00     0.062 A 
BRANCH  12  15
ATOM     15  N   UNL A   1      30.566  23.717  23.789  1.00  0.00    -0.398 N 
ATOM     16  H   UNL A   1      30.938  24.202  23.018  1.00  0.00     0.156 HD
ATOM     17  H   UNL A   1      29.658  23.923  24.109  1.00  0.00     0.156 HD
ENDBRANCH  12  15
BRANCH  13  18
ATOM     18  O   UNL A   1      34.723  20.857  25.759  1.00  0.00    -0.490 OA
BRANCH  18  19
ATOM     19  C   UNL A   1      35.827  21.164  24.842  1.00  0.00     0.173 C 
ATOM     20  C   UNL A   1      35.807  22.439  23.989  1.00  0.00     0.048 C 
ATOM     21  C   UNL A   1      37.177  21.119  25.637  1.00  0.00     0.048 C 
ATOM     22  C   UNL A   1      36.271  23.696  24.724  1.00  0.00    -0.010 C 
ATOM     23  C   UNL A   1      38.253  22.240  25.378  1.00  0.00    -0.010 C 
ATOM     24  C   UNL A   1      35.727  23.957  26.129  1.00  0.00     0.008 C 
ATOM     25  C   UNL A   1      37.778  23.577  24.769  1.00  0.00     0.007 C 
ATOM     26  C   UNL A   1      39.072  22.530  26.646  1.00  0.00     0.008 C 
ENDBRANCH  18  19
ENDBRANCH  13  18
ENDBRANCH   5   8
ENDBRANCH   3   4
ENDBRANCH   2   3
ENDBRANCH   1   2
BRANCH   1  27
ATOM     27  C   UNL A   1      33.423  28.636  27.176  1.00  0.00     0.116 C 
BRANCH  27  28
ATOM     28  N   UNL A   1      33.461  30.011  27.656  1.00  0.00    -0.352 N 
ATOM     29  C   UNL A   1      34.487  30.698  28.264  1.00  0.00     0.251 C 
ATOM     30  H   UNL A   1      32.631  30.524  27.526  1.00  0.00     0.163 HD
ATOM     31  O   UNL A   1      34.298  31.832  28.695  1.00  0.00    -0.269 OA
BRANCH  29  32
ATOM     32  C   UNL A   1      35.801  30.044  28.438  1.00  0.00     0.039 A 
ATOM     33  C   UNL A   1      36.706  30.051  27.374  1.00  0.00     0.014 A 
ATOM     34  C   UNL A   1      36.160  29.485  29.666  1.00  0.00     0.014 A 
ATOM     35  C   UNL A   1      38.009  29.593  27.576  1.00  0.00     0.010 A 
ATOM     36  C   UNL A   1      37.481  29.109  29.889  1.00  0.00     0.010 A 
ATOM     37  C   UNL A   1      38.424  29.173  28.850  1.00  0.00    -0.014 A 
BRANCH  37  38
ATOM     38  C   UNL A   1      39.845  28.838  29.130  1.00  0.00     0.031 A 
ATOM     39  C   UNL A   1      40.768  29.868  29.719  1.00  0.00     0.074 A 
ATOM     40  C   UNL A   1      40.325  27.628  28.775  1.00  0.00     0.049 A 
ATOM     41  N   UNL A   1      42.050  29.780  29.968  1.00  0.00    -0.248 NA
ATOM     42  C   UNL A   1      40.181  31.178  30.044  1.00  0.00     0.031 C 
ATOM     43  C   UNL A   1      39.546  26.557  28.145  1.00  0.00     0.029 A 
ATOM     44  N   UNL A   1      41.586  27.096  28.882  1.00  0.00    -0.354 N 
ATOM     45  C   UNL A   1      42.425  31.025  30.460  1.00  0.00     0.074 A 
ATOM     46  C   UNL A   1      41.249  31.864  30.426  1.00  0.00     0.031 C 
ATOM     47  C   UNL A   1      40.339  25.491  27.950  1.00  0.00     0.029 A 
ATOM     48  C   UNL A   1      41.689  25.812  28.400  1.00  0.00     0.049 A 
ATOM     49  H   UNL A   1      42.346  27.588  29.269  1.00  0.00     0.167 HD
ATOM     50  C   UNL A   1      43.636  31.427  30.916  1.00  0.00     0.031 A 
ATOM     51  C   UNL A   1      42.750  24.985  28.322  1.00  0.00     0.031 A 
ATOM     52  C   UNL A   1      44.803  30.587  30.957  1.00  0.00     0.049 A 
ATOM     53  C   UNL A   1      44.084  25.453  28.837  1.00  0.00     0.074 A 
ATOM     54  C   UNL A   1      46.059  30.883  31.457  1.00  0.00     0.029 A 
ATOM     55  N   UNL A   1      44.860  29.286  30.478  1.00  0.00    -0.354 N 
ATOM     56  N   UNL A   1      44.402  26.610  29.365  1.00  0.00    -0.248 NA
ATOM     57  C   UNL A   1      45.197  24.498  28.757  1.00  0.00     0.031 C 
ATOM     58  C   UNL A   1      46.888  29.778  31.236  1.00  0.00     0.029 A 
ATOM     59  C   UNL A   1      46.134  28.773  30.651  1.00  0.00     0.049 A 
ATOM     60  H   UNL A   1      44.105  28.799  30.076  1.00  0.00     0.167 HD
ATOM     61  C   UNL A   1      45.745  26.514  29.706  1.00  0.00     0.074 A 
ATOM     62  C   UNL A   1      46.176  25.181  29.335  1.00  0.00     0.031 C 
ATOM     63  C   UNL A   1      46.549  27.445  30.277  1.00  0.00     0.031 A 
BRANCH  50  64
ATOM     64  C   UNL A   1      43.754  32.848  31.404  1.00  0.00    -0.014 A 
ATOM     65  C   UNL A   1      44.104  33.891  30.525  1.00  0.00     0.010 A 
ATOM     66  C   UNL A   1      43.490  33.150  32.751  1.00  0.00     0.010 A 
ATOM     67  C   UNL A   1      44.236  35.199  30.996  1.00  0.00     0.020 A 
ATOM     68  C   UNL A   1      43.591  34.462  33.220  1.00  0.00     0.020 A 
ATOM     69  C   UNL A   1      43.984  35.476  32.343  1.00  0.00     0.054 A 
BRANCH  69  70
ATOM     70  S   UNL A   1      44.153  37.186  32.925  1.00  0.00     0.124 S 
ATOM     71  O   UNL A   1      44.103  37.934  31.672  1.00  0.00    -0.237 OA
ATOM     72  O   UNL A   1      42.992  37.345  33.797  1.00  0.00    -0.237 OA
ATOM     73  O   UNL A   1      45.445  37.194  33.605  1.00  0.00    -0.744 OA
ENDBRANCH  69  70
ENDBRANCH  50  64
BRANCH  51  74
ATOM     74  C   UNL A   1      42.585  23.619  27.754  1.00  0.00    -0.014 A 
ATOM     75  C   UNL A   1      42.772  23.391  26.379  1.00  0.00     0.010 A 
ATOM     76  C   UNL A   1      42.264  22.532  28.589  1.00  0.00     0.010 A 
ATOM     77  C   UNL A   1      42.628  22.106  25.847  1.00  0.00     0.020 A 
ATOM     78  C   UNL A   1      42.145  21.242  28.063  1.00  0.00     0.020 A 
ATOM     79  C   UNL A   1      42.318  21.039  26.693  1.00  0.00     0.054 A 
BRANCH  79  80
ATOM     80  S   UNL A   1      42.199  19.370  25.989  1.00  0.00     0.124 S 
ATOM     81  O   UNL A   1      43.017  19.489  24.786  1.00  0.00    -0.237 OA
ATOM     82  O   UNL A   1      42.754  18.539  27.054  1.00  0.00    -0.237 OA
ATOM     83  O   UNL A   1      40.766  19.198  25.760  1.00  0.00    -0.744 OA
ENDBRANCH  79  80
ENDBRANCH  51  74
BRANCH  63  84
ATOM     84  C   UNL A   1      47.970  27.047  30.574  1.00  0.00    -0.014 A 
ATOM     85  C   UNL A   1      49.005  27.294  29.655  1.00  0.00     0.010 A 
ATOM     86  C   UNL A   1      48.282  26.471  31.819  1.00  0.00     0.010 A 
ATOM     87  C   UNL A   1      50.322  26.946  29.965  1.00  0.00     0.020 A 
ATOM     88  C   UNL A   1      49.601  26.147  32.144  1.00  0.00     0.020 A 
ATOM     89  C   UNL A   1      50.612  26.376  31.209  1.00  0.00     0.054 A 
BRANCH  89  90
ATOM     90  S   UNL A   1      52.337  25.977  31.608  1.00  0.00     0.124 S 
ATOM     91  O   UNL A   1      52.992  26.134  30.313  1.00  0.00    -0.237 OA
ATOM     92  O   UNL A   1      52.675  26.985  32.610  1.00  0.00    -0.237 OA
ATOM     93  O   UNL A   1      52.267  24.607  32.111  1.00  0.00    -0.744 OA
ENDBRANCH  89  90
ENDBRANCH  63  84
ENDBRANCH  37  38
ENDBRANCH  29  32
ENDBRANCH  27  28
ENDBRANCH   1  27
TORSDOF 17
ENDMDL
MODEL 2
REMARK VINA RESULT:     -10.9      1.442      2.267
REMARK SMILES Cc1cc(O[C@@H]2C[C@H](C)C[C@H](C)C2)cc(C(=O)NCCCCNC(=O)c2ccc(-c3c4nc(c(-c5ccc(S(=O)(=O)[O-])cc5)c5ccc([nH]5)c(-c5ccc(S(=O)(=O)[O-])cc5)c5nc(c(-c6ccc(S(=O)(=O)[O-])cc6)c6ccc3[nH]6)C=C5)C=C4)cc2)c1N
REMARK SMILES IDX 21 1 20 2 19 3 18 4 16 5 17 6 15 8 1 9 2 10 3 11 86 12 4 13
REMARK SMILES IDX 14 14 87 15 5 18 6 19 13 20 7 21 11 22 8 23 12 24 10 25 9 26
REMARK SMILES IDX 22 27 23 28 24 29 25 31 26 32 27 33 85 34 28 35 84 36 29 37
REMARK SMILES IDX 30 38 31 39 78 40 32 41 83 42 77 43 79 44 33 45 82 46 76 47
REMARK SMILES IDX 75 48 34 50 64 51 45 52 63 53 46 54 49 55 62 56 80 57 47 58
REMARK SMILES IDX 48 59 61 61 81 62 50 63 35 64 36 65 44 66 37 67 43 68 38 69
REMARK SMILES IDX 39 70 40 71 41 72 42 73 65 74 66 75 74 76 67 77 73 78 68 79
REMARK SMILES IDX 69 80 70 81 71 82 72 83 51 84 52 85 60 86 53 87 59 88 54 89
REMARK SMILES IDX 55 90 56 91 57 92 58 93
REMARK H PARENT 18 7 87 16 87 17 23 30 79 49 49 60
REMARK Flexibility Score: inf
ROOT
ATOM      1  C   UNL A   1      33.974  28.412  25.867  1.00  0.00     0.023 C 
ENDROOT
BRANCH   1   2
ATOM      2  C   UNL A   1      33.381  29.350  24.817  1.00  0.00     0.023 C 
BRANCH   2   3
ATOM      3  C   UNL A   1      33.409  28.864  23.372  1.00  0.00     0.116 C 
BRANCH   3   4
ATOM      4  N   UNL A   1      32.101  28.708  22.776  1.00  0.00    -0.352 N 
ATOM      5  C   UNL A   1      31.317  27.602  22.558  1.00  0.00     0.253 C 
ATOM      6  O   UNL A   1      30.224  27.812  22.020  1.00  0.00    -0.269 OA
ATOM      7  H   UNL A   1      31.697  29.552  22.470  1.00  0.00     0.163 HD
BRANCH   5   8
ATOM      8  C   UNL A   1      31.709  26.192  22.898  1.00  0.00     0.066 A 
ATOM      9  C   UNL A   1      33.245  23.142  21.151  1.00  0.00     0.047 C 
ATOM     10  C   UNL A   1      32.513  24.019  22.133  1.00  0.00    -0.024 A 
ATOM     11  C   UNL A   1      32.267  23.504  23.410  1.00  0.00     0.052 A 
ATOM     12  C   UNL A   1      32.223  25.370  21.855  1.00  0.00     0.048 A 
ATOM     13  C   UNL A   1      32.108  24.380  24.463  1.00  0.00     0.120 A 
ATOM     14  C   UNL A   1      31.639  25.666  24.199  1.00  0.00     0.062 A 
BRANCH  12  15
ATOM     15  N   UNL A   1      32.653  25.922  20.639  1.00  0.00    -0.398 N 
ATOM     16  H   UNL A   1      32.293  25.582  19.789  1.00  0.00     0.156 HD
ATOM     17  H   UNL A   1      33.318  26.648  20.637  1.00  0.00     0.156 HD
ENDBRANCH  12  15
BRANCH  13  18
ATOM     18  O   UNL A   1      32.520  24.111  25.743  1.00  0.00    -0.490 OA
BRANCH  18  19
ATOM     19  C   UNL A   1      33.942  24.188  26.098  1.00  0.00     0.173 C 
ATOM     20  C   UNL A   1      34.574  23.147  27.032  1.00  0.00     0.048 C 
ATOM     21  C   UNL A   1      34.792  24.256  24.783  1.00  0.00     0.048 C 
ATOM     22  C   UNL A   1      34.973  21.843  26.344  1.00  0.00    -0.010 C 
ATOM     23  C   UNL A   1      36.109  23.397  24.680  1.00  0.00    -0.010 C 
ATOM     24  C   UNL A   1      33.976  21.194  25.383  1.00  0.00     0.008 C 
ATOM     25  C   UNL A   1      36.254  22.174  25.611  1.00  0.00     0.007 C 
ATOM     26  C   UNL A   1      36.375  22.958  23.231  1.00  0.00     0.008 C 
ENDBRANCH  18  19
ENDBRANCH  13  18
ENDBRANCH   5   8
ENDBRANCH   3   4
ENDBRANCH   2   3
ENDBRANCH   1   2
BRANCH   1  27
ATOM     27  C   UNL A   1      33.522  28.642  27.304  1.00  0.00     0.116 C 
BRANCH  27  28
ATOM     28  N   UNL A   1      33.580  30.038  27.714  1.00  0.00    -0.352 N 
ATOM     29  C   UNL A   1      34.621  30.745  28.270  1.00  0.00     0.251 C 
ATOM     30  H   UNL A   1      32.752  30.551  27.573  1.00  0.00     0.163 HD
ATOM     31  O   UNL A   1      34.450  31.902  28.647  1.00  0.00    -0.269 OA
BRANCH  29  32
ATOM     32  C   UNL A   1      35.933  30.090  28.452  1.00  0.00     0.039 A 
ATOM     33  C   UNL A   1      36.865  30.138  27.413  1.00  0.00     0.014 A 
ATOM     34  C   UNL A   1      36.264  29.488  29.669  1.00  0.00     0.014 A 
ATOM     35  C   UNL A   1      38.164  29.677  27.631  1.00  0.00     0.010 A 
ATOM     36  C   UNL A   1      37.581  29.108  29.911  1.00  0.00     0.010 A 
ATOM     37  C   UNL A   1      38.549  29.213  28.899  1.00  0.00    -0.014 A 
BRANCH  37  38
ATOM     38  C   UNL A   1      39.963  28.872  29.203  1.00  0.00     0.031 A 
ATOM     39  C   UNL A   1      40.879  29.896  29.814  1.00  0.00     0.074 A 
ATOM     40  C   UNL A   1      40.447  27.662  28.849  1.00  0.00     0.049 A 
ATOM     41  N   UNL A   1      42.156  29.803  30.085  1.00  0.00    -0.248 NA
ATOM     42  C   UNL A   1      40.290  31.206  30.135  1.00  0.00     0.031 C 
ATOM     43  C   UNL A   1      39.677  26.597  28.199  1.00  0.00     0.029 A 
ATOM     44  N   UNL A   1      41.705  27.127  28.976  1.00  0.00    -0.354 N 
ATOM     45  C   UNL A   1      42.526  31.044  30.590  1.00  0.00     0.074 A 
ATOM     46  C   UNL A   1      41.352  31.887  30.540  1.00  0.00     0.031 C 
ATOM     47  C   UNL A   1      40.470  25.531  28.013  1.00  0.00     0.029 A 
ATOM     48  C   UNL A   1      41.813  25.845  28.488  1.00  0.00     0.049 A 
ATOM     49  H   UNL A   1      42.459  27.615  29.379  1.00  0.00     0.167 HD
ATOM     50  C   UNL A   1      43.729  31.440  31.070  1.00  0.00     0.031 A 
ATOM     51  C   UNL A   1      42.872  25.016  28.424  1.00  0.00     0.031 A 
ATOM     52  C   UNL A   1      44.893  30.597  31.127  1.00  0.00     0.049 A 
ATOM     53  C   UNL A   1      44.198  25.477  28.966  1.00  0.00     0.074 A 
ATOM     54  C   UNL A   1      46.140  30.886  31.651  1.00  0.00     0.029 A 
ATOM     55  N   UNL A   1      44.955  29.299  30.642  1.00  0.00    -0.354 N 
ATOM     56  N   UNL A   1      44.509  26.630  29.506  1.00  0.00    -0.248 NA
ATOM     57  C   UNL A   1      45.310  24.519  28.900  1.00  0.00     0.031 C 
ATOM     58  C   UNL A   1      46.971  29.781  31.438  1.00  0.00     0.029 A 
ATOM     59  C   UNL A   1      46.224  28.781  30.834  1.00  0.00     0.049 A 
ATOM     60  H   UNL A   1      44.206  28.816  30.223  1.00  0.00     0.167 HD
ATOM     61  C   UNL A   1      45.847  26.528  29.870  1.00  0.00     0.074 A 
ATOM     62  C   UNL A   1      46.281  25.197  29.500  1.00  0.00     0.031 C 
ATOM     63  C   UNL A   1      46.643  27.454  30.461  1.00  0.00     0.031 A 
BRANCH  50  64
ATOM     64  C   UNL A   1      43.843  32.858  31.568  1.00  0.00    -0.014 A 
ATOM     65  C   UNL A   1      43.543  33.185  32.904  1.00  0.00     0.010 A 
ATOM     66  C   UNL A   1      44.277  33.873  30.697  1.00  0.00     0.010 A 
ATOM     67  C   UNL A   1      43.627  34.508  33.345  1.00  0.00     0.020 A 
ATOM     68  C   UNL A   1      44.391  35.193  31.143  1.00  0.00     0.020 A 
ATOM     69  C   UNL A   1      44.046  35.505  32.459  1.00  0.00     0.054 A 
BRANCH  69  70
ATOM     70  S   UNL A   1      44.155  37.212  33.063  1.00  0.00     0.124 S 
ATOM     71  O   UNL A   1      43.019  37.280  33.978  1.00  0.00    -0.237 OA
ATOM     72  O   UNL A   1      45.472  37.246  33.693  1.00  0.00    -0.237 OA
ATOM     73  O   UNL A   1      44.028  38.017  31.851  1.00  0.00    -0.744 OA
ENDBRANCH  69  70
ENDBRANCH  50  64
BRANCH  51  74
ATOM     74  C   UNL A   1      42.714  23.653  27.846  1.00  0.00    -0.014 A 
ATOM     75  C   UNL A   1      42.206  22.601  28.630  1.00  0.00     0.010 A 
ATOM     76  C   UNL A   1      43.046  23.404  26.501  1.00  0.00     0.010 A 
ATOM     77  C   UNL A   1      42.047  21.323  28.084  1.00  0.00     0.020 A 
ATOM     78  C   UNL A   1      42.863  22.134  25.946  1.00  0.00     0.020 A 
ATOM     79  C   UNL A   1      42.373  21.099  26.744  1.00  0.00     0.054 A 
BRANCH  79  80
ATOM     80  S   UNL A   1      42.098  19.448  26.041  1.00  0.00     0.124 S 
ATOM     81  O   UNL A   1      42.623  18.580  27.091  1.00  0.00    -0.237 OA
ATOM     82  O   UNL A   1      40.649  19.420  25.861  1.00  0.00    -0.237 OA
ATOM     83  O   UNL A   1      42.871  19.472  24.801  1.00  0.00    -0.744 OA
ENDBRANCH  79  80
ENDBRANCH  51  74
BRANCH  63  84
ATOM     84  C   UNL A   1      48.057  27.050  30.780  1.00  0.00    -0.014 A 
ATOM     85  C   UNL A   1      49.089  27.192  29.836  1.00  0.00     0.010 A 
ATOM     86  C   UNL A   1      48.368  26.578  32.069  1.00  0.00     0.010 A 
ATOM     87  C   UNL A   1      50.400  26.842  30.165  1.00  0.00     0.020 A 
ATOM     88  C   UNL A   1      49.682  26.253  32.411  1.00  0.00     0.020 A 
ATOM     89  C   UNL A   1      50.689  26.376  31.452  1.00  0.00     0.054 A 
BRANCH  89  90
ATOM     90  S   UNL A   1      52.408  25.973  31.871  1.00  0.00     0.124 S 
ATOM     91  O   UNL A   1      52.624  26.779  33.070  1.00  0.00    -0.237 OA
ATOM     92  O   UNL A   1      52.356  24.529  32.085  1.00  0.00    -0.237 OA
ATOM     93  O   UNL A   1      53.160  26.396  30.692  1.00  0.00    -0.744 OA
ENDBRANCH  89  90
ENDBRANCH  63  84
ENDBRANCH  37  38
ENDBRANCH  29  32
ENDBRANCH  27  28
ENDBRANCH   1  27
TORSDOF 17
ENDMDL
MODEL 3
REMARK VINA RESULT:     -10.9      1.313      2.236
REMARK SMILES Cc1cc(O[C@@H]2C[C@H](C)C[C@H](C)C2)cc(C(=O)NCCCCNC(=O)c2ccc(-c3c4nc(c(-c5ccc(S(=O)(=O)[O-])cc5)c5ccc([nH]5)c(-c5ccc(S(=O)(=O)[O-])cc5)c5nc(c(-c6ccc(S(=O)(=O)[O-])cc6)c6ccc3[nH]6)C=C5)C=C4)cc2)c1N
REMARK SMILES IDX 21 1 20 2 19 3 18 4 16 5 17 6 15 8 1 9 2 10 3 11 86 12 4 13
REMARK SMILES IDX 14 14 87 15 5 18 6 19 13 20 7 21 11 22 8 23 12 24 10 25 9 26
REMARK SMILES IDX 22 27 23 28 24 29 25 31 26 32 27 33 85 34 28 35 84 36 29 37
REMARK SMILES IDX 30 38 31 39 78 40 32 41 83 42 77 43 79 44 33 45 82 46 76 47
REMARK SMILES IDX 75 48 34 50 64 51 45 52 63 53 46 54 49 55 62 56 80 57 47 58
REMARK SMILES IDX 48 59 61 61 81 62 50 63 35 64 36 65 44 66 37 67 43 68 38 69
REMARK SMILES IDX 39 70 40 71 41 72 42 73 65 74 66 75 74 76 67 77 73 78 68 79
REMARK SMILES IDX 69 80 70 81 71 82 72 83 51 84 52 85 60 86 53 87 59 88 54 89
REMARK SMILES IDX 55 90 56 91 57 92 58 93
REMARK H PARENT 18 7 87 16 87 17 23 30 79 49 49 60
REMARK Flexibility Score: inf
ROOT
ATOM      1  C   UNL A   1      33.652  28.775  25.490  1.00  0.00     0.023 C 
ENDROOT
BRANCH   1   2
ATOM      2  C   UNL A   1      32.493  29.124  24.558  1.00  0.00     0.023 C 
BRANCH   2   3
ATOM      3  C   UNL A   1      32.806  29.173  23.067  1.00  0.00     0.116 C 
BRANCH   3   4
ATOM      4  N   UNL A   1      32.057  28.223  22.274  1.00  0.00    -0.352 N 
ATOM      5  C   UNL A   1      31.810  26.882  22.438  1.00  0.00     0.253 C 
ATOM      6  O   UNL A   1      31.113  26.350  21.568  1.00  0.00    -0.269 OA
ATOM      7  H   UNL A   1      31.647  28.610  21.467  1.00  0.00     0.163 HD
BRANCH   5   8
ATOM      8  C   UNL A   1      32.345  26.044  23.565  1.00  0.00     0.066 A 
ATOM      9  C   UNL A   1      30.987  23.986  26.504  1.00  0.00     0.047 C 
ATOM     10  C   UNL A   1      31.899  24.774  25.601  1.00  0.00    -0.024 A 
ATOM     11  C   UNL A   1      33.279  24.648  25.797  1.00  0.00     0.052 A 
ATOM     12  C   UNL A   1      31.413  25.488  24.487  1.00  0.00     0.048 A 
ATOM     13  C   UNL A   1      34.127  24.884  24.735  1.00  0.00     0.120 A 
ATOM     14  C   UNL A   1      33.709  25.746  23.723  1.00  0.00     0.062 A 
BRANCH  12  15
ATOM     15  N   UNL A   1      30.042  25.440  24.195  1.00  0.00    -0.398 N 
ATOM     16  H   UNL A   1      29.531  26.275  24.093  1.00  0.00     0.156 HD
ATOM     17  H   UNL A   1      29.590  24.571  24.094  1.00  0.00     0.156 HD
ENDBRANCH  12  15
BRANCH  13  18
ATOM     18  O   UNL A   1      35.305  24.210  24.542  1.00  0.00    -0.490 OA
BRANCH  18  19
ATOM     19  C   UNL A   1      35.315  22.909  23.862  1.00  0.00     0.173 C 
ATOM     20  C   UNL A   1      36.213  21.770  24.362  1.00  0.00     0.048 C 
ATOM     21  C   UNL A   1      33.845  22.375  23.765  1.00  0.00     0.048 C 
ATOM     22  C   UNL A   1      35.637  20.981  25.536  1.00  0.00    -0.010 C 
ATOM     23  C   UNL A   1      33.563  20.855  24.067  1.00  0.00    -0.010 C 
ATOM     24  C   UNL A   1      35.025  21.758  26.702  1.00  0.00     0.008 C 
ATOM     25  C   UNL A   1      34.594  20.079  24.915  1.00  0.00     0.007 C 
ATOM     26  C   UNL A   1      32.165  20.658  24.676  1.00  0.00     0.008 C 
ENDBRANCH  18  19
ENDBRANCH  13  18
ENDBRANCH   5   8
ENDBRANCH   3   4
ENDBRANCH   2   3
ENDBRANCH   1   2
BRANCH   1  27
ATOM     27  C   UNL A   1      33.364  28.870  26.983  1.00  0.00     0.116 C 
BRANCH  27  28
ATOM     28  N   UNL A   1      33.402  30.233  27.496  1.00  0.00    -0.352 N 
ATOM     29  C   UNL A   1      34.413  30.891  28.158  1.00  0.00     0.251 C 
ATOM     30  H   UNL A   1      32.585  30.761  27.345  1.00  0.00     0.163 HD
ATOM     31  O   UNL A   1      34.223  32.019  28.608  1.00  0.00    -0.269 OA
BRANCH  29  32
ATOM     32  C   UNL A   1      35.710  30.216  28.368  1.00  0.00     0.039 A 
ATOM     33  C   UNL A   1      36.658  30.238  27.343  1.00  0.00     0.014 A 
ATOM     34  C   UNL A   1      36.011  29.619  29.595  1.00  0.00     0.014 A 
ATOM     35  C   UNL A   1      37.946  29.757  27.585  1.00  0.00     0.010 A 
ATOM     36  C   UNL A   1      37.317  29.218  29.860  1.00  0.00     0.010 A 
ATOM     37  C   UNL A   1      38.303  29.298  28.864  1.00  0.00    -0.014 A 
BRANCH  37  38
ATOM     38  C   UNL A   1      39.706  28.935  29.192  1.00  0.00     0.031 A 
ATOM     39  C   UNL A   1      40.624  29.943  29.828  1.00  0.00     0.074 A 
ATOM     40  C   UNL A   1      40.180  27.721  28.840  1.00  0.00     0.049 A 
ATOM     41  N   UNL A   1      41.893  29.830  30.123  1.00  0.00    -0.248 NA
ATOM     42  C   UNL A   1      40.046  31.259  30.147  1.00  0.00     0.031 C 
ATOM     43  C   UNL A   1      39.408  26.671  28.168  1.00  0.00     0.029 A 
ATOM     44  N   UNL A   1      41.427  27.168  28.988  1.00  0.00    -0.354 N 
ATOM     45  C   UNL A   1      42.271  31.063  30.644  1.00  0.00     0.074 A 
ATOM     46  C   UNL A   1      41.110  31.923  30.576  1.00  0.00     0.031 C 
ATOM     47  C   UNL A   1      40.190  25.595  27.991  1.00  0.00     0.029 A 
ATOM     48  C   UNL A   1      41.528  25.887  28.494  1.00  0.00     0.049 A 
ATOM     49  H   UNL A   1      42.180  27.643  29.409  1.00  0.00     0.167 HD
ATOM     50  C   UNL A   1      43.469  31.440  31.149  1.00  0.00     0.031 A 
ATOM     51  C   UNL A   1      42.577  25.044  28.445  1.00  0.00     0.031 A 
ATOM     52  C   UNL A   1      44.621  30.580  31.224  1.00  0.00     0.049 A 
ATOM     53  C   UNL A   1      43.898  25.483  29.016  1.00  0.00     0.074 A 
ATOM     54  C   UNL A   1      45.861  30.849  31.774  1.00  0.00     0.029 A 
ATOM     55  N   UNL A   1      44.674  29.284  30.731  1.00  0.00    -0.354 N 
ATOM     56  N   UNL A   1      44.214  26.629  29.570  1.00  0.00    -0.248 NA
ATOM     57  C   UNL A   1      44.998  24.511  28.966  1.00  0.00     0.031 C 
ATOM     58  C   UNL A   1      46.680  29.733  31.570  1.00  0.00     0.029 A 
ATOM     59  C   UNL A   1      45.932  28.748  30.945  1.00  0.00     0.049 A 
ATOM     60  H   UNL A   1      43.927  28.815  30.295  1.00  0.00     0.167 HD
ATOM     61  C   UNL A   1      45.543  26.506  29.959  1.00  0.00     0.074 A 
ATOM     62  C   UNL A   1      45.966  25.171  29.588  1.00  0.00     0.031 C 
ATOM     63  C   UNL A   1      46.340  27.417  30.571  1.00  0.00     0.031 A 
BRANCH  50  64
ATOM     64  C   UNL A   1      43.593  32.853  31.659  1.00  0.00    -0.014 A 
ATOM     65  C   UNL A   1      44.047  33.889  30.821  1.00  0.00     0.010 A 
ATOM     66  C   UNL A   1      43.228  33.154  32.983  1.00  0.00     0.010 A 
ATOM     67  C   UNL A   1      44.181  35.190  31.314  1.00  0.00     0.020 A 
ATOM     68  C   UNL A   1      43.332  34.459  33.471  1.00  0.00     0.020 A 
ATOM     69  C   UNL A   1      43.828  35.466  32.639  1.00  0.00     0.054 A 
BRANCH  69  70
ATOM     70  S   UNL A   1      44.003  37.165  33.249  1.00  0.00     0.124 S 
ATOM     71  O   UNL A   1      42.851  37.284  34.139  1.00  0.00    -0.237 OA
ATOM     72  O   UNL A   1      45.305  37.137  33.908  1.00  0.00    -0.237 OA
ATOM     73  O   UNL A   1      43.939  37.976  32.036  1.00  0.00    -0.744 OA
ENDBRANCH  69  70
ENDBRANCH  50  64
BRANCH  51  74
ATOM     74  C   UNL A   1      42.411  23.688  27.855  1.00  0.00    -0.014 A 
ATOM     75  C   UNL A   1      42.746  23.450  26.510  1.00  0.00     0.010 A 
ATOM     76  C   UNL A   1      41.940  22.619  28.641  1.00  0.00     0.010 A 
ATOM     77  C   UNL A   1      42.601  22.173  25.958  1.00  0.00     0.020 A 
ATOM     78  C   UNL A   1      41.818  21.336  28.098  1.00  0.00     0.020 A 
ATOM     79  C   UNL A   1      42.141  21.124  26.757  1.00  0.00     0.054 A 
BRANCH  79  80
ATOM     80  S   UNL A   1      42.021  19.462  26.035  1.00  0.00     0.124 S 
ATOM     81  O   UNL A   1      42.551  18.627  27.109  1.00  0.00    -0.237 OA
ATOM     82  O   UNL A   1      40.590  19.333  25.779  1.00  0.00    -0.237 OA
ATOM     83  O   UNL A   1      42.855  19.549  24.838  1.00  0.00    -0.744 OA
ENDBRANCH  79  80
ENDBRANCH  51  74
BRANCH  63  84
ATOM     84  C   UNL A   1      47.742  26.992  30.915  1.00  0.00    -0.014 A 
ATOM     85  C   UNL A   1      48.794  27.126  29.993  1.00  0.00     0.010 A 
ATOM     86  C   UNL A   1      48.021  26.507  32.206  1.00  0.00     0.010 A 
ATOM     87  C   UNL A   1      50.094  26.756  30.345  1.00  0.00     0.020 A 
ATOM     88  C   UNL A   1      49.323  26.161  32.572  1.00  0.00     0.020 A 
ATOM     89  C   UNL A   1      50.351  26.277  31.634  1.00  0.00     0.054 A 
BRANCH  89  90
ATOM     90  S   UNL A   1      52.055  25.848  32.084  1.00  0.00     0.124 S 
ATOM     91  O   UNL A   1      52.828  26.606  31.104  1.00  0.00    -0.237 OA
ATOM     92  O   UNL A   1      52.152  26.322  33.463  1.00  0.00    -0.237 OA
ATOM     93  O   UNL A   1      52.100  24.396  31.926  1.00  0.00    -0.744 OA
ENDBRANCH  89  90
ENDBRANCH  63  84
ENDBRANCH  37  38
ENDBRANCH  29  32
ENDBRANCH  27  28
ENDBRANCH   1  27
TORSDOF 17
ENDMDL
