MODEL 1
REMARK VINA RESULT:     -11.5      0.000      0.000
REMARK SMILES Cc1cc(OC(F)(F)F)cc2c1O[C@@H](C(F)(F)F)C(C(=O)NCCCCNC(=O)c1ccc(-c3c4nc(c(-c5ccc(S(=O)(=O)[O-])cc5)c5ccc([nH]5)c(-c5ccc(S(=O)(=O)[O-])cc5)c5nc(c(-c6ccc(S(=O)(=O)[O-])cc6)c6ccc3[nH]6)C=C5)C=C4)cc1)=C2
REMARK SMILES IDX 25 1 24 2 23 3 22 4 20 5 21 6 19 8 1 9 2 10 3 11 12 12 4 13
REMARK SMILES IDX 11 14 13 15 10 16 90 17 14 18 5 19 6 20 7 21 8 22 9 23 15 24
REMARK SMILES IDX 16 25 17 26 18 27 26 28 27 29 28 30 29 32 30 33 31 34 89 35
REMARK SMILES IDX 32 36 88 37 33 38 34 39 35 40 82 41 36 42 87 43 81 44 83 45
REMARK SMILES IDX 37 46 86 47 80 48 79 49 38 51 68 52 49 53 67 54 50 55 53 56
REMARK SMILES IDX 66 57 84 58 51 59 52 60 65 62 85 63 54 64 39 65 40 66 48 67
REMARK SMILES IDX 41 68 47 69 42 70 43 71 44 72 45 73 46 74 69 75 70 76 78 77
REMARK SMILES IDX 71 78 77 79 72 80 73 81 74 82 75 83 76 84 55 85 56 86 64 87
REMARK SMILES IDX 57 88 63 89 58 90 59 91 60 92 61 93 62 94
REMARK H PARENT 22 7 27 31 83 50 53 61
REMARK Flexibility Score: inf
ROOT
ATOM      1  C   UNL A   1      35.755  23.173  24.427  1.00  0.00     0.023 C 
ENDROOT
BRANCH   1   2
ATOM      2  C   UNL A   1      34.562  22.319  24.860  1.00  0.00     0.023 C 
BRANCH   2   3
ATOM      3  C   UNL A   1      33.954  22.726  26.201  1.00  0.00     0.116 C 
BRANCH   3   4
ATOM      4  N   UNL A   1      32.560  22.337  26.285  1.00  0.00    -0.352 N 
ATOM      5  C   UNL A   1      31.376  22.918  25.989  1.00  0.00     0.251 C 
ATOM      6  O   UNL A   1      30.381  22.198  26.121  1.00  0.00    -0.270 OA
ATOM      7  H   UNL A   1      32.449  21.427  26.645  1.00  0.00     0.163 HD
BRANCH   5   8
ATOM      8  C   UNL A   1      31.206  24.327  25.529  1.00  0.00     0.067 C 
ATOM      9  C   UNL A   1      30.177  28.808  23.197  1.00  0.00     0.048 C 
ATOM     10  C   UNL A   1      30.843  28.381  24.475  1.00  0.00    -0.005 A 
ATOM     11  C   UNL A   1      31.490  29.344  25.270  1.00  0.00     0.054 A 
ATOM     12  C   UNL A   1      30.905  27.034  24.854  1.00  0.00     0.131 A 
ATOM     13  C   UNL A   1      32.149  28.977  26.445  1.00  0.00     0.130 A 
ATOM     14  C   UNL A   1      31.550  26.660  26.034  1.00  0.00     0.021 A 
ATOM     15  O   UNL A   1      30.286  26.108  24.055  1.00  0.00    -0.475 OA
ATOM     16  C   UNL A   1      32.169  27.631  26.824  1.00  0.00     0.058 A 
ATOM     17  C   UNL A   1      31.562  25.259  26.431  1.00  0.00     0.025 C 
ATOM     18  C   UNL A   1      30.806  24.748  24.140  1.00  0.00     0.314 C 
BRANCH  13  19
ATOM     19  O   UNL A   1      32.811  29.809  27.301  1.00  0.00    -0.406 OA
BRANCH  19  20
ATOM     20  C   UNL A   1      34.223  29.861  27.217  1.00  0.00     0.573 C 
ATOM     21  F   UNL A   1      34.668  29.289  26.077  1.00  0.00    -0.132 F 
ATOM     22  F   UNL A   1      34.671  31.133  27.287  1.00  0.00    -0.132 F 
ATOM     23  F   UNL A   1      34.746  29.176  28.259  1.00  0.00    -0.132 F 
ENDBRANCH  19  20
ENDBRANCH  13  19
BRANCH  18  24
ATOM     24  C   UNL A   1      31.904  24.538  23.081  1.00  0.00     0.429 C 
ATOM     25  F   UNL A   1      33.118  24.969  23.490  1.00  0.00    -0.167 F 
ATOM     26  F   UNL A   1      32.044  23.243  22.724  1.00  0.00    -0.167 F 
ATOM     27  F   UNL A   1      31.596  25.228  21.952  1.00  0.00    -0.167 F 
ENDBRANCH  18  24
ENDBRANCH   5   8
ENDBRANCH   3   4
ENDBRANCH   2   3
ENDBRANCH   1   2
BRANCH   1  28
ATOM     28  C   UNL A   1      36.732  23.516  25.544  1.00  0.00     0.116 C 
BRANCH  28  29
ATOM     29  N   UNL A   1      37.886  22.629  25.595  1.00  0.00    -0.352 N 
ATOM     30  C   UNL A   1      39.124  22.903  26.124  1.00  0.00     0.251 C 
ATOM     31  H   UNL A   1      37.764  21.732  25.208  1.00  0.00     0.163 HD
ATOM     32  O   UNL A   1      40.040  22.092  26.054  1.00  0.00    -0.269 OA
BRANCH  30  33
ATOM     33  C   UNL A   1      39.322  24.224  26.740  1.00  0.00     0.039 A 
ATOM     34  C   UNL A   1      38.916  24.415  28.060  1.00  0.00     0.014 A 
ATOM     35  C   UNL A   1      40.035  25.208  26.048  1.00  0.00     0.014 A 
ATOM     36  C   UNL A   1      39.281  25.588  28.718  1.00  0.00     0.010 A 
ATOM     37  C   UNL A   1      40.440  26.354  26.721  1.00  0.00     0.010 A 
ATOM     38  C   UNL A   1      40.069  26.547  28.061  1.00  0.00    -0.014 A 
BRANCH  38  39
ATOM     39  C   UNL A   1      40.492  27.777  28.765  1.00  0.00     0.031 A 
ATOM     40  C   UNL A   1      41.887  27.874  29.306  1.00  0.00     0.074 A 
ATOM     41  C   UNL A   1      39.617  28.786  28.937  1.00  0.00     0.049 A 
ATOM     42  N   UNL A   1      42.455  28.869  29.935  1.00  0.00    -0.248 NA
ATOM     43  C   UNL A   1      42.751  26.694  29.133  1.00  0.00     0.031 C 
ATOM     44  C   UNL A   1      38.223  28.785  28.490  1.00  0.00     0.029 A 
ATOM     45  N   UNL A   1      39.776  30.014  29.527  1.00  0.00    -0.354 N 
ATOM     46  C   UNL A   1      43.739  28.434  30.236  1.00  0.00     0.074 A 
ATOM     47  C   UNL A   1      43.852  27.072  29.765  1.00  0.00     0.031 C 
ATOM     48  C   UNL A   1      37.665  29.971  28.789  1.00  0.00     0.029 A 
ATOM     49  C   UNL A   1      38.657  30.808  29.461  1.00  0.00     0.049 A 
ATOM     50  H   UNL A   1      40.615  30.301  29.958  1.00  0.00     0.167 HD
ATOM     51  C   UNL A   1      44.744  29.120  30.825  1.00  0.00     0.031 A 
ATOM     52  C   UNL A   1      38.459  32.073  29.875  1.00  0.00     0.031 A 
ATOM     53  C   UNL A   1      44.638  30.480  31.266  1.00  0.00     0.049 A 
ATOM     54  C   UNL A   1      39.592  32.823  30.516  1.00  0.00     0.074 A 
ATOM     55  C   UNL A   1      45.614  31.278  31.834  1.00  0.00     0.029 A 
ATOM     56  N   UNL A   1      43.487  31.246  31.180  1.00  0.00    -0.354 N 
ATOM     57  N   UNL A   1      40.815  32.411  30.751  1.00  0.00    -0.248 NA
ATOM     58  C   UNL A   1      39.327  34.205  30.940  1.00  0.00     0.031 C 
ATOM     59  C   UNL A   1      45.046  32.527  32.107  1.00  0.00     0.029 A 
ATOM     60  C   UNL A   1      43.725  32.509  31.687  1.00  0.00     0.049 A 
ATOM     61  H   UNL A   1      42.628  30.938  30.811  1.00  0.00     0.167 HD
ATOM     62  C   UNL A   1      41.471  33.490  31.332  1.00  0.00     0.074 A 
ATOM     63  C   UNL A   1      40.511  34.571  31.416  1.00  0.00     0.031 C 
ATOM     64  C   UNL A   1      42.755  33.573  31.752  1.00  0.00     0.031 A 
BRANCH  51  65
ATOM     65  C   UNL A   1      46.049  28.400  31.001  1.00  0.00    -0.014 A 
ATOM     66  C   UNL A   1      46.295  27.649  32.164  1.00  0.00     0.010 A 
ATOM     67  C   UNL A   1      47.033  28.471  30.001  1.00  0.00     0.010 A 
ATOM     68  C   UNL A   1      47.523  27.012  32.343  1.00  0.00     0.020 A 
ATOM     69  C   UNL A   1      48.258  27.819  30.168  1.00  0.00     0.020 A 
ATOM     70  C   UNL A   1      48.499  27.106  31.346  1.00  0.00     0.054 A 
BRANCH  70  71
ATOM     71  S   UNL A   1      50.090  26.279  31.618  1.00  0.00     0.124 S 
ATOM     72  O   UNL A   1      49.689  25.091  32.368  1.00  0.00    -0.237 OA
ATOM     73  O   UNL A   1      50.557  26.034  30.256  1.00  0.00    -0.237 OA
ATOM     74  O   UNL A   1      50.867  27.258  32.375  1.00  0.00    -0.744 OA
ENDBRANCH  70  71
ENDBRANCH  51  65
BRANCH  52  75
ATOM     75  C   UNL A   1      37.145  32.723  29.637  1.00  0.00    -0.014 A 
ATOM     76  C   UNL A   1      36.198  32.795  30.674  1.00  0.00     0.010 A 
ATOM     77  C   UNL A   1      36.856  33.324  28.399  1.00  0.00     0.010 A 
ATOM     78  C   UNL A   1      34.987  33.463  30.480  1.00  0.00     0.020 A 
ATOM     79  C   UNL A   1      35.649  34.002  28.205  1.00  0.00     0.020 A 
ATOM     80  C   UNL A   1      34.723  34.070  29.248  1.00  0.00     0.054 A 
BRANCH  80  81
ATOM     81  S   UNL A   1      33.169  34.985  29.050  1.00  0.00     0.124 S 
ATOM     82  O   UNL A   1      33.638  36.304  28.639  1.00  0.00    -0.237 OA
ATOM     83  O   UNL A   1      32.484  34.208  28.020  1.00  0.00    -0.237 OA
ATOM     84  O   UNL A   1      32.561  34.922  30.377  1.00  0.00    -0.744 OA
ENDBRANCH  80  81
ENDBRANCH  52  75
BRANCH  64  85
ATOM     85  C   UNL A   1      43.226  34.873  32.334  1.00  0.00    -0.014 A 
ATOM     86  C   UNL A   1      43.785  35.859  31.505  1.00  0.00     0.010 A 
ATOM     87  C   UNL A   1      42.953  35.170  33.682  1.00  0.00     0.010 A 
ATOM     88  C   UNL A   1      44.040  37.136  32.010  1.00  0.00     0.020 A 
ATOM     89  C   UNL A   1      43.199  36.448  34.186  1.00  0.00     0.020 A 
ATOM     90  C   UNL A   1      43.732  37.426  33.344  1.00  0.00     0.054 A 
BRANCH  90  91
ATOM     91  S   UNL A   1      43.966  39.125  33.936  1.00  0.00     0.124 S 
ATOM     92  O   UNL A   1      45.145  39.551  33.186  1.00  0.00    -0.237 OA
ATOM     93  O   UNL A   1      42.712  39.767  33.553  1.00  0.00    -0.237 OA
ATOM     94  O   UNL A   1      44.167  38.968  35.374  1.00  0.00    -0.744 OA
ENDBRANCH  90  91
ENDBRANCH  64  85
ENDBRANCH  38  39
ENDBRANCH  30  33
ENDBRANCH  28  29
ENDBRANCH   1  28
TORSDOF 17
ENDMDL
MODEL 2
REMARK VINA RESULT:     -11.2      2.819      9.177
REMARK SMILES Cc1cc(OC(F)(F)F)cc2c1O[C@@H](C(F)(F)F)C(C(=O)NCCCCNC(=O)c1ccc(-c3c4nc(c(-c5ccc(S(=O)(=O)[O-])cc5)c5ccc([nH]5)c(-c5ccc(S(=O)(=O)[O-])cc5)c5nc(c(-c6ccc(S(=O)(=O)[O-])cc6)c6ccc3[nH]6)C=C5)C=C4)cc1)=C2
REMARK SMILES IDX 25 1 24 2 23 3 22 4 20 5 21 6 19 8 1 9 2 10 3 11 12 12 4 13
REMARK SMILES IDX 11 14 13 15 10 16 90 17 14 18 5 19 6 20 7 21 8 22 9 23 15 24
REMARK SMILES IDX 16 25 17 26 18 27 26 28 27 29 28 30 29 32 30 33 31 34 89 35
REMARK SMILES IDX 32 36 88 37 33 38 34 39 35 40 82 41 36 42 87 43 81 44 83 45
REMARK SMILES IDX 37 46 86 47 80 48 79 49 38 51 68 52 49 53 67 54 50 55 53 56
REMARK SMILES IDX 66 57 84 58 51 59 52 60 65 62 85 63 54 64 39 65 40 66 48 67
REMARK SMILES IDX 41 68 47 69 42 70 43 71 44 72 45 73 46 74 69 75 70 76 78 77
REMARK SMILES IDX 71 78 77 79 72 80 73 81 74 82 75 83 76 84 55 85 56 86 64 87
REMARK SMILES IDX 57 88 63 89 58 90 59 91 60 92 61 93 62 94
REMARK H PARENT 22 7 27 31 83 50 53 61
REMARK Flexibility Score: inf
ROOT
ATOM      1  C   UNL A   1      33.863  28.603  25.369  1.00  0.00     0.023 C 
ENDROOT
BRANCH   1   2
ATOM      2  C   UNL A   1      33.425  27.296  24.705  1.00  0.00     0.023 C 
BRANCH   2   3
ATOM      3  C   UNL A   1      31.997  27.316  24.164  1.00  0.00     0.116 C 
BRANCH   3   4
ATOM      4  N   UNL A   1      31.952  26.875  22.784  1.00  0.00    -0.352 N 
ATOM      5  C   UNL A   1      32.181  25.712  22.134  1.00  0.00     0.251 C 
ATOM      6  O   UNL A   1      31.936  25.721  20.923  1.00  0.00    -0.270 OA
ATOM      7  H   UNL A   1      31.690  27.600  22.170  1.00  0.00     0.163 HD
BRANCH   5   8
ATOM      8  C   UNL A   1      32.695  24.464  22.769  1.00  0.00     0.067 C 
ATOM      9  C   UNL A   1      33.576  19.852  24.896  1.00  0.00     0.048 C 
ATOM     10  C   UNL A   1      34.402  21.057  24.544  1.00  0.00    -0.005 A 
ATOM     11  C   UNL A   1      35.748  21.111  24.948  1.00  0.00     0.054 A 
ATOM     12  C   UNL A   1      33.843  22.164  23.895  1.00  0.00     0.131 A 
ATOM     13  C   UNL A   1      36.535  22.231  24.670  1.00  0.00     0.130 A 
ATOM     14  C   UNL A   1      34.626  23.282  23.600  1.00  0.00     0.021 A 
ATOM     15  O   UNL A   1      32.524  22.101  23.528  1.00  0.00    -0.475 OA
ATOM     16  C   UNL A   1      35.967  23.311  23.988  1.00  0.00     0.058 A 
ATOM     17  C   UNL A   1      34.034  24.403  22.883  1.00  0.00     0.025 C 
ATOM     18  C   UNL A   1      31.845  23.383  23.380  1.00  0.00     0.314 C 
BRANCH  13  19
ATOM     19  O   UNL A   1      37.848  22.407  25.003  1.00  0.00    -0.406 OA
BRANCH  19  20
ATOM     20  C   UNL A   1      38.145  23.254  26.098  1.00  0.00     0.573 C 
ATOM     21  F   UNL A   1      37.037  23.535  26.816  1.00  0.00    -0.132 F 
ATOM     22  F   UNL A   1      39.077  22.701  26.905  1.00  0.00    -0.132 F 
ATOM     23  F   UNL A   1      38.642  24.418  25.623  1.00  0.00    -0.132 F 
ENDBRANCH  19  20
ENDBRANCH  13  19
BRANCH  18  24
ATOM     24  C   UNL A   1      31.182  23.784  24.710  1.00  0.00     0.429 C 
ATOM     25  F   UNL A   1      30.180  24.678  24.550  1.00  0.00    -0.167 F 
ATOM     26  F   UNL A   1      30.666  22.728  25.376  1.00  0.00    -0.167 F 
ATOM     27  F   UNL A   1      32.100  24.357  25.530  1.00  0.00    -0.167 F 
ENDBRANCH  18  24
ENDBRANCH   5   8
ENDBRANCH   3   4
ENDBRANCH   2   3
ENDBRANCH   1   2
BRANCH   1  28
ATOM     28  C   UNL A   1      33.801  28.597  26.891  1.00  0.00     0.116 C 
BRANCH  28  29
ATOM     29  N   UNL A   1      33.597  29.920  27.465  1.00  0.00    -0.352 N 
ATOM     30  C   UNL A   1      34.501  30.664  28.185  1.00  0.00     0.251 C 
ATOM     31  H   UNL A   1      32.712  30.327  27.321  1.00  0.00     0.163 HD
ATOM     32  O   UNL A   1      34.191  31.744  28.672  1.00  0.00    -0.269 OA
BRANCH  30  33
ATOM     33  C   UNL A   1      35.842  30.093  28.386  1.00  0.00     0.039 A 
ATOM     34  C   UNL A   1      36.775  30.196  27.355  1.00  0.00     0.014 A 
ATOM     35  C   UNL A   1      36.198  29.595  29.643  1.00  0.00     0.014 A 
ATOM     36  C   UNL A   1      38.100  29.847  27.604  1.00  0.00     0.010 A 
ATOM     37  C   UNL A   1      37.530  29.295  29.903  1.00  0.00     0.010 A 
ATOM     38  C   UNL A   1      38.488  29.424  28.885  1.00  0.00    -0.014 A 
BRANCH  38  39
ATOM     39  C   UNL A   1      39.901  29.090  29.167  1.00  0.00     0.031 A 
ATOM     40  C   UNL A   1      40.776  30.099  29.847  1.00  0.00     0.074 A 
ATOM     41  C   UNL A   1      40.395  27.895  28.789  1.00  0.00     0.049 A 
ATOM     42  N   UNL A   1      42.031  29.992  30.198  1.00  0.00    -0.248 NA
ATOM     43  C   UNL A   1      40.169  31.403  30.160  1.00  0.00     0.031 C 
ATOM     44  C   UNL A   1      39.647  26.853  28.084  1.00  0.00     0.029 A 
ATOM     45  N   UNL A   1      41.644  27.354  28.955  1.00  0.00    -0.354 N 
ATOM     46  C   UNL A   1      42.363  31.214  30.767  1.00  0.00     0.074 A 
ATOM     47  C   UNL A   1      41.197  32.063  30.673  1.00  0.00     0.031 C 
ATOM     48  C   UNL A   1      40.442  25.783  27.911  1.00  0.00     0.029 A 
ATOM     49  C   UNL A   1      41.757  26.070  28.478  1.00  0.00     0.049 A 
ATOM     50  H   UNL A   1      42.391  27.840  29.376  1.00  0.00     0.167 HD
ATOM     51  C   UNL A   1      43.528  31.586  31.344  1.00  0.00     0.031 A 
ATOM     52  C   UNL A   1      42.796  25.215  28.515  1.00  0.00     0.031 A 
ATOM     53  C   UNL A   1      44.675  30.733  31.461  1.00  0.00     0.049 A 
ATOM     54  C   UNL A   1      44.078  25.642  29.171  1.00  0.00     0.074 A 
ATOM     55  C   UNL A   1      45.888  31.001  32.069  1.00  0.00     0.029 A 
ATOM     56  N   UNL A   1      44.746  29.441  30.965  1.00  0.00    -0.354 N 
ATOM     57  N   UNL A   1      44.360  26.786  29.747  1.00  0.00    -0.248 NA
ATOM     58  C   UNL A   1      45.176  24.666  29.194  1.00  0.00     0.031 C 
ATOM     59  C   UNL A   1      46.701  29.872  31.926  1.00  0.00     0.029 A 
ATOM     60  C   UNL A   1      45.985  28.897  31.250  1.00  0.00     0.049 A 
ATOM     61  H   UNL A   1      44.023  28.979  30.483  1.00  0.00     0.167 HD
ATOM     62  C   UNL A   1      45.661  26.661  30.217  1.00  0.00     0.074 A 
ATOM     63  C   UNL A   1      46.114  25.333  29.859  1.00  0.00     0.031 C 
ATOM     64  C   UNL A   1      46.409  27.568  30.890  1.00  0.00     0.031 A 
BRANCH  51  65
ATOM     65  C   UNL A   1      43.597  32.974  31.908  1.00  0.00    -0.014 A 
ATOM     66  C   UNL A   1      44.022  34.048  31.105  1.00  0.00     0.010 A 
ATOM     67  C   UNL A   1      43.234  33.211  33.244  1.00  0.00     0.010 A 
ATOM     68  C   UNL A   1      44.122  35.331  31.642  1.00  0.00     0.020 A 
ATOM     69  C   UNL A   1      43.316  34.499  33.781  1.00  0.00     0.020 A 
ATOM     70  C   UNL A   1      43.774  35.547  32.979  1.00  0.00     0.054 A 
BRANCH  70  71
ATOM     71  S   UNL A   1      43.930  37.225  33.649  1.00  0.00     0.124 S 
ATOM     72  O   UNL A   1      44.117  38.019  32.436  1.00  0.00    -0.237 OA
ATOM     73  O   UNL A   1      42.654  37.414  34.333  1.00  0.00    -0.237 OA
ATOM     74  O   UNL A   1      45.099  37.144  34.522  1.00  0.00    -0.744 OA
ENDBRANCH  70  71
ENDBRANCH  51  65
BRANCH  52  75
ATOM     75  C   UNL A   1      42.636  23.847  27.959  1.00  0.00    -0.014 A 
ATOM     76  C   UNL A   1      42.193  22.800  28.785  1.00  0.00     0.010 A 
ATOM     77  C   UNL A   1      42.866  23.597  26.594  1.00  0.00     0.010 A 
ATOM     78  C   UNL A   1      41.975  21.526  28.255  1.00  0.00     0.020 A 
ATOM     79  C   UNL A   1      42.640  22.325  26.059  1.00  0.00     0.020 A 
ATOM     80  C   UNL A   1      42.192  21.298  26.893  1.00  0.00     0.054 A 
BRANCH  80  81
ATOM     81  S   UNL A   1      41.838  19.649  26.224  1.00  0.00     0.124 S 
ATOM     82  O   UNL A   1      42.344  18.775  27.276  1.00  0.00    -0.237 OA
ATOM     83  O   UNL A   1      40.385  19.684  26.074  1.00  0.00    -0.237 OA
ATOM     84  O   UNL A   1      42.587  19.619  24.970  1.00  0.00    -0.744 OA
ENDBRANCH  80  81
ENDBRANCH  52  75
BRANCH  64  85
ATOM     85  C   UNL A   1      47.795  27.172  31.305  1.00  0.00    -0.014 A 
ATOM     86  C   UNL A   1      48.022  26.610  32.571  1.00  0.00     0.010 A 
ATOM     87  C   UNL A   1      48.839  27.210  30.363  1.00  0.00     0.010 A 
ATOM     88  C   UNL A   1      49.270  26.065  32.882  1.00  0.00     0.020 A 
ATOM     89  C   UNL A   1      50.084  26.657  30.667  1.00  0.00     0.020 A 
ATOM     90  C   UNL A   1      50.288  26.079  31.922  1.00  0.00     0.054 A 
BRANCH  90  91
ATOM     91  S   UNL A   1      51.858  25.258  32.316  1.00  0.00     0.124 S 
ATOM     92  O   UNL A   1      52.768  25.853  31.341  1.00  0.00    -0.237 OA
ATOM     93  O   UNL A   1      52.079  25.652  33.705  1.00  0.00    -0.237 OA
ATOM     94  O   UNL A   1      51.569  23.840  32.113  1.00  0.00    -0.744 OA
ENDBRANCH  90  91
ENDBRANCH  64  85
ENDBRANCH  38  39
ENDBRANCH  30  33
ENDBRANCH  28  29
ENDBRANCH   1  28
TORSDOF 17
ENDMDL
MODEL 3
REMARK VINA RESULT:     -11.1      2.052      2.591
REMARK SMILES Cc1cc(OC(F)(F)F)cc2c1O[C@@H](C(F)(F)F)C(C(=O)NCCCCNC(=O)c1ccc(-c3c4nc(c(-c5ccc(S(=O)(=O)[O-])cc5)c5ccc([nH]5)c(-c5ccc(S(=O)(=O)[O-])cc5)c5nc(c(-c6ccc(S(=O)(=O)[O-])cc6)c6ccc3[nH]6)C=C5)C=C4)cc1)=C2
REMARK SMILES IDX 25 1 24 2 23 3 22 4 20 5 21 6 19 8 1 9 2 10 3 11 12 12 4 13
REMARK SMILES IDX 11 14 13 15 10 16 90 17 14 18 5 19 6 20 7 21 8 22 9 23 15 24
REMARK SMILES IDX 16 25 17 26 18 27 26 28 27 29 28 30 29 32 30 33 31 34 89 35
REMARK SMILES IDX 32 36 88 37 33 38 34 39 35 40 82 41 36 42 87 43 81 44 83 45
REMARK SMILES IDX 37 46 86 47 80 48 79 49 38 51 68 52 49 53 67 54 50 55 53 56
REMARK SMILES IDX 66 57 84 58 51 59 52 60 65 62 85 63 54 64 39 65 40 66 48 67
REMARK SMILES IDX 41 68 47 69 42 70 43 71 44 72 45 73 46 74 69 75 70 76 78 77
REMARK SMILES IDX 71 78 77 79 72 80 73 81 74 82 75 83 76 84 55 85 56 86 64 87
REMARK SMILES IDX 57 88 63 89 58 90 59 91 60 92 61 93 62 94
REMARK H PARENT 22 7 27 31 83 50 53 61
REMARK Flexibility Score: inf
ROOT
ATOM      1  C   UNL A   1      35.350  23.741  25.744  1.00  0.00     0.023 C 
ENDROOT
BRANCH   1   2
ATOM      2  C   UNL A   1      34.442  22.871  26.616  1.00  0.00     0.023 C 
BRANCH   2   3
ATOM      3  C   UNL A   1      33.249  22.270  25.874  1.00  0.00     0.116 C 
BRANCH   3   4
ATOM      4  N   UNL A   1      32.022  22.442  26.627  1.00  0.00    -0.352 N 
ATOM      5  C   UNL A   1      31.101  23.422  26.761  1.00  0.00     0.251 C 
ATOM      6  O   UNL A   1      30.116  23.138  27.451  1.00  0.00    -0.270 OA
ATOM      7  H   UNL A   1      31.808  21.652  27.174  1.00  0.00     0.163 HD
BRANCH   5   8
ATOM      8  C   UNL A   1      31.199  24.779  26.149  1.00  0.00     0.067 C 
ATOM      9  C   UNL A   1      30.785  29.198  23.526  1.00  0.00     0.048 C 
ATOM     10  C   UNL A   1      31.686  28.658  24.601  1.00  0.00    -0.005 A 
ATOM     11  C   UNL A   1      32.808  29.406  25.000  1.00  0.00     0.054 A 
ATOM     12  C   UNL A   1      31.482  27.390  25.160  1.00  0.00     0.131 A 
ATOM     13  C   UNL A   1      33.687  28.918  25.970  1.00  0.00     0.130 A 
ATOM     14  C   UNL A   1      32.346  26.900  26.140  1.00  0.00     0.021 A 
ATOM     15  O   UNL A   1      30.394  26.667  24.743  1.00  0.00    -0.475 OA
ATOM     16  C   UNL A   1      33.444  27.665  26.541  1.00  0.00     0.058 A 
ATOM     17  C   UNL A   1      32.088  25.599  26.740  1.00  0.00     0.025 C 
ATOM     18  C   UNL A   1      30.499  25.220  24.892  1.00  0.00     0.314 C 
BRANCH  13  19
ATOM     19  O   UNL A   1      34.805  29.542  26.444  1.00  0.00    -0.406 OA
BRANCH  19  20
ATOM     20  C   UNL A   1      34.665  30.390  27.569  1.00  0.00     0.573 C 
ATOM     21  F   UNL A   1      35.182  31.613  27.328  1.00  0.00    -0.132 F 
ATOM     22  F   UNL A   1      33.369  30.511  27.931  1.00  0.00    -0.132 F 
ATOM     23  F   UNL A   1      35.339  29.847  28.608  1.00  0.00    -0.132 F 
ENDBRANCH  19  20
ENDBRANCH  13  19
BRANCH  18  24
ATOM     24  C   UNL A   1      31.072  24.600  23.604  1.00  0.00     0.429 C 
ATOM     25  F   UNL A   1      30.810  25.339  22.503  1.00  0.00    -0.167 F 
ATOM     26  F   UNL A   1      32.411  24.431  23.657  1.00  0.00    -0.167 F 
ATOM     27  F   UNL A   1      30.527  23.373  23.400  1.00  0.00    -0.167 F 
ENDBRANCH  18  24
ENDBRANCH   5   8
ENDBRANCH   3   4
ENDBRANCH   2   3
ENDBRANCH   1   2
BRANCH   1  28
ATOM     28  C   UNL A   1      36.797  23.820  26.212  1.00  0.00     0.116 C 
BRANCH  28  29
ATOM     29  N   UNL A   1      37.518  22.562  26.072  1.00  0.00    -0.352 N 
ATOM     30  C   UNL A   1      38.865  22.351  26.246  1.00  0.00     0.251 C 
ATOM     31  H   UNL A   1      36.980  21.775  25.826  1.00  0.00     0.163 HD
ATOM     32  O   UNL A   1      39.369  21.253  26.040  1.00  0.00    -0.269 OA
BRANCH  30  33
ATOM     33  C   UNL A   1      39.687  23.503  26.646  1.00  0.00     0.039 A 
ATOM     34  C   UNL A   1      39.778  24.593  25.780  1.00  0.00     0.014 A 
ATOM     35  C   UNL A   1      40.236  23.546  27.931  1.00  0.00     0.014 A 
ATOM     36  C   UNL A   1      40.379  25.767  26.231  1.00  0.00     0.010 A 
ATOM     37  C   UNL A   1      40.790  24.733  28.394  1.00  0.00     0.010 A 
ATOM     38  C   UNL A   1      40.860  25.851  27.547  1.00  0.00    -0.014 A 
BRANCH  38  39
ATOM     39  C   UNL A   1      41.464  27.106  28.044  1.00  0.00     0.031 A 
ATOM     40  C   UNL A   1      42.948  27.298  27.952  1.00  0.00     0.074 A 
ATOM     41  C   UNL A   1      40.682  28.053  28.597  1.00  0.00     0.049 A 
ATOM     42  N   UNL A   1      43.665  28.329  28.312  1.00  0.00    -0.248 NA
ATOM     43  C   UNL A   1      43.729  26.180  27.397  1.00  0.00     0.031 C 
ATOM     44  C   UNL A   1      39.232  27.957  28.778  1.00  0.00     0.029 A 
ATOM     45  N   UNL A   1      40.999  29.288  29.102  1.00  0.00    -0.354 N 
ATOM     46  C   UNL A   1      44.980  27.983  28.033  1.00  0.00     0.074 A 
ATOM     47  C   UNL A   1      44.969  26.632  27.518  1.00  0.00     0.031 C 
ATOM     48  C   UNL A   1      38.780  29.102  29.318  1.00  0.00     0.029 A 
ATOM     49  C   UNL A   1      39.909  30.003  29.536  1.00  0.00     0.049 A 
ATOM     50  H   UNL A   1      41.921  29.631  29.149  1.00  0.00     0.167 HD
ATOM     51  C   UNL A   1      46.096  28.735  28.165  1.00  0.00     0.031 A 
ATOM     52  C   UNL A   1      39.826  31.252  30.032  1.00  0.00     0.031 A 
ATOM     53  C   UNL A   1      46.102  30.085  28.650  1.00  0.00     0.049 A 
ATOM     54  C   UNL A   1      41.075  32.077  30.160  1.00  0.00     0.074 A 
ATOM     55  C   UNL A   1      47.175  30.948  28.779  1.00  0.00     0.029 A 
ATOM     56  N   UNL A   1      44.976  30.770  29.078  1.00  0.00    -0.354 N 
ATOM     57  N   UNL A   1      42.306  31.750  29.846  1.00  0.00    -0.248 NA
ATOM     58  C   UNL A   1      40.928  33.437  30.696  1.00  0.00     0.031 C 
ATOM     59  C   UNL A   1      46.699  32.154  29.302  1.00  0.00     0.029 A 
ATOM     60  C   UNL A   1      45.327  32.046  29.476  1.00  0.00     0.049 A 
ATOM     61  H   UNL A   1      44.063  30.404  29.096  1.00  0.00     0.167 HD
ATOM     62  C   UNL A   1      43.077  32.870  30.130  1.00  0.00     0.074 A 
ATOM     63  C   UNL A   1      42.178  33.884  30.641  1.00  0.00     0.031 C 
ATOM     64  C   UNL A   1      44.412  33.041  29.974  1.00  0.00     0.031 A 
BRANCH  51  65
ATOM     65  C   UNL A   1      47.395  28.107  27.756  1.00  0.00    -0.014 A 
ATOM     66  C   UNL A   1      48.175  27.409  28.695  1.00  0.00     0.010 A 
ATOM     67  C   UNL A   1      47.839  28.209  26.427  1.00  0.00     0.010 A 
ATOM     68  C   UNL A   1      49.400  26.858  28.321  1.00  0.00     0.020 A 
ATOM     69  C   UNL A   1      49.058  27.643  26.044  1.00  0.00     0.020 A 
ATOM     70  C   UNL A   1      49.837  26.984  26.999  1.00  0.00     0.054 A 
BRANCH  70  71
ATOM     71  S   UNL A   1      51.443  26.269  26.551  1.00  0.00     0.124 S 
ATOM     72  O   UNL A   1      52.352  26.983  27.445  1.00  0.00    -0.237 OA
ATOM     73  O   UNL A   1      51.253  24.852  26.848  1.00  0.00    -0.237 OA
ATOM     74  O   UNL A   1      51.585  26.593  25.133  1.00  0.00    -0.744 OA
ENDBRANCH  70  71
ENDBRANCH  51  65
BRANCH  52  75
ATOM     75  C   UNL A   1      38.496  31.811  30.388  1.00  0.00    -0.014 A 
ATOM     76  C   UNL A   1      37.978  31.623  31.681  1.00  0.00     0.010 A 
ATOM     77  C   UNL A   1      37.772  32.581  29.460  1.00  0.00     0.010 A 
ATOM     78  C   UNL A   1      36.760  32.201  32.045  1.00  0.00     0.020 A 
ATOM     79  C   UNL A   1      36.557  33.169  29.825  1.00  0.00     0.020 A 
ATOM     80  C   UNL A   1      36.060  32.979  31.116  1.00  0.00     0.054 A 
BRANCH  80  81
ATOM     81  S   UNL A   1      34.514  33.769  31.641  1.00  0.00     0.124 S 
ATOM     82  O   UNL A   1      34.997  34.941  32.363  1.00  0.00    -0.237 OA
ATOM     83  O   UNL A   1      33.857  34.038  30.364  1.00  0.00    -0.237 OA
ATOM     84  O   UNL A   1      33.868  32.749  32.464  1.00  0.00    -0.744 OA
ENDBRANCH  80  81
ENDBRANCH  52  75
BRANCH  64  85
ATOM     85  C   UNL A   1      45.002  34.370  30.342  1.00  0.00    -0.014 A 
ATOM     86  C   UNL A   1      45.035  35.415  29.404  1.00  0.00     0.010 A 
ATOM     87  C   UNL A   1      45.369  34.621  31.677  1.00  0.00     0.010 A 
ATOM     88  C   UNL A   1      45.402  36.702  29.804  1.00  0.00     0.020 A 
ATOM     89  C   UNL A   1      45.727  35.908  32.080  1.00  0.00     0.020 A 
ATOM     90  C   UNL A   1      45.732  36.943  31.142  1.00  0.00     0.054 A 
BRANCH  90  91
ATOM     91  S   UNL A   1      46.089  38.648  31.651  1.00  0.00     0.124 S 
ATOM     92  O   UNL A   1      46.010  39.369  30.383  1.00  0.00    -0.237 OA
ATOM     93  O   UNL A   1      45.015  38.925  32.600  1.00  0.00    -0.237 OA
ATOM     94  O   UNL A   1      47.426  38.563  32.236  1.00  0.00    -0.744 OA
ENDBRANCH  90  91
ENDBRANCH  64  85
ENDBRANCH  38  39
ENDBRANCH  30  33
ENDBRANCH  28  29
ENDBRANCH   1  28
TORSDOF 17
ENDMDL
