MODEL 1
REMARK VINA RESULT:     -14.4      0.000      0.000
REMARK SMILES Cc1ccccc1OC1(C(=O)NCCCCNC(=O)c2ccc(-c3c4nc(c(-c5ccc(S(=O)(=O)[O-])cc5)c5ccc([nH]5)c(-c5ccc(S(=O)(=O)[O-])cc5)c5nc(c(-c6ccc(S(=O)(=O)[O-])cc6)c6ccc3[nH]6)C=C5)C=C4)cc2)CCN(C(=O)[C@H]2CCCCO2)CC1
REMARK SMILES IDX 15 1 14 2 13 3 12 4 10 5 11 6 9 8 80 9 92 10 81 11 91 12
REMARK SMILES IDX 82 13 83 14 84 15 8 16 7 17 1 18 2 19 3 20 4 21 6 22 5 23
REMARK SMILES IDX 85 24 86 25 90 26 87 27 89 28 88 29 16 30 17 31 18 32 19 34
REMARK SMILES IDX 20 35 21 36 79 37 22 38 78 39 23 40 24 41 25 42 72 43 26 44
REMARK SMILES IDX 77 45 71 46 73 47 27 48 76 49 70 50 69 51 28 53 58 54 39 55
REMARK SMILES IDX 57 56 40 57 43 58 56 59 74 60 41 61 42 62 55 64 75 65 44 66
REMARK SMILES IDX 29 67 30 68 38 69 31 70 37 71 32 72 33 73 34 74 35 75 36 76
REMARK SMILES IDX 59 77 60 78 68 79 61 80 67 81 62 82 63 83 64 84 65 85 66 86
REMARK SMILES IDX 45 87 46 88 54 89 47 90 53 91 48 92 49 93 50 94 51 95 52 96
REMARK H PARENT 12 7 17 33 73 52 43 63
REMARK Flexibility Score: inf
ROOT
ATOM      1  C   UNL A   1      32.931  29.807  26.804  1.00  0.00     0.023 C 
ENDROOT
BRANCH   1   2
ATOM      2  C   UNL A   1      32.125  28.708  27.488  1.00  0.00     0.023 C 
BRANCH   2   3
ATOM      3  C   UNL A   1      32.314  27.298  26.911  1.00  0.00     0.116 C 
BRANCH   3   4
ATOM      4  N   UNL A   1      31.077  26.544  26.813  1.00  0.00    -0.353 N 
ATOM      5  C   UNL A   1      30.714  25.389  26.184  1.00  0.00     0.264 C 
ATOM      6  O   UNL A   1      29.556  25.028  26.443  1.00  0.00    -0.270 OA
ATOM      7  H   UNL A   1      30.336  26.958  27.311  1.00  0.00     0.163 HD
BRANCH   5   8
ATOM      8  C   UNL A   1      31.639  24.570  25.192  1.00  0.00     0.190 C 
ATOM      9  C   UNL A   1      33.064  24.607  25.732  1.00  0.00     0.080 C 
ATOM     10  C   UNL A   1      30.991  23.215  24.880  1.00  0.00     0.080 C 
ATOM     11  C   UNL A   1      33.568  23.311  26.337  1.00  0.00     0.124 C 
ATOM     12  C   UNL A   1      31.694  21.962  25.403  1.00  0.00     0.124 C 
ATOM     13  N   UNL A   1      33.125  22.106  25.658  1.00  0.00    -0.340 N 
ATOM     14  C   UNL A   1      34.053  21.059  25.590  1.00  0.00     0.251 C 
ATOM     15  O   UNL A   1      35.225  21.227  25.943  1.00  0.00    -0.272 OA
BRANCH   8  16
ATOM     16  O   UNL A   1      31.551  25.433  24.015  1.00  0.00    -0.477 OA
BRANCH  16  17
ATOM     17  C   UNL A   1      31.941  26.705  23.741  1.00  0.00     0.123 A 
ATOM     18  C   UNL A   1      29.750  28.068  23.532  1.00  0.00     0.048 C 
ATOM     19  C   UNL A   1      31.232  27.894  23.519  1.00  0.00    -0.009 A 
ATOM     20  C   UNL A   1      31.945  29.074  23.182  1.00  0.00     0.007 A 
ATOM     21  C   UNL A   1      33.331  29.100  23.095  1.00  0.00     0.001 A 
ATOM     22  C   UNL A   1      33.348  26.761  23.644  1.00  0.00     0.047 A 
ATOM     23  C   UNL A   1      34.039  27.936  23.334  1.00  0.00     0.004 A 
ENDBRANCH  16  17
ENDBRANCH   8  16
BRANCH  14  24
ATOM     24  C   UNL A   1      33.611  19.713  24.978  1.00  0.00     0.207 C 
ATOM     25  C   UNL A   1      34.882  18.947  24.584  1.00  0.00     0.042 C 
ATOM     26  O   UNL A   1      32.862  18.986  25.958  1.00  0.00    -0.368 OA
ATOM     27  C   UNL A   1      34.603  17.490  24.239  1.00  0.00     0.006 C 
ATOM     28  C   UNL A   1      32.485  17.685  25.530  1.00  0.00     0.161 C 
ATOM     29  C   UNL A   1      33.729  16.842  25.302  1.00  0.00     0.029 C 
ENDBRANCH  14  24
ENDBRANCH   5   8
ENDBRANCH   3   4
ENDBRANCH   2   3
ENDBRANCH   1   2
BRANCH   1  30
ATOM     30  C   UNL A   1      34.435  29.647  26.995  1.00  0.00     0.116 C 
BRANCH  30  31
ATOM     31  N   UNL A   1      35.125  30.874  27.365  1.00  0.00    -0.352 N 
ATOM     32  C   UNL A   1      36.371  30.989  27.962  1.00  0.00     0.251 C 
ATOM     33  H   UNL A   1      34.655  31.717  27.169  1.00  0.00     0.163 HD
ATOM     34  O   UNL A   1      36.779  32.043  28.423  1.00  0.00    -0.269 OA
BRANCH  32  35
ATOM     35  C   UNL A   1      37.245  29.796  27.920  1.00  0.00     0.039 A 
ATOM     36  C   UNL A   1      37.257  28.969  29.048  1.00  0.00     0.014 A 
ATOM     37  C   UNL A   1      38.230  29.690  26.942  1.00  0.00     0.014 A 
ATOM     38  C   UNL A   1      38.369  28.169  29.297  1.00  0.00     0.010 A 
ATOM     39  C   UNL A   1      39.377  28.983  27.246  1.00  0.00     0.010 A 
ATOM     40  C   UNL A   1      39.470  28.264  28.448  1.00  0.00    -0.014 A 
BRANCH  40  41
ATOM     41  C   UNL A   1      40.791  27.728  28.767  1.00  0.00     0.031 A 
ATOM     42  C   UNL A   1      41.111  26.313  28.456  1.00  0.00     0.074 A 
ATOM     43  C   UNL A   1      41.762  28.542  29.240  1.00  0.00     0.049 A 
ATOM     44  N   UNL A   1      42.102  25.653  28.958  1.00  0.00    -0.248 NA
ATOM     45  C   UNL A   1      40.265  25.497  27.590  1.00  0.00     0.031 C 
ATOM     46  C   UNL A   1      43.197  28.266  29.255  1.00  0.00     0.029 A 
ATOM     47  N   UNL A   1      41.637  29.698  30.017  1.00  0.00    -0.354 N 
ATOM     48  C   UNL A   1      42.216  24.477  28.249  1.00  0.00     0.074 A 
ATOM     49  C   UNL A   1      40.985  24.377  27.503  1.00  0.00     0.031 C 
ATOM     50  C   UNL A   1      43.766  29.002  30.221  1.00  0.00     0.029 A 
ATOM     51  C   UNL A   1      42.692  29.659  30.946  1.00  0.00     0.049 A 
ATOM     52  H   UNL A   1      40.950  30.397  29.930  1.00  0.00     0.167 HD
ATOM     53  C   UNL A   1      43.403  23.802  28.245  1.00  0.00     0.031 A 
ATOM     54  C   UNL A   1      42.528  29.633  32.302  1.00  0.00     0.031 A 
ATOM     55  C   UNL A   1      44.332  24.340  29.240  1.00  0.00     0.049 A 
ATOM     56  C   UNL A   1      43.182  28.438  32.962  1.00  0.00     0.074 A 
ATOM     57  C   UNL A   1      45.459  25.143  29.159  1.00  0.00     0.029 A 
ATOM     58  N   UNL A   1      43.990  24.281  30.587  1.00  0.00    -0.354 N 
ATOM     59  N   UNL A   1      43.634  27.405  32.308  1.00  0.00    -0.248 NA
ATOM     60  C   UNL A   1      43.328  28.282  34.408  1.00  0.00     0.031 C 
ATOM     61  C   UNL A   1      45.732  25.645  30.460  1.00  0.00     0.029 A 
ATOM     62  C   UNL A   1      44.795  25.122  31.332  1.00  0.00     0.049 A 
ATOM     63  H   UNL A   1      43.273  23.718  30.959  1.00  0.00     0.167 HD
ATOM     64  C   UNL A   1      44.095  26.463  33.187  1.00  0.00     0.074 A 
ATOM     65  C   UNL A   1      43.903  27.068  34.493  1.00  0.00     0.031 C 
ATOM     66  C   UNL A   1      44.579  25.257  32.767  1.00  0.00     0.031 A 
BRANCH  53  67
ATOM     67  C   UNL A   1      43.820  22.853  27.133  1.00  0.00    -0.014 A 
ATOM     68  C   UNL A   1      42.935  21.836  26.710  1.00  0.00     0.010 A 
ATOM     69  C   UNL A   1      45.094  22.833  26.533  1.00  0.00     0.010 A 
ATOM     70  C   UNL A   1      43.335  20.810  25.833  1.00  0.00     0.020 A 
ATOM     71  C   UNL A   1      45.517  21.805  25.677  1.00  0.00     0.020 A 
ATOM     72  C   UNL A   1      44.639  20.785  25.347  1.00  0.00     0.054 A 
BRANCH  72  73
ATOM     73  S   UNL A   1      45.182  19.410  24.300  1.00  0.00     0.124 S 
ATOM     74  O   UNL A   1      44.746  18.244  25.064  1.00  0.00    -0.237 OA
ATOM     75  O   UNL A   1      44.461  19.657  23.056  1.00  0.00    -0.237 OA
ATOM     76  O   UNL A   1      46.632  19.586  24.221  1.00  0.00    -0.744 OA
ENDBRANCH  72  73
ENDBRANCH  53  67
BRANCH  54  77
ATOM     77  C   UNL A   1      41.298  30.314  32.787  1.00  0.00    -0.014 A 
ATOM     78  C   UNL A   1      40.194  29.493  33.102  1.00  0.00     0.010 A 
ATOM     79  C   UNL A   1      41.374  31.603  33.342  1.00  0.00     0.010 A 
ATOM     80  C   UNL A   1      39.295  29.871  34.100  1.00  0.00     0.020 A 
ATOM     81  C   UNL A   1      40.467  31.986  34.341  1.00  0.00     0.020 A 
ATOM     82  C   UNL A   1      39.484  31.085  34.762  1.00  0.00     0.054 A 
BRANCH  82  83
ATOM     83  S   UNL A   1      38.584  31.352  36.319  1.00  0.00     0.124 S 
ATOM     84  O   UNL A   1      39.593  31.989  37.158  1.00  0.00    -0.237 OA
ATOM     85  O   UNL A   1      37.489  32.212  35.876  1.00  0.00    -0.237 OA
ATOM     86  O   UNL A   1      38.196  30.002  36.715  1.00  0.00    -0.744 OA
ENDBRANCH  82  83
ENDBRANCH  54  77
BRANCH  66  87
ATOM     87  C   UNL A   1      44.958  24.101  33.659  1.00  0.00    -0.014 A 
ATOM     88  C   UNL A   1      44.062  23.108  34.087  1.00  0.00     0.010 A 
ATOM     89  C   UNL A   1      46.323  23.920  33.988  1.00  0.00     0.010 A 
ATOM     90  C   UNL A   1      44.498  22.017  34.856  1.00  0.00     0.020 A 
ATOM     91  C   UNL A   1      46.773  22.816  34.717  1.00  0.00     0.020 A 
ATOM     92  C   UNL A   1      45.850  21.881  35.170  1.00  0.00     0.054 A 
BRANCH  92  93
ATOM     93  S   UNL A   1      46.423  20.436  36.100  1.00  0.00     0.124 S 
ATOM     94  O   UNL A   1      45.986  19.336  35.245  1.00  0.00    -0.237 OA
ATOM     95  O   UNL A   1      47.869  20.638  36.169  1.00  0.00    -0.237 OA
ATOM     96  O   UNL A   1      45.723  20.557  37.377  1.00  0.00    -0.744 OA
ENDBRANCH  92  93
ENDBRANCH  66  87
ENDBRANCH  40  41
ENDBRANCH  32  35
ENDBRANCH  30  31
ENDBRANCH   1  30
TORSDOF 17
ENDMDL
MODEL 2
REMARK VINA RESULT:     -14.0      1.348      2.264
REMARK SMILES Cc1ccccc1OC1(C(=O)NCCCCNC(=O)c2ccc(-c3c4nc(c(-c5ccc(S(=O)(=O)[O-])cc5)c5ccc([nH]5)c(-c5ccc(S(=O)(=O)[O-])cc5)c5nc(c(-c6ccc(S(=O)(=O)[O-])cc6)c6ccc3[nH]6)C=C5)C=C4)cc2)CCN(C(=O)[C@H]2CCCCO2)CC1
REMARK SMILES IDX 15 1 14 2 13 3 12 4 10 5 11 6 9 8 80 9 92 10 81 11 91 12
REMARK SMILES IDX 82 13 83 14 84 15 8 16 7 17 1 18 2 19 3 20 4 21 6 22 5 23
REMARK SMILES IDX 85 24 86 25 90 26 87 27 89 28 88 29 16 30 17 31 18 32 19 34
REMARK SMILES IDX 20 35 21 36 79 37 22 38 78 39 23 40 24 41 25 42 72 43 26 44
REMARK SMILES IDX 77 45 71 46 73 47 27 48 76 49 70 50 69 51 28 53 58 54 39 55
REMARK SMILES IDX 57 56 40 57 43 58 56 59 74 60 41 61 42 62 55 64 75 65 44 66
REMARK SMILES IDX 29 67 30 68 38 69 31 70 37 71 32 72 33 73 34 74 35 75 36 76
REMARK SMILES IDX 59 77 60 78 68 79 61 80 67 81 62 82 63 83 64 84 65 85 66 86
REMARK SMILES IDX 45 87 46 88 54 89 47 90 53 91 48 92 49 93 50 94 51 95 52 96
REMARK H PARENT 12 7 17 33 73 52 43 63
REMARK Flexibility Score: inf
ROOT
ATOM      1  C   UNL A   1      33.216  30.395  27.012  1.00  0.00     0.023 C 
ENDROOT
BRANCH   1   2
ATOM      2  C   UNL A   1      33.075  29.714  25.655  1.00  0.00     0.023 C 
BRANCH   2   3
ATOM      3  C   UNL A   1      34.307  28.929  25.182  1.00  0.00     0.116 C 
BRANCH   3   4
ATOM      4  N   UNL A   1      34.345  28.725  23.745  1.00  0.00    -0.353 N 
ATOM      5  C   UNL A   1      33.700  27.885  22.885  1.00  0.00     0.264 C 
ATOM      6  O   UNL A   1      33.953  28.107  21.692  1.00  0.00    -0.270 OA
ATOM      7  H   UNL A   1      34.977  29.326  23.289  1.00  0.00     0.163 HD
BRANCH   5   8
ATOM      8  C   UNL A   1      32.734  26.709  23.326  1.00  0.00     0.190 C 
ATOM      9  C   UNL A   1      32.221  26.019  22.067  1.00  0.00     0.080 C 
ATOM     10  C   UNL A   1      33.405  25.869  24.419  1.00  0.00     0.080 C 
ATOM     11  C   UNL A   1      32.805  24.647  21.789  1.00  0.00     0.124 C 
ATOM     12  C   UNL A   1      33.793  24.433  24.065  1.00  0.00     0.124 C 
ATOM     13  N   UNL A   1      33.039  23.832  22.968  1.00  0.00    -0.340 N 
ATOM     14  C   UNL A   1      32.800  22.459  22.828  1.00  0.00     0.251 C 
ATOM     15  O   UNL A   1      32.265  22.010  21.808  1.00  0.00    -0.272 OA
BRANCH   8  16
ATOM     16  O   UNL A   1      31.651  27.496  23.914  1.00  0.00    -0.477 OA
BRANCH  16  17
ATOM     17  C   UNL A   1      30.482  28.001  23.442  1.00  0.00     0.123 A 
ATOM     18  C   UNL A   1      28.671  26.261  24.072  1.00  0.00     0.048 C 
ATOM     19  C   UNL A   1      29.160  27.536  23.467  1.00  0.00    -0.009 A 
ATOM     20  C   UNL A   1      28.148  28.283  22.811  1.00  0.00     0.007 A 
ATOM     21  C   UNL A   1      28.417  29.484  22.167  1.00  0.00     0.001 A 
ATOM     22  C   UNL A   1      30.725  29.223  22.778  1.00  0.00     0.047 A 
ATOM     23  C   UNL A   1      29.715  29.961  22.155  1.00  0.00     0.004 A 
ENDBRANCH  16  17
ENDBRANCH   8  16
BRANCH  14  24
ATOM     24  C   UNL A   1      33.132  21.522  24.008  1.00  0.00     0.207 C 
ATOM     25  C   UNL A   1      32.391  20.199  23.769  1.00  0.00     0.042 C 
ATOM     26  O   UNL A   1      34.548  21.313  24.045  1.00  0.00    -0.368 OA
ATOM     27  C   UNL A   1      32.859  19.089  24.701  1.00  0.00     0.006 C 
ATOM     28  C   UNL A   1      34.956  20.385  25.041  1.00  0.00     0.161 C 
ATOM     29  C   UNL A   1      34.379  19.015  24.728  1.00  0.00     0.029 C 
ENDBRANCH  14  24
ENDBRANCH   5   8
ENDBRANCH   3   4
ENDBRANCH   2   3
ENDBRANCH   1   2
BRANCH   1  30
ATOM     30  C   UNL A   1      34.554  30.109  27.684  1.00  0.00     0.116 C 
BRANCH  30  31
ATOM     31  N   UNL A   1      35.376  31.289  27.907  1.00  0.00    -0.352 N 
ATOM     32  C   UNL A   1      36.685  31.327  28.363  1.00  0.00     0.251 C 
ATOM     33  H   UNL A   1      34.956  32.159  27.712  1.00  0.00     0.163 HD
ATOM     34  O   UNL A   1      37.223  32.364  28.716  1.00  0.00    -0.269 OA
BRANCH  32  35
ATOM     35  C   UNL A   1      37.451  30.063  28.301  1.00  0.00     0.039 A 
ATOM     36  C   UNL A   1      37.477  29.271  29.454  1.00  0.00     0.014 A 
ATOM     37  C   UNL A   1      38.348  29.845  27.260  1.00  0.00     0.014 A 
ATOM     38  C   UNL A   1      38.534  28.387  29.651  1.00  0.00     0.010 A 
ATOM     39  C   UNL A   1      39.451  29.051  27.506  1.00  0.00     0.010 A 
ATOM     40  C   UNL A   1      39.573  28.362  28.723  1.00  0.00    -0.014 A 
BRANCH  40  41
ATOM     41  C   UNL A   1      40.864  27.724  28.965  1.00  0.00     0.031 A 
ATOM     42  C   UNL A   1      41.049  26.284  28.659  1.00  0.00     0.074 A 
ATOM     43  C   UNL A   1      41.927  28.463  29.361  1.00  0.00     0.049 A 
ATOM     44  N   UNL A   1      42.015  25.552  29.108  1.00  0.00    -0.248 NA
ATOM     45  C   UNL A   1      40.086  25.530  27.863  1.00  0.00     0.031 C 
ATOM     46  C   UNL A   1      43.332  28.071  29.289  1.00  0.00     0.029 A 
ATOM     47  N   UNL A   1      41.946  29.634  30.124  1.00  0.00    -0.354 N 
ATOM     48  C   UNL A   1      41.987  24.362  28.413  1.00  0.00     0.074 A 
ATOM     49  C   UNL A   1      40.706  24.354  27.749  1.00  0.00     0.031 C 
ATOM     50  C   UNL A   1      44.021  28.770  30.203  1.00  0.00     0.029 A 
ATOM     51  C   UNL A   1      43.053  29.521  30.984  1.00  0.00     0.049 A 
ATOM     52  H   UNL A   1      41.313  30.385  30.070  1.00  0.00     0.167 HD
ATOM     53  C   UNL A   1      43.113  23.593  28.345  1.00  0.00     0.031 A 
ATOM     54  C   UNL A   1      42.977  29.525  32.348  1.00  0.00     0.031 A 
ATOM     55  C   UNL A   1      44.146  24.066  29.269  1.00  0.00     0.049 A 
ATOM     56  C   UNL A   1      43.574  28.288  32.985  1.00  0.00     0.074 A 
ATOM     57  C   UNL A   1      45.325  24.773  29.101  1.00  0.00     0.029 A 
ATOM     58  N   UNL A   1      43.889  24.051  30.636  1.00  0.00    -0.354 N 
ATOM     59  N   UNL A   1      43.899  27.215  32.322  1.00  0.00    -0.248 NA
ATOM     60  C   UNL A   1      43.802  28.139  34.422  1.00  0.00     0.031 C 
ATOM     61  C   UNL A   1      45.723  25.267  30.373  1.00  0.00     0.029 A 
ATOM     62  C   UNL A   1      44.806  24.833  31.312  1.00  0.00     0.049 A 
ATOM     63  H   UNL A   1      43.155  23.553  31.063  1.00  0.00     0.167 HD
ATOM     64  C   UNL A   1      44.338  26.248  33.186  1.00  0.00     0.074 A 
ATOM     65  C   UNL A   1      44.281  26.883  34.490  1.00  0.00     0.031 C 
ATOM     66  C   UNL A   1      44.696  25.003  32.756  1.00  0.00     0.031 A 
BRANCH  53  67
ATOM     67  C   UNL A   1      43.379  22.599  27.225  1.00  0.00    -0.014 A 
ATOM     68  C   UNL A   1      42.579  21.441  27.111  1.00  0.00     0.010 A 
ATOM     69  C   UNL A   1      44.453  22.684  26.318  1.00  0.00     0.010 A 
ATOM     70  C   UNL A   1      42.898  20.393  26.227  1.00  0.00     0.020 A 
ATOM     71  C   UNL A   1      44.800  21.640  25.448  1.00  0.00     0.020 A 
ATOM     72  C   UNL A   1      44.030  20.488  25.422  1.00  0.00     0.054 A 
BRANCH  72  73
ATOM     73  S   UNL A   1      44.497  19.096  24.360  1.00  0.00     0.124 S 
ATOM     74  O   UNL A   1      44.369  19.667  23.021  1.00  0.00    -0.237 OA
ATOM     75  O   UNL A   1      45.859  18.809  24.798  1.00  0.00    -0.237 OA
ATOM     76  O   UNL A   1      43.512  18.066  24.685  1.00  0.00    -0.744 OA
ENDBRANCH  72  73
ENDBRANCH  53  67
BRANCH  54  77
ATOM     77  C   UNL A   1      41.839  30.309  32.899  1.00  0.00    -0.014 A 
ATOM     78  C   UNL A   1      40.813  29.584  33.541  1.00  0.00     0.010 A 
ATOM     79  C   UNL A   1      41.995  31.676  33.186  1.00  0.00     0.010 A 
ATOM     80  C   UNL A   1      40.093  30.157  34.589  1.00  0.00     0.020 A 
ATOM     81  C   UNL A   1      41.267  32.256  34.235  1.00  0.00     0.020 A 
ATOM     82  C   UNL A   1      40.379  31.468  34.974  1.00  0.00     0.054 A 
BRANCH  82  83
ATOM     83  S   UNL A   1      39.753  32.036  36.584  1.00  0.00     0.124 S 
ATOM     84  O   UNL A   1      38.584  31.187  36.783  1.00  0.00    -0.237 OA
ATOM     85  O   UNL A   1      40.896  31.759  37.453  1.00  0.00    -0.237 OA
ATOM     86  O   UNL A   1      39.475  33.450  36.353  1.00  0.00    -0.744 OA
ENDBRANCH  82  83
ENDBRANCH  54  77
BRANCH  66  87
ATOM     87  C   UNL A   1      45.038  23.830  33.642  1.00  0.00    -0.014 A 
ATOM     88  C   UNL A   1      44.140  22.803  33.974  1.00  0.00     0.010 A 
ATOM     89  C   UNL A   1      46.380  23.673  34.066  1.00  0.00     0.010 A 
ATOM     90  C   UNL A   1      44.546  21.702  34.743  1.00  0.00     0.020 A 
ATOM     91  C   UNL A   1      46.804  22.559  34.797  1.00  0.00     0.020 A 
ATOM     92  C   UNL A   1      45.875  21.589  35.153  1.00  0.00     0.054 A 
BRANCH  92  93
ATOM     93  S   UNL A   1      46.415  20.131  36.084  1.00  0.00     0.124 S 
ATOM     94  O   UNL A   1      47.868  20.259  36.023  1.00  0.00    -0.237 OA
ATOM     95  O   UNL A   1      45.823  20.344  37.403  1.00  0.00    -0.237 OA
ATOM     96  O   UNL A   1      45.848  19.018  35.327  1.00  0.00    -0.744 OA
ENDBRANCH  92  93
ENDBRANCH  66  87
ENDBRANCH  40  41
ENDBRANCH  32  35
ENDBRANCH  30  31
ENDBRANCH   1  30
TORSDOF 17
ENDMDL
MODEL 3
REMARK VINA RESULT:     -13.5      2.512      4.474
REMARK SMILES Cc1ccccc1OC1(C(=O)NCCCCNC(=O)c2ccc(-c3c4nc(c(-c5ccc(S(=O)(=O)[O-])cc5)c5ccc([nH]5)c(-c5ccc(S(=O)(=O)[O-])cc5)c5nc(c(-c6ccc(S(=O)(=O)[O-])cc6)c6ccc3[nH]6)C=C5)C=C4)cc2)CCN(C(=O)[C@H]2CCCCO2)CC1
REMARK SMILES IDX 15 1 14 2 13 3 12 4 10 5 11 6 9 8 80 9 92 10 81 11 91 12
REMARK SMILES IDX 82 13 83 14 84 15 8 16 7 17 1 18 2 19 3 20 4 21 6 22 5 23
REMARK SMILES IDX 85 24 86 25 90 26 87 27 89 28 88 29 16 30 17 31 18 32 19 34
REMARK SMILES IDX 20 35 21 36 79 37 22 38 78 39 23 40 24 41 25 42 72 43 26 44
REMARK SMILES IDX 77 45 71 46 73 47 27 48 76 49 70 50 69 51 28 53 58 54 39 55
REMARK SMILES IDX 57 56 40 57 43 58 56 59 74 60 41 61 42 62 55 64 75 65 44 66
REMARK SMILES IDX 29 67 30 68 38 69 31 70 37 71 32 72 33 73 34 74 35 75 36 76
REMARK SMILES IDX 59 77 60 78 68 79 61 80 67 81 62 82 63 83 64 84 65 85 66 86
REMARK SMILES IDX 45 87 46 88 54 89 47 90 53 91 48 92 49 93 50 94 51 95 52 96
REMARK H PARENT 12 7 17 33 73 52 43 63
REMARK Flexibility Score: inf
ROOT
ATOM      1  C   UNL A   1      33.114  28.275  25.985  1.00  0.00     0.023 C 
ENDROOT
BRANCH   1   2
ATOM      2  C   UNL A   1      32.093  27.149  25.859  1.00  0.00     0.023 C 
BRANCH   2   3
ATOM      3  C   UNL A   1      32.555  25.782  26.385  1.00  0.00     0.116 C 
BRANCH   3   4
ATOM      4  N   UNL A   1      31.495  24.791  26.426  1.00  0.00    -0.353 N 
ATOM      5  C   UNL A   1      31.445  23.441  26.229  1.00  0.00     0.264 C 
ATOM      6  O   UNL A   1      30.332  22.948  26.463  1.00  0.00    -0.270 OA
ATOM      7  H   UNL A   1      30.617  25.178  26.643  1.00  0.00     0.163 HD
BRANCH   5   8
ATOM      8  C   UNL A   1      32.659  22.556  25.727  1.00  0.00     0.190 C 
ATOM      9  C   UNL A   1      33.225  23.196  24.465  1.00  0.00     0.080 C 
ATOM     10  C   UNL A   1      33.600  22.255  26.900  1.00  0.00     0.080 C 
ATOM     11  C   UNL A   1      34.563  23.892  24.627  1.00  0.00     0.124 C 
ATOM     12  C   UNL A   1      34.995  22.881  26.861  1.00  0.00     0.124 C 
ATOM     13  N   UNL A   1      35.487  23.234  25.532  1.00  0.00    -0.340 N 
ATOM     14  C   UNL A   1      36.840  23.279  25.173  1.00  0.00     0.251 C 
ATOM     15  O   UNL A   1      37.189  23.710  24.069  1.00  0.00    -0.272 OA
BRANCH   8  16
ATOM     16  O   UNL A   1      31.934  21.340  25.362  1.00  0.00    -0.477 OA
BRANCH  16  17
ATOM     17  C   UNL A   1      32.255  20.217  24.666  1.00  0.00     0.123 A 
ATOM     18  C   UNL A   1      31.873  20.815  22.177  1.00  0.00     0.048 C 
ATOM     19  C   UNL A   1      32.256  19.908  23.299  1.00  0.00    -0.009 A 
ATOM     20  C   UNL A   1      32.588  18.593  22.885  1.00  0.00     0.007 A 
ATOM     21  C   UNL A   1      32.946  17.602  23.791  1.00  0.00     0.001 A 
ATOM     22  C   UNL A   1      32.621  19.190  25.563  1.00  0.00     0.047 A 
ATOM     23  C   UNL A   1      32.968  17.904  25.139  1.00  0.00     0.004 A 
ENDBRANCH  16  17
ENDBRANCH   8  16
BRANCH  14  24
ATOM     24  C   UNL A   1      37.887  22.694  26.144  1.00  0.00     0.207 C 
ATOM     25  C   UNL A   1      38.528  21.480  25.457  1.00  0.00     0.042 C 
ATOM     26  O   UNL A   1      38.870  23.699  26.422  1.00  0.00    -0.368 OA
ATOM     27  C   UNL A   1      39.774  20.988  26.179  1.00  0.00     0.006 C 
ATOM     28  C   UNL A   1      39.938  23.235  27.235  1.00  0.00     0.161 C 
ATOM     29  C   UNL A   1      40.705  22.148  26.500  1.00  0.00     0.029 C 
ENDBRANCH  14  24
ENDBRANCH   5   8
ENDBRANCH   3   4
ENDBRANCH   2   3
ENDBRANCH   1   2
BRANCH   1  30
ATOM     30  C   UNL A   1      32.945  29.089  27.263  1.00  0.00     0.116 C 
BRANCH  30  31
ATOM     31  N   UNL A   1      33.357  30.481  27.144  1.00  0.00    -0.352 N 
ATOM     32  C   UNL A   1      34.526  31.053  27.620  1.00  0.00     0.251 C 
ATOM     33  H   UNL A   1      32.736  31.082  26.673  1.00  0.00     0.163 HD
ATOM     34  O   UNL A   1      34.692  32.263  27.658  1.00  0.00    -0.269 OA
BRANCH  32  35
ATOM     35  C   UNL A   1      35.623  30.131  27.983  1.00  0.00     0.039 A 
ATOM     36  C   UNL A   1      35.702  29.720  29.319  1.00  0.00     0.014 A 
ATOM     37  C   UNL A   1      36.692  29.944  27.111  1.00  0.00     0.014 A 
ATOM     38  C   UNL A   1      36.926  29.303  29.834  1.00  0.00     0.010 A 
ATOM     39  C   UNL A   1      37.927  29.637  27.649  1.00  0.00     0.010 A 
ATOM     40  C   UNL A   1      38.056  29.368  29.021  1.00  0.00    -0.014 A 
BRANCH  40  41
ATOM     41  C   UNL A   1      39.424  29.262  29.521  1.00  0.00     0.031 A 
ATOM     42  C   UNL A   1      40.221  28.041  29.248  1.00  0.00     0.074 A 
ATOM     43  C   UNL A   1      40.010  30.316  30.136  1.00  0.00     0.049 A 
ATOM     44  N   UNL A   1      41.296  27.704  29.881  1.00  0.00    -0.248 NA
ATOM     45  C   UNL A   1      39.806  27.047  28.262  1.00  0.00     0.031 C 
ATOM     46  C   UNL A   1      41.441  30.509  30.354  1.00  0.00     0.029 A 
ATOM     47  N   UNL A   1      39.418  31.329  30.896  1.00  0.00    -0.354 N 
ATOM     48  C   UNL A   1      41.876  26.664  29.186  1.00  0.00     0.074 A 
ATOM     49  C   UNL A   1      40.853  26.220  28.270  1.00  0.00     0.031 C 
ATOM     50  C   UNL A   1      41.609  31.335  31.397  1.00  0.00     0.029 A 
ATOM     51  C   UNL A   1      40.295  31.577  31.966  1.00  0.00     0.049 A 
ATOM     52  H   UNL A   1      38.560  31.777  30.718  1.00  0.00     0.167 HD
ATOM     53  C   UNL A   1      43.205  26.402  29.346  1.00  0.00     0.031 A 
ATOM     54  C   UNL A   1      39.970  31.427  33.284  1.00  0.00     0.031 A 
ATOM     55  C   UNL A   1      43.771  27.153  30.469  1.00  0.00     0.049 A 
ATOM     56  C   UNL A   1      40.879  30.468  34.021  1.00  0.00     0.074 A 
ATOM     57  C   UNL A   1      44.580  28.275  30.556  1.00  0.00     0.029 A 
ATOM     58  N   UNL A   1      43.291  26.916  31.752  1.00  0.00    -0.354 N 
ATOM     59  N   UNL A   1      41.723  29.669  33.430  1.00  0.00    -0.248 NA
ATOM     60  C   UNL A   1      40.874  30.288  35.472  1.00  0.00     0.031 C 
ATOM     61  C   UNL A   1      44.502  28.767  31.887  1.00  0.00     0.029 A 
ATOM     62  C   UNL A   1      43.676  27.928  32.612  1.00  0.00     0.049 A 
ATOM     63  H   UNL A   1      42.750  26.136  32.013  1.00  0.00     0.167 HD
ATOM     64  C   UNL A   1      42.341  28.875  34.359  1.00  0.00     0.074 A 
ATOM     65  C   UNL A   1      41.792  29.317  35.628  1.00  0.00     0.031 C 
ATOM     66  C   UNL A   1      43.238  27.910  34.002  1.00  0.00     0.031 A 
BRANCH  53  67
ATOM     67  C   UNL A   1      44.050  25.696  28.297  1.00  0.00    -0.014 A 
ATOM     68  C   UNL A   1      44.293  26.322  27.055  1.00  0.00     0.010 A 
ATOM     69  C   UNL A   1      44.547  24.384  28.421  1.00  0.00     0.010 A 
ATOM     70  C   UNL A   1      44.893  25.644  25.978  1.00  0.00     0.020 A 
ATOM     71  C   UNL A   1      45.125  23.685  27.351  1.00  0.00     0.020 A 
ATOM     72  C   UNL A   1      45.277  24.314  26.125  1.00  0.00     0.054 A 
BRANCH  72  73
ATOM     73  S   UNL A   1      45.955  23.411  24.708  1.00  0.00     0.124 S 
ATOM     74  O   UNL A   1      44.787  23.262  23.844  1.00  0.00    -0.237 OA
ATOM     75  O   UNL A   1      46.990  24.319  24.223  1.00  0.00    -0.237 OA
ATOM     76  O   UNL A   1      46.449  22.166  25.294  1.00  0.00    -0.744 OA
ENDBRANCH  72  73
ENDBRANCH  53  67
BRANCH  54  77
ATOM     77  C   UNL A   1      38.533  31.655  33.593  1.00  0.00    -0.014 A 
ATOM     78  C   UNL A   1      38.153  32.967  33.949  1.00  0.00     0.010 A 
ATOM     79  C   UNL A   1      37.556  30.767  33.110  1.00  0.00     0.010 A 
ATOM     80  C   UNL A   1      36.878  33.441  33.643  1.00  0.00     0.020 A 
ATOM     81  C   UNL A   1      36.271  31.241  32.807  1.00  0.00     0.020 A 
ATOM     82  C   UNL A   1      35.971  32.592  33.007  1.00  0.00     0.054 A 
BRANCH  82  83
ATOM     83  S   UNL A   1      34.502  33.340  32.239  1.00  0.00     0.124 S 
ATOM     84  O   UNL A   1      34.401  32.610  30.980  1.00  0.00    -0.237 OA
ATOM     85  O   UNL A   1      33.472  33.042  33.233  1.00  0.00    -0.237 OA
ATOM     86  O   UNL A   1      34.868  34.749  32.124  1.00  0.00    -0.744 OA
ENDBRANCH  82  83
ENDBRANCH  54  77
BRANCH  66  87
ATOM     87  C   UNL A   1      43.847  26.887  34.930  1.00  0.00    -0.014 A 
ATOM     88  C   UNL A   1      43.325  25.601  35.137  1.00  0.00     0.010 A 
ATOM     89  C   UNL A   1      45.093  27.181  35.535  1.00  0.00     0.010 A 
ATOM     90  C   UNL A   1      43.983  24.672  35.958  1.00  0.00     0.020 A 
ATOM     91  C   UNL A   1      45.777  26.249  36.321  1.00  0.00     0.020 A 
ATOM     92  C   UNL A   1      45.204  25.003  36.548  1.00  0.00     0.054 A 
BRANCH  92  93
ATOM     93  S   UNL A   1      46.089  23.779  37.548  1.00  0.00     0.124 S 
ATOM     94  O   UNL A   1      47.412  24.386  37.662  1.00  0.00    -0.237 OA
ATOM     95  O   UNL A   1      45.311  23.738  38.785  1.00  0.00    -0.237 OA
ATOM     96  O   UNL A   1      46.020  22.566  36.737  1.00  0.00    -0.744 OA
ENDBRANCH  92  93
ENDBRANCH  66  87
ENDBRANCH  40  41
ENDBRANCH  32  35
ENDBRANCH  30  31
ENDBRANCH   1  30
TORSDOF 17
ENDMDL
