MODEL 1
REMARK VINA RESULT:     -11.9      0.000      0.000
REMARK SMILES O=C(NCCCCNC(=O)c1nn(-c2ccc(Br)cc2F)cc1CCCO)c1ccc(-c2c3nc(c(-c4ccc(S(=O)(=O)[O-])cc4)c4ccc([nH]4)c(-c4ccc(S(=O)(=O)[O-])cc4)c4nc(c(-c5ccc(S(=O)(=O)[O-])cc5)c5ccc2[nH]5)C=C4)C=C3)cc1
REMARK SMILES IDX 6 1 5 2 4 3 3 4 1 5 2 6 28 8 29 9 87 10 30 11 86 12 31 13
REMARK SMILES IDX 32 14 33 15 80 16 34 17 85 18 79 19 81 20 35 21 84 22 78 23
REMARK SMILES IDX 77 24 36 26 66 27 47 28 65 29 48 30 51 31 64 32 82 33 49 34
REMARK SMILES IDX 50 35 63 37 83 38 52 39 37 40 38 41 46 42 39 43 45 44 40 45
REMARK SMILES IDX 41 46 42 47 43 48 44 49 67 50 68 51 76 52 69 53 75 54 70 55
REMARK SMILES IDX 71 56 72 57 73 58 74 59 53 60 54 61 62 62 55 63 61 64 56 65
REMARK SMILES IDX 57 66 58 67 59 68 60 69 7 70 8 71 9 72 10 74 11 75 12 76
REMARK SMILES IDX 23 77 13 78 22 79 24 80 25 81 26 82 27 83 14 85 15 86 20 87
REMARK SMILES IDX 16 88 19 89 21 90 17 91 18 92
REMARK H PARENT 3 7 81 25 51 36 8 73 27 84
REMARK Flexibility Score: inf
ROOT
ATOM      1  C   UNL A   1      31.572  27.353  25.940  1.00  0.00     0.023 C 
ENDROOT
BRANCH   1   2
ATOM      2  C   UNL A   1      32.457  28.220  26.842  1.00  0.00     0.023 C 
BRANCH   2   3
ATOM      3  C   UNL A   1      33.123  29.422  26.172  1.00  0.00     0.116 C 
BRANCH   3   4
ATOM      4  N   UNL A   1      33.168  30.624  26.974  1.00  0.00    -0.352 N 
ATOM      5  O   UNL A   1      33.857  32.450  27.998  1.00  0.00    -0.269 OA
ATOM      6  C   UNL A   1      34.171  31.335  27.573  1.00  0.00     0.251 C 
ATOM      7  H   UNL A   1      32.279  31.018  27.123  1.00  0.00     0.163 HD
BRANCH   6   8
ATOM      8  C   UNL A   1      35.555  30.838  27.804  1.00  0.00     0.039 A 
ATOM      9  C   UNL A   1      35.996  29.527  27.622  1.00  0.00     0.014 A 
ATOM     10  C   UNL A   1      36.466  31.789  28.302  1.00  0.00     0.014 A 
ATOM     11  C   UNL A   1      37.273  29.148  28.027  1.00  0.00     0.010 A 
ATOM     12  C   UNL A   1      37.749  31.422  28.689  1.00  0.00     0.010 A 
ATOM     13  C   UNL A   1      38.135  30.090  28.589  1.00  0.00    -0.014 A 
BRANCH  13  14
ATOM     14  C   UNL A   1      39.489  29.669  28.936  1.00  0.00     0.031 A 
ATOM     15  C   UNL A   1      39.805  29.716  30.392  1.00  0.00     0.074 A 
ATOM     16  C   UNL A   1      40.346  29.121  28.052  1.00  0.00     0.049 A 
ATOM     17  N   UNL A   1      40.693  30.433  30.999  1.00  0.00    -0.248 NA
ATOM     18  C   UNL A   1      38.940  28.942  31.297  1.00  0.00     0.031 C 
ATOM     19  C   UNL A   1      40.071  28.729  26.667  1.00  0.00     0.029 A 
ATOM     20  N   UNL A   1      41.621  28.682  28.250  1.00  0.00    -0.354 N 
ATOM     21  C   UNL A   1      40.643  30.051  32.339  1.00  0.00     0.074 A 
ATOM     22  C   UNL A   1      39.448  29.260  32.487  1.00  0.00     0.031 C 
ATOM     23  C   UNL A   1      41.052  27.902  26.238  1.00  0.00     0.029 A 
ATOM     24  C   UNL A   1      42.081  27.818  27.262  1.00  0.00     0.049 A 
ATOM     25  H   UNL A   1      42.167  28.951  29.023  1.00  0.00     0.167 HD
ATOM     26  C   UNL A   1      41.704  30.214  33.180  1.00  0.00     0.031 A 
ATOM     27  C   UNL A   1      43.185  27.030  27.316  1.00  0.00     0.031 A 
ATOM     28  C   UNL A   1      42.677  31.132  32.647  1.00  0.00     0.049 A 
ATOM     29  C   UNL A   1      44.076  27.580  28.366  1.00  0.00     0.074 A 
ATOM     30  C   UNL A   1      42.670  32.457  32.265  1.00  0.00     0.029 A 
ATOM     31  N   UNL A   1      43.820  30.588  32.110  1.00  0.00    -0.354 N 
ATOM     32  N   UNL A   1      44.677  28.732  28.271  1.00  0.00    -0.248 NA
ATOM     33  C   UNL A   1      43.972  27.041  29.712  1.00  0.00     0.031 C 
ATOM     34  C   UNL A   1      43.541  32.519  31.139  1.00  0.00     0.029 A 
ATOM     35  C   UNL A   1      44.068  31.243  30.934  1.00  0.00     0.049 A 
ATOM     36  H   UNL A   1      44.359  29.863  32.499  1.00  0.00     0.167 HD
ATOM     37  C   UNL A   1      44.643  29.258  29.554  1.00  0.00     0.074 A 
ATOM     38  C   UNL A   1      44.293  28.130  30.414  1.00  0.00     0.031 C 
ATOM     39  C   UNL A   1      44.632  30.608  29.763  1.00  0.00     0.031 A 
BRANCH  26  40
ATOM     40  C   UNL A   1      42.068  29.225  34.269  1.00  0.00    -0.014 A 
ATOM     41  C   UNL A   1      42.616  27.979  33.892  1.00  0.00     0.010 A 
ATOM     42  C   UNL A   1      41.607  29.340  35.596  1.00  0.00     0.010 A 
ATOM     43  C   UNL A   1      42.579  26.876  34.754  1.00  0.00     0.020 A 
ATOM     44  C   UNL A   1      41.611  28.259  36.481  1.00  0.00     0.020 A 
ATOM     45  C   UNL A   1      42.050  27.020  36.036  1.00  0.00     0.054 A 
BRANCH  45  46
ATOM     46  S   UNL A   1      41.853  25.559  37.084  1.00  0.00     0.124 S 
ATOM     47  O   UNL A   1      41.835  24.486  36.096  1.00  0.00    -0.237 OA
ATOM     48  O   UNL A   1      43.040  25.624  37.931  1.00  0.00    -0.237 OA
ATOM     49  O   UNL A   1      40.588  25.802  37.772  1.00  0.00    -0.744 OA
ENDBRANCH  45  46
ENDBRANCH  26  40
BRANCH  27  50
ATOM     50  C   UNL A   1      43.362  25.667  26.752  1.00  0.00    -0.014 A 
ATOM     51  C   UNL A   1      42.945  25.359  25.442  1.00  0.00     0.010 A 
ATOM     52  C   UNL A   1      44.200  24.740  27.405  1.00  0.00     0.010 A 
ATOM     53  C   UNL A   1      43.397  24.195  24.793  1.00  0.00     0.020 A 
ATOM     54  C   UNL A   1      44.646  23.576  26.769  1.00  0.00     0.020 A 
ATOM     55  C   UNL A   1      44.262  23.321  25.456  1.00  0.00     0.054 A 
BRANCH  55  56
ATOM     56  S   UNL A   1      44.985  21.916  24.556  1.00  0.00     0.124 S 
ATOM     57  O   UNL A   1      46.416  22.112  24.771  1.00  0.00    -0.237 OA
ATOM     58  O   UNL A   1      44.395  20.765  25.233  1.00  0.00    -0.237 OA
ATOM     59  O   UNL A   1      44.532  22.119  23.180  1.00  0.00    -0.744 OA
ENDBRANCH  55  56
ENDBRANCH  27  50
BRANCH  39  60
ATOM     60  C   UNL A   1      44.987  31.523  28.617  1.00  0.00    -0.014 A 
ATOM     61  C   UNL A   1      44.098  31.858  27.579  1.00  0.00     0.010 A 
ATOM     62  C   UNL A   1      46.222  32.193  28.688  1.00  0.00     0.010 A 
ATOM     63  C   UNL A   1      44.448  32.826  26.625  1.00  0.00     0.020 A 
ATOM     64  C   UNL A   1      46.568  33.169  27.753  1.00  0.00     0.020 A 
ATOM     65  C   UNL A   1      45.682  33.477  26.720  1.00  0.00     0.054 A 
BRANCH  65  66
ATOM     66  S   UNL A   1      46.104  34.770  25.520  1.00  0.00     0.124 S 
ATOM     67  O   UNL A   1      45.760  35.993  26.236  1.00  0.00    -0.237 OA
ATOM     68  O   UNL A   1      47.533  34.552  25.296  1.00  0.00    -0.237 OA
ATOM     69  O   UNL A   1      45.255  34.467  24.369  1.00  0.00    -0.744 OA
ENDBRANCH  65  66
ENDBRANCH  39  60
ENDBRANCH  13  14
ENDBRANCH   6   8
ENDBRANCH   3   4
ENDBRANCH   2   3
ENDBRANCH   1   2
BRANCH   1  70
ATOM     70  C   UNL A   1      32.182  26.035  25.468  1.00  0.00     0.116 C 
BRANCH  70  71
ATOM     71  N   UNL A   1      32.637  26.101  24.091  1.00  0.00    -0.351 N 
ATOM     72  C   UNL A   1      33.539  25.295  23.445  1.00  0.00     0.272 C 
ATOM     73  H   UNL A   1      32.244  26.821  23.547  1.00  0.00     0.163 HD
ATOM     74  O   UNL A   1      33.841  25.579  22.283  1.00  0.00    -0.267 OA
BRANCH  72  75
ATOM     75  C   UNL A   1      34.139  24.184  24.186  1.00  0.00     0.153 A 
ATOM     76  N   UNL A   1      35.309  24.337  24.838  1.00  0.00    -0.162 NA
ATOM     77  C   UNL A   1      33.655  22.848  24.306  1.00  0.00     0.004 A 
ATOM     78  N   UNL A   1      35.708  23.077  25.119  1.00  0.00    -0.237 N 
ATOM     79  C   UNL A   1      34.729  22.158  24.837  1.00  0.00     0.119 A 
BRANCH  77  80
ATOM     80  C   UNL A   1      32.366  22.256  23.831  1.00  0.00     0.042 C 
BRANCH  80  81
ATOM     81  C   UNL A   1      32.488  20.870  23.183  1.00  0.00     0.033 C 
BRANCH  81  82
ATOM     82  C   UNL A   1      32.442  19.681  24.136  1.00  0.00     0.156 C 
BRANCH  82  83
ATOM     83  O   UNL A   1      31.846  20.043  25.372  1.00  0.00    -0.396 OA
ATOM     84  H   UNL A   1      32.127  19.421  26.061  1.00  0.00     0.210 HD
ENDBRANCH  82  83
ENDBRANCH  81  82
ENDBRANCH  80  81
ENDBRANCH  77  80
BRANCH  78  85
ATOM     85  C   UNL A   1      37.002  22.840  25.625  1.00  0.00     0.100 A 
ATOM     86  C   UNL A   1      37.695  23.879  26.259  1.00  0.00     0.032 A 
ATOM     87  C   UNL A   1      37.609  21.595  25.462  1.00  0.00     0.149 A 
ATOM     88  C   UNL A   1      38.978  23.650  26.761  1.00  0.00     0.018 A 
ATOM     89  C   UNL A   1      38.910  21.381  25.911  1.00  0.00     0.057 A 
ATOM     90  F   UNL A   1      36.997  20.606  24.797  1.00  0.00    -0.205 F 
ATOM     91  C   UNL A   1      39.583  22.406  26.573  1.00  0.00     0.021 A 
ATOM     92  Br  UNL A   1      41.337  22.114  27.215  1.00  0.00    -0.051 Br
ENDBRANCH  78  85
ENDBRANCH  72  75
ENDBRANCH  70  71
ENDBRANCH   1  70
TORSDOF 19
ENDMDL
MODEL 2
REMARK VINA RESULT:     -11.8      2.122      3.080
REMARK SMILES O=C(NCCCCNC(=O)c1nn(-c2ccc(Br)cc2F)cc1CCCO)c1ccc(-c2c3nc(c(-c4ccc(S(=O)(=O)[O-])cc4)c4ccc([nH]4)c(-c4ccc(S(=O)(=O)[O-])cc4)c4nc(c(-c5ccc(S(=O)(=O)[O-])cc5)c5ccc2[nH]5)C=C4)C=C3)cc1
REMARK SMILES IDX 6 1 5 2 4 3 3 4 1 5 2 6 28 8 29 9 87 10 30 11 86 12 31 13
REMARK SMILES IDX 32 14 33 15 80 16 34 17 85 18 79 19 81 20 35 21 84 22 78 23
REMARK SMILES IDX 77 24 36 26 66 27 47 28 65 29 48 30 51 31 64 32 82 33 49 34
REMARK SMILES IDX 50 35 63 37 83 38 52 39 37 40 38 41 46 42 39 43 45 44 40 45
REMARK SMILES IDX 41 46 42 47 43 48 44 49 67 50 68 51 76 52 69 53 75 54 70 55
REMARK SMILES IDX 71 56 72 57 73 58 74 59 53 60 54 61 62 62 55 63 61 64 56 65
REMARK SMILES IDX 57 66 58 67 59 68 60 69 7 70 8 71 9 72 10 74 11 75 12 76
REMARK SMILES IDX 23 77 13 78 22 79 24 80 25 81 26 82 27 83 14 85 15 86 20 87
REMARK SMILES IDX 16 88 19 89 21 90 17 91 18 92
REMARK H PARENT 3 7 81 25 51 36 8 73 27 84
REMARK Flexibility Score: inf
ROOT
ATOM      1  C   UNL A   1      31.287  27.480  26.646  1.00  0.00     0.023 C 
ENDROOT
BRANCH   1   2
ATOM      2  C   UNL A   1      32.132  28.392  27.541  1.00  0.00     0.023 C 
BRANCH   2   3
ATOM      3  C   UNL A   1      33.009  29.414  26.819  1.00  0.00     0.116 C 
BRANCH   3   4
ATOM      4  N   UNL A   1      33.173  30.675  27.505  1.00  0.00    -0.352 N 
ATOM      5  O   UNL A   1      34.022  32.547  28.304  1.00  0.00    -0.269 OA
ATOM      6  C   UNL A   1      34.252  31.386  27.952  1.00  0.00     0.251 C 
ATOM      7  H   UNL A   1      32.317  31.122  27.694  1.00  0.00     0.163 HD
BRANCH   6   8
ATOM      8  C   UNL A   1      35.630  30.845  28.108  1.00  0.00     0.039 A 
ATOM      9  C   UNL A   1      36.028  29.532  27.856  1.00  0.00     0.014 A 
ATOM     10  C   UNL A   1      36.585  31.752  28.608  1.00  0.00     0.014 A 
ATOM     11  C   UNL A   1      37.310  29.105  28.195  1.00  0.00     0.010 A 
ATOM     12  C   UNL A   1      37.872  31.337  28.928  1.00  0.00     0.010 A 
ATOM     13  C   UNL A   1      38.218  30.001  28.760  1.00  0.00    -0.014 A 
BRANCH  13  14
ATOM     14  C   UNL A   1      39.573  29.532  29.036  1.00  0.00     0.031 A 
ATOM     15  C   UNL A   1      39.880  29.322  30.478  1.00  0.00     0.074 A 
ATOM     16  C   UNL A   1      40.438  29.155  28.074  1.00  0.00     0.049 A 
ATOM     17  N   UNL A   1      40.760  29.925  31.209  1.00  0.00    -0.248 NA
ATOM     18  C   UNL A   1      39.015  28.395  31.226  1.00  0.00     0.031 C 
ATOM     19  C   UNL A   1      40.173  29.013  26.639  1.00  0.00     0.029 A 
ATOM     20  N   UNL A   1      41.715  28.693  28.199  1.00  0.00    -0.354 N 
ATOM     21  C   UNL A   1      40.706  29.311  32.460  1.00  0.00     0.074 A 
ATOM     22  C   UNL A   1      39.515  28.499  32.457  1.00  0.00     0.031 C 
ATOM     23  C   UNL A   1      41.162  28.280  26.077  1.00  0.00     0.029 A 
ATOM     24  C   UNL A   1      42.185  28.021  27.077  1.00  0.00     0.049 A 
ATOM     25  H   UNL A   1      42.255  28.824  29.011  1.00  0.00     0.167 HD
ATOM     26  C   UNL A   1      41.760  29.328  33.323  1.00  0.00     0.031 A 
ATOM     27  C   UNL A   1      43.294  27.242  26.998  1.00  0.00     0.031 A 
ATOM     28  C   UNL A   1      42.730  30.330  32.968  1.00  0.00     0.049 A 
ATOM     29  C   UNL A   1      44.175  27.601  28.134  1.00  0.00     0.074 A 
ATOM     30  C   UNL A   1      42.717  31.702  32.826  1.00  0.00     0.029 A 
ATOM     31  N   UNL A   1      43.880  29.896  32.351  1.00  0.00    -0.354 N 
ATOM     32  N   UNL A   1      44.770  28.755  28.249  1.00  0.00    -0.248 NA
ATOM     33  C   UNL A   1      44.067  26.831  29.362  1.00  0.00     0.031 C 
ATOM     34  C   UNL A   1      43.594  31.968  31.735  1.00  0.00     0.029 A 
ATOM     35  C   UNL A   1      44.130  30.751  31.311  1.00  0.00     0.049 A 
ATOM     36  H   UNL A   1      44.422  29.116  32.608  1.00  0.00     0.167 HD
ATOM     37  C   UNL A   1      44.725  29.045  29.604  1.00  0.00     0.074 A 
ATOM     38  C   UNL A   1      44.378  27.780  30.249  1.00  0.00     0.031 C 
ATOM     39  C   UNL A   1      44.705  30.336  30.050  1.00  0.00     0.031 A 
BRANCH  26  40
ATOM     40  C   UNL A   1      42.125  28.163  34.221  1.00  0.00    -0.014 A 
ATOM     41  C   UNL A   1      42.124  28.363  35.619  1.00  0.00     0.010 A 
ATOM     42  C   UNL A   1      42.764  26.999  33.748  1.00  0.00     0.010 A 
ATOM     43  C   UNL A   1      42.836  27.516  36.477  1.00  0.00     0.020 A 
ATOM     44  C   UNL A   1      43.436  26.120  34.600  1.00  0.00     0.020 A 
ATOM     45  C   UNL A   1      43.512  26.414  35.954  1.00  0.00     0.054 A 
BRANCH  45  46
ATOM     46  S   UNL A   1      44.564  25.421  37.040  1.00  0.00     0.124 S 
ATOM     47  O   UNL A   1      44.035  25.761  38.357  1.00  0.00    -0.237 OA
ATOM     48  O   UNL A   1      44.293  24.063  36.576  1.00  0.00    -0.237 OA
ATOM     49  O   UNL A   1      45.909  25.915  36.755  1.00  0.00    -0.744 OA
ENDBRANCH  45  46
ENDBRANCH  26  40
BRANCH  27  50
ATOM     50  C   UNL A   1      43.483  26.001  26.202  1.00  0.00    -0.014 A 
ATOM     51  C   UNL A   1      44.658  25.782  25.458  1.00  0.00     0.010 A 
ATOM     52  C   UNL A   1      42.621  24.903  26.400  1.00  0.00     0.010 A 
ATOM     53  C   UNL A   1      44.985  24.500  24.981  1.00  0.00     0.020 A 
ATOM     54  C   UNL A   1      42.935  23.625  25.920  1.00  0.00     0.020 A 
ATOM     55  C   UNL A   1      44.129  23.425  25.234  1.00  0.00     0.054 A 
BRANCH  55  56
ATOM     56  S   UNL A   1      44.639  21.741  24.774  1.00  0.00     0.124 S 
ATOM     57  O   UNL A   1      44.688  21.817  23.317  1.00  0.00    -0.237 OA
ATOM     58  O   UNL A   1      45.930  21.604  25.444  1.00  0.00    -0.237 OA
ATOM     59  O   UNL A   1      43.573  20.898  25.315  1.00  0.00    -0.744 OA
ENDBRANCH  55  56
ENDBRANCH  27  50
BRANCH  39  60
ATOM     60  C   UNL A   1      45.061  31.442  29.087  1.00  0.00    -0.014 A 
ATOM     61  C   UNL A   1      46.383  31.786  28.746  1.00  0.00     0.010 A 
ATOM     62  C   UNL A   1      44.005  32.045  28.380  1.00  0.00     0.010 A 
ATOM     63  C   UNL A   1      46.637  32.728  27.737  1.00  0.00     0.020 A 
ATOM     64  C   UNL A   1      44.251  32.967  27.362  1.00  0.00     0.020 A 
ATOM     65  C   UNL A   1      45.566  33.311  27.050  1.00  0.00     0.054 A 
BRANCH  65  66
ATOM     66  S   UNL A   1      45.901  34.481  25.705  1.00  0.00     0.124 S 
ATOM     67  O   UNL A   1      45.504  35.758  26.288  1.00  0.00    -0.237 OA
ATOM     68  O   UNL A   1      47.336  34.313  25.477  1.00  0.00    -0.237 OA
ATOM     69  O   UNL A   1      45.052  34.009  24.612  1.00  0.00    -0.744 OA
ENDBRANCH  65  66
ENDBRANCH  39  60
ENDBRANCH  13  14
ENDBRANCH   6   8
ENDBRANCH   3   4
ENDBRANCH   2   3
ENDBRANCH   1   2
BRANCH   1  70
ATOM     70  C   UNL A   1      31.801  26.052  26.467  1.00  0.00     0.116 C 
BRANCH  70  71
ATOM     71  N   UNL A   1      33.075  26.009  25.772  1.00  0.00    -0.351 N 
ATOM     72  C   UNL A   1      33.556  25.048  24.921  1.00  0.00     0.272 C 
ATOM     73  H   UNL A   1      33.674  26.774  25.933  1.00  0.00     0.163 HD
ATOM     74  O   UNL A   1      34.707  25.174  24.497  1.00  0.00    -0.267 OA
BRANCH  72  75
ATOM     75  C   UNL A   1      32.704  23.898  24.612  1.00  0.00     0.153 A 
ATOM     76  N   UNL A   1      33.000  22.670  25.081  1.00  0.00    -0.162 NA
ATOM     77  C   UNL A   1      31.534  23.869  23.797  1.00  0.00     0.004 A 
ATOM     78  N   UNL A   1      32.221  21.834  24.360  1.00  0.00    -0.237 N 
ATOM     79  C   UNL A   1      31.310  22.519  23.597  1.00  0.00     0.119 A 
BRANCH  77  80
ATOM     80  C   UNL A   1      30.792  24.997  23.153  1.00  0.00     0.042 C 
BRANCH  80  81
ATOM     81  C   UNL A   1      31.619  25.844  22.177  1.00  0.00     0.033 C 
BRANCH  81  82
ATOM     82  C   UNL A   1      31.736  27.326  22.514  1.00  0.00     0.156 C 
BRANCH  82  83
ATOM     83  O   UNL A   1      30.869  28.103  21.702  1.00  0.00    -0.396 OA
ATOM     84  H   UNL A   1      30.643  28.925  22.164  1.00  0.00     0.210 HD
ENDBRANCH  82  83
ENDBRANCH  81  82
ENDBRANCH  80  81
ENDBRANCH  77  80
BRANCH  78  85
ATOM     85  C   UNL A   1      32.413  20.440  24.442  1.00  0.00     0.100 A 
ATOM     86  C   UNL A   1      32.741  19.860  25.675  1.00  0.00     0.032 A 
ATOM     87  C   UNL A   1      32.318  19.644  23.301  1.00  0.00     0.149 A 
ATOM     88  C   UNL A   1      32.933  18.480  25.760  1.00  0.00     0.018 A 
ATOM     89  C   UNL A   1      32.564  18.275  23.374  1.00  0.00     0.057 A 
ATOM     90  F   UNL A   1      32.075  20.182  22.098  1.00  0.00    -0.205 F 
ATOM     91  C   UNL A   1      32.856  17.697  24.607  1.00  0.00     0.021 A 
ATOM     92  Br  UNL A   1      33.160  15.834  24.721  1.00  0.00    -0.051 Br
ENDBRANCH  78  85
ENDBRANCH  72  75
ENDBRANCH  70  71
ENDBRANCH   1  70
TORSDOF 19
ENDMDL
MODEL 3
REMARK VINA RESULT:     -11.5      4.391      7.224
REMARK SMILES O=C(NCCCCNC(=O)c1nn(-c2ccc(Br)cc2F)cc1CCCO)c1ccc(-c2c3nc(c(-c4ccc(S(=O)(=O)[O-])cc4)c4ccc([nH]4)c(-c4ccc(S(=O)(=O)[O-])cc4)c4nc(c(-c5ccc(S(=O)(=O)[O-])cc5)c5ccc2[nH]5)C=C4)C=C3)cc1
REMARK SMILES IDX 6 1 5 2 4 3 3 4 1 5 2 6 28 8 29 9 87 10 30 11 86 12 31 13
REMARK SMILES IDX 32 14 33 15 80 16 34 17 85 18 79 19 81 20 35 21 84 22 78 23
REMARK SMILES IDX 77 24 36 26 66 27 47 28 65 29 48 30 51 31 64 32 82 33 49 34
REMARK SMILES IDX 50 35 63 37 83 38 52 39 37 40 38 41 46 42 39 43 45 44 40 45
REMARK SMILES IDX 41 46 42 47 43 48 44 49 67 50 68 51 76 52 69 53 75 54 70 55
REMARK SMILES IDX 71 56 72 57 73 58 74 59 53 60 54 61 62 62 55 63 61 64 56 65
REMARK SMILES IDX 57 66 58 67 59 68 60 69 7 70 8 71 9 72 10 74 11 75 12 76
REMARK SMILES IDX 23 77 13 78 22 79 24 80 25 81 26 82 27 83 14 85 15 86 20 87
REMARK SMILES IDX 16 88 19 89 21 90 17 91 18 92
REMARK H PARENT 3 7 81 25 51 36 8 73 27 84
REMARK Flexibility Score: inf
ROOT
ATOM      1  C   UNL A   1      35.015  34.130  31.081  1.00  0.00     0.023 C 
ENDROOT
BRANCH   1   2
ATOM      2  C   UNL A   1      34.070  34.195  29.876  1.00  0.00     0.023 C 
BRANCH   2   3
ATOM      3  C   UNL A   1      34.636  33.683  28.552  1.00  0.00     0.116 C 
BRANCH   3   4
ATOM      4  N   UNL A   1      34.006  32.488  28.037  1.00  0.00    -0.352 N 
ATOM      5  O   UNL A   1      33.488  30.383  27.637  1.00  0.00    -0.269 OA
ATOM      6  C   UNL A   1      34.384  31.179  27.934  1.00  0.00     0.251 C 
ATOM      7  H   UNL A   1      33.104  32.655  27.680  1.00  0.00     0.163 HD
BRANCH   6   8
ATOM      8  C   UNL A   1      35.777  30.674  28.081  1.00  0.00     0.039 A 
ATOM      9  C   UNL A   1      36.206  29.370  27.832  1.00  0.00     0.014 A 
ATOM     10  C   UNL A   1      36.713  31.607  28.567  1.00  0.00     0.014 A 
ATOM     11  C   UNL A   1      37.501  28.977  28.161  1.00  0.00     0.010 A 
ATOM     12  C   UNL A   1      38.012  31.227  28.878  1.00  0.00     0.010 A 
ATOM     13  C   UNL A   1      38.391  29.899  28.713  1.00  0.00    -0.014 A 
BRANCH  13  14
ATOM     14  C   UNL A   1      39.759  29.466  28.979  1.00  0.00     0.031 A 
ATOM     15  C   UNL A   1      40.083  29.265  30.420  1.00  0.00     0.074 A 
ATOM     16  C   UNL A   1      40.627  29.111  28.011  1.00  0.00     0.049 A 
ATOM     17  N   UNL A   1      40.952  29.891  31.144  1.00  0.00    -0.248 NA
ATOM     18  C   UNL A   1      39.248  28.315  31.174  1.00  0.00     0.031 C 
ATOM     19  C   UNL A   1      40.356  28.962  26.579  1.00  0.00     0.029 A 
ATOM     20  N   UNL A   1      41.917  28.684  28.128  1.00  0.00    -0.354 N 
ATOM     21  C   UNL A   1      40.922  29.276  32.395  1.00  0.00     0.074 A 
ATOM     22  C   UNL A   1      39.753  28.433  32.402  1.00  0.00     0.031 C 
ATOM     23  C   UNL A   1      41.360  28.255  26.010  1.00  0.00     0.029 A 
ATOM     24  C   UNL A   1      42.396  28.023  27.002  1.00  0.00     0.049 A 
ATOM     25  H   UNL A   1      42.459  28.829  28.936  1.00  0.00     0.167 HD
ATOM     26  C   UNL A   1      41.983  29.321  33.251  1.00  0.00     0.031 A 
ATOM     27  C   UNL A   1      43.525  27.274  26.915  1.00  0.00     0.031 A 
ATOM     28  C   UNL A   1      42.923  30.348  32.889  1.00  0.00     0.049 A 
ATOM     29  C   UNL A   1      44.405  27.657  28.045  1.00  0.00     0.074 A 
ATOM     30  C   UNL A   1      42.873  31.719  32.747  1.00  0.00     0.029 A 
ATOM     31  N   UNL A   1      44.079  29.945  32.263  1.00  0.00    -0.354 N 
ATOM     32  N   UNL A   1      44.970  28.826  28.155  1.00  0.00    -0.248 NA
ATOM     33  C   UNL A   1      44.326  26.885  29.274  1.00  0.00     0.031 C 
ATOM     34  C   UNL A   1      43.734  32.008  31.649  1.00  0.00     0.029 A 
ATOM     35  C   UNL A   1      44.299  30.805  31.222  1.00  0.00     0.049 A 
ATOM     36  H   UNL A   1      44.643  29.179  32.517  1.00  0.00     0.167 HD
ATOM     37  C   UNL A   1      44.927  29.116  29.511  1.00  0.00     0.074 A 
ATOM     38  C   UNL A   1      44.618  27.842  30.158  1.00  0.00     0.031 C 
ATOM     39  C   UNL A   1      44.875  30.406  29.956  1.00  0.00     0.031 A 
BRANCH  26  40
ATOM     40  C   UNL A   1      42.384  28.166  34.147  1.00  0.00    -0.014 A 
ATOM     41  C   UNL A   1      42.628  28.426  35.513  1.00  0.00     0.010 A 
ATOM     42  C   UNL A   1      42.833  26.927  33.647  1.00  0.00     0.010 A 
ATOM     43  C   UNL A   1      43.393  27.552  36.296  1.00  0.00     0.020 A 
ATOM     44  C   UNL A   1      43.554  26.025  34.432  1.00  0.00     0.020 A 
ATOM     45  C   UNL A   1      43.875  26.369  35.738  1.00  0.00     0.054 A 
BRANCH  45  46
ATOM     46  S   UNL A   1      44.998  25.327  36.700  1.00  0.00     0.124 S 
ATOM     47  O   UNL A   1      46.005  24.978  35.702  1.00  0.00    -0.237 OA
ATOM     48  O   UNL A   1      45.437  26.236  37.755  1.00  0.00    -0.237 OA
ATOM     49  O   UNL A   1      44.145  24.228  37.144  1.00  0.00    -0.744 OA
ENDBRANCH  45  46
ENDBRANCH  26  40
BRANCH  27  50
ATOM     50  C   UNL A   1      43.740  26.039  26.118  1.00  0.00    -0.014 A 
ATOM     51  C   UNL A   1      44.978  25.775  25.500  1.00  0.00     0.010 A 
ATOM     52  C   UNL A   1      42.812  24.980  26.200  1.00  0.00     0.010 A 
ATOM     53  C   UNL A   1      45.295  24.485  25.034  1.00  0.00     0.020 A 
ATOM     54  C   UNL A   1      43.117  23.697  25.730  1.00  0.00     0.020 A 
ATOM     55  C   UNL A   1      44.367  23.449  25.171  1.00  0.00     0.054 A 
BRANCH  55  56
ATOM     56  S   UNL A   1      44.845  21.751  24.733  1.00  0.00     0.124 S 
ATOM     57  O   UNL A   1      44.534  21.697  23.307  1.00  0.00    -0.237 OA
ATOM     58  O   UNL A   1      46.265  21.720  25.072  1.00  0.00    -0.237 OA
ATOM     59  O   UNL A   1      43.992  20.922  25.584  1.00  0.00    -0.744 OA
ENDBRANCH  55  56
ENDBRANCH  27  50
BRANCH  39  60
ATOM     60  C   UNL A   1      45.195  31.520  28.990  1.00  0.00    -0.014 A 
ATOM     61  C   UNL A   1      46.502  31.853  28.586  1.00  0.00     0.010 A 
ATOM     62  C   UNL A   1      44.112  32.145  28.348  1.00  0.00     0.010 A 
ATOM     63  C   UNL A   1      46.716  32.805  27.577  1.00  0.00     0.020 A 
ATOM     64  C   UNL A   1      44.317  33.078  27.331  1.00  0.00     0.020 A 
ATOM     65  C   UNL A   1      45.619  33.410  26.954  1.00  0.00     0.054 A 
BRANCH  65  66
ATOM     66  S   UNL A   1      45.899  34.595  25.609  1.00  0.00     0.124 S 
ATOM     67  O   UNL A   1      47.335  34.481  25.379  1.00  0.00    -0.237 OA
ATOM     68  O   UNL A   1      45.046  34.079  24.539  1.00  0.00    -0.237 OA
ATOM     69  O   UNL A   1      45.462  35.872  26.173  1.00  0.00    -0.744 OA
ENDBRANCH  65  66
ENDBRANCH  39  60
ENDBRANCH  13  14
ENDBRANCH   6   8
ENDBRANCH   3   4
ENDBRANCH   2   3
ENDBRANCH   1   2
BRANCH   1  70
ATOM     70  C   UNL A   1      34.804  32.957  32.036  1.00  0.00     0.116 C 
BRANCH  70  71
ATOM     71  N   UNL A   1      34.903  33.357  33.429  1.00  0.00    -0.351 N 
ATOM     72  C   UNL A   1      36.025  33.500  34.203  1.00  0.00     0.272 C 
ATOM     73  H   UNL A   1      34.049  33.554  33.877  1.00  0.00     0.163 HD
ATOM     74  O   UNL A   1      35.875  33.777  35.396  1.00  0.00    -0.267 OA
BRANCH  72  75
ATOM     75  C   UNL A   1      37.333  33.253  33.591  1.00  0.00     0.153 A 
ATOM     76  N   UNL A   1      37.933  34.193  32.833  1.00  0.00    -0.162 NA
ATOM     77  C   UNL A   1      38.116  32.063  33.649  1.00  0.00     0.004 A 
ATOM     78  N   UNL A   1      38.920  33.532  32.191  1.00  0.00    -0.237 N 
ATOM     79  C   UNL A   1      39.077  32.258  32.674  1.00  0.00     0.119 A 
BRANCH  77  80
ATOM     80  C   UNL A   1      37.893  30.812  34.439  1.00  0.00     0.042 C 
BRANCH  80  81
ATOM     81  C   UNL A   1      38.716  30.704  35.729  1.00  0.00     0.033 C 
BRANCH  81  82
ATOM     82  C   UNL A   1      38.172  31.465  36.933  1.00  0.00     0.156 C 
BRANCH  82  83
ATOM     83  O   UNL A   1      37.355  30.629  37.737  1.00  0.00    -0.396 OA
ATOM     84  H   UNL A   1      36.947  29.946  37.183  1.00  0.00     0.210 HD
ENDBRANCH  82  83
ENDBRANCH  81  82
ENDBRANCH  80  81
ENDBRANCH  77  80
BRANCH  78  85
ATOM     85  C   UNL A   1      39.635  34.162  31.153  1.00  0.00     0.100 A 
ATOM     86  C   UNL A   1      39.017  34.360  29.911  1.00  0.00     0.032 A 
ATOM     87  C   UNL A   1      40.962  34.550  31.340  1.00  0.00     0.149 A 
ATOM     88  C   UNL A   1      39.722  34.982  28.879  1.00  0.00     0.018 A 
ATOM     89  C   UNL A   1      41.684  35.119  30.294  1.00  0.00     0.057 A 
ATOM     90  F   UNL A   1      41.599  34.308  32.494  1.00  0.00    -0.205 F 
ATOM     91  C   UNL A   1      41.055  35.346  29.072  1.00  0.00     0.021 A 
ATOM     92  Br  UNL A   1      42.019  36.148  27.656  1.00  0.00    -0.051 Br
ENDBRANCH  78  85
ENDBRANCH  72  75
ENDBRANCH  70  71
ENDBRANCH   1  70
TORSDOF 19
ENDMDL
