MODEL 1
REMARK VINA RESULT:      -9.9      0.000      0.000
REMARK SMILES O=C(NCCCCNC(=O)[C@@H]1C[N@@H+](CCOc2ccc(F)cc2)C[C@H]1C1CC1)c1ccc(-c2c3nc(c(-c4ccc(S(=O)(=O)[O-])cc4)c4ccc([nH]4)c(-c4ccc(S(=O)(=O)[O-])cc4)c4nc(c(-c5ccc(S(=O)(=O)[O-])cc5)c5ccc2[nH]5)C=C4)C=C3)cc1
REMARK SMILES IDX 6 1 5 2 4 3 3 4 1 5 2 6 29 8 30 9 88 10 31 11 87 12 32 13
REMARK SMILES IDX 33 14 34 15 81 16 35 17 86 18 80 19 82 20 36 21 85 22 79 23
REMARK SMILES IDX 78 24 37 26 67 27 48 28 66 29 49 30 52 31 65 32 83 33 50 34
REMARK SMILES IDX 51 35 64 37 84 38 53 39 38 40 39 41 47 42 40 43 46 44 41 45
REMARK SMILES IDX 42 46 43 47 44 48 45 49 68 50 69 51 77 52 70 53 76 54 71 55
REMARK SMILES IDX 72 56 73 57 74 58 75 59 54 60 55 61 63 62 56 63 62 64 57 65
REMARK SMILES IDX 58 66 59 67 60 68 61 69 7 70 8 71 9 72 10 74 11 75 12 76
REMARK SMILES IDX 25 77 13 78 24 79 26 81 27 82 28 83 14 84 15 85 16 86 17 87
REMARK SMILES IDX 18 88 23 89 19 90 22 91 20 92 21 93
REMARK H PARENT 3 7 82 25 52 36 8 73 13 80
REMARK Flexibility Score: inf
ROOT
ATOM      1  C   UNL A   1      32.565  29.213  25.407  1.00  0.00     0.023 C 
ENDROOT
BRANCH   1   2
ATOM      2  C   UNL A   1      33.567  28.225  25.989  1.00  0.00     0.023 C 
BRANCH   2   3
ATOM      3  C   UNL A   1      33.901  28.494  27.447  1.00  0.00     0.116 C 
BRANCH   3   4
ATOM      4  N   UNL A   1      33.728  29.900  27.798  1.00  0.00    -0.352 N 
ATOM      5  O   UNL A   1      34.306  31.823  28.849  1.00  0.00    -0.269 OA
ATOM      6  C   UNL A   1      34.633  30.724  28.420  1.00  0.00     0.251 C 
ATOM      7  H   UNL A   1      32.862  30.304  27.560  1.00  0.00     0.163 HD
BRANCH   6   8
ATOM      8  C   UNL A   1      36.006  30.217  28.566  1.00  0.00     0.039 A 
ATOM      9  C   UNL A   1      36.405  29.730  29.813  1.00  0.00     0.014 A 
ATOM     10  C   UNL A   1      36.916  30.369  27.520  1.00  0.00     0.014 A 
ATOM     11  C   UNL A   1      37.754  29.547  30.063  1.00  0.00     0.010 A 
ATOM     12  C   UNL A   1      38.260  30.070  27.746  1.00  0.00     0.010 A 
ATOM     13  C   UNL A   1      38.691  29.687  29.026  1.00  0.00    -0.014 A 
BRANCH  13  14
ATOM     14  C   UNL A   1      40.105  29.335  29.296  1.00  0.00     0.031 A 
ATOM     15  C   UNL A   1      40.676  28.002  28.904  1.00  0.00     0.074 A 
ATOM     16  C   UNL A   1      40.878  30.268  29.886  1.00  0.00     0.049 A 
ATOM     17  N   UNL A   1      41.895  27.555  29.074  1.00  0.00    -0.248 NA
ATOM     18  C   UNL A   1      39.772  27.044  28.248  1.00  0.00     0.031 C 
ATOM     19  C   UNL A   1      40.420  31.597  30.309  1.00  0.00     0.029 A 
ATOM     20  N   UNL A   1      42.208  30.259  30.210  1.00  0.00    -0.354 N 
ATOM     21  C   UNL A   1      41.901  26.258  28.573  1.00  0.00     0.074 A 
ATOM     22  C   UNL A   1      40.557  25.983  28.107  1.00  0.00     0.031 C 
ATOM     23  C   UNL A   1      41.462  32.294  30.778  1.00  0.00     0.029 A 
ATOM     24  C   UNL A   1      42.639  31.437  30.773  1.00  0.00     0.049 A 
ATOM     25  H   UNL A   1      42.798  29.487  30.055  1.00  0.00     0.167 HD
ATOM     26  C   UNL A   1      42.933  25.382  28.512  1.00  0.00     0.031 A 
ATOM     27  C   UNL A   1      43.843  31.786  31.259  1.00  0.00     0.031 A 
ATOM     28  C   UNL A   1      44.264  25.674  28.981  1.00  0.00     0.049 A 
ATOM     29  C   UNL A   1      44.958  30.787  31.203  1.00  0.00     0.074 A 
ATOM     30  C   UNL A   1      45.388  24.865  28.940  1.00  0.00     0.029 A 
ATOM     31  N   UNL A   1      44.653  26.864  29.579  1.00  0.00    -0.354 N 
ATOM     32  N   UNL A   1      44.946  29.572  30.708  1.00  0.00    -0.248 NA
ATOM     33  C   UNL A   1      46.244  31.202  31.771  1.00  0.00     0.031 C 
ATOM     34  C   UNL A   1      46.439  25.544  29.564  1.00  0.00     0.029 A 
ATOM     35  C   UNL A   1      45.990  26.802  29.935  1.00  0.00     0.049 A 
ATOM     36  H   UNL A   1      44.064  27.639  29.729  1.00  0.00     0.167 HD
ATOM     37  C   UNL A   1      46.232  29.081  30.891  1.00  0.00     0.074 A 
ATOM     38  C   UNL A   1      46.996  30.141  31.521  1.00  0.00     0.031 C 
ATOM     39  C   UNL A   1      46.732  27.863  30.570  1.00  0.00     0.031 A 
BRANCH  26  40
ATOM     40  C   UNL A   1      42.661  24.010  27.949  1.00  0.00    -0.014 A 
ATOM     41  C   UNL A   1      42.748  23.754  26.568  1.00  0.00     0.010 A 
ATOM     42  C   UNL A   1      42.370  22.946  28.822  1.00  0.00     0.010 A 
ATOM     43  C   UNL A   1      42.515  22.467  26.071  1.00  0.00     0.020 A 
ATOM     44  C   UNL A   1      42.162  21.653  28.332  1.00  0.00     0.020 A 
ATOM     45  C   UNL A   1      42.221  21.425  26.956  1.00  0.00     0.054 A 
BRANCH  45  46
ATOM     46  S   UNL A   1      41.945  19.763  26.284  1.00  0.00     0.124 S 
ATOM     47  O   UNL A   1      42.287  18.917  27.426  1.00  0.00    -0.237 OA
ATOM     48  O   UNL A   1      40.529  19.792  25.926  1.00  0.00    -0.237 OA
ATOM     49  O   UNL A   1      42.868  19.685  25.155  1.00  0.00    -0.744 OA
ENDBRANCH  45  46
ENDBRANCH  26  40
BRANCH  27  50
ATOM     50  C   UNL A   1      44.028  33.134  31.858  1.00  0.00    -0.014 A 
ATOM     51  C   UNL A   1      44.431  34.221  31.067  1.00  0.00     0.010 A 
ATOM     52  C   UNL A   1      43.754  33.341  33.224  1.00  0.00     0.010 A 
ATOM     53  C   UNL A   1      44.572  35.491  31.634  1.00  0.00     0.020 A 
ATOM     54  C   UNL A   1      43.861  34.614  33.786  1.00  0.00     0.020 A 
ATOM     55  C   UNL A   1      44.283  35.679  32.989  1.00  0.00     0.054 A 
BRANCH  55  56
ATOM     56  S   UNL A   1      44.418  37.346  33.691  1.00  0.00     0.124 S 
ATOM     57  O   UNL A   1      45.724  37.295  34.340  1.00  0.00    -0.237 OA
ATOM     58  O   UNL A   1      44.332  38.195  32.505  1.00  0.00    -0.237 OA
ATOM     59  O   UNL A   1      43.271  37.431  34.591  1.00  0.00    -0.744 OA
ENDBRANCH  55  56
ENDBRANCH  27  50
BRANCH  39  60
ATOM     60  C   UNL A   1      48.187  27.626  30.871  1.00  0.00    -0.014 A 
ATOM     61  C   UNL A   1      48.598  27.086  32.102  1.00  0.00     0.010 A 
ATOM     62  C   UNL A   1      49.152  27.921  29.892  1.00  0.00     0.010 A 
ATOM     63  C   UNL A   1      49.955  26.883  32.364  1.00  0.00     0.020 A 
ATOM     64  C   UNL A   1      50.508  27.691  30.139  1.00  0.00     0.020 A 
ATOM     65  C   UNL A   1      50.901  27.189  31.380  1.00  0.00     0.054 A 
BRANCH  65  66
ATOM     66  S   UNL A   1      52.654  26.885  31.731  1.00  0.00     0.124 S 
ATOM     67  O   UNL A   1      53.311  27.845  30.849  1.00  0.00    -0.237 OA
ATOM     68  O   UNL A   1      52.751  27.176  33.160  1.00  0.00    -0.237 OA
ATOM     69  O   UNL A   1      52.841  25.481  31.373  1.00  0.00    -0.744 OA
ENDBRANCH  65  66
ENDBRANCH  39  60
ENDBRANCH  13  14
ENDBRANCH   6   8
ENDBRANCH   3   4
ENDBRANCH   2   3
ENDBRANCH   1   2
BRANCH   1  70
ATOM     70  C   UNL A   1      32.695  29.359  23.901  1.00  0.00     0.116 C 
BRANCH  70  71
ATOM     71  N   UNL A   1      31.406  29.143  23.278  1.00  0.00    -0.356 N 
ATOM     72  C   UNL A   1      31.001  28.066  22.555  1.00  0.00     0.229 C 
ATOM     73  H   UNL A   1      30.743  29.862  23.394  1.00  0.00     0.163 HD
ATOM     74  O   UNL A   1      30.012  28.171  21.832  1.00  0.00    -0.275 OA
BRANCH  72  75
ATOM     75  C   UNL A   1      31.708  26.758  22.789  1.00  0.00     0.142 C 
ATOM     76  C   UNL A   1      31.969  25.989  21.503  1.00  0.00     0.276 C 
ATOM     77  C   UNL A   1      30.782  25.857  23.602  1.00  0.00     0.065 C 
ATOM     78  N   UNL A   1      32.071  24.589  21.958  1.00  0.00    -0.331 N 
ATOM     79  C   UNL A   1      30.956  24.497  22.905  1.00  0.00     0.267 C 
ATOM     80  H   UNL A   1      31.985  23.890  21.220  1.00  0.00     0.348 HD
BRANCH  77  81
ATOM     81  C   UNL A   1      30.999  25.813  25.099  1.00  0.00    -0.001 C 
ATOM     82  C   UNL A   1      29.925  25.740  26.169  1.00  0.00     0.004 C 
ATOM     83  C   UNL A   1      30.775  24.542  25.888  1.00  0.00     0.004 C 
ENDBRANCH  77  81
BRANCH  78  84
ATOM     84  C   UNL A   1      33.421  24.218  22.456  1.00  0.00     0.304 C 
BRANCH  84  85
ATOM     85  C   UNL A   1      33.679  23.498  23.810  1.00  0.00     0.290 C 
BRANCH  85  86
ATOM     86  O   UNL A   1      34.550  22.357  23.695  1.00  0.00    -0.488 OA
BRANCH  86  87
ATOM     87  C   UNL A   1      35.629  22.390  24.539  1.00  0.00     0.119 A 
ATOM     88  C   UNL A   1      35.920  23.628  25.119  1.00  0.00     0.049 A 
ATOM     89  C   UNL A   1      36.462  21.295  24.773  1.00  0.00     0.049 A 
ATOM     90  C   UNL A   1      37.138  23.823  25.769  1.00  0.00     0.043 A 
ATOM     91  C   UNL A   1      37.665  21.480  25.463  1.00  0.00     0.043 A 
ATOM     92  C   UNL A   1      38.009  22.751  25.917  1.00  0.00     0.123 A 
ATOM     93  F   UNL A   1      39.216  22.954  26.464  1.00  0.00    -0.207 F 
ENDBRANCH  86  87
ENDBRANCH  85  86
ENDBRANCH  84  85
ENDBRANCH  78  84
ENDBRANCH  72  75
ENDBRANCH  70  71
ENDBRANCH   1  70
TORSDOF 19
ENDMDL
MODEL 2
REMARK VINA RESULT:      -9.8      3.145      3.796
REMARK SMILES O=C(NCCCCNC(=O)[C@@H]1C[N@@H+](CCOc2ccc(F)cc2)C[C@H]1C1CC1)c1ccc(-c2c3nc(c(-c4ccc(S(=O)(=O)[O-])cc4)c4ccc([nH]4)c(-c4ccc(S(=O)(=O)[O-])cc4)c4nc(c(-c5ccc(S(=O)(=O)[O-])cc5)c5ccc2[nH]5)C=C4)C=C3)cc1
REMARK SMILES IDX 6 1 5 2 4 3 3 4 1 5 2 6 29 8 30 9 88 10 31 11 87 12 32 13
REMARK SMILES IDX 33 14 34 15 81 16 35 17 86 18 80 19 82 20 36 21 85 22 79 23
REMARK SMILES IDX 78 24 37 26 67 27 48 28 66 29 49 30 52 31 65 32 83 33 50 34
REMARK SMILES IDX 51 35 64 37 84 38 53 39 38 40 39 41 47 42 40 43 46 44 41 45
REMARK SMILES IDX 42 46 43 47 44 48 45 49 68 50 69 51 77 52 70 53 76 54 71 55
REMARK SMILES IDX 72 56 73 57 74 58 75 59 54 60 55 61 63 62 56 63 62 64 57 65
REMARK SMILES IDX 58 66 59 67 60 68 61 69 7 70 8 71 9 72 10 74 11 75 12 76
REMARK SMILES IDX 25 77 13 78 24 79 26 81 27 82 28 83 14 84 15 85 16 86 17 87
REMARK SMILES IDX 18 88 23 89 19 90 22 91 20 92 21 93
REMARK H PARENT 3 7 82 25 52 36 8 73 13 80
REMARK Flexibility Score: inf
ROOT
ATOM      1  C   UNL A   1      33.040  28.581  24.302  1.00  0.00     0.023 C 
ENDROOT
BRANCH   1   2
ATOM      2  C   UNL A   1      33.084  28.457  25.818  1.00  0.00     0.023 C 
BRANCH   2   3
ATOM      3  C   UNL A   1      34.250  29.200  26.450  1.00  0.00     0.116 C 
BRANCH   3   4
ATOM      4  N   UNL A   1      33.866  30.530  26.912  1.00  0.00    -0.352 N 
ATOM      5  O   UNL A   1      33.946  32.294  28.333  1.00  0.00    -0.269 OA
ATOM      6  C   UNL A   1      34.475  31.284  27.884  1.00  0.00     0.251 C 
ATOM      7  H   UNL A   1      33.079  30.931  26.477  1.00  0.00     0.163 HD
BRANCH   6   8
ATOM      8  C   UNL A   1      35.779  30.815  28.374  1.00  0.00     0.039 A 
ATOM      9  C   UNL A   1      35.809  29.710  29.228  1.00  0.00     0.014 A 
ATOM     10  C   UNL A   1      36.929  31.559  28.108  1.00  0.00     0.014 A 
ATOM     11  C   UNL A   1      36.962  29.444  29.945  1.00  0.00     0.010 A 
ATOM     12  C   UNL A   1      38.119  31.213  28.748  1.00  0.00     0.010 A 
ATOM     13  C   UNL A   1      38.136  30.174  29.692  1.00  0.00    -0.014 A 
BRANCH  13  14
ATOM     14  C   UNL A   1      39.388  29.760  30.370  1.00  0.00     0.031 A 
ATOM     15  C   UNL A   1      40.257  28.664  29.823  1.00  0.00     0.074 A 
ATOM     16  C   UNL A   1      39.739  30.423  31.490  1.00  0.00     0.049 A 
ATOM     17  N   UNL A   1      41.381  28.197  30.306  1.00  0.00    -0.248 NA
ATOM     18  C   UNL A   1      39.814  28.001  28.587  1.00  0.00     0.031 C 
ATOM     19  C   UNL A   1      38.961  31.505  32.107  1.00  0.00     0.029 A 
ATOM     20  N   UNL A   1      40.841  30.310  32.292  1.00  0.00    -0.354 N 
ATOM     21  C   UNL A   1      41.766  27.170  29.453  1.00  0.00     0.074 A 
ATOM     22  C   UNL A   1      40.746  27.070  28.430  1.00  0.00     0.031 C 
ATOM     23  C   UNL A   1      39.639  31.994  33.152  1.00  0.00     0.029 A 
ATOM     24  C   UNL A   1      40.852  31.208  33.333  1.00  0.00     0.049 A 
ATOM     25  H   UNL A   1      41.556  29.651  32.141  1.00  0.00     0.167 HD
ATOM     26  C   UNL A   1      42.868  26.384  29.523  1.00  0.00     0.031 A 
ATOM     27  C   UNL A   1      41.724  31.368  34.343  1.00  0.00     0.031 A 
ATOM     28  C   UNL A   1      43.874  26.498  30.550  1.00  0.00     0.049 A 
ATOM     29  C   UNL A   1      42.919  30.467  34.410  1.00  0.00     0.074 A 
ATOM     30  C   UNL A   1      45.042  25.768  30.695  1.00  0.00     0.029 A 
ATOM     31  N   UNL A   1      43.830  27.395  31.608  1.00  0.00    -0.354 N 
ATOM     32  N   UNL A   1      43.274  29.513  33.582  1.00  0.00    -0.248 NA
ATOM     33  C   UNL A   1      43.828  30.660  35.544  1.00  0.00     0.031 C 
ATOM     34  C   UNL A   1      45.674  26.186  31.871  1.00  0.00     0.029 A 
ATOM     35  C   UNL A   1      44.936  27.220  32.424  1.00  0.00     0.049 A 
ATOM     36  H   UNL A   1      43.118  28.058  31.758  1.00  0.00     0.167 HD
ATOM     37  C   UNL A   1      44.461  29.001  34.088  1.00  0.00     0.074 A 
ATOM     38  C   UNL A   1      44.771  29.767  35.280  1.00  0.00     0.031 C 
ATOM     39  C   UNL A   1      45.222  27.986  33.612  1.00  0.00     0.031 A 
BRANCH  26  40
ATOM     40  C   UNL A   1      43.034  25.307  28.482  1.00  0.00    -0.014 A 
ATOM     41  C   UNL A   1      43.768  25.532  27.303  1.00  0.00     0.010 A 
ATOM     42  C   UNL A   1      42.495  24.027  28.714  1.00  0.00     0.010 A 
ATOM     43  C   UNL A   1      43.928  24.510  26.361  1.00  0.00     0.020 A 
ATOM     44  C   UNL A   1      42.674  22.996  27.788  1.00  0.00     0.020 A 
ATOM     45  C   UNL A   1      43.378  23.248  26.609  1.00  0.00     0.054 A 
BRANCH  45  46
ATOM     46  S   UNL A   1      43.620  21.935  25.381  1.00  0.00     0.124 S 
ATOM     47  O   UNL A   1      43.502  22.674  24.125  1.00  0.00    -0.237 OA
ATOM     48  O   UNL A   1      44.959  21.444  25.696  1.00  0.00    -0.237 OA
ATOM     49  O   UNL A   1      42.535  20.997  25.654  1.00  0.00    -0.744 OA
ENDBRANCH  45  46
ENDBRANCH  26  40
BRANCH  27  50
ATOM     50  C   UNL A   1      41.470  32.409  35.373  1.00  0.00    -0.014 A 
ATOM     51  C   UNL A   1      42.059  33.680  35.269  1.00  0.00     0.010 A 
ATOM     52  C   UNL A   1      40.595  32.143  36.443  1.00  0.00     0.010 A 
ATOM     53  C   UNL A   1      41.788  34.662  36.226  1.00  0.00     0.020 A 
ATOM     54  C   UNL A   1      40.295  33.131  37.382  1.00  0.00     0.020 A 
ATOM     55  C   UNL A   1      40.906  34.382  37.274  1.00  0.00     0.054 A 
BRANCH  55  56
ATOM     56  S   UNL A   1      40.525  35.689  38.472  1.00  0.00     0.124 S 
ATOM     57  O   UNL A   1      39.935  34.929  39.569  1.00  0.00    -0.237 OA
ATOM     58  O   UNL A   1      41.841  36.266  38.737  1.00  0.00    -0.237 OA
ATOM     59  O   UNL A   1      39.607  36.561  37.746  1.00  0.00    -0.744 OA
ENDBRANCH  55  56
ENDBRANCH  27  50
BRANCH  39  60
ATOM     60  C   UNL A   1      46.483  27.668  34.370  1.00  0.00    -0.014 A 
ATOM     61  C   UNL A   1      46.498  26.695  35.383  1.00  0.00     0.010 A 
ATOM     62  C   UNL A   1      47.675  28.337  34.040  1.00  0.00     0.010 A 
ATOM     63  C   UNL A   1      47.677  26.422  36.081  1.00  0.00     0.020 A 
ATOM     64  C   UNL A   1      48.863  28.047  34.714  1.00  0.00     0.020 A 
ATOM     65  C   UNL A   1      48.852  27.102  35.742  1.00  0.00     0.054 A 
BRANCH  65  66
ATOM     66  S   UNL A   1      50.378  26.708  36.639  1.00  0.00     0.124 S 
ATOM     67  O   UNL A   1      51.146  25.987  35.628  1.00  0.00    -0.237 OA
ATOM     68  O   UNL A   1      50.892  28.029  36.994  1.00  0.00    -0.237 OA
ATOM     69  O   UNL A   1      49.919  25.901  37.767  1.00  0.00    -0.744 OA
ENDBRANCH  65  66
ENDBRANCH  39  60
ENDBRANCH  13  14
ENDBRANCH   6   8
ENDBRANCH   3   4
ENDBRANCH   2   3
ENDBRANCH   1   2
BRANCH   1  70
ATOM     70  C   UNL A   1      33.974  27.605  23.607  1.00  0.00     0.116 C 
BRANCH  70  71
ATOM     71  N   UNL A   1      33.401  27.200  22.341  1.00  0.00    -0.356 N 
ATOM     72  C   UNL A   1      33.219  25.936  21.876  1.00  0.00     0.229 C 
ATOM     73  H   UNL A   1      33.106  27.929  21.747  1.00  0.00     0.163 HD
ATOM     74  O   UNL A   1      33.025  25.765  20.674  1.00  0.00    -0.275 OA
BRANCH  72  75
ATOM     75  C   UNL A   1      33.125  24.824  22.886  1.00  0.00     0.142 C 
ATOM     76  C   UNL A   1      33.426  23.458  22.290  1.00  0.00     0.276 C 
ATOM     77  C   UNL A   1      31.676  24.733  23.359  1.00  0.00     0.065 C 
ATOM     78  N   UNL A   1      32.717  22.529  23.192  1.00  0.00    -0.331 N 
ATOM     79  C   UNL A   1      31.436  23.215  23.385  1.00  0.00     0.267 C 
ATOM     80  H   UNL A   1      32.579  21.590  22.819  1.00  0.00     0.348 HD
BRANCH  77  81
ATOM     81  C   UNL A   1      31.326  25.434  24.654  1.00  0.00    -0.001 C 
ATOM     82  C   UNL A   1      30.006  26.104  24.994  1.00  0.00     0.004 C 
ATOM     83  C   UNL A   1      30.374  24.811  25.651  1.00  0.00     0.004 C 
ENDBRANCH  77  81
BRANCH  78  84
ATOM     84  C   UNL A   1      33.489  22.171  24.410  1.00  0.00     0.304 C 
BRANCH  84  85
ATOM     85  C   UNL A   1      32.968  21.212  25.517  1.00  0.00     0.290 C 
BRANCH  85  86
ATOM     86  O   UNL A   1      31.927  20.326  25.066  1.00  0.00    -0.488 OA
BRANCH  86  87
ATOM     87  C   UNL A   1      32.386  19.180  24.472  1.00  0.00     0.119 A 
ATOM     88  C   UNL A   1      33.193  18.357  25.264  1.00  0.00     0.049 A 
ATOM     89  C   UNL A   1      32.151  18.852  23.136  1.00  0.00     0.049 A 
ATOM     90  C   UNL A   1      33.918  17.321  24.677  1.00  0.00     0.043 A 
ATOM     91  C   UNL A   1      32.846  17.785  22.556  1.00  0.00     0.043 A 
ATOM     92  C   UNL A   1      33.753  17.057  23.323  1.00  0.00     0.123 A 
ATOM     93  F   UNL A   1      34.511  16.120  22.738  1.00  0.00    -0.207 F 
ENDBRANCH  86  87
ENDBRANCH  85  86
ENDBRANCH  84  85
ENDBRANCH  78  84
ENDBRANCH  72  75
ENDBRANCH  70  71
ENDBRANCH   1  70
TORSDOF 19
ENDMDL
MODEL 3
REMARK VINA RESULT:      -9.8      2.982      8.549
REMARK SMILES O=C(NCCCCNC(=O)[C@@H]1C[N@@H+](CCOc2ccc(F)cc2)C[C@H]1C1CC1)c1ccc(-c2c3nc(c(-c4ccc(S(=O)(=O)[O-])cc4)c4ccc([nH]4)c(-c4ccc(S(=O)(=O)[O-])cc4)c4nc(c(-c5ccc(S(=O)(=O)[O-])cc5)c5ccc2[nH]5)C=C4)C=C3)cc1
REMARK SMILES IDX 6 1 5 2 4 3 3 4 1 5 2 6 29 8 30 9 88 10 31 11 87 12 32 13
REMARK SMILES IDX 33 14 34 15 81 16 35 17 86 18 80 19 82 20 36 21 85 22 79 23
REMARK SMILES IDX 78 24 37 26 67 27 48 28 66 29 49 30 52 31 65 32 83 33 50 34
REMARK SMILES IDX 51 35 64 37 84 38 53 39 38 40 39 41 47 42 40 43 46 44 41 45
REMARK SMILES IDX 42 46 43 47 44 48 45 49 68 50 69 51 77 52 70 53 76 54 71 55
REMARK SMILES IDX 72 56 73 57 74 58 75 59 54 60 55 61 63 62 56 63 62 64 57 65
REMARK SMILES IDX 58 66 59 67 60 68 61 69 7 70 8 71 9 72 10 74 11 75 12 76
REMARK SMILES IDX 25 77 13 78 24 79 26 81 27 82 28 83 14 84 15 85 16 86 17 87
REMARK SMILES IDX 18 88 23 89 19 90 22 91 20 92 21 93
REMARK H PARENT 3 7 82 25 52 36 8 73 13 80
REMARK Flexibility Score: inf
ROOT
ATOM      1  C   UNL A   1      35.331  23.013  23.798  1.00  0.00     0.023 C 
ENDROOT
BRANCH   1   2
ATOM      2  C   UNL A   1      35.981  24.043  24.711  1.00  0.00     0.023 C 
BRANCH   2   3
ATOM      3  C   UNL A   1      36.334  23.493  26.084  1.00  0.00     0.116 C 
BRANCH   3   4
ATOM      4  N   UNL A   1      37.331  22.429  26.006  1.00  0.00    -0.352 N 
ATOM      5  O   UNL A   1      39.446  21.627  25.869  1.00  0.00    -0.269 OA
ATOM      6  C   UNL A   1      38.690  22.546  26.158  1.00  0.00     0.251 C 
ATOM      7  H   UNL A   1      36.988  21.525  25.825  1.00  0.00     0.163 HD
BRANCH   6   8
ATOM      8  C   UNL A   1      39.197  23.830  26.663  1.00  0.00     0.039 A 
ATOM      9  C   UNL A   1      39.677  24.764  25.741  1.00  0.00     0.014 A 
ATOM     10  C   UNL A   1      39.332  24.031  28.037  1.00  0.00     0.014 A 
ATOM     11  C   UNL A   1      40.438  25.827  26.194  1.00  0.00     0.010 A 
ATOM     12  C   UNL A   1      40.001  25.168  28.491  1.00  0.00     0.010 A 
ATOM     13  C   UNL A   1      40.584  26.056  27.573  1.00  0.00    -0.014 A 
BRANCH  13  14
ATOM     14  C   UNL A   1      41.278  27.288  28.018  1.00  0.00     0.031 A 
ATOM     15  C   UNL A   1      40.532  28.433  28.643  1.00  0.00     0.074 A 
ATOM     16  C   UNL A   1      42.616  27.339  27.866  1.00  0.00     0.049 A 
ATOM     17  N   UNL A   1      41.006  29.571  29.082  1.00  0.00    -0.248 NA
ATOM     18  C   UNL A   1      39.075  28.293  28.789  1.00  0.00     0.031 C 
ATOM     19  C   UNL A   1      43.437  26.280  27.268  1.00  0.00     0.029 A 
ATOM     20  N   UNL A   1      43.525  28.299  28.222  1.00  0.00    -0.354 N 
ATOM     21  C   UNL A   1      39.907  30.295  29.532  1.00  0.00     0.074 A 
ATOM     22  C   UNL A   1      38.739  29.473  29.295  1.00  0.00     0.031 C 
ATOM     23  C   UNL A   1      44.728  26.621  27.353  1.00  0.00     0.029 A 
ATOM     24  C   UNL A   1      44.823  27.955  27.929  1.00  0.00     0.049 A 
ATOM     25  H   UNL A   1      43.274  29.151  28.645  1.00  0.00     0.167 HD
ATOM     26  C   UNL A   1      39.881  31.531  30.086  1.00  0.00     0.031 A 
ATOM     27  C   UNL A   1      45.966  28.646  28.079  1.00  0.00     0.031 A 
ATOM     28  C   UNL A   1      41.056  32.336  30.312  1.00  0.00     0.049 A 
ATOM     29  C   UNL A   1      45.903  30.021  28.669  1.00  0.00     0.074 A 
ATOM     30  C   UNL A   1      41.140  33.591  30.893  1.00  0.00     0.029 A 
ATOM     31  N   UNL A   1      42.349  31.969  29.968  1.00  0.00    -0.354 N 
ATOM     32  N   UNL A   1      44.855  30.679  29.104  1.00  0.00    -0.248 NA
ATOM     33  C   UNL A   1      47.172  30.747  28.787  1.00  0.00     0.031 C 
ATOM     34  C   UNL A   1      42.475  34.005  30.847  1.00  0.00     0.029 A 
ATOM     35  C   UNL A   1      43.234  32.983  30.299  1.00  0.00     0.049 A 
ATOM     36  H   UNL A   1      42.601  31.114  29.550  1.00  0.00     0.167 HD
ATOM     37  C   UNL A   1      45.342  31.896  29.564  1.00  0.00     0.074 A 
ATOM     38  C   UNL A   1      46.780  31.868  29.374  1.00  0.00     0.031 C 
ATOM     39  C   UNL A   1      44.661  32.941  30.093  1.00  0.00     0.031 A 
BRANCH  26  40
ATOM     40  C   UNL A   1      38.540  32.110  30.457  1.00  0.00    -0.014 A 
ATOM     41  C   UNL A   1      37.992  31.929  31.740  1.00  0.00     0.010 A 
ATOM     42  C   UNL A   1      37.841  32.898  29.523  1.00  0.00     0.010 A 
ATOM     43  C   UNL A   1      36.756  32.495  32.069  1.00  0.00     0.020 A 
ATOM     44  C   UNL A   1      36.618  33.487  29.856  1.00  0.00     0.020 A 
ATOM     45  C   UNL A   1      36.075  33.269  31.124  1.00  0.00     0.054 A 
BRANCH  45  46
ATOM     46  S   UNL A   1      34.485  34.009  31.586  1.00  0.00     0.124 S 
ATOM     47  O   UNL A   1      34.906  35.264  32.204  1.00  0.00    -0.237 OA
ATOM     48  O   UNL A   1      33.805  34.140  30.299  1.00  0.00    -0.237 OA
ATOM     49  O   UNL A   1      33.898  33.033  32.500  1.00  0.00    -0.744 OA
ENDBRANCH  45  46
ENDBRANCH  26  40
BRANCH  27  50
ATOM     50  C   UNL A   1      47.250  28.042  27.635  1.00  0.00    -0.014 A 
ATOM     51  C   UNL A   1      47.738  28.266  26.337  1.00  0.00     0.010 A 
ATOM     52  C   UNL A   1      48.016  27.275  28.533  1.00  0.00     0.010 A 
ATOM     53  C   UNL A   1      48.962  27.721  25.940  1.00  0.00     0.020 A 
ATOM     54  C   UNL A   1      49.254  26.756  28.152  1.00  0.00     0.020 A 
ATOM     55  C   UNL A   1      49.713  26.972  26.851  1.00  0.00     0.054 A 
BRANCH  55  56
ATOM     56  S   UNL A   1      51.324  26.321  26.333  1.00  0.00     0.124 S 
ATOM     57  O   UNL A   1      52.246  27.256  26.969  1.00  0.00    -0.237 OA
ATOM     58  O   UNL A   1      51.310  24.968  26.886  1.00  0.00    -0.237 OA
ATOM     59  O   UNL A   1      51.266  26.389  24.875  1.00  0.00    -0.744 OA
ENDBRANCH  55  56
ENDBRANCH  27  50
BRANCH  39  60
ATOM     60  C   UNL A   1      45.472  34.130  30.529  1.00  0.00    -0.014 A 
ATOM     61  C   UNL A   1      45.727  35.199  29.654  1.00  0.00     0.010 A 
ATOM     62  C   UNL A   1      45.960  34.188  31.847  1.00  0.00     0.010 A 
ATOM     63  C   UNL A   1      46.491  36.290  30.077  1.00  0.00     0.020 A 
ATOM     64  C   UNL A   1      46.699  35.290  32.284  1.00  0.00     0.020 A 
ATOM     65  C   UNL A   1      46.974  36.326  31.389  1.00  0.00     0.054 A 
BRANCH  65  66
ATOM     66  S   UNL A   1      47.934  37.767  31.926  1.00  0.00     0.124 S 
ATOM     67  O   UNL A   1      47.784  37.709  33.377  1.00  0.00    -0.237 OA
ATOM     68  O   UNL A   1      49.272  37.467  31.421  1.00  0.00    -0.237 OA
ATOM     69  O   UNL A   1      47.267  38.892  31.275  1.00  0.00    -0.744 OA
ENDBRANCH  65  66
ENDBRANCH  39  60
ENDBRANCH  13  14
ENDBRANCH   6   8
ENDBRANCH   3   4
ENDBRANCH   2   3
ENDBRANCH   1   2
BRANCH   1  70
ATOM     70  C   UNL A   1      33.960  23.447  23.308  1.00  0.00     0.116 C 
BRANCH  70  71
ATOM     71  N   UNL A   1      34.093  24.615  22.463  1.00  0.00    -0.356 N 
ATOM     72  C   UNL A   1      33.323  25.735  22.464  1.00  0.00     0.229 C 
ATOM     73  H   UNL A   1      34.830  24.595  21.809  1.00  0.00     0.163 HD
ATOM     74  O   UNL A   1      33.356  26.483  21.489  1.00  0.00    -0.275 OA
BRANCH  72  75
ATOM     75  C   UNL A   1      32.575  26.070  23.727  1.00  0.00     0.142 C 
ATOM     76  C   UNL A   1      31.075  25.861  23.598  1.00  0.00     0.276 C 
ATOM     77  C   UNL A   1      32.740  27.564  23.993  1.00  0.00     0.065 C 
ATOM     78  N   UNL A   1      30.515  26.769  24.617  1.00  0.00    -0.331 N 
ATOM     79  C   UNL A   1      31.321  27.978  24.420  1.00  0.00     0.267 C 
ATOM     80  H   UNL A   1      29.520  26.971  24.514  1.00  0.00     0.348 HD
BRANCH  77  81
ATOM     81  C   UNL A   1      33.821  27.978  24.968  1.00  0.00    -0.001 C 
ATOM     82  C   UNL A   1      33.740  29.097  25.991  1.00  0.00     0.004 C 
ATOM     83  C   UNL A   1      33.705  27.672  26.445  1.00  0.00     0.004 C 
ENDBRANCH  77  81
BRANCH  78  84
ATOM     84  C   UNL A   1      30.481  26.188  25.984  1.00  0.00     0.304 C 
BRANCH  84  85
ATOM     85  C   UNL A   1      30.303  24.671  26.278  1.00  0.00     0.290 C 
BRANCH  85  86
ATOM     86  O   UNL A   1      31.297  24.140  27.174  1.00  0.00    -0.488 OA
BRANCH  86  87
ATOM     87  C   UNL A   1      31.823  22.939  26.778  1.00  0.00     0.119 A 
ATOM     88  C   UNL A   1      32.932  22.485  27.498  1.00  0.00     0.049 A 
ATOM     89  C   UNL A   1      31.360  22.217  25.677  1.00  0.00     0.049 A 
ATOM     90  C   UNL A   1      33.692  21.423  27.008  1.00  0.00     0.043 A 
ATOM     91  C   UNL A   1      32.098  21.124  25.211  1.00  0.00     0.043 A 
ATOM     92  C   UNL A   1      33.279  20.765  25.857  1.00  0.00     0.123 A 
ATOM     93  F   UNL A   1      34.052  19.802  25.336  1.00  0.00    -0.207 F 
ENDBRANCH  86  87
ENDBRANCH  85  86
ENDBRANCH  84  85
ENDBRANCH  78  84
ENDBRANCH  72  75
ENDBRANCH  70  71
ENDBRANCH   1  70
TORSDOF 19
ENDMDL
