MODEL 1
REMARK VINA RESULT:     -10.3      0.000      0.000
REMARK SMILES COc1ncccc1C[C@H](C(=O)NCCCCNC(=O)c1ccc(-c2c3nc(c(-c4ccc(S(=O)(=O)[O-])cc4)c4ccc([nH]4)c(-c4ccc(S(=O)(=O)[O-])cc4)c4nc(c(-c5ccc(S(=O)(=O)[O-])cc5)c5ccc2[nH]5)C=C4)C=C3)cc1)c1ccc(F)cc1
REMARK SMILES IDX 15 1 14 2 13 3 11 4 12 5 10 7 9 8 8 9 3 10 4 11 5 12 7 13
REMARK SMILES IDX 6 14 2 15 1 16 81 17 82 18 87 19 83 20 86 21 84 22 85 23
REMARK SMILES IDX 16 24 17 25 18 26 19 27 20 29 21 30 22 31 80 32 23 33 79 34
REMARK SMILES IDX 24 35 25 36 26 37 73 38 27 39 78 40 72 41 74 42 28 43 77 44
REMARK SMILES IDX 71 45 70 46 29 48 59 49 40 50 58 51 41 52 44 53 57 54 75 55
REMARK SMILES IDX 42 56 43 57 56 59 76 60 45 61 30 62 31 63 39 64 32 65 38 66
REMARK SMILES IDX 33 67 34 68 35 69 36 70 37 71 60 72 61 73 69 74 62 75 68 76
REMARK SMILES IDX 63 77 64 78 65 79 66 80 67 81 46 82 47 83 55 84 48 85 54 86
REMARK SMILES IDX 49 87 50 88 51 89 52 90 53 91
REMARK H PARENT 13 6 18 28 74 47 44 58
REMARK Flexibility Score: inf
ROOT
ATOM      1  C   UNL A   1      34.874  23.963  25.995  1.00  0.00     0.023 C 
ENDROOT
BRANCH   1   2
ATOM      2  C   UNL A   1      33.594  24.295  25.229  1.00  0.00     0.116 C 
BRANCH   2   3
ATOM      3  N   UNL A   1      32.438  24.468  26.094  1.00  0.00    -0.356 N 
ATOM      4  C   UNL A   1      31.485  25.453  26.083  1.00  0.00     0.227 C 
ATOM      5  O   UNL A   1      30.520  25.338  26.839  1.00  0.00    -0.274 OA
ATOM      6  H   UNL A   1      32.323  23.778  26.786  1.00  0.00     0.163 HD
BRANCH   4   7
ATOM      7  C   UNL A   1      31.635  26.633  25.113  1.00  0.00     0.113 C 
BRANCH   7   8
ATOM      8  C   UNL A   1      30.230  26.900  24.512  1.00  0.00     0.059 C 
BRANCH   8   9
ATOM      9  C   UNL A   1      30.035  28.034  23.516  1.00  0.00     0.015 A 
ATOM     10  C   UNL A   1      28.825  28.631  23.161  1.00  0.00     0.216 A 
ATOM     11  N   UNL A   1      28.688  29.592  22.218  1.00  0.00    -0.222 NA
ATOM     12  C   UNL A   1      29.807  30.002  21.592  1.00  0.00     0.115 A 
ATOM     13  C   UNL A   1      31.173  28.513  22.846  1.00  0.00     0.011 A 
ATOM     14  C   UNL A   1      31.064  29.507  21.876  1.00  0.00     0.021 A 
BRANCH  10  15
ATOM     15  O   UNL A   1      27.657  28.170  23.700  1.00  0.00    -0.481 OA
ATOM     16  C   UNL A   1      26.526  28.707  23.027  1.00  0.00     0.280 C 
ENDBRANCH  10  15
ENDBRANCH   8   9
ENDBRANCH   7   8
BRANCH   7  17
ATOM     17  C   UNL A   1      32.381  27.811  25.756  1.00  0.00    -0.035 A 
ATOM     18  C   UNL A   1      33.786  27.904  25.775  1.00  0.00     0.007 A 
ATOM     19  C   UNL A   1      31.649  28.751  26.508  1.00  0.00     0.007 A 
ATOM     20  C   UNL A   1      34.432  28.843  26.583  1.00  0.00     0.039 A 
ATOM     21  C   UNL A   1      32.296  29.707  27.295  1.00  0.00     0.039 A 
ATOM     22  C   UNL A   1      33.682  29.727  27.346  1.00  0.00     0.123 A 
ATOM     23  F   UNL A   1      34.304  30.593  28.155  1.00  0.00    -0.207 F 
ENDBRANCH   7  17
ENDBRANCH   4   7
ENDBRANCH   2   3
ENDBRANCH   1   2
BRANCH   1  24
ATOM     24  C   UNL A   1      35.785  22.929  25.325  1.00  0.00     0.023 C 
BRANCH  24  25
ATOM     25  C   UNL A   1      37.210  23.387  25.023  1.00  0.00     0.116 C 
BRANCH  25  26
ATOM     26  N   UNL A   1      38.228  22.462  25.491  1.00  0.00    -0.352 N 
ATOM     27  C   UNL A   1      39.348  22.705  26.258  1.00  0.00     0.251 C 
ATOM     28  H   UNL A   1      38.100  21.523  25.220  1.00  0.00     0.163 HD
ATOM     29  O   UNL A   1      40.146  21.803  26.466  1.00  0.00    -0.269 OA
BRANCH  27  30
ATOM     30  C   UNL A   1      39.605  24.064  26.796  1.00  0.00     0.039 A 
ATOM     31  C   UNL A   1      39.197  24.356  28.102  1.00  0.00     0.014 A 
ATOM     32  C   UNL A   1      40.241  25.046  26.032  1.00  0.00     0.014 A 
ATOM     33  C   UNL A   1      39.494  25.601  28.665  1.00  0.00     0.010 A 
ATOM     34  C   UNL A   1      40.596  26.261  26.617  1.00  0.00     0.010 A 
ATOM     35  C   UNL A   1      40.233  26.551  27.942  1.00  0.00    -0.014 A 
BRANCH  35  36
ATOM     36  C   UNL A   1      40.661  27.835  28.558  1.00  0.00     0.031 A 
ATOM     37  C   UNL A   1      42.033  27.976  29.159  1.00  0.00     0.074 A 
ATOM     38  C   UNL A   1      39.782  28.852  28.660  1.00  0.00     0.049 A 
ATOM     39  N   UNL A   1      42.551  28.990  29.804  1.00  0.00    -0.248 NA
ATOM     40  C   UNL A   1      42.927  26.814  29.046  1.00  0.00     0.031 C 
ATOM     41  C   UNL A   1      38.403  28.829  28.168  1.00  0.00     0.029 A 
ATOM     42  N   UNL A   1      39.912  30.095  29.227  1.00  0.00    -0.354 N 
ATOM     43  C   UNL A   1      43.821  28.583  30.194  1.00  0.00     0.074 A 
ATOM     44  C   UNL A   1      43.975  27.212  29.752  1.00  0.00     0.031 C 
ATOM     45  C   UNL A   1      37.819  30.005  28.446  1.00  0.00     0.029 A 
ATOM     46  C   UNL A   1      38.765  30.851  29.168  1.00  0.00     0.049 A 
ATOM     47  H   UNL A   1      40.747  30.415  29.639  1.00  0.00     0.167 HD
ATOM     48  C   UNL A   1      44.778  29.286  30.849  1.00  0.00     0.031 A 
ATOM     49  C   UNL A   1      38.493  32.081  29.648  1.00  0.00     0.031 A 
ATOM     50  C   UNL A   1      44.625  30.647  31.288  1.00  0.00     0.049 A 
ATOM     51  C   UNL A   1      39.569  32.850  30.361  1.00  0.00     0.074 A 
ATOM     52  C   UNL A   1      45.562  31.466  31.895  1.00  0.00     0.029 A 
ATOM     53  N   UNL A   1      43.458  31.390  31.178  1.00  0.00    -0.354 N 
ATOM     54  N   UNL A   1      40.793  32.477  30.647  1.00  0.00    -0.248 NA
ATOM     55  C   UNL A   1      39.231  34.210  30.803  1.00  0.00     0.031 C 
ATOM     56  C   UNL A   1      44.944  32.685  32.201  1.00  0.00     0.029 A 
ATOM     57  C   UNL A   1      43.640  32.647  31.731  1.00  0.00     0.049 A 
ATOM     58  H   UNL A   1      42.623  31.070  30.767  1.00  0.00     0.167 HD
ATOM     59  C   UNL A   1      41.380  33.563  31.288  1.00  0.00     0.074 A 
ATOM     60  C   UNL A   1      40.380  34.611  31.334  1.00  0.00     0.031 C 
ATOM     61  C   UNL A   1      42.635  33.680  31.787  1.00  0.00     0.031 A 
BRANCH  48  62
ATOM     62  C   UNL A   1      46.069  28.568  31.151  1.00  0.00    -0.014 A 
ATOM     63  C   UNL A   1      46.255  27.879  32.363  1.00  0.00     0.010 A 
ATOM     64  C   UNL A   1      47.116  28.590  30.211  1.00  0.00     0.010 A 
ATOM     65  C   UNL A   1      47.488  27.290  32.663  1.00  0.00     0.020 A 
ATOM     66  C   UNL A   1      48.340  27.977  30.493  1.00  0.00     0.020 A 
ATOM     67  C   UNL A   1      48.527  27.357  31.731  1.00  0.00     0.054 A 
BRANCH  67  68
ATOM     68  S   UNL A   1      50.128  26.619  32.156  1.00  0.00     0.124 S 
ATOM     69  O   UNL A   1      49.741  25.620  33.149  1.00  0.00    -0.237 OA
ATOM     70  O   UNL A   1      50.589  26.085  30.877  1.00  0.00    -0.237 OA
ATOM     71  O   UNL A   1      50.903  27.744  32.674  1.00  0.00    -0.744 OA
ENDBRANCH  67  68
ENDBRANCH  48  62
BRANCH  49  72
ATOM     72  C   UNL A   1      37.136  32.654  29.443  1.00  0.00    -0.014 A 
ATOM     73  C   UNL A   1      36.203  32.671  30.493  1.00  0.00     0.010 A 
ATOM     74  C   UNL A   1      36.800  33.257  28.216  1.00  0.00     0.010 A 
ATOM     75  C   UNL A   1      34.961  33.291  30.325  1.00  0.00     0.020 A 
ATOM     76  C   UNL A   1      35.570  33.898  28.053  1.00  0.00     0.020 A 
ATOM     77  C   UNL A   1      34.657  33.910  29.110  1.00  0.00     0.054 A 
BRANCH  77  78
ATOM     78  S   UNL A   1      33.086  34.806  28.953  1.00  0.00     0.124 S 
ATOM     79  O   UNL A   1      32.358  33.977  27.997  1.00  0.00    -0.237 OA
ATOM     80  O   UNL A   1      32.576  34.790  30.322  1.00  0.00    -0.237 OA
ATOM     81  O   UNL A   1      33.490  36.122  28.464  1.00  0.00    -0.744 OA
ENDBRANCH  77  78
ENDBRANCH  49  72
BRANCH  61  82
ATOM     82  C   UNL A   1      43.014  34.995  32.415  1.00  0.00    -0.014 A 
ATOM     83  C   UNL A   1      43.589  36.028  31.653  1.00  0.00     0.010 A 
ATOM     84  C   UNL A   1      42.735  35.222  33.775  1.00  0.00     0.010 A 
ATOM     85  C   UNL A   1      43.900  37.256  32.247  1.00  0.00     0.020 A 
ATOM     86  C   UNL A   1      43.021  36.455  34.366  1.00  0.00     0.020 A 
ATOM     87  C   UNL A   1      43.613  37.461  33.600  1.00  0.00     0.054 A 
BRANCH  87  88
ATOM     88  S   UNL A   1      43.979  39.079  34.335  1.00  0.00     0.124 S 
ATOM     89  O   UNL A   1      45.297  39.374  33.780  1.00  0.00    -0.237 OA
ATOM     90  O   UNL A   1      42.887  39.912  33.839  1.00  0.00    -0.237 OA
ATOM     91  O   UNL A   1      43.953  38.820  35.773  1.00  0.00    -0.744 OA
ENDBRANCH  87  88
ENDBRANCH  61  82
ENDBRANCH  35  36
ENDBRANCH  27  30
ENDBRANCH  25  26
ENDBRANCH  24  25
ENDBRANCH   1  24
TORSDOF 18
ENDMDL
MODEL 2
REMARK VINA RESULT:     -10.2      2.874      9.202
REMARK SMILES COc1ncccc1C[C@H](C(=O)NCCCCNC(=O)c1ccc(-c2c3nc(c(-c4ccc(S(=O)(=O)[O-])cc4)c4ccc([nH]4)c(-c4ccc(S(=O)(=O)[O-])cc4)c4nc(c(-c5ccc(S(=O)(=O)[O-])cc5)c5ccc2[nH]5)C=C4)C=C3)cc1)c1ccc(F)cc1
REMARK SMILES IDX 15 1 14 2 13 3 11 4 12 5 10 7 9 8 8 9 3 10 4 11 5 12 7 13
REMARK SMILES IDX 6 14 2 15 1 16 81 17 82 18 87 19 83 20 86 21 84 22 85 23
REMARK SMILES IDX 16 24 17 25 18 26 19 27 20 29 21 30 22 31 80 32 23 33 79 34
REMARK SMILES IDX 24 35 25 36 26 37 73 38 27 39 78 40 72 41 74 42 28 43 77 44
REMARK SMILES IDX 71 45 70 46 29 48 59 49 40 50 58 51 41 52 44 53 57 54 75 55
REMARK SMILES IDX 42 56 43 57 56 59 76 60 45 61 30 62 31 63 39 64 32 65 38 66
REMARK SMILES IDX 33 67 34 68 35 69 36 70 37 71 60 72 61 73 69 74 62 75 68 76
REMARK SMILES IDX 63 77 64 78 65 79 66 80 67 81 46 82 47 83 55 84 48 85 54 86
REMARK SMILES IDX 49 87 50 88 51 89 52 90 53 91
REMARK H PARENT 13 6 18 28 74 47 44 58
REMARK Flexibility Score: inf
ROOT
ATOM      1  C   UNL A   1      34.151  27.073  25.700  1.00  0.00     0.023 C 
ENDROOT
BRANCH   1   2
ATOM      2  C   UNL A   1      33.891  25.568  25.644  1.00  0.00     0.116 C 
BRANCH   2   3
ATOM      3  N   UNL A   1      32.779  25.147  26.480  1.00  0.00    -0.356 N 
ATOM      4  C   UNL A   1      31.757  24.281  26.194  1.00  0.00     0.227 C 
ATOM      5  O   UNL A   1      30.979  23.977  27.099  1.00  0.00    -0.274 OA
ATOM      6  H   UNL A   1      32.757  25.542  27.382  1.00  0.00     0.163 HD
BRANCH   4   7
ATOM      7  C   UNL A   1      31.639  23.698  24.779  1.00  0.00     0.113 C 
BRANCH   7   8
ATOM      8  C   UNL A   1      31.965  24.850  23.792  1.00  0.00     0.059 C 
BRANCH   8   9
ATOM      9  C   UNL A   1      30.928  25.931  23.520  1.00  0.00     0.015 A 
ATOM     10  C   UNL A   1      31.147  27.152  22.882  1.00  0.00     0.216 A 
ATOM     11  N   UNL A   1      30.209  28.115  22.722  1.00  0.00    -0.222 NA
ATOM     12  C   UNL A   1      28.979  27.862  23.206  1.00  0.00     0.115 A 
ATOM     13  C   UNL A   1      29.622  25.709  23.989  1.00  0.00     0.011 A 
ATOM     14  C   UNL A   1      28.635  26.680  23.831  1.00  0.00     0.021 A 
BRANCH  10  15
ATOM     15  O   UNL A   1      32.405  27.487  22.470  1.00  0.00    -0.481 OA
ATOM     16  C   UNL A   1      32.682  28.861  22.706  1.00  0.00     0.280 C 
ENDBRANCH  10  15
ENDBRANCH   8   9
ENDBRANCH   7   8
BRANCH   7  17
ATOM     17  C   UNL A   1      32.417  22.382  24.635  1.00  0.00    -0.035 A 
ATOM     18  C   UNL A   1      31.921  21.149  25.100  1.00  0.00     0.007 A 
ATOM     19  C   UNL A   1      33.749  22.425  24.178  1.00  0.00     0.007 A 
ATOM     20  C   UNL A   1      32.751  20.029  25.187  1.00  0.00     0.039 A 
ATOM     21  C   UNL A   1      34.571  21.297  24.241  1.00  0.00     0.039 A 
ATOM     22  C   UNL A   1      34.071  20.116  24.770  1.00  0.00     0.123 A 
ATOM     23  F   UNL A   1      34.876  19.054  24.899  1.00  0.00    -0.207 F 
ENDBRANCH   7  17
ENDBRANCH   4   7
ENDBRANCH   2   3
ENDBRANCH   1   2
BRANCH   1  24
ATOM     24  C   UNL A   1      32.978  27.919  26.207  1.00  0.00     0.023 C 
BRANCH  24  25
ATOM     25  C   UNL A   1      33.161  28.563  27.580  1.00  0.00     0.116 C 
BRANCH  25  26
ATOM     26  N   UNL A   1      33.262  30.012  27.532  1.00  0.00    -0.352 N 
ATOM     27  C   UNL A   1      34.337  30.826  27.821  1.00  0.00     0.251 C 
ATOM     28  H   UNL A   1      32.442  30.482  27.252  1.00  0.00     0.163 HD
ATOM     29  O   UNL A   1      34.194  32.040  27.816  1.00  0.00    -0.269 OA
BRANCH  27  30
ATOM     30  C   UNL A   1      35.652  30.233  28.171  1.00  0.00     0.039 A 
ATOM     31  C   UNL A   1      36.648  30.185  27.191  1.00  0.00     0.014 A 
ATOM     32  C   UNL A   1      35.909  29.727  29.448  1.00  0.00     0.014 A 
ATOM     33  C   UNL A   1      37.922  29.704  27.512  1.00  0.00     0.010 A 
ATOM     34  C   UNL A   1      37.197  29.312  29.785  1.00  0.00     0.010 A 
ATOM     35  C   UNL A   1      38.220  29.301  28.824  1.00  0.00    -0.014 A 
BRANCH  35  36
ATOM     36  C   UNL A   1      39.595  28.896  29.218  1.00  0.00     0.031 A 
ATOM     37  C   UNL A   1      40.518  29.874  29.894  1.00  0.00     0.074 A 
ATOM     38  C   UNL A   1      40.050  27.671  28.887  1.00  0.00     0.049 A 
ATOM     39  N   UNL A   1      41.770  29.722  30.240  1.00  0.00    -0.248 NA
ATOM     40  C   UNL A   1      39.967  31.205  30.191  1.00  0.00     0.031 C 
ATOM     41  C   UNL A   1      39.279  26.645  28.183  1.00  0.00     0.029 A 
ATOM     42  N   UNL A   1      41.278  27.089  29.082  1.00  0.00    -0.354 N 
ATOM     43  C   UNL A   1      42.167  30.942  30.774  1.00  0.00     0.074 A 
ATOM     44  C   UNL A   1      41.032  31.836  30.663  1.00  0.00     0.031 C 
ATOM     45  C   UNL A   1      40.047  25.557  28.014  1.00  0.00     0.029 A 
ATOM     46  C   UNL A   1      41.376  25.820  28.562  1.00  0.00     0.049 A 
ATOM     47  H   UNL A   1      42.020  27.538  29.549  1.00  0.00     0.167 HD
ATOM     48  C   UNL A   1      43.360  31.288  31.319  1.00  0.00     0.031 A 
ATOM     49  C   UNL A   1      42.415  24.963  28.516  1.00  0.00     0.031 A 
ATOM     50  C   UNL A   1      44.487  30.400  31.429  1.00  0.00     0.049 A 
ATOM     51  C   UNL A   1      43.726  25.356  29.135  1.00  0.00     0.074 A 
ATOM     52  C   UNL A   1      45.712  30.635  32.029  1.00  0.00     0.029 A 
ATOM     53  N   UNL A   1      44.533  29.110  30.921  1.00  0.00    -0.354 N 
ATOM     54  N   UNL A   1      44.055  26.488  29.710  1.00  0.00    -0.248 NA
ATOM     55  C   UNL A   1      44.799  24.354  29.110  1.00  0.00     0.031 C 
ATOM     56  C   UNL A   1      46.517  29.506  31.835  1.00  0.00     0.029 A 
ATOM     57  C   UNL A   1      45.774  28.546  31.166  1.00  0.00     0.049 A 
ATOM     58  H   UNL A   1      43.792  28.661  30.453  1.00  0.00     0.167 HD
ATOM     59  C   UNL A   1      45.370  26.329  30.134  1.00  0.00     0.074 A 
ATOM     60  C   UNL A   1      45.769  24.986  29.760  1.00  0.00     0.031 C 
ATOM     61  C   UNL A   1      46.170  27.214  30.777  1.00  0.00     0.031 A 
BRANCH  48  62
ATOM     62  C   UNL A   1      43.504  32.706  31.811  1.00  0.00    -0.014 A 
ATOM     63  C   UNL A   1      43.947  33.733  30.957  1.00  0.00     0.010 A 
ATOM     64  C   UNL A   1      43.200  33.014  33.149  1.00  0.00     0.010 A 
ATOM     65  C   UNL A   1      44.156  35.024  31.451  1.00  0.00     0.020 A 
ATOM     66  C   UNL A   1      43.377  34.311  33.639  1.00  0.00     0.020 A 
ATOM     67  C   UNL A   1      43.883  35.301  32.794  1.00  0.00     0.054 A 
BRANCH  67  68
ATOM     68  S   UNL A   1      44.196  36.973  33.420  1.00  0.00     0.124 S 
ATOM     69  O   UNL A   1      44.805  37.617  32.259  1.00  0.00    -0.237 OA
ATOM     70  O   UNL A   1      42.857  37.445  33.767  1.00  0.00    -0.237 OA
ATOM     71  O   UNL A   1      45.091  36.758  34.554  1.00  0.00    -0.744 OA
ENDBRANCH  67  68
ENDBRANCH  48  62
BRANCH  49  72
ATOM     72  C   UNL A   1      42.231  23.636  27.868  1.00  0.00    -0.014 A 
ATOM     73  C   UNL A   1      42.597  23.442  26.526  1.00  0.00     0.010 A 
ATOM     74  C   UNL A   1      41.760  22.541  28.617  1.00  0.00     0.010 A 
ATOM     75  C   UNL A   1      42.508  22.173  25.946  1.00  0.00     0.020 A 
ATOM     76  C   UNL A   1      41.692  21.268  28.047  1.00  0.00     0.020 A 
ATOM     77  C   UNL A   1      42.066  21.092  26.713  1.00  0.00     0.054 A 
BRANCH  77  78
ATOM     78  S   UNL A   1      42.066  19.435  25.972  1.00  0.00     0.124 S 
ATOM     79  O   UNL A   1      40.649  19.228  25.690  1.00  0.00    -0.237 OA
ATOM     80  O   UNL A   1      42.925  19.612  24.804  1.00  0.00    -0.237 OA
ATOM     81  O   UNL A   1      42.626  18.590  27.024  1.00  0.00    -0.744 OA
ENDBRANCH  77  78
ENDBRANCH  49  72
BRANCH  61  82
ATOM     82  C   UNL A   1      47.559  26.761  31.140  1.00  0.00    -0.014 A 
ATOM     83  C   UNL A   1      47.797  25.996  32.296  1.00  0.00     0.010 A 
ATOM     84  C   UNL A   1      48.633  27.053  30.279  1.00  0.00     0.010 A 
ATOM     85  C   UNL A   1      49.089  25.552  32.597  1.00  0.00     0.020 A 
ATOM     86  C   UNL A   1      49.920  26.590  30.563  1.00  0.00     0.020 A 
ATOM     87  C   UNL A   1      50.142  25.852  31.728  1.00  0.00     0.054 A 
BRANCH  87  88
ATOM     88  S   UNL A   1      51.801  25.223  32.113  1.00  0.00     0.124 S 
ATOM     89  O   UNL A   1      52.124  25.948  33.338  1.00  0.00    -0.237 OA
ATOM     90  O   UNL A   1      51.571  23.789  32.272  1.00  0.00    -0.237 OA
ATOM     91  O   UNL A   1      52.592  25.594  30.942  1.00  0.00    -0.744 OA
ENDBRANCH  87  88
ENDBRANCH  61  82
ENDBRANCH  35  36
ENDBRANCH  27  30
ENDBRANCH  25  26
ENDBRANCH  24  25
ENDBRANCH   1  24
TORSDOF 18
ENDMDL
MODEL 3
REMARK VINA RESULT:     -10.0      3.889      9.419
REMARK SMILES COc1ncccc1C[C@H](C(=O)NCCCCNC(=O)c1ccc(-c2c3nc(c(-c4ccc(S(=O)(=O)[O-])cc4)c4ccc([nH]4)c(-c4ccc(S(=O)(=O)[O-])cc4)c4nc(c(-c5ccc(S(=O)(=O)[O-])cc5)c5ccc2[nH]5)C=C4)C=C3)cc1)c1ccc(F)cc1
REMARK SMILES IDX 15 1 14 2 13 3 11 4 12 5 10 7 9 8 8 9 3 10 4 11 5 12 7 13
REMARK SMILES IDX 6 14 2 15 1 16 81 17 82 18 87 19 83 20 86 21 84 22 85 23
REMARK SMILES IDX 16 24 17 25 18 26 19 27 20 29 21 30 22 31 80 32 23 33 79 34
REMARK SMILES IDX 24 35 25 36 26 37 73 38 27 39 78 40 72 41 74 42 28 43 77 44
REMARK SMILES IDX 71 45 70 46 29 48 59 49 40 50 58 51 41 52 44 53 57 54 75 55
REMARK SMILES IDX 42 56 43 57 56 59 76 60 45 61 30 62 31 63 39 64 32 65 38 66
REMARK SMILES IDX 33 67 34 68 35 69 36 70 37 71 60 72 61 73 69 74 62 75 68 76
REMARK SMILES IDX 63 77 64 78 65 79 66 80 67 81 46 82 47 83 55 84 48 85 54 86
REMARK SMILES IDX 49 87 50 88 51 89 52 90 53 91
REMARK H PARENT 13 6 18 28 74 47 44 58
REMARK Flexibility Score: inf
ROOT
ATOM      1  C   UNL A   1      36.653  21.691  25.369  1.00  0.00     0.023 C 
ENDROOT
BRANCH   1   2
ATOM      2  C   UNL A   1      36.582  23.067  24.707  1.00  0.00     0.116 C 
BRANCH   2   3
ATOM      3  N   UNL A   1      35.748  23.088  23.517  1.00  0.00    -0.356 N 
ATOM      4  C   UNL A   1      34.612  23.811  23.265  1.00  0.00     0.227 C 
ATOM      5  O   UNL A   1      34.127  23.761  22.135  1.00  0.00    -0.274 OA
ATOM      6  H   UNL A   1      36.042  22.498  22.786  1.00  0.00     0.163 HD
BRANCH   4   7
ATOM      7  C   UNL A   1      34.010  24.677  24.381  1.00  0.00     0.113 C 
BRANCH   7   8
ATOM      8  C   UNL A   1      33.661  26.048  23.744  1.00  0.00     0.059 C 
BRANCH   8   9
ATOM      9  C   UNL A   1      33.033  27.142  24.596  1.00  0.00     0.015 A 
ATOM     10  C   UNL A   1      31.914  27.910  24.272  1.00  0.00     0.216 A 
ATOM     11  N   UNL A   1      31.430  28.922  25.030  1.00  0.00    -0.222 NA
ATOM     12  C   UNL A   1      32.074  29.190  26.181  1.00  0.00     0.115 A 
ATOM     13  C   UNL A   1      33.655  27.451  25.817  1.00  0.00     0.011 A 
ATOM     14  C   UNL A   1      33.173  28.481  26.622  1.00  0.00     0.021 A 
BRANCH  10  15
ATOM     15  O   UNL A   1      31.297  27.736  23.065  1.00  0.00    -0.481 OA
ATOM     16  C   UNL A   1      30.417  28.813  22.771  1.00  0.00     0.280 C 
ENDBRANCH  10  15
ENDBRANCH   8   9
ENDBRANCH   7   8
BRANCH   7  17
ATOM     17  C   UNL A   1      32.907  23.936  25.150  1.00  0.00    -0.035 A 
ATOM     18  C   UNL A   1      31.582  23.846  24.683  1.00  0.00     0.007 A 
ATOM     19  C   UNL A   1      33.178  23.472  26.452  1.00  0.00     0.007 A 
ATOM     20  C   UNL A   1      30.556  23.394  25.518  1.00  0.00     0.039 A 
ATOM     21  C   UNL A   1      32.157  22.995  27.277  1.00  0.00     0.039 A 
ATOM     22  C   UNL A   1      30.851  22.986  26.810  1.00  0.00     0.123 A 
ATOM     23  F   UNL A   1      29.859  22.599  27.623  1.00  0.00    -0.207 F 
ENDBRANCH   7  17
ENDBRANCH   4   7
ENDBRANCH   2   3
ENDBRANCH   1   2
BRANCH   1  24
ATOM     24  C   UNL A   1      37.885  20.856  25.006  1.00  0.00     0.023 C 
BRANCH  24  25
ATOM     25  C   UNL A   1      39.113  21.053  25.893  1.00  0.00     0.116 C 
BRANCH  25  26
ATOM     26  N   UNL A   1      40.007  19.907  25.909  1.00  0.00    -0.352 N 
ATOM     27  C   UNL A   1      41.368  19.860  26.123  1.00  0.00     0.251 C 
ATOM     28  H   UNL A   1      39.577  19.037  25.741  1.00  0.00     0.163 HD
ATOM     29  O   UNL A   1      41.963  18.801  25.996  1.00  0.00    -0.269 OA
BRANCH  27  30
ATOM     30  C   UNL A   1      42.114  21.096  26.469  1.00  0.00     0.039 A 
ATOM     31  C   UNL A   1      42.514  21.949  25.436  1.00  0.00     0.014 A 
ATOM     32  C   UNL A   1      42.418  21.420  27.793  1.00  0.00     0.014 A 
ATOM     33  C   UNL A   1      43.149  23.159  25.734  1.00  0.00     0.010 A 
ATOM     34  C   UNL A   1      42.989  22.657  28.094  1.00  0.00     0.010 A 
ATOM     35  C   UNL A   1      43.356  23.543  27.069  1.00  0.00    -0.014 A 
BRANCH  35  36
ATOM     36  C   UNL A   1      43.923  24.874  27.415  1.00  0.00     0.031 A 
ATOM     37  C   UNL A   1      43.026  25.991  27.876  1.00  0.00     0.074 A 
ATOM     38  C   UNL A   1      45.236  25.108  27.228  1.00  0.00     0.049 A 
ATOM     39  N   UNL A   1      43.331  27.234  28.148  1.00  0.00    -0.248 NA
ATOM     40  C   UNL A   1      41.597  25.675  28.022  1.00  0.00     0.031 C 
ATOM     41  C   UNL A   1      46.208  24.130  26.734  1.00  0.00     0.029 A 
ATOM     42  N   UNL A   1      45.978  26.248  27.413  1.00  0.00    -0.354 N 
ATOM     43  C   UNL A   1      42.132  27.856  28.474  1.00  0.00     0.074 A 
ATOM     44  C   UNL A   1      41.090  26.862  28.321  1.00  0.00     0.031 C 
ATOM     45  C   UNL A   1      47.417  24.708  26.665  1.00  0.00     0.029 A 
ATOM     46  C   UNL A   1      47.302  26.106  27.072  1.00  0.00     0.049 A 
ATOM     47  H   UNL A   1      45.598  27.089  27.756  1.00  0.00     0.167 HD
ATOM     48  C   UNL A   1      41.916  29.133  28.876  1.00  0.00     0.031 A 
ATOM     49  C   UNL A   1      48.314  26.997  27.072  1.00  0.00     0.031 A 
ATOM     50  C   UNL A   1      42.951  30.120  29.029  1.00  0.00     0.049 A 
ATOM     51  C   UNL A   1      48.059  28.404  27.532  1.00  0.00     0.074 A 
ATOM     52  C   UNL A   1      42.840  31.418  29.498  1.00  0.00     0.029 A 
ATOM     53  N   UNL A   1      44.286  29.926  28.706  1.00  0.00    -0.354 N 
ATOM     54  N   UNL A   1      46.931  28.951  27.916  1.00  0.00    -0.248 NA
ATOM     55  C   UNL A   1      49.216  29.310  27.571  1.00  0.00     0.031 C 
ATOM     56  C   UNL A   1      44.099  32.024  29.407  1.00  0.00     0.029 A 
ATOM     57  C   UNL A   1      45.006  31.087  28.937  1.00  0.00     0.049 A 
ATOM     58  H   UNL A   1      44.666  29.086  28.362  1.00  0.00     0.167 HD
ATOM     59  C   UNL A   1      47.243  30.262  28.260  1.00  0.00     0.074 A 
ATOM     60  C   UNL A   1      48.669  30.420  28.052  1.00  0.00     0.031 C 
ATOM     61  C   UNL A   1      46.422  31.242  28.712  1.00  0.00     0.031 A 
BRANCH  48  62
ATOM     62  C   UNL A   1      40.488  29.532  29.151  1.00  0.00    -0.014 A 
ATOM     63  C   UNL A   1      39.543  29.623  28.113  1.00  0.00     0.010 A 
ATOM     64  C   UNL A   1      40.087  29.829  30.466  1.00  0.00     0.010 A 
ATOM     65  C   UNL A   1      38.246  30.076  28.372  1.00  0.00     0.020 A 
ATOM     66  C   UNL A   1      38.782  30.253  30.735  1.00  0.00     0.020 A 
ATOM     67  C   UNL A   1      37.879  30.402  29.681  1.00  0.00     0.054 A 
BRANCH  67  68
ATOM     68  S   UNL A   1      36.203  31.022  29.988  1.00  0.00     0.124 S 
ATOM     69  O   UNL A   1      35.588  30.883  28.670  1.00  0.00    -0.237 OA
ATOM     70  O   UNL A   1      35.702  30.109  31.013  1.00  0.00    -0.237 OA
ATOM     71  O   UNL A   1      36.417  32.397  30.433  1.00  0.00    -0.744 OA
ENDBRANCH  67  68
ENDBRANCH  48  62
BRANCH  49  72
ATOM     72  C   UNL A   1      49.666  26.558  26.633  1.00  0.00    -0.014 A 
ATOM     73  C   UNL A   1      50.594  26.067  27.566  1.00  0.00     0.010 A 
ATOM     74  C   UNL A   1      50.000  26.557  25.265  1.00  0.00     0.010 A 
ATOM     75  C   UNL A   1      51.830  25.571  27.139  1.00  0.00     0.020 A 
ATOM     76  C   UNL A   1      51.224  26.040  24.834  1.00  0.00     0.020 A 
ATOM     77  C   UNL A   1      52.132  25.551  25.775  1.00  0.00     0.054 A 
BRANCH  77  78
ATOM     78  S   UNL A   1      53.694  24.799  25.237  1.00  0.00     0.124 S 
ATOM     79  O   UNL A   1      54.008  25.574  24.040  1.00  0.00    -0.237 OA
ATOM     80  O   UNL A   1      54.567  25.027  26.386  1.00  0.00    -0.237 OA
ATOM     81  O   UNL A   1      53.338  23.401  25.004  1.00  0.00    -0.744 OA
ENDBRANCH  77  78
ENDBRANCH  49  72
BRANCH  61  82
ATOM     82  C   UNL A   1      47.042  32.575  29.034  1.00  0.00    -0.014 A 
ATOM     83  C   UNL A   1      47.115  33.597  28.070  1.00  0.00     0.010 A 
ATOM     84  C   UNL A   1      47.504  32.831  30.338  1.00  0.00     0.010 A 
ATOM     85  C   UNL A   1      47.662  34.842  28.398  1.00  0.00     0.020 A 
ATOM     86  C   UNL A   1      48.028  34.082  30.677  1.00  0.00     0.020 A 
ATOM     87  C   UNL A   1      48.114  35.076  29.700  1.00  0.00     0.054 A 
BRANCH  87  88
ATOM     88  S   UNL A   1      48.772  36.715  30.116  1.00  0.00     0.124 S 
ATOM     89  O   UNL A   1      48.680  37.413  28.837  1.00  0.00    -0.237 OA
ATOM     90  O   UNL A   1      47.853  37.177  31.153  1.00  0.00    -0.237 OA
ATOM     91  O   UNL A   1      50.130  36.436  30.577  1.00  0.00    -0.744 OA
ENDBRANCH  87  88
ENDBRANCH  61  82
ENDBRANCH  35  36
ENDBRANCH  27  30
ENDBRANCH  25  26
ENDBRANCH  24  25
ENDBRANCH   1  24
TORSDOF 18
ENDMDL
