MODEL 1
REMARK VINA RESULT:     -12.4      0.000      0.000
REMARK SMILES O=C(NCCCCNC(=O)[C@H]1C[C@](O)(c2ccccc2Cl)[C@@H](c2ccccc2Cl)O1)c1ccc(-c2c3nc(c(-c4ccc(S(=O)(=O)[O-])cc4)c4ccc([nH]4)c(-c4ccc(S(=O)(=O)[O-])cc4)c4nc(c(-c5ccc(S(=O)(=O)[O-])cc5)c5ccc2[nH]5)C=C4)C=C3)cc1
REMARK SMILES IDX 4 1 3 2 1 3 2 4 31 6 32 7 90 8 33 9 89 10 34 11 35 12 36 13
REMARK SMILES IDX 83 14 37 15 88 16 82 17 84 18 38 19 87 20 81 21 80 22 39 24
REMARK SMILES IDX 69 25 50 26 68 27 51 28 54 29 67 30 85 31 52 32 53 33 66 35
REMARK SMILES IDX 86 36 55 37 40 38 41 39 49 40 42 41 48 42 43 43 44 44 45 45
REMARK SMILES IDX 46 46 47 47 70 48 71 49 79 50 72 51 78 52 73 53 74 54 75 55
REMARK SMILES IDX 76 56 77 57 56 58 57 59 65 60 58 61 64 62 59 63 60 64 61 65
REMARK SMILES IDX 62 66 63 67 5 68 6 69 7 70 8 71 9 72 10 74 11 75 12 76 30 77
REMARK SMILES IDX 13 78 22 79 15 80 16 81 20 82 17 83 19 84 21 85 18 86 14 87
REMARK SMILES IDX 23 89 24 90 28 91 25 92 27 93 29 94 26 95
REMARK H PARENT 3 5 84 23 54 34 8 73 14 88
REMARK Flexibility Score: inf
ROOT
ATOM      1  C   UNL A   1      41.236  23.193  27.375  1.00  0.00     0.116 C 
ENDROOT
BRANCH   1   2
ATOM      2  N   UNL A   1      41.391  24.027  26.194  1.00  0.00    -0.352 N 
ATOM      3  O   UNL A   1      41.268  25.909  24.960  1.00  0.00    -0.269 OA
ATOM      4  C   UNL A   1      41.275  25.392  26.075  1.00  0.00     0.251 C 
ATOM      5  H   UNL A   1      41.610  23.547  25.363  1.00  0.00     0.163 HD
BRANCH   4   6
ATOM      6  C   UNL A   1      41.141  26.235  27.287  1.00  0.00     0.039 A 
ATOM      7  C   UNL A   1      40.093  26.021  28.185  1.00  0.00     0.014 A 
ATOM      8  C   UNL A   1      42.078  27.243  27.534  1.00  0.00     0.014 A 
ATOM      9  C   UNL A   1      39.902  26.901  29.244  1.00  0.00     0.010 A 
ATOM     10  C   UNL A   1      41.932  28.075  28.651  1.00  0.00     0.010 A 
ATOM     11  C   UNL A   1      40.826  27.929  29.501  1.00  0.00    -0.014 A 
BRANCH  11  12
ATOM     12  C   UNL A   1      40.636  28.774  30.709  1.00  0.00     0.031 A 
ATOM     13  C   UNL A   1      41.540  28.659  31.906  1.00  0.00     0.074 A 
ATOM     14  C   UNL A   1      39.664  29.709  30.684  1.00  0.00     0.049 A 
ATOM     15  N   UNL A   1      41.556  29.389  32.993  1.00  0.00    -0.248 NA
ATOM     16  C   UNL A   1      42.553  27.591  31.888  1.00  0.00     0.031 C 
ATOM     17  C   UNL A   1      38.709  29.901  29.588  1.00  0.00     0.029 A 
ATOM     18  N   UNL A   1      39.338  30.693  31.582  1.00  0.00    -0.354 N 
ATOM     19  C   UNL A   1      42.567  28.869  33.792  1.00  0.00     0.074 A 
ATOM     20  C   UNL A   1      43.128  27.742  33.075  1.00  0.00     0.031 C 
ATOM     21  C   UNL A   1      37.951  30.976  29.847  1.00  0.00     0.029 A 
ATOM     22  C   UNL A   1      38.324  31.514  31.150  1.00  0.00     0.049 A 
ATOM     23  H   UNL A   1      39.788  30.802  32.451  1.00  0.00     0.167 HD
ATOM     24  C   UNL A   1      42.993  29.295  35.006  1.00  0.00     0.031 A 
ATOM     25  C   UNL A   1      37.748  32.581  31.735  1.00  0.00     0.031 A 
ATOM     26  C   UNL A   1      42.432  30.415  35.718  1.00  0.00     0.049 A 
ATOM     27  C   UNL A   1      38.242  33.029  33.079  1.00  0.00     0.074 A 
ATOM     28  C   UNL A   1      42.802  30.926  36.951  1.00  0.00     0.029 A 
ATOM     29  N   UNL A   1      41.383  31.200  35.261  1.00  0.00    -0.354 N 
ATOM     30  N   UNL A   1      39.213  32.531  33.805  1.00  0.00    -0.248 NA
ATOM     31  C   UNL A   1      37.563  34.184  33.680  1.00  0.00     0.031 C 
ATOM     32  C   UNL A   1      41.953  31.996  37.257  1.00  0.00     0.029 A 
ATOM     33  C   UNL A   1      41.085  32.182  36.193  1.00  0.00     0.049 A 
ATOM     34  H   UNL A   1      40.920  31.079  34.402  1.00  0.00     0.167 HD
ATOM     35  C   UNL A   1      39.260  33.311  34.953  1.00  0.00     0.074 A 
ATOM     36  C   UNL A   1      38.247  34.337  34.805  1.00  0.00     0.031 C 
ATOM     37  C   UNL A   1      40.062  33.183  36.038  1.00  0.00     0.031 A 
BRANCH  24  38
ATOM     38  C   UNL A   1      44.124  28.542  35.659  1.00  0.00    -0.014 A 
ATOM     39  C   UNL A   1      45.461  28.929  35.458  1.00  0.00     0.010 A 
ATOM     40  C   UNL A   1      43.842  27.485  36.545  1.00  0.00     0.010 A 
ATOM     41  C   UNL A   1      46.498  28.259  36.116  1.00  0.00     0.020 A 
ATOM     42  C   UNL A   1      44.875  26.827  37.221  1.00  0.00     0.020 A 
ATOM     43  C   UNL A   1      46.198  27.211  36.993  1.00  0.00     0.054 A 
BRANCH  43  44
ATOM     44  S   UNL A   1      47.560  26.389  37.867  1.00  0.00     0.124 S 
ATOM     45  O   UNL A   1      48.094  25.509  36.830  1.00  0.00    -0.237 OA
ATOM     46  O   UNL A   1      48.420  27.507  38.244  1.00  0.00    -0.237 OA
ATOM     47  O   UNL A   1      46.900  25.712  38.979  1.00  0.00    -0.744 OA
ENDBRANCH  43  44
ENDBRANCH  24  38
BRANCH  25  48
ATOM     48  C   UNL A   1      36.621  33.277  31.058  1.00  0.00    -0.014 A 
ATOM     49  C   UNL A   1      35.346  33.330  31.647  1.00  0.00     0.010 A 
ATOM     50  C   UNL A   1      36.831  33.909  29.819  1.00  0.00     0.010 A 
ATOM     51  C   UNL A   1      34.296  33.983  30.996  1.00  0.00     0.020 A 
ATOM     52  C   UNL A   1      35.792  34.588  29.181  1.00  0.00     0.020 A 
ATOM     53  C   UNL A   1      34.526  34.607  29.767  1.00  0.00     0.054 A 
BRANCH  53  54
ATOM     54  S   UNL A   1      33.165  35.493  28.957  1.00  0.00     0.124 S 
ATOM     55  O   UNL A   1      32.395  35.971  30.100  1.00  0.00    -0.237 OA
ATOM     56  O   UNL A   1      33.864  36.520  28.189  1.00  0.00    -0.237 OA
ATOM     57  O   UNL A   1      32.519  34.458  28.152  1.00  0.00    -0.744 OA
ENDBRANCH  53  54
ENDBRANCH  25  48
BRANCH  37  58
ATOM     58  C   UNL A   1      39.868  34.184  37.143  1.00  0.00    -0.014 A 
ATOM     59  C   UNL A   1      39.061  33.884  38.255  1.00  0.00     0.010 A 
ATOM     60  C   UNL A   1      40.500  35.438  37.069  1.00  0.00     0.010 A 
ATOM     61  C   UNL A   1      38.850  34.840  39.251  1.00  0.00     0.020 A 
ATOM     62  C   UNL A   1      40.311  36.387  38.076  1.00  0.00     0.020 A 
ATOM     63  C   UNL A   1      39.469  36.090  39.150  1.00  0.00     0.054 A 
BRANCH  63  64
ATOM     64  S   UNL A   1      39.185  37.317  40.456  1.00  0.00     0.124 S 
ATOM     65  O   UNL A   1      38.263  38.243  39.804  1.00  0.00    -0.237 OA
ATOM     66  O   UNL A   1      38.612  36.514  41.534  1.00  0.00    -0.237 OA
ATOM     67  O   UNL A   1      40.518  37.849  40.724  1.00  0.00    -0.744 OA
ENDBRANCH  63  64
ENDBRANCH  37  58
ENDBRANCH  11  12
ENDBRANCH   4   6
ENDBRANCH   1   2
BRANCH   1  68
ATOM     68  C   UNL A   1      39.976  22.337  27.324  1.00  0.00     0.023 C 
BRANCH  68  69
ATOM     69  C   UNL A   1      39.357  22.161  25.934  1.00  0.00     0.023 C 
BRANCH  69  70
ATOM     70  C   UNL A   1      37.835  22.286  25.869  1.00  0.00     0.116 C 
BRANCH  70  71
ATOM     71  N   UNL A   1      37.374  22.497  24.512  1.00  0.00    -0.354 N 
ATOM     72  C   UNL A   1      36.311  23.194  24.029  1.00  0.00     0.249 C 
ATOM     73  H   UNL A   1      37.925  22.062  23.822  1.00  0.00     0.163 HD
ATOM     74  O   UNL A   1      36.087  23.068  22.823  1.00  0.00    -0.272 OA
BRANCH  72  75
ATOM     75  C   UNL A   1      35.453  24.097  24.945  1.00  0.00     0.211 C 
ATOM     76  C   UNL A   1      34.579  25.103  24.198  1.00  0.00     0.085 C 
ATOM     77  O   UNL A   1      34.575  23.273  25.731  1.00  0.00    -0.357 OA
ATOM     78  C   UNL A   1      33.156  24.889  24.715  1.00  0.00     0.124 C 
ATOM     79  C   UNL A   1      33.214  23.449  25.291  1.00  0.00     0.187 C 
BRANCH  78  80
ATOM     80  C   UNL A   1      32.757  26.061  25.647  1.00  0.00     0.005 A 
ATOM     81  C   UNL A   1      33.796  26.983  25.962  1.00  0.00     0.008 A 
ATOM     82  C   UNL A   1      31.498  26.345  26.213  1.00  0.00     0.047 A 
ATOM     83  C   UNL A   1      33.584  28.145  26.708  1.00  0.00     0.001 A 
ATOM     84  C   UNL A   1      31.282  27.536  26.935  1.00  0.00     0.021 A 
ATOM     85  Cl  UNL A   1      30.125  25.297  26.183  1.00  0.00    -0.084 Cl
ATOM     86  C   UNL A   1      32.314  28.437  27.173  1.00  0.00     0.002 A 
ENDBRANCH  78  80
BRANCH  78  87
ATOM     87  O   UNL A   1      32.222  24.980  23.622  1.00  0.00    -0.382 OA
ATOM     88  H   UNL A   1      31.940  25.902  23.513  1.00  0.00     0.212 HD
ENDBRANCH  78  87
BRANCH  79  89
ATOM     89  C   UNL A   1      32.823  22.245  24.427  1.00  0.00     0.003 A 
ATOM     90  C   UNL A   1      32.418  22.394  23.085  1.00  0.00     0.008 A 
ATOM     91  C   UNL A   1      32.919  20.924  24.918  1.00  0.00     0.046 A 
ATOM     92  C   UNL A   1      32.127  21.295  22.272  1.00  0.00     0.000 A 
ATOM     93  C   UNL A   1      32.622  19.824  24.101  1.00  0.00     0.021 A 
ATOM     94  Cl  UNL A   1      33.400  20.549  26.540  1.00  0.00    -0.084 Cl
ATOM     95  C   UNL A   1      32.231  20.008  22.779  1.00  0.00     0.002 A 
ENDBRANCH  79  89
ENDBRANCH  72  75
ENDBRANCH  70  71
ENDBRANCH  69  70
ENDBRANCH  68  69
ENDBRANCH   1  68
TORSDOF 17
ENDMDL
MODEL 2
REMARK VINA RESULT:     -12.1      6.218     11.791
REMARK SMILES O=C(NCCCCNC(=O)[C@H]1C[C@](O)(c2ccccc2Cl)[C@@H](c2ccccc2Cl)O1)c1ccc(-c2c3nc(c(-c4ccc(S(=O)(=O)[O-])cc4)c4ccc([nH]4)c(-c4ccc(S(=O)(=O)[O-])cc4)c4nc(c(-c5ccc(S(=O)(=O)[O-])cc5)c5ccc2[nH]5)C=C4)C=C3)cc1
REMARK SMILES IDX 4 1 3 2 1 3 2 4 31 6 32 7 90 8 33 9 89 10 34 11 35 12 36 13
REMARK SMILES IDX 83 14 37 15 88 16 82 17 84 18 38 19 87 20 81 21 80 22 39 24
REMARK SMILES IDX 69 25 50 26 68 27 51 28 54 29 67 30 85 31 52 32 53 33 66 35
REMARK SMILES IDX 86 36 55 37 40 38 41 39 49 40 42 41 48 42 43 43 44 44 45 45
REMARK SMILES IDX 46 46 47 47 70 48 71 49 79 50 72 51 78 52 73 53 74 54 75 55
REMARK SMILES IDX 76 56 77 57 56 58 57 59 65 60 58 61 64 62 59 63 60 64 61 65
REMARK SMILES IDX 62 66 63 67 5 68 6 69 7 70 8 71 9 72 10 74 11 75 12 76 30 77
REMARK SMILES IDX 13 78 22 79 15 80 16 81 20 82 17 83 19 84 21 85 18 86 14 87
REMARK SMILES IDX 23 89 24 90 28 91 25 92 27 93 29 94 26 95
REMARK H PARENT 3 5 84 23 54 34 8 73 14 88
REMARK Flexibility Score: inf
ROOT
ATOM      1  C   UNL A   1      35.683  31.015  28.688  1.00  0.00     0.116 C 
ENDROOT
BRANCH   1   2
ATOM      2  N   UNL A   1      35.650  30.771  30.121  1.00  0.00    -0.352 N 
ATOM      3  O   UNL A   1      36.310  29.883  32.085  1.00  0.00    -0.269 OA
ATOM      4  C   UNL A   1      36.586  30.155  30.919  1.00  0.00     0.251 C 
ATOM      5  H   UNL A   1      34.845  31.093  30.586  1.00  0.00     0.163 HD
BRANCH   4   6
ATOM      6  C   UNL A   1      37.916  29.804  30.367  1.00  0.00     0.039 A 
ATOM      7  C   UNL A   1      38.898  29.246  31.188  1.00  0.00     0.014 A 
ATOM      8  C   UNL A   1      38.181  30.026  29.012  1.00  0.00     0.014 A 
ATOM      9  C   UNL A   1      40.181  29.046  30.692  1.00  0.00     0.010 A 
ATOM     10  C   UNL A   1      39.451  29.742  28.493  1.00  0.00     0.010 A 
ATOM     11  C   UNL A   1      40.470  29.276  29.335  1.00  0.00    -0.014 A 
BRANCH  11  12
ATOM     12  C   UNL A   1      41.828  28.942  28.829  1.00  0.00     0.031 A 
ATOM     13  C   UNL A   1      42.955  29.939  28.873  1.00  0.00     0.074 A 
ATOM     14  C   UNL A   1      42.052  27.688  28.387  1.00  0.00     0.049 A 
ATOM     15  N   UNL A   1      44.214  29.765  28.555  1.00  0.00    -0.248 NA
ATOM     16  C   UNL A   1      42.636  31.302  29.325  1.00  0.00     0.031 C 
ATOM     17  C   UNL A   1      41.032  26.641  28.276  1.00  0.00     0.029 A 
ATOM     18  N   UNL A   1      43.207  27.068  27.984  1.00  0.00    -0.354 N 
ATOM     19  C   UNL A   1      44.836  30.991  28.758  1.00  0.00     0.074 A 
ATOM     20  C   UNL A   1      43.809  31.911  29.203  1.00  0.00     0.031 C 
ATOM     21  C   UNL A   1      41.617  25.495  27.899  1.00  0.00     0.029 A 
ATOM     22  C   UNL A   1      43.038  25.737  27.684  1.00  0.00     0.049 A 
ATOM     23  H   UNL A   1      44.073  27.531  27.916  1.00  0.00     0.167 HD
ATOM     24  C   UNL A   1      46.141  31.318  28.594  1.00  0.00     0.031 A 
ATOM     25  C   UNL A   1      43.923  24.809  27.276  1.00  0.00     0.031 A 
ATOM     26  C   UNL A   1      47.159  30.401  28.149  1.00  0.00     0.049 A 
ATOM     27  C   UNL A   1      45.362  25.201  27.106  1.00  0.00     0.074 A 
ATOM     28  C   UNL A   1      48.510  30.639  27.960  1.00  0.00     0.029 A 
ATOM     29  N   UNL A   1      46.941  29.070  27.824  1.00  0.00    -0.354 N 
ATOM     30  N   UNL A   1      45.927  26.364  27.322  1.00  0.00    -0.248 NA
ATOM     31  C   UNL A   1      46.280  24.156  26.637  1.00  0.00     0.031 C 
ATOM     32  C   UNL A   1      49.103  29.464  27.484  1.00  0.00     0.029 A 
ATOM     33  C   UNL A   1      48.129  28.479  27.423  1.00  0.00     0.049 A 
ATOM     34  H   UNL A   1      46.072  28.612  27.871  1.00  0.00     0.167 HD
ATOM     35  C   UNL A   1      47.271  26.190  27.013  1.00  0.00     0.074 A 
ATOM     36  C   UNL A   1      47.437  24.801  26.634  1.00  0.00     0.031 C 
ATOM     37  C   UNL A   1      48.274  27.102  27.031  1.00  0.00     0.031 A 
BRANCH  24  38
ATOM     38  C   UNL A   1      46.553  32.736  28.891  1.00  0.00    -0.014 A 
ATOM     39  C   UNL A   1      46.483  33.733  27.901  1.00  0.00     0.010 A 
ATOM     40  C   UNL A   1      46.939  33.096  30.197  1.00  0.00     0.010 A 
ATOM     41  C   UNL A   1      46.812  35.057  28.204  1.00  0.00     0.020 A 
ATOM     42  C   UNL A   1      47.247  34.424  30.509  1.00  0.00     0.020 A 
ATOM     43  C   UNL A   1      47.193  35.395  29.507  1.00  0.00     0.054 A 
BRANCH  43  44
ATOM     44  S   UNL A   1      47.571  37.129  29.883  1.00  0.00     0.124 S 
ATOM     45  O   UNL A   1      49.024  37.095  30.028  1.00  0.00    -0.237 OA
ATOM     46  O   UNL A   1      47.075  37.829  28.702  1.00  0.00    -0.237 OA
ATOM     47  O   UNL A   1      46.829  37.388  31.114  1.00  0.00    -0.744 OA
ENDBRANCH  43  44
ENDBRANCH  24  38
BRANCH  25  48
ATOM     48  C   UNL A   1      43.462  23.428  26.977  1.00  0.00    -0.014 A 
ATOM     49  C   UNL A   1      43.418  22.952  25.655  1.00  0.00     0.010 A 
ATOM     50  C   UNL A   1      43.080  22.573  28.027  1.00  0.00     0.010 A 
ATOM     51  C   UNL A   1      42.977  21.652  25.389  1.00  0.00     0.020 A 
ATOM     52  C   UNL A   1      42.668  21.266  27.766  1.00  0.00     0.020 A 
ATOM     53  C   UNL A   1      42.603  20.818  26.446  1.00  0.00     0.054 A 
BRANCH  53  54
ATOM     54  S   UNL A   1      42.079  19.119  26.089  1.00  0.00     0.124 S 
ATOM     55  O   UNL A   1      42.886  18.795  24.917  1.00  0.00    -0.237 OA
ATOM     56  O   UNL A   1      42.431  18.410  27.317  1.00  0.00    -0.237 OA
ATOM     57  O   UNL A   1      40.644  19.251  25.847  1.00  0.00    -0.744 OA
ENDBRANCH  53  54
ENDBRANCH  25  48
BRANCH  37  58
ATOM     58  C   UNL A   1      49.637  26.612  26.628  1.00  0.00    -0.014 A 
ATOM     59  C   UNL A   1      50.037  26.619  25.280  1.00  0.00     0.010 A 
ATOM     60  C   UNL A   1      50.529  26.141  27.608  1.00  0.00     0.010 A 
ATOM     61  C   UNL A   1      51.288  26.117  24.912  1.00  0.00     0.020 A 
ATOM     62  C   UNL A   1      51.790  25.661  27.247  1.00  0.00     0.020 A 
ATOM     63  C   UNL A   1      52.153  25.633  25.898  1.00  0.00     0.054 A 
BRANCH  63  64
ATOM     64  S   UNL A   1      53.774  24.988  25.401  1.00  0.00     0.124 S 
ATOM     65  O   UNL A   1      54.558  25.171  26.619  1.00  0.00    -0.237 OA
ATOM     66  O   UNL A   1      53.476  23.601  25.049  1.00  0.00    -0.237 OA
ATOM     67  O   UNL A   1      54.155  25.842  24.279  1.00  0.00    -0.744 OA
ENDBRANCH  63  64
ENDBRANCH  37  58
ENDBRANCH  11  12
ENDBRANCH   4   6
ENDBRANCH   1   2
BRANCH   1  68
ATOM     68  C   UNL A   1      34.660  32.055  28.248  1.00  0.00     0.023 C 
BRANCH  68  69
ATOM     69  C   UNL A   1      33.392  31.495  27.596  1.00  0.00     0.023 C 
BRANCH  69  70
ATOM     70  C   UNL A   1      33.533  30.115  26.955  1.00  0.00     0.116 C 
BRANCH  70  71
ATOM     71  N   UNL A   1      32.498  29.207  27.407  1.00  0.00    -0.354 N 
ATOM     72  C   UNL A   1      32.254  27.907  27.095  1.00  0.00     0.249 C 
ATOM     73  H   UNL A   1      31.866  29.599  28.051  1.00  0.00     0.163 HD
ATOM     74  O   UNL A   1      31.200  27.437  27.531  1.00  0.00    -0.272 OA
BRANCH  72  75
ATOM     75  C   UNL A   1      33.252  27.075  26.256  1.00  0.00     0.211 C 
ATOM     76  C   UNL A   1      33.001  25.569  26.292  1.00  0.00     0.085 C 
ATOM     77  O   UNL A   1      33.169  27.487  24.881  1.00  0.00    -0.357 OA
ATOM     78  C   UNL A   1      32.908  25.124  24.832  1.00  0.00     0.124 C 
ATOM     79  C   UNL A   1      32.563  26.444  24.093  1.00  0.00     0.187 C 
BRANCH  78  80
ATOM     80  C   UNL A   1      34.192  24.350  24.438  1.00  0.00     0.005 A 
ATOM     81  C   UNL A   1      35.277  24.444  25.355  1.00  0.00     0.008 A 
ATOM     82  C   UNL A   1      34.423  23.552  23.300  1.00  0.00     0.047 A 
ATOM     83  C   UNL A   1      36.469  23.732  25.201  1.00  0.00     0.001 A 
ATOM     84  C   UNL A   1      35.613  22.808  23.168  1.00  0.00     0.021 A 
ATOM     85  Cl  UNL A   1      33.380  23.433  21.928  1.00  0.00    -0.084 Cl
ATOM     86  C   UNL A   1      36.627  22.888  24.117  1.00  0.00     0.002 A 
ENDBRANCH  78  80
BRANCH  78  87
ATOM     87  O   UNL A   1      31.856  24.150  24.686  1.00  0.00    -0.382 OA
ATOM     88  H   UNL A   1      32.043  23.583  23.922  1.00  0.00     0.212 HD
ENDBRANCH  78  87
BRANCH  79  89
ATOM     89  C   UNL A   1      31.105  26.828  23.817  1.00  0.00     0.003 A 
ATOM     90  C   UNL A   1      30.029  26.060  24.309  1.00  0.00     0.008 A 
ATOM     91  C   UNL A   1      30.774  28.008  23.116  1.00  0.00     0.046 A 
ATOM     92  C   UNL A   1      28.698  26.444  24.121  1.00  0.00     0.000 A 
ATOM     93  C   UNL A   1      29.438  28.387  22.925  1.00  0.00     0.021 A 
ATOM     94  Cl  UNL A   1      31.963  29.073  22.441  1.00  0.00    -0.084 Cl
ATOM     95  C   UNL A   1      28.401  27.610  23.430  1.00  0.00     0.002 A 
ENDBRANCH  79  89
ENDBRANCH  72  75
ENDBRANCH  70  71
ENDBRANCH  69  70
ENDBRANCH  68  69
ENDBRANCH   1  68
TORSDOF 17
ENDMDL
MODEL 3
REMARK VINA RESULT:     -12.0      1.264      3.327
REMARK SMILES O=C(NCCCCNC(=O)[C@H]1C[C@](O)(c2ccccc2Cl)[C@@H](c2ccccc2Cl)O1)c1ccc(-c2c3nc(c(-c4ccc(S(=O)(=O)[O-])cc4)c4ccc([nH]4)c(-c4ccc(S(=O)(=O)[O-])cc4)c4nc(c(-c5ccc(S(=O)(=O)[O-])cc5)c5ccc2[nH]5)C=C4)C=C3)cc1
REMARK SMILES IDX 4 1 3 2 1 3 2 4 31 6 32 7 90 8 33 9 89 10 34 11 35 12 36 13
REMARK SMILES IDX 83 14 37 15 88 16 82 17 84 18 38 19 87 20 81 21 80 22 39 24
REMARK SMILES IDX 69 25 50 26 68 27 51 28 54 29 67 30 85 31 52 32 53 33 66 35
REMARK SMILES IDX 86 36 55 37 40 38 41 39 49 40 42 41 48 42 43 43 44 44 45 45
REMARK SMILES IDX 46 46 47 47 70 48 71 49 79 50 72 51 78 52 73 53 74 54 75 55
REMARK SMILES IDX 76 56 77 57 56 58 57 59 65 60 58 61 64 62 59 63 60 64 61 65
REMARK SMILES IDX 62 66 63 67 5 68 6 69 7 70 8 71 9 72 10 74 11 75 12 76 30 77
REMARK SMILES IDX 13 78 22 79 15 80 16 81 20 82 17 83 19 84 21 85 18 86 14 87
REMARK SMILES IDX 23 89 24 90 28 91 25 92 27 93 29 94 26 95
REMARK H PARENT 3 5 84 23 54 34 8 73 14 88
REMARK Flexibility Score: inf
ROOT
ATOM      1  C   UNL A   1      40.283  23.388  27.096  1.00  0.00     0.116 C 
ENDROOT
BRANCH   1   2
ATOM      2  N   UNL A   1      41.139  24.056  26.128  1.00  0.00    -0.352 N 
ATOM      3  O   UNL A   1      42.153  25.796  25.116  1.00  0.00    -0.269 OA
ATOM      4  C   UNL A   1      41.575  25.360  26.110  1.00  0.00     0.251 C 
ATOM      5  H   UNL A   1      41.451  23.495  25.382  1.00  0.00     0.163 HD
BRANCH   4   6
ATOM      6  C   UNL A   1      41.331  26.242  27.276  1.00  0.00     0.039 A 
ATOM      7  C   UNL A   1      42.129  27.367  27.491  1.00  0.00     0.014 A 
ATOM      8  C   UNL A   1      40.287  25.945  28.158  1.00  0.00     0.014 A 
ATOM      9  C   UNL A   1      41.976  28.108  28.657  1.00  0.00     0.010 A 
ATOM     10  C   UNL A   1      40.079  26.745  29.289  1.00  0.00     0.010 A 
ATOM     11  C   UNL A   1      40.940  27.818  29.563  1.00  0.00    -0.014 A 
BRANCH  11  12
ATOM     12  C   UNL A   1      40.751  28.707  30.739  1.00  0.00     0.031 A 
ATOM     13  C   UNL A   1      41.662  28.642  31.935  1.00  0.00     0.074 A 
ATOM     14  C   UNL A   1      39.774  29.636  30.684  1.00  0.00     0.049 A 
ATOM     15  N   UNL A   1      41.679  29.413  32.994  1.00  0.00    -0.248 NA
ATOM     16  C   UNL A   1      42.680  27.580  31.952  1.00  0.00     0.031 C 
ATOM     17  C   UNL A   1      38.812  29.781  29.587  1.00  0.00     0.029 A 
ATOM     18  N   UNL A   1      39.447  30.651  31.545  1.00  0.00    -0.354 N 
ATOM     19  C   UNL A   1      42.697  28.929  33.806  1.00  0.00     0.074 A 
ATOM     20  C   UNL A   1      43.260  27.779  33.130  1.00  0.00     0.031 C 
ATOM     21  C   UNL A   1      38.050  30.861  29.809  1.00  0.00     0.029 A 
ATOM     22  C   UNL A   1      38.426  31.450  31.088  1.00  0.00     0.049 A 
ATOM     23  H   UNL A   1      39.901  30.795  32.408  1.00  0.00     0.167 HD
ATOM     24  C   UNL A   1      43.126  29.403  35.002  1.00  0.00     0.031 A 
ATOM     25  C   UNL A   1      37.847  32.535  31.635  1.00  0.00     0.031 A 
ATOM     26  C   UNL A   1      42.562  30.546  35.673  1.00  0.00     0.049 A 
ATOM     27  C   UNL A   1      38.345  33.036  32.959  1.00  0.00     0.074 A 
ATOM     28  C   UNL A   1      42.935  31.105  36.884  1.00  0.00     0.029 A 
ATOM     29  N   UNL A   1      41.507  31.308  35.193  1.00  0.00    -0.354 N 
ATOM     30  N   UNL A   1      39.322  32.571  33.698  1.00  0.00    -0.248 NA
ATOM     31  C   UNL A   1      37.663  34.209  33.519  1.00  0.00     0.031 C 
ATOM     32  C   UNL A   1      42.082  32.181  37.155  1.00  0.00     0.029 A 
ATOM     33  C   UNL A   1      41.208  32.322  36.089  1.00  0.00     0.049 A 
ATOM     34  H   UNL A   1      41.040  31.152  34.341  1.00  0.00     0.167 HD
ATOM     35  C   UNL A   1      39.371  33.394  34.816  1.00  0.00     0.074 A 
ATOM     36  C   UNL A   1      38.352  34.409  34.634  1.00  0.00     0.031 C 
ATOM     37  C   UNL A   1      40.179  33.311  35.901  1.00  0.00     0.031 A 
BRANCH  24  38
ATOM     38  C   UNL A   1      44.264  28.681  35.676  1.00  0.00    -0.014 A 
ATOM     39  C   UNL A   1      44.022  27.607  36.551  1.00  0.00     0.010 A 
ATOM     40  C   UNL A   1      45.594  29.029  35.371  1.00  0.00     0.010 A 
ATOM     41  C   UNL A   1      45.088  26.907  37.125  1.00  0.00     0.020 A 
ATOM     42  C   UNL A   1      46.662  28.317  35.927  1.00  0.00     0.020 A 
ATOM     43  C   UNL A   1      46.402  27.268  36.810  1.00  0.00     0.054 A 
BRANCH  43  44
ATOM     44  S   UNL A   1      47.766  26.314  37.534  1.00  0.00     0.124 S 
ATOM     45  O   UNL A   1      48.934  26.985  36.971  1.00  0.00    -0.237 OA
ATOM     46  O   UNL A   1      47.564  26.505  38.968  1.00  0.00    -0.237 OA
ATOM     47  O   UNL A   1      47.534  24.955  37.051  1.00  0.00    -0.744 OA
ENDBRANCH  43  44
ENDBRANCH  24  38
BRANCH  25  48
ATOM     48  C   UNL A   1      36.713  33.199  30.939  1.00  0.00    -0.014 A 
ATOM     49  C   UNL A   1      35.406  33.118  31.447  1.00  0.00     0.010 A 
ATOM     50  C   UNL A   1      36.948  33.935  29.763  1.00  0.00     0.010 A 
ATOM     51  C   UNL A   1      34.349  33.743  30.778  1.00  0.00     0.020 A 
ATOM     52  C   UNL A   1      35.900  34.585  29.109  1.00  0.00     0.020 A 
ATOM     53  C   UNL A   1      34.604  34.472  29.612  1.00  0.00     0.054 A 
BRANCH  53  54
ATOM     54  S   UNL A   1      33.231  35.318  28.782  1.00  0.00     0.124 S 
ATOM     55  O   UNL A   1      33.935  36.290  27.951  1.00  0.00    -0.237 OA
ATOM     56  O   UNL A   1      32.572  34.230  28.063  1.00  0.00    -0.237 OA
ATOM     57  O   UNL A   1      32.459  35.878  29.889  1.00  0.00    -0.744 OA
ENDBRANCH  53  54
ENDBRANCH  25  48
BRANCH  37  58
ATOM     58  C   UNL A   1      39.985  34.352  36.968  1.00  0.00    -0.014 A 
ATOM     59  C   UNL A   1      39.083  34.142  38.026  1.00  0.00     0.010 A 
ATOM     60  C   UNL A   1      40.713  35.554  36.914  1.00  0.00     0.010 A 
ATOM     61  C   UNL A   1      38.875  35.137  38.985  1.00  0.00     0.020 A 
ATOM     62  C   UNL A   1      40.527  36.540  37.884  1.00  0.00     0.020 A 
ATOM     63  C   UNL A   1      39.592  36.334  38.902  1.00  0.00     0.054 A 
BRANCH  63  64
ATOM     64  S   UNL A   1      39.311  37.612  40.158  1.00  0.00     0.124 S 
ATOM     65  O   UNL A   1      38.984  36.812  41.335  1.00  0.00    -0.237 OA
ATOM     66  O   UNL A   1      40.597  38.305  40.207  1.00  0.00    -0.237 OA
ATOM     67  O   UNL A   1      38.208  38.397  39.610  1.00  0.00    -0.744 OA
ENDBRANCH  63  64
ENDBRANCH  37  58
ENDBRANCH  11  12
ENDBRANCH   4   6
ENDBRANCH   1   2
BRANCH   1  68
ATOM     68  C   UNL A   1      39.835  22.010  26.626  1.00  0.00     0.023 C 
BRANCH  68  69
ATOM     69  C   UNL A   1      38.503  21.975  25.870  1.00  0.00     0.023 C 
BRANCH  69  70
ATOM     70  C   UNL A   1      37.820  23.329  25.671  1.00  0.00     0.116 C 
BRANCH  70  71
ATOM     71  N   UNL A   1      36.682  23.487  26.554  1.00  0.00    -0.354 N 
ATOM     72  C   UNL A   1      35.422  22.981  26.483  1.00  0.00     0.249 C 
ATOM     73  H   UNL A   1      36.850  24.058  27.338  1.00  0.00     0.163 HD
ATOM     74  O   UNL A   1      34.620  23.416  27.313  1.00  0.00    -0.272 OA
BRANCH  72  75
ATOM     75  C   UNL A   1      35.037  21.913  25.433  1.00  0.00     0.211 C 
ATOM     76  C   UNL A   1      34.055  20.858  25.939  1.00  0.00     0.085 C 
ATOM     77  O   UNL A   1      34.420  22.562  24.307  1.00  0.00    -0.357 OA
ATOM     78  C   UNL A   1      32.895  20.851  24.942  1.00  0.00     0.124 C 
ATOM     79  C   UNL A   1      33.015  22.243  24.268  1.00  0.00     0.187 C 
BRANCH  78  80
ATOM     80  C   UNL A   1      32.968  19.576  24.065  1.00  0.00     0.005 A 
ATOM     81  C   UNL A   1      33.649  18.466  24.641  1.00  0.00     0.008 A 
ATOM     82  C   UNL A   1      32.435  19.363  22.778  1.00  0.00     0.047 A 
ATOM     83  C   UNL A   1      33.721  17.213  24.026  1.00  0.00     0.001 A 
ATOM     84  C   UNL A   1      32.481  18.088  22.178  1.00  0.00     0.021 A 
ATOM     85  Cl  UNL A   1      31.758  20.582  21.757  1.00  0.00    -0.084 Cl
ATOM     86  C   UNL A   1      33.110  17.016  22.801  1.00  0.00     0.002 A 
ENDBRANCH  78  80
BRANCH  78  87
ATOM     87  O   UNL A   1      31.647  20.717  25.650  1.00  0.00    -0.382 OA
ATOM     88  H   UNL A   1      31.432  19.776  25.750  1.00  0.00     0.212 HD
ENDBRANCH  78  87
BRANCH  79  89
ATOM     89  C   UNL A   1      32.229  23.444  24.805  1.00  0.00     0.003 A 
ATOM     90  C   UNL A   1      31.376  23.332  25.922  1.00  0.00     0.008 A 
ATOM     91  C   UNL A   1      32.379  24.732  24.247  1.00  0.00     0.046 A 
ATOM     92  C   UNL A   1      30.711  24.438  26.460  1.00  0.00     0.000 A 
ATOM     93  C   UNL A   1      31.707  25.838  24.786  1.00  0.00     0.021 A 
ATOM     94  Cl  UNL A   1      33.384  25.058  22.873  1.00  0.00    -0.084 Cl
ATOM     95  C   UNL A   1      30.878  25.694  25.893  1.00  0.00     0.002 A 
ENDBRANCH  79  89
ENDBRANCH  72  75
ENDBRANCH  70  71
ENDBRANCH  69  70
ENDBRANCH  68  69
ENDBRANCH   1  68
TORSDOF 17
ENDMDL
