MODEL 1
REMARK VINA RESULT:      -9.8      0.000      0.000
REMARK SMILES O=C(NCCCCNC(=O)c1cncc(OCCCc2ccccc2)n1)c1ccc(-c2c3nc(c(-c4ccc(S(=O)(=O)[O-])cc4)c4ccc([nH]4)c(-c4ccc(S(=O)(=O)[O-])cc4)c4nc(c(-c5ccc(S(=O)(=O)[O-])cc5)c5ccc2[nH]5)C=C4)C=C3)cc1
REMARK SMILES IDX 6 1 5 2 4 3 3 4 1 5 2 6 27 8 28 9 86 10 29 11 85 12 30 13
REMARK SMILES IDX 31 14 32 15 79 16 33 17 84 18 78 19 80 20 34 21 83 22 77 23
REMARK SMILES IDX 76 24 35 26 65 27 46 28 64 29 47 30 50 31 63 32 81 33 48 34
REMARK SMILES IDX 49 35 62 37 82 38 51 39 36 40 37 41 45 42 38 43 44 44 39 45
REMARK SMILES IDX 40 46 41 47 42 48 43 49 66 50 67 51 75 52 68 53 74 54 69 55
REMARK SMILES IDX 70 56 71 57 72 58 73 59 52 60 53 61 61 62 54 63 60 64 55 65
REMARK SMILES IDX 56 66 57 67 58 68 59 69 7 70 8 71 9 72 10 74 11 75 12 76
REMARK SMILES IDX 26 77 13 78 15 79 14 80 16 81 17 82 18 83 19 84 20 85 21 86
REMARK SMILES IDX 25 87 22 88 24 89 23 90
REMARK H PARENT 3 7 80 25 50 36 8 73
REMARK Flexibility Score: inf
ROOT
ATOM      1  C   UNL A   1      34.249  35.248  28.453  1.00  0.00     0.023 C 
ENDROOT
BRANCH   1   2
ATOM      2  C   UNL A   1      34.822  33.926  27.946  1.00  0.00     0.023 C 
BRANCH   2   3
ATOM      3  C   UNL A   1      34.666  32.738  28.886  1.00  0.00     0.116 C 
BRANCH   3   4
ATOM      4  N   UNL A   1      33.928  31.633  28.295  1.00  0.00    -0.352 N 
ATOM      5  O   UNL A   1      33.643  29.631  27.295  1.00  0.00    -0.269 OA
ATOM      6  C   UNL A   1      34.388  30.399  27.899  1.00  0.00     0.251 C 
ATOM      7  H   UNL A   1      32.966  31.790  28.160  1.00  0.00     0.163 HD
BRANCH   6   8
ATOM      8  C   UNL A   1      35.788  30.016  28.182  1.00  0.00     0.039 A 
ATOM      9  C   UNL A   1      36.781  30.211  27.220  1.00  0.00     0.014 A 
ATOM     10  C   UNL A   1      36.109  29.453  29.421  1.00  0.00     0.014 A 
ATOM     11  C   UNL A   1      38.061  29.719  27.441  1.00  0.00     0.010 A 
ATOM     12  C   UNL A   1      37.422  29.045  29.678  1.00  0.00     0.010 A 
ATOM     13  C   UNL A   1      38.404  29.161  28.683  1.00  0.00    -0.014 A 
BRANCH  13  14
ATOM     14  C   UNL A   1      39.826  28.830  28.954  1.00  0.00     0.031 A 
ATOM     15  C   UNL A   1      40.421  27.510  28.555  1.00  0.00     0.074 A 
ATOM     16  C   UNL A   1      40.582  29.764  29.567  1.00  0.00     0.049 A 
ATOM     17  N   UNL A   1      41.649  27.085  28.721  1.00  0.00    -0.248 NA
ATOM     18  C   UNL A   1      39.537  26.537  27.892  1.00  0.00     0.031 C 
ATOM     19  C   UNL A   1      40.101  31.077  30.012  1.00  0.00     0.029 A 
ATOM     20  N   UNL A   1      41.909  29.767  29.912  1.00  0.00    -0.354 N 
ATOM     21  C   UNL A   1      41.681  25.794  28.206  1.00  0.00     0.074 A 
ATOM     22  C   UNL A   1      40.347  25.498  27.730  1.00  0.00     0.031 C 
ATOM     23  C   UNL A   1      41.123  31.770  30.532  1.00  0.00     0.029 A 
ATOM     24  C   UNL A   1      42.311  30.928  30.529  1.00  0.00     0.049 A 
ATOM     25  H   UNL A   1      42.514  29.011  29.734  1.00  0.00     0.167 HD
ATOM     26  C   UNL A   1      42.731  24.939  28.142  1.00  0.00     0.031 A 
ATOM     27  C   UNL A   1      43.496  31.271  31.067  1.00  0.00     0.031 A 
ATOM     28  C   UNL A   1      44.057  25.251  28.615  1.00  0.00     0.049 A 
ATOM     29  C   UNL A   1      44.625  30.284  31.012  1.00  0.00     0.074 A 
ATOM     30  C   UNL A   1      45.200  24.473  28.540  1.00  0.00     0.029 A 
ATOM     31  N   UNL A   1      44.418  26.425  29.262  1.00  0.00    -0.354 N 
ATOM     32  N   UNL A   1      44.652  29.096  30.458  1.00  0.00    -0.248 NA
ATOM     33  C   UNL A   1      45.883  30.682  31.656  1.00  0.00     0.031 C 
ATOM     34  C   UNL A   1      46.232  25.143  29.201  1.00  0.00     0.029 A 
ATOM     35  C   UNL A   1      45.753  26.369  29.630  1.00  0.00     0.049 A 
ATOM     36  H   UNL A   1      43.815  27.183  29.434  1.00  0.00     0.167 HD
ATOM     37  C   UNL A   1      45.934  28.608  30.679  1.00  0.00     0.074 A 
ATOM     38  C   UNL A   1      46.661  29.644  31.385  1.00  0.00     0.031 C 
ATOM     39  C   UNL A   1      46.459  27.406  30.338  1.00  0.00     0.031 A 
BRANCH  26  40
ATOM     40  C   UNL A   1      42.507  23.565  27.566  1.00  0.00    -0.014 A 
ATOM     41  C   UNL A   1      42.839  23.268  26.233  1.00  0.00     0.010 A 
ATOM     42  C   UNL A   1      42.073  22.526  28.410  1.00  0.00     0.010 A 
ATOM     43  C   UNL A   1      42.736  21.957  25.754  1.00  0.00     0.020 A 
ATOM     44  C   UNL A   1      41.989  21.210  27.942  1.00  0.00     0.020 A 
ATOM     45  C   UNL A   1      42.317  20.936  26.614  1.00  0.00     0.054 A 
BRANCH  45  46
ATOM     46  S   UNL A   1      42.265  19.235  25.983  1.00  0.00     0.124 S 
ATOM     47  O   UNL A   1      40.839  19.052  25.726  1.00  0.00    -0.237 OA
ATOM     48  O   UNL A   1      43.113  19.308  24.796  1.00  0.00    -0.237 OA
ATOM     49  O   UNL A   1      42.805  18.439  27.083  1.00  0.00    -0.744 OA
ENDBRANCH  45  46
ENDBRANCH  26  40
BRANCH  27  50
ATOM     50  C   UNL A   1      43.650  32.580  31.757  1.00  0.00    -0.014 A 
ATOM     51  C   UNL A   1      44.066  33.724  31.055  1.00  0.00     0.010 A 
ATOM     52  C   UNL A   1      43.393  32.681  33.138  1.00  0.00     0.010 A 
ATOM     53  C   UNL A   1      44.258  34.934  31.728  1.00  0.00     0.020 A 
ATOM     54  C   UNL A   1      43.547  33.897  33.806  1.00  0.00     0.020 A 
ATOM     55  C   UNL A   1      44.001  35.011  33.100  1.00  0.00     0.054 A 
BRANCH  55  56
ATOM     56  S   UNL A   1      44.249  36.592  33.952  1.00  0.00     0.124 S 
ATOM     57  O   UNL A   1      42.894  37.133  33.981  1.00  0.00    -0.237 OA
ATOM     58  O   UNL A   1      44.794  36.176  35.240  1.00  0.00    -0.237 OA
ATOM     59  O   UNL A   1      45.189  37.301  33.087  1.00  0.00    -0.744 OA
ENDBRANCH  55  56
ENDBRANCH  27  50
BRANCH  39  60
ATOM     60  C   UNL A   1      47.895  27.156  30.712  1.00  0.00    -0.014 A 
ATOM     61  C   UNL A   1      48.944  27.541  29.859  1.00  0.00     0.010 A 
ATOM     62  C   UNL A   1      48.199  26.561  31.951  1.00  0.00     0.010 A 
ATOM     63  C   UNL A   1      50.271  27.305  30.223  1.00  0.00     0.020 A 
ATOM     64  C   UNL A   1      49.526  26.353  32.332  1.00  0.00     0.020 A 
ATOM     65  C   UNL A   1      50.553  26.713  31.458  1.00  0.00     0.054 A 
BRANCH  65  66
ATOM     66  S   UNL A   1      52.287  26.457  31.924  1.00  0.00     0.124 S 
ATOM     67  O   UNL A   1      52.993  27.221  30.900  1.00  0.00    -0.237 OA
ATOM     68  O   UNL A   1      52.341  27.013  33.273  1.00  0.00    -0.237 OA
ATOM     69  O   UNL A   1      52.456  25.008  31.847  1.00  0.00    -0.744 OA
ENDBRANCH  65  66
ENDBRANCH  39  60
ENDBRANCH  13  14
ENDBRANCH   6   8
ENDBRANCH   3   4
ENDBRANCH   2   3
ENDBRANCH   1   2
BRANCH   1  70
ATOM     70  C   UNL A   1      33.135  35.133  29.488  1.00  0.00     0.116 C 
BRANCH  70  71
ATOM     71  N   UNL A   1      32.766  36.401  30.088  1.00  0.00    -0.351 N 
ATOM     72  C   UNL A   1      33.185  36.922  31.291  1.00  0.00     0.271 C 
ATOM     73  H   UNL A   1      32.137  36.956  29.573  1.00  0.00     0.163 HD
ATOM     74  O   UNL A   1      32.889  38.072  31.605  1.00  0.00    -0.267 OA
BRANCH  72  75
ATOM     75  C   UNL A   1      34.031  36.107  32.186  1.00  0.00     0.150 A 
ATOM     76  C   UNL A   1      33.997  36.329  33.553  1.00  0.00     0.145 A 
ATOM     77  N   UNL A   1      34.775  35.125  31.618  1.00  0.00    -0.205 NA
ATOM     78  N   UNL A   1      34.736  35.594  34.421  1.00  0.00    -0.257 NA
ATOM     79  C   UNL A   1      35.469  34.361  32.478  1.00  0.00     0.233 A 
ATOM     80  C   UNL A   1      35.457  34.596  33.848  1.00  0.00     0.179 A 
BRANCH  79  81
ATOM     81  O   UNL A   1      36.117  33.235  32.024  1.00  0.00    -0.477 OA
BRANCH  81  82
ATOM     82  C   UNL A   1      35.579  32.004  32.514  1.00  0.00     0.232 C 
BRANCH  82  83
ATOM     83  C   UNL A   1      36.627  30.893  32.670  1.00  0.00     0.046 C 
BRANCH  83  84
ATOM     84  C   UNL A   1      37.881  31.224  33.497  1.00  0.00     0.039 C 
BRANCH  84  85
ATOM     85  C   UNL A   1      39.079  30.301  33.407  1.00  0.00    -0.048 A 
ATOM     86  C   UNL A   1      39.053  29.036  32.808  1.00  0.00     0.004 A 
ATOM     87  C   UNL A   1      40.291  30.738  33.965  1.00  0.00     0.004 A 
ATOM     88  C   UNL A   1      40.168  28.195  32.862  1.00  0.00     0.000 A 
ATOM     89  C   UNL A   1      41.413  29.908  34.002  1.00  0.00     0.000 A 
ATOM     90  C   UNL A   1      41.345  28.626  33.468  1.00  0.00     0.000 A 
ENDBRANCH  84  85
ENDBRANCH  83  84
ENDBRANCH  82  83
ENDBRANCH  81  82
ENDBRANCH  79  81
ENDBRANCH  72  75
ENDBRANCH  70  71
ENDBRANCH   1  70
TORSDOF 19
ENDMDL
MODEL 2
REMARK VINA RESULT:      -9.5      3.296     10.245
REMARK SMILES O=C(NCCCCNC(=O)c1cncc(OCCCc2ccccc2)n1)c1ccc(-c2c3nc(c(-c4ccc(S(=O)(=O)[O-])cc4)c4ccc([nH]4)c(-c4ccc(S(=O)(=O)[O-])cc4)c4nc(c(-c5ccc(S(=O)(=O)[O-])cc5)c5ccc2[nH]5)C=C4)C=C3)cc1
REMARK SMILES IDX 6 1 5 2 4 3 3 4 1 5 2 6 27 8 28 9 86 10 29 11 85 12 30 13
REMARK SMILES IDX 31 14 32 15 79 16 33 17 84 18 78 19 80 20 34 21 83 22 77 23
REMARK SMILES IDX 76 24 35 26 65 27 46 28 64 29 47 30 50 31 63 32 81 33 48 34
REMARK SMILES IDX 49 35 62 37 82 38 51 39 36 40 37 41 45 42 38 43 44 44 39 45
REMARK SMILES IDX 40 46 41 47 42 48 43 49 66 50 67 51 75 52 68 53 74 54 69 55
REMARK SMILES IDX 70 56 71 57 72 58 73 59 52 60 53 61 61 62 54 63 60 64 55 65
REMARK SMILES IDX 56 66 57 67 58 68 59 69 7 70 8 71 9 72 10 74 11 75 12 76
REMARK SMILES IDX 26 77 13 78 15 79 14 80 16 81 17 82 18 83 19 84 20 85 21 86
REMARK SMILES IDX 25 87 22 88 24 89 23 90
REMARK H PARENT 3 7 80 25 50 36 8 73
REMARK Flexibility Score: inf
ROOT
ATOM      1  C   UNL A   1      32.997  29.080  24.694  1.00  0.00     0.023 C 
ENDROOT
BRANCH   1   2
ATOM      2  C   UNL A   1      33.492  27.897  25.524  1.00  0.00     0.023 C 
BRANCH   2   3
ATOM      3  C   UNL A   1      34.119  28.252  26.865  1.00  0.00     0.116 C 
BRANCH   3   4
ATOM      4  N   UNL A   1      33.799  29.599  27.308  1.00  0.00    -0.352 N 
ATOM      5  O   UNL A   1      34.086  31.533  28.435  1.00  0.00    -0.269 OA
ATOM      6  C   UNL A   1      34.570  30.478  28.035  1.00  0.00     0.251 C 
ATOM      7  H   UNL A   1      32.908  29.930  27.052  1.00  0.00     0.163 HD
BRANCH   6   8
ATOM      8  C   UNL A   1      35.971  30.129  28.352  1.00  0.00     0.039 A 
ATOM      9  C   UNL A   1      36.975  30.307  27.399  1.00  0.00     0.014 A 
ATOM     10  C   UNL A   1      36.283  29.617  29.615  1.00  0.00     0.014 A 
ATOM     11  C   UNL A   1      38.260  29.845  27.656  1.00  0.00     0.010 A 
ATOM     12  C   UNL A   1      37.598  29.241  29.906  1.00  0.00     0.010 A 
ATOM     13  C   UNL A   1      38.593  29.338  28.922  1.00  0.00    -0.014 A 
BRANCH  13  14
ATOM     14  C   UNL A   1      40.016  29.041  29.225  1.00  0.00     0.031 A 
ATOM     15  C   UNL A   1      40.918  30.060  29.864  1.00  0.00     0.074 A 
ATOM     16  C   UNL A   1      40.481  27.813  28.920  1.00  0.00     0.049 A 
ATOM     17  N   UNL A   1      42.180  29.939  30.193  1.00  0.00    -0.248 NA
ATOM     18  C   UNL A   1      40.345  31.381  30.167  1.00  0.00     0.031 C 
ATOM     19  C   UNL A   1      39.693  26.749  28.284  1.00  0.00     0.029 A 
ATOM     20  N   UNL A   1      41.712  27.240  29.110  1.00  0.00    -0.354 N 
ATOM     21  C   UNL A   1      42.558  31.168  30.722  1.00  0.00     0.074 A 
ATOM     22  C   UNL A   1      41.395  32.028  30.660  1.00  0.00     0.031 C 
ATOM     23  C   UNL A   1      40.446  25.647  28.173  1.00  0.00     0.029 A 
ATOM     24  C   UNL A   1      41.788  25.943  28.657  1.00  0.00     0.049 A 
ATOM     25  H   UNL A   1      42.468  27.712  29.528  1.00  0.00     0.167 HD
ATOM     26  C   UNL A   1      43.767  31.539  31.209  1.00  0.00     0.031 A 
ATOM     27  C   UNL A   1      42.828  25.093  28.603  1.00  0.00     0.031 A 
ATOM     28  C   UNL A   1      44.915  30.669  31.270  1.00  0.00     0.049 A 
ATOM     29  C   UNL A   1      44.162  25.551  29.117  1.00  0.00     0.074 A 
ATOM     30  C   UNL A   1      46.166  30.936  31.800  1.00  0.00     0.029 A 
ATOM     31  N   UNL A   1      44.962  29.374  30.774  1.00  0.00    -0.354 N 
ATOM     32  N   UNL A   1      44.479  26.694  29.676  1.00  0.00    -0.248 NA
ATOM     33  C   UNL A   1      45.279  24.606  28.991  1.00  0.00     0.031 C 
ATOM     34  C   UNL A   1      46.988  29.830  31.564  1.00  0.00     0.029 A 
ATOM     35  C   UNL A   1      46.232  28.848  30.947  1.00  0.00     0.049 A 
ATOM     36  H   UNL A   1      44.205  28.900  30.361  1.00  0.00     0.167 HD
ATOM     37  C   UNL A   1      45.831  26.602  29.977  1.00  0.00     0.074 A 
ATOM     38  C   UNL A   1      46.262  25.280  29.572  1.00  0.00     0.031 C 
ATOM     39  C   UNL A   1      46.646  27.532  30.531  1.00  0.00     0.031 A 
BRANCH  26  40
ATOM     40  C   UNL A   1      43.943  32.953  31.698  1.00  0.00    -0.014 A 
ATOM     41  C   UNL A   1      44.669  33.900  30.954  1.00  0.00     0.010 A 
ATOM     42  C   UNL A   1      43.264  33.371  32.858  1.00  0.00     0.010 A 
ATOM     43  C   UNL A   1      44.716  35.236  31.366  1.00  0.00     0.020 A 
ATOM     44  C   UNL A   1      43.291  34.710  33.262  1.00  0.00     0.020 A 
ATOM     45  C   UNL A   1      44.023  35.633  32.514  1.00  0.00     0.054 A 
BRANCH  45  46
ATOM     46  S   UNL A   1      44.043  37.388  32.980  1.00  0.00     0.124 S 
ATOM     47  O   UNL A   1      45.425  37.567  33.418  1.00  0.00    -0.237 OA
ATOM     48  O   UNL A   1      43.690  38.055  31.730  1.00  0.00    -0.237 OA
ATOM     49  O   UNL A   1      43.040  37.479  34.037  1.00  0.00    -0.744 OA
ENDBRANCH  45  46
ENDBRANCH  26  40
BRANCH  27  50
ATOM     50  C   UNL A   1      42.662  23.750  27.984  1.00  0.00    -0.014 A 
ATOM     51  C   UNL A   1      42.297  22.636  28.759  1.00  0.00     0.010 A 
ATOM     52  C   UNL A   1      42.886  23.580  26.604  1.00  0.00     0.010 A 
ATOM     53  C   UNL A   1      42.197  21.370  28.172  1.00  0.00     0.020 A 
ATOM     54  C   UNL A   1      42.750  22.325  26.008  1.00  0.00     0.020 A 
ATOM     55  C   UNL A   1      42.428  21.223  26.802  1.00  0.00     0.054 A 
BRANCH  55  56
ATOM     56  S   UNL A   1      42.285  19.575  26.060  1.00  0.00     0.124 S 
ATOM     57  O   UNL A   1      43.116  19.709  24.867  1.00  0.00    -0.237 OA
ATOM     58  O   UNL A   1      42.816  18.709  27.108  1.00  0.00    -0.237 OA
ATOM     59  O   UNL A   1      40.852  19.436  25.814  1.00  0.00    -0.744 OA
ENDBRANCH  55  56
ENDBRANCH  27  50
BRANCH  39  60
ATOM     60  C   UNL A   1      48.085  27.143  30.742  1.00  0.00    -0.014 A 
ATOM     61  C   UNL A   1      48.479  26.418  31.881  1.00  0.00     0.010 A 
ATOM     62  C   UNL A   1      49.047  27.476  29.771  1.00  0.00     0.010 A 
ATOM     63  C   UNL A   1      49.817  26.061  32.060  1.00  0.00     0.020 A 
ATOM     64  C   UNL A   1      50.380  27.092  29.932  1.00  0.00     0.020 A 
ATOM     65  C   UNL A   1      50.759  26.400  31.084  1.00  0.00     0.054 A 
BRANCH  65  66
ATOM     66  S   UNL A   1      52.482  25.887  31.322  1.00  0.00     0.124 S 
ATOM     67  O   UNL A   1      52.988  25.877  29.953  1.00  0.00    -0.237 OA
ATOM     68  O   UNL A   1      53.014  26.941  32.182  1.00  0.00    -0.237 OA
ATOM     69  O   UNL A   1      52.369  24.574  31.953  1.00  0.00    -0.744 OA
ENDBRANCH  65  66
ENDBRANCH  39  60
ENDBRANCH  13  14
ENDBRANCH   6   8
ENDBRANCH   3   4
ENDBRANCH   2   3
ENDBRANCH   1   2
BRANCH   1  70
ATOM     70  C   UNL A   1      31.508  29.387  24.801  1.00  0.00     0.116 C 
BRANCH  70  71
ATOM     71  N   UNL A   1      30.867  29.616  23.520  1.00  0.00    -0.351 N 
ATOM     72  C   UNL A   1      30.439  28.680  22.607  1.00  0.00     0.271 C 
ATOM     73  H   UNL A   1      30.719  30.558  23.274  1.00  0.00     0.163 HD
ATOM     74  O   UNL A   1      29.790  29.024  21.623  1.00  0.00    -0.267 OA
BRANCH  72  75
ATOM     75  C   UNL A   1      30.729  27.250  22.837  1.00  0.00     0.150 A 
ATOM     76  C   UNL A   1      29.852  26.485  23.590  1.00  0.00     0.145 A 
ATOM     77  N   UNL A   1      31.834  26.734  22.244  1.00  0.00    -0.205 NA
ATOM     78  N   UNL A   1      30.059  25.164  23.813  1.00  0.00    -0.257 NA
ATOM     79  C   UNL A   1      32.016  25.413  22.419  1.00  0.00     0.233 A 
ATOM     80  C   UNL A   1      31.151  24.647  23.194  1.00  0.00     0.179 A 
BRANCH  79  81
ATOM     81  O   UNL A   1      33.005  24.760  21.721  1.00  0.00    -0.477 OA
BRANCH  81  82
ATOM     82  C   UNL A   1      33.468  23.555  22.337  1.00  0.00     0.232 C 
BRANCH  82  83
ATOM     83  C   UNL A   1      34.626  23.771  23.321  1.00  0.00     0.046 C 
BRANCH  83  84
ATOM     84  C   UNL A   1      35.684  22.659  23.413  1.00  0.00     0.039 C 
BRANCH  84  85
ATOM     85  C   UNL A   1      36.731  22.736  24.506  1.00  0.00    -0.048 A 
ATOM     86  C   UNL A   1      36.920  23.849  25.334  1.00  0.00     0.004 A 
ATOM     87  C   UNL A   1      37.569  21.626  24.695  1.00  0.00     0.004 A 
ATOM     88  C   UNL A   1      37.979  23.890  26.245  1.00  0.00     0.000 A 
ATOM     89  C   UNL A   1      38.615  21.657  25.619  1.00  0.00     0.000 A 
ATOM     90  C   UNL A   1      38.834  22.800  26.380  1.00  0.00     0.000 A 
ENDBRANCH  84  85
ENDBRANCH  83  84
ENDBRANCH  82  83
ENDBRANCH  81  82
ENDBRANCH  79  81
ENDBRANCH  72  75
ENDBRANCH  70  71
ENDBRANCH   1  70
TORSDOF 19
ENDMDL
MODEL 3
REMARK VINA RESULT:      -9.4      4.328      7.407
REMARK SMILES O=C(NCCCCNC(=O)c1cncc(OCCCc2ccccc2)n1)c1ccc(-c2c3nc(c(-c4ccc(S(=O)(=O)[O-])cc4)c4ccc([nH]4)c(-c4ccc(S(=O)(=O)[O-])cc4)c4nc(c(-c5ccc(S(=O)(=O)[O-])cc5)c5ccc2[nH]5)C=C4)C=C3)cc1
REMARK SMILES IDX 6 1 5 2 4 3 3 4 1 5 2 6 27 8 28 9 86 10 29 11 85 12 30 13
REMARK SMILES IDX 31 14 32 15 79 16 33 17 84 18 78 19 80 20 34 21 83 22 77 23
REMARK SMILES IDX 76 24 35 26 65 27 46 28 64 29 47 30 50 31 63 32 81 33 48 34
REMARK SMILES IDX 49 35 62 37 82 38 51 39 36 40 37 41 45 42 38 43 44 44 39 45
REMARK SMILES IDX 40 46 41 47 42 48 43 49 66 50 67 51 75 52 68 53 74 54 69 55
REMARK SMILES IDX 70 56 71 57 72 58 73 59 52 60 53 61 61 62 54 63 60 64 55 65
REMARK SMILES IDX 56 66 57 67 58 68 59 69 7 70 8 71 9 72 10 74 11 75 12 76
REMARK SMILES IDX 26 77 13 78 15 79 14 80 16 81 17 82 18 83 19 84 20 85 21 86
REMARK SMILES IDX 25 87 22 88 24 89 23 90
REMARK H PARENT 3 7 80 25 50 36 8 73
REMARK Flexibility Score: inf
ROOT
ATOM      1  C   UNL A   1      31.723  27.571  26.669  1.00  0.00     0.023 C 
ENDROOT
BRANCH   1   2
ATOM      2  C   UNL A   1      33.243  27.451  26.743  1.00  0.00     0.023 C 
BRANCH   2   3
ATOM      3  C   UNL A   1      34.024  28.636  26.190  1.00  0.00     0.116 C 
BRANCH   3   4
ATOM      4  N   UNL A   1      33.681  29.896  26.831  1.00  0.00    -0.352 N 
ATOM      5  O   UNL A   1      33.891  31.602  28.292  1.00  0.00    -0.269 OA
ATOM      6  C   UNL A   1      34.397  30.619  27.758  1.00  0.00     0.251 C 
ATOM      7  H   UNL A   1      32.819  30.287  26.564  1.00  0.00     0.163 HD
BRANCH   6   8
ATOM      8  C   UNL A   1      35.763  30.187  28.124  1.00  0.00     0.039 A 
ATOM      9  C   UNL A   1      36.819  30.354  27.226  1.00  0.00     0.014 A 
ATOM     10  C   UNL A   1      35.988  29.607  29.375  1.00  0.00     0.014 A 
ATOM     11  C   UNL A   1      38.066  29.819  27.521  1.00  0.00     0.010 A 
ATOM     12  C   UNL A   1      37.268  29.154  29.709  1.00  0.00     0.010 A 
ATOM     13  C   UNL A   1      38.313  29.242  28.777  1.00  0.00    -0.014 A 
BRANCH  13  14
ATOM     14  C   UNL A   1      39.704  28.862  29.133  1.00  0.00     0.031 A 
ATOM     15  C   UNL A   1      40.294  27.543  28.721  1.00  0.00     0.074 A 
ATOM     16  C   UNL A   1      40.438  29.749  29.836  1.00  0.00     0.049 A 
ATOM     17  N   UNL A   1      41.496  27.078  28.954  1.00  0.00    -0.248 NA
ATOM     18  C   UNL A   1      39.435  26.622  27.958  1.00  0.00     0.031 C 
ATOM     19  C   UNL A   1      39.958  31.057  30.301  1.00  0.00     0.029 A 
ATOM     20  N   UNL A   1      41.736  29.702  30.271  1.00  0.00    -0.354 N 
ATOM     21  C   UNL A   1      41.533  25.809  28.389  1.00  0.00     0.074 A 
ATOM     22  C   UNL A   1      40.229  25.568  27.809  1.00  0.00     0.031 C 
ATOM     23  C   UNL A   1      40.957  31.700  30.919  1.00  0.00     0.029 A 
ATOM     24  C   UNL A   1      42.123  30.827  30.963  1.00  0.00     0.049 A 
ATOM     25  H   UNL A   1      42.334  28.938  30.105  1.00  0.00     0.167 HD
ATOM     26  C   UNL A   1      42.564  24.929  28.363  1.00  0.00     0.031 A 
ATOM     27  C   UNL A   1      43.274  31.115  31.596  1.00  0.00     0.031 A 
ATOM     28  C   UNL A   1      43.860  25.186  28.939  1.00  0.00     0.049 A 
ATOM     29  C   UNL A   1      44.380  30.101  31.579  1.00  0.00     0.074 A 
ATOM     30  C   UNL A   1      44.986  24.380  28.911  1.00  0.00     0.029 A 
ATOM     31  N   UNL A   1      44.203  26.322  29.658  1.00  0.00    -0.354 N 
ATOM     32  N   UNL A   1      44.417  28.936  30.979  1.00  0.00    -0.248 NA
ATOM     33  C   UNL A   1      45.599  30.438  32.324  1.00  0.00     0.031 C 
ATOM     34  C   UNL A   1      45.985  24.995  29.670  1.00  0.00     0.029 A 
ATOM     35  C   UNL A   1      45.506  26.215  30.115  1.00  0.00     0.049 A 
ATOM     36  H   UNL A   1      43.608  27.089  29.819  1.00  0.00     0.167 HD
ATOM     37  C   UNL A   1      45.668  28.404  31.268  1.00  0.00     0.074 A 
ATOM     38  C   UNL A   1      46.368  29.391  32.065  1.00  0.00     0.031 C 
ATOM     39  C   UNL A   1      46.186  27.203  30.914  1.00  0.00     0.031 A 
BRANCH  26  40
ATOM     40  C   UNL A   1      42.347  23.586  27.715  1.00  0.00    -0.014 A 
ATOM     41  C   UNL A   1      42.851  23.302  26.434  1.00  0.00     0.010 A 
ATOM     42  C   UNL A   1      41.737  22.554  28.454  1.00  0.00     0.010 A 
ATOM     43  C   UNL A   1      42.743  22.012  25.902  1.00  0.00     0.020 A 
ATOM     44  C   UNL A   1      41.647  21.258  27.935  1.00  0.00     0.020 A 
ATOM     45  C   UNL A   1      42.147  20.997  26.659  1.00  0.00     0.054 A 
BRANCH  45  46
ATOM     46  S   UNL A   1      42.091  19.318  25.971  1.00  0.00     0.124 S 
ATOM     47  O   UNL A   1      42.626  18.523  27.074  1.00  0.00    -0.237 OA
ATOM     48  O   UNL A   1      40.669  19.133  25.696  1.00  0.00    -0.237 OA
ATOM     49  O   UNL A   1      42.947  19.397  24.790  1.00  0.00    -0.744 OA
ENDBRANCH  45  46
ENDBRANCH  26  40
BRANCH  27  50
ATOM     50  C   UNL A   1      43.411  32.391  32.350  1.00  0.00    -0.014 A 
ATOM     51  C   UNL A   1      43.844  33.565  31.711  1.00  0.00     0.010 A 
ATOM     52  C   UNL A   1      43.120  32.428  33.727  1.00  0.00     0.010 A 
ATOM     53  C   UNL A   1      44.019  34.743  32.444  1.00  0.00     0.020 A 
ATOM     54  C   UNL A   1      43.257  33.612  34.454  1.00  0.00     0.020 A 
ATOM     55  C   UNL A   1      43.729  34.757  33.811  1.00  0.00     0.054 A 
BRANCH  55  56
ATOM     56  S   UNL A   1      43.955  36.297  34.741  1.00  0.00     0.124 S 
ATOM     57  O   UNL A   1      43.923  37.297  33.679  1.00  0.00    -0.237 OA
ATOM     58  O   UNL A   1      42.809  36.293  35.645  1.00  0.00    -0.237 OA
ATOM     59  O   UNL A   1      45.251  36.114  35.392  1.00  0.00    -0.744 OA
ENDBRANCH  55  56
ENDBRANCH  27  50
BRANCH  39  60
ATOM     60  C   UNL A   1      47.585  26.899  31.376  1.00  0.00    -0.014 A 
ATOM     61  C   UNL A   1      47.819  26.261  32.607  1.00  0.00     0.010 A 
ATOM     62  C   UNL A   1      48.678  27.223  30.551  1.00  0.00     0.010 A 
ATOM     63  C   UNL A   1      49.123  25.983  33.021  1.00  0.00     0.020 A 
ATOM     64  C   UNL A   1      49.982  26.916  30.947  1.00  0.00     0.020 A 
ATOM     65  C   UNL A   1      50.196  26.311  32.187  1.00  0.00     0.054 A 
BRANCH  65  66
ATOM     66  S   UNL A   1      51.877  25.899  32.729  1.00  0.00     0.124 S 
ATOM     67  O   UNL A   1      51.642  24.756  33.606  1.00  0.00    -0.237 OA
ATOM     68  O   UNL A   1      52.555  25.598  31.471  1.00  0.00    -0.237 OA
ATOM     69  O   UNL A   1      52.333  27.115  33.400  1.00  0.00    -0.744 OA
ENDBRANCH  65  66
ENDBRANCH  39  60
ENDBRANCH  13  14
ENDBRANCH   6   8
ENDBRANCH   3   4
ENDBRANCH   2   3
ENDBRANCH   1   2
BRANCH   1  70
ATOM     70  C   UNL A   1      31.024  26.570  25.755  1.00  0.00     0.116 C 
BRANCH  70  71
ATOM     71  N   UNL A   1      30.434  25.450  26.462  1.00  0.00    -0.351 N 
ATOM     72  C   UNL A   1      30.927  24.170  26.584  1.00  0.00     0.271 C 
ATOM     73  H   UNL A   1      29.574  25.625  26.908  1.00  0.00     0.163 HD
ATOM     74  O   UNL A   1      30.379  23.363  27.330  1.00  0.00    -0.267 OA
BRANCH  72  75
ATOM     75  C   UNL A   1      32.147  23.785  25.847  1.00  0.00     0.150 A 
ATOM     76  C   UNL A   1      33.369  23.769  26.502  1.00  0.00     0.145 A 
ATOM     77  N   UNL A   1      32.002  23.407  24.553  1.00  0.00    -0.205 NA
ATOM     78  N   UNL A   1      34.515  23.402  25.879  1.00  0.00    -0.257 NA
ATOM     79  C   UNL A   1      33.126  22.993  23.945  1.00  0.00     0.233 A 
ATOM     80  C   UNL A   1      34.358  22.999  24.592  1.00  0.00     0.179 A 
BRANCH  79  81
ATOM     81  O   UNL A   1      33.059  22.428  22.693  1.00  0.00    -0.477 OA
BRANCH  81  82
ATOM     82  C   UNL A   1      31.992  21.491  22.521  1.00  0.00     0.232 C 
BRANCH  82  83
ATOM     83  C   UNL A   1      32.409  20.033  22.758  1.00  0.00     0.046 C 
BRANCH  83  84
ATOM     84  C   UNL A   1      32.233  19.476  24.180  1.00  0.00     0.039 C 
BRANCH  84  85
ATOM     85  C   UNL A   1      33.013  18.240  24.582  1.00  0.00    -0.048 A 
ATOM     86  C   UNL A   1      34.331  17.982  24.188  1.00  0.00     0.004 A 
ATOM     87  C   UNL A   1      32.372  17.292  25.395  1.00  0.00     0.004 A 
ATOM     88  C   UNL A   1      34.948  16.769  24.506  1.00  0.00     0.000 A 
ATOM     89  C   UNL A   1      32.994  16.088  25.731  1.00  0.00     0.000 A 
ATOM     90  C   UNL A   1      34.276  15.816  25.267  1.00  0.00     0.000 A 
ENDBRANCH  84  85
ENDBRANCH  83  84
ENDBRANCH  82  83
ENDBRANCH  81  82
ENDBRANCH  79  81
ENDBRANCH  72  75
ENDBRANCH  70  71
ENDBRANCH   1  70
TORSDOF 19
ENDMDL
