MODEL 1
REMARK VINA RESULT:     -10.2      0.000      0.000
REMARK SMILES CCCC(=O)/C(=C/NC(N)=O)C(=O)NCCCCNC(=O)c1ccc(-c2c3nc(c(-c4ccc(S(=O)(=O)[O-])cc4)c4ccc([nH]4)c(-c4ccc(S(=O)(=O)[O-])cc4)c4nc(c(-c5ccc(S(=O)(=O)[O-])cc5)c5ccc2[nH]5)C=C4)C=C3)cc1
REMARK SMILES IDX 16 1 15 2 14 3 12 4 13 5 6 7 7 8 4 9 5 10 3 11 2 12 1 13
REMARK SMILES IDX 8 14 9 15 10 17 11 18 17 21 18 22 19 23 20 24 21 26 22 27
REMARK SMILES IDX 23 28 81 29 24 30 80 31 25 32 26 33 27 34 74 35 28 36 79 37
REMARK SMILES IDX 73 38 75 39 29 40 78 41 72 42 71 43 30 45 60 46 41 47 59 48
REMARK SMILES IDX 42 49 45 50 58 51 76 52 43 53 44 54 57 56 77 57 46 58 31 59
REMARK SMILES IDX 32 60 40 61 33 62 39 63 34 64 35 65 36 66 37 67 38 68 61 69
REMARK SMILES IDX 62 70 70 71 63 72 69 73 64 74 65 75 66 76 67 77 68 78 47 79
REMARK SMILES IDX 48 80 56 81 49 82 55 83 50 84 51 85 52 86 53 87 54 88
REMARK H PARENT 14 6 8 16 10 19 10 20 19 25 75 44 45 55
REMARK Flexibility Score: inf
ROOT
ATOM      1  C   UNL A   1      33.508  28.307  24.736  1.00  0.00     0.023 C 
ENDROOT
BRANCH   1   2
ATOM      2  C   UNL A   1      33.039  28.729  23.350  1.00  0.00     0.116 C 
BRANCH   2   3
ATOM      3  N   UNL A   1      32.576  27.664  22.481  1.00  0.00    -0.352 N 
ATOM      4  C   UNL A   1      31.300  27.228  22.217  1.00  0.00     0.256 C 
ATOM      5  O   UNL A   1      31.136  26.426  21.299  1.00  0.00    -0.269 OA
ATOM      6  H   UNL A   1      33.288  27.176  22.006  1.00  0.00     0.163 HD
BRANCH   4   7
ATOM      7  C   UNL A   1      30.132  27.703  23.023  1.00  0.00     0.098 C 
ATOM      8  C   UNL A   1      29.547  26.965  23.982  1.00  0.00     0.105 C 
BRANCH   7   9
ATOM      9  C   UNL A   1      29.580  29.075  22.706  1.00  0.00     0.169 C 
ATOM     10  O   UNL A   1      29.016  29.284  21.628  1.00  0.00    -0.294 OA
BRANCH   9  11
ATOM     11  C   UNL A   1      29.630  30.206  23.728  1.00  0.00     0.081 C 
BRANCH  11  12
ATOM     12  C   UNL A   1      28.450  31.168  23.587  1.00  0.00     0.005 C 
ATOM     13  C   UNL A   1      28.739  32.401  22.745  1.00  0.00     0.004 C 
ENDBRANCH  11  12
ENDBRANCH   9  11
ENDBRANCH   7   9
BRANCH   8  14
ATOM     14  N   UNL A   1      29.884  25.689  24.367  1.00  0.00    -0.314 N 
ATOM     15  C   UNL A   1      30.186  25.398  25.678  1.00  0.00     0.316 C 
ATOM     16  H   UNL A   1      29.910  24.971  23.694  1.00  0.00     0.171 HD
ATOM     17  N   UNL A   1      30.142  24.071  25.955  1.00  0.00    -0.351 N 
ATOM     18  O   UNL A   1      30.359  26.221  26.562  1.00  0.00    -0.249 OA
ATOM     19  H   UNL A   1      30.002  23.421  25.229  1.00  0.00     0.161 HD
ATOM     20  H   UNL A   1      30.250  23.759  26.882  1.00  0.00     0.161 HD
ENDBRANCH   8  14
ENDBRANCH   4   7
ENDBRANCH   2   3
ENDBRANCH   1   2
BRANCH   1  21
ATOM     21  C   UNL A   1      32.665  28.768  25.926  1.00  0.00     0.023 C 
BRANCH  21  22
ATOM     22  C   UNL A   1      33.369  28.942  27.270  1.00  0.00     0.116 C 
BRANCH  22  23
ATOM     23  N   UNL A   1      33.502  30.321  27.716  1.00  0.00    -0.352 N 
ATOM     24  C   UNL A   1      34.600  30.984  28.224  1.00  0.00     0.251 C 
ATOM     25  H   UNL A   1      32.684  30.863  27.644  1.00  0.00     0.163 HD
ATOM     26  O   UNL A   1      34.498  32.169  28.533  1.00  0.00    -0.269 OA
BRANCH  24  27
ATOM     27  C   UNL A   1      35.872  30.262  28.456  1.00  0.00     0.039 A 
ATOM     28  C   UNL A   1      36.844  30.278  27.450  1.00  0.00     0.014 A 
ATOM     29  C   UNL A   1      36.138  29.624  29.669  1.00  0.00     0.014 A 
ATOM     30  C   UNL A   1      38.118  29.761  27.705  1.00  0.00     0.010 A 
ATOM     31  C   UNL A   1      37.431  29.182  29.948  1.00  0.00     0.010 A 
ATOM     32  C   UNL A   1      38.442  29.266  28.979  1.00  0.00    -0.014 A 
BRANCH  32  33
ATOM     33  C   UNL A   1      39.835  28.875  29.330  1.00  0.00     0.031 A 
ATOM     34  C   UNL A   1      40.758  29.859  30.000  1.00  0.00     0.074 A 
ATOM     35  C   UNL A   1      40.303  27.664  28.963  1.00  0.00     0.049 A 
ATOM     36  N   UNL A   1      42.026  29.730  30.296  1.00  0.00    -0.248 NA
ATOM     37  C   UNL A   1      40.187  31.167  30.358  1.00  0.00     0.031 C 
ATOM     38  C   UNL A   1      39.535  26.633  28.260  1.00  0.00     0.029 A 
ATOM     39  N   UNL A   1      41.546  27.097  29.119  1.00  0.00    -0.354 N 
ATOM     40  C   UNL A   1      42.413  30.946  30.847  1.00  0.00     0.074 A 
ATOM     41  C   UNL A   1      41.254  31.814  30.804  1.00  0.00     0.031 C 
ATOM     42  C   UNL A   1      40.313  25.554  28.070  1.00  0.00     0.029 A 
ATOM     43  C   UNL A   1      41.645  25.828  28.598  1.00  0.00     0.049 A 
ATOM     44  H   UNL A   1      42.294  27.556  29.563  1.00  0.00     0.167 HD
ATOM     45  C   UNL A   1      43.613  31.306  31.360  1.00  0.00     0.031 A 
ATOM     46  C   UNL A   1      42.690  24.977  28.541  1.00  0.00     0.031 A 
ATOM     47  C   UNL A   1      44.759  30.439  31.423  1.00  0.00     0.049 A 
ATOM     48  C   UNL A   1      44.009  25.391  29.133  1.00  0.00     0.074 A 
ATOM     49  C   UNL A   1      46.000  30.693  31.982  1.00  0.00     0.029 A 
ATOM     50  N   UNL A   1      44.806  29.150  30.914  1.00  0.00    -0.354 N 
ATOM     51  N   UNL A   1      44.333  26.524  29.709  1.00  0.00    -0.248 NA
ATOM     52  C   UNL A   1      45.100  24.408  29.079  1.00  0.00     0.031 C 
ATOM     53  C   UNL A   1      46.811  29.570  31.775  1.00  0.00     0.029 A 
ATOM     54  C   UNL A   1      46.058  28.600  31.133  1.00  0.00     0.049 A 
ATOM     55  H   UNL A   1      44.059  28.692  30.465  1.00  0.00     0.167 HD
ATOM     56  C   UNL A   1      45.656  26.379  30.110  1.00  0.00     0.074 A 
ATOM     57  C   UNL A   1      46.069  25.046  29.721  1.00  0.00     0.031 C 
ATOM     58  C   UNL A   1      46.456  27.271  30.746  1.00  0.00     0.031 A 
BRANCH  45  59
ATOM     59  C   UNL A   1      43.747  32.709  31.893  1.00  0.00    -0.014 A 
ATOM     60  C   UNL A   1      44.106  33.774  31.046  1.00  0.00     0.010 A 
ATOM     61  C   UNL A   1      43.483  32.972  33.249  1.00  0.00     0.010 A 
ATOM     62  C   UNL A   1      44.251  35.066  31.557  1.00  0.00     0.020 A 
ATOM     63  C   UNL A   1      43.599  34.268  33.758  1.00  0.00     0.020 A 
ATOM     64  C   UNL A   1      44.002  35.304  32.912  1.00  0.00     0.054 A 
BRANCH  64  65
ATOM     65  S   UNL A   1      44.190  36.992  33.546  1.00  0.00     0.124 S 
ATOM     66  O   UNL A   1      45.035  36.779  34.719  1.00  0.00    -0.237 OA
ATOM     67  O   UNL A   1      44.829  37.687  32.431  1.00  0.00    -0.237 OA
ATOM     68  O   UNL A   1      42.820  37.410  33.833  1.00  0.00    -0.744 OA
ENDBRANCH  64  65
ENDBRANCH  45  59
BRANCH  46  69
ATOM     69  C   UNL A   1      42.523  23.635  27.920  1.00  0.00    -0.014 A 
ATOM     70  C   UNL A   1      42.919  23.413  26.590  1.00  0.00     0.010 A 
ATOM     71  C   UNL A   1      41.981  22.567  28.660  1.00  0.00     0.010 A 
ATOM     72  C   UNL A   1      42.765  22.152  26.005  1.00  0.00     0.020 A 
ATOM     73  C   UNL A   1      41.849  21.299  28.086  1.00  0.00     0.020 A 
ATOM     74  C   UNL A   1      42.233  21.102  26.758  1.00  0.00     0.054 A 
BRANCH  74  75
ATOM     75  S   UNL A   1      42.099  19.459  25.998  1.00  0.00     0.124 S 
ATOM     76  O   UNL A   1      40.663  19.349  25.767  1.00  0.00    -0.237 OA
ATOM     77  O   UNL A   1      42.926  19.596  24.801  1.00  0.00    -0.237 OA
ATOM     78  O   UNL A   1      42.642  18.567  27.020  1.00  0.00    -0.744 OA
ENDBRANCH  74  75
ENDBRANCH  46  69
BRANCH  58  79
ATOM     79  C   UNL A   1      47.849  26.825  31.100  1.00  0.00    -0.014 A 
ATOM     80  C   UNL A   1      48.102  26.081  32.265  1.00  0.00     0.010 A 
ATOM     81  C   UNL A   1      48.909  27.103  30.217  1.00  0.00     0.010 A 
ATOM     82  C   UNL A   1      49.399  25.644  32.555  1.00  0.00     0.020 A 
ATOM     83  C   UNL A   1      50.200  26.647  30.491  1.00  0.00     0.020 A 
ATOM     84  C   UNL A   1      50.439  25.930  31.665  1.00  0.00     0.054 A 
BRANCH  84  85
ATOM     85  S   UNL A   1      52.102  25.307  32.036  1.00  0.00     0.124 S 
ATOM     86  O   UNL A   1      51.863  23.875  32.191  1.00  0.00    -0.237 OA
ATOM     87  O   UNL A   1      52.862  25.692  30.849  1.00  0.00    -0.237 OA
ATOM     88  O   UNL A   1      52.472  26.015  33.260  1.00  0.00    -0.744 OA
ENDBRANCH  84  85
ENDBRANCH  58  79
ENDBRANCH  32  33
ENDBRANCH  24  27
ENDBRANCH  22  23
ENDBRANCH  21  22
ENDBRANCH   1  21
TORSDOF 18
ENDMDL
MODEL 2
REMARK VINA RESULT:     -10.2      4.889      6.748
REMARK SMILES CCCC(=O)/C(=C/NC(N)=O)C(=O)NCCCCNC(=O)c1ccc(-c2c3nc(c(-c4ccc(S(=O)(=O)[O-])cc4)c4ccc([nH]4)c(-c4ccc(S(=O)(=O)[O-])cc4)c4nc(c(-c5ccc(S(=O)(=O)[O-])cc5)c5ccc2[nH]5)C=C4)C=C3)cc1
REMARK SMILES IDX 16 1 15 2 14 3 12 4 13 5 6 7 7 8 4 9 5 10 3 11 2 12 1 13
REMARK SMILES IDX 8 14 9 15 10 17 11 18 17 21 18 22 19 23 20 24 21 26 22 27
REMARK SMILES IDX 23 28 81 29 24 30 80 31 25 32 26 33 27 34 74 35 28 36 79 37
REMARK SMILES IDX 73 38 75 39 29 40 78 41 72 42 71 43 30 45 60 46 41 47 59 48
REMARK SMILES IDX 42 49 45 50 58 51 76 52 43 53 44 54 57 56 77 57 46 58 31 59
REMARK SMILES IDX 32 60 40 61 33 62 39 63 34 64 35 65 36 66 37 67 38 68 61 69
REMARK SMILES IDX 62 70 70 71 63 72 69 73 64 74 65 75 66 76 67 77 68 78 47 79
REMARK SMILES IDX 48 80 56 81 49 82 55 83 50 84 51 85 52 86 53 87 54 88
REMARK H PARENT 14 6 8 16 10 19 10 20 19 25 75 44 45 55
REMARK Flexibility Score: inf
ROOT
ATOM      1  C   UNL A   1      34.890  33.983  28.270  1.00  0.00     0.023 C 
ENDROOT
BRANCH   1   2
ATOM      2  C   UNL A   1      34.555  34.469  29.674  1.00  0.00     0.116 C 
BRANCH   2   3
ATOM      3  N   UNL A   1      34.329  33.437  30.669  1.00  0.00    -0.352 N 
ATOM      4  C   UNL A   1      34.583  33.439  32.019  1.00  0.00     0.256 C 
ATOM      5  O   UNL A   1      34.136  32.516  32.698  1.00  0.00    -0.269 OA
ATOM      6  H   UNL A   1      33.933  32.605  30.323  1.00  0.00     0.163 HD
BRANCH   4   7
ATOM      7  C   UNL A   1      35.388  34.526  32.659  1.00  0.00     0.098 C 
ATOM      8  C   UNL A   1      34.841  35.548  33.339  1.00  0.00     0.105 C 
BRANCH   7   9
ATOM      9  C   UNL A   1      36.890  34.467  32.497  1.00  0.00     0.169 C 
ATOM     10  O   UNL A   1      37.627  35.002  33.330  1.00  0.00    -0.294 OA
BRANCH   9  11
ATOM     11  C   UNL A   1      37.536  33.685  31.357  1.00  0.00     0.081 C 
BRANCH  11  12
ATOM     12  C   UNL A   1      38.551  34.525  30.581  1.00  0.00     0.005 C 
ATOM     13  C   UNL A   1      39.644  33.717  29.896  1.00  0.00     0.004 C 
ENDBRANCH  11  12
ENDBRANCH   9  11
ENDBRANCH   7   9
BRANCH   8  14
ATOM     14  N   UNL A   1      33.502  35.785  33.544  1.00  0.00    -0.314 N 
ATOM     15  C   UNL A   1      32.748  36.460  32.612  1.00  0.00     0.316 C 
ATOM     16  H   UNL A   1      33.075  35.467  34.372  1.00  0.00     0.171 HD
ATOM     17  N   UNL A   1      31.413  36.298  32.785  1.00  0.00    -0.351 N 
ATOM     18  O   UNL A   1      33.190  37.051  31.640  1.00  0.00    -0.249 OA
ATOM     19  H   UNL A   1      31.073  35.820  33.575  1.00  0.00     0.161 HD
ATOM     20  H   UNL A   1      30.783  36.660  32.120  1.00  0.00     0.161 HD
ENDBRANCH   8  14
ENDBRANCH   4   7
ENDBRANCH   2   3
ENDBRANCH   1   2
BRANCH   1  21
ATOM     21  C   UNL A   1      36.030  32.972  28.138  1.00  0.00     0.023 C 
BRANCH  21  22
ATOM     22  C   UNL A   1      35.664  31.491  28.079  1.00  0.00     0.116 C 
BRANCH  22  23
ATOM     23  N   UNL A   1      35.506  30.848  29.375  1.00  0.00    -0.352 N 
ATOM     24  C   UNL A   1      36.454  30.280  30.202  1.00  0.00     0.251 C 
ATOM     25  H   UNL A   1      34.583  30.813  29.714  1.00  0.00     0.163 HD
ATOM     26  O   UNL A   1      36.103  29.794  31.274  1.00  0.00    -0.269 OA
BRANCH  24  27
ATOM     27  C   UNL A   1      37.869  30.197  29.775  1.00  0.00     0.039 A 
ATOM     28  C   UNL A   1      38.868  30.253  30.753  1.00  0.00     0.014 A 
ATOM     29  C   UNL A   1      38.217  30.005  28.436  1.00  0.00     0.014 A 
ATOM     30  C   UNL A   1      40.198  29.999  30.404  1.00  0.00     0.010 A 
ATOM     31  C   UNL A   1      39.530  29.674  28.104  1.00  0.00     0.010 A 
ATOM     32  C   UNL A   1      40.532  29.644  29.087  1.00  0.00    -0.014 A 
BRANCH  32  33
ATOM     33  C   UNL A   1      41.906  29.197  28.726  1.00  0.00     0.031 A 
ATOM     34  C   UNL A   1      43.041  30.185  28.679  1.00  0.00     0.074 A 
ATOM     35  C   UNL A   1      42.117  27.918  28.349  1.00  0.00     0.049 A 
ATOM     36  N   UNL A   1      44.280  30.000  28.297  1.00  0.00    -0.248 NA
ATOM     37  C   UNL A   1      42.738  31.565  29.086  1.00  0.00     0.031 C 
ATOM     38  C   UNL A   1      41.096  26.868  28.296  1.00  0.00     0.029 A 
ATOM     39  N   UNL A   1      43.261  27.284  27.926  1.00  0.00    -0.354 N 
ATOM     40  C   UNL A   1      44.895  31.242  28.391  1.00  0.00     0.074 A 
ATOM     41  C   UNL A   1      43.882  32.181  28.824  1.00  0.00     0.031 C 
ATOM     42  C   UNL A   1      41.663  25.720  27.891  1.00  0.00     0.029 A 
ATOM     43  C   UNL A   1      43.075  25.957  27.616  1.00  0.00     0.049 A 
ATOM     44  H   UNL A   1      44.130  27.738  27.852  1.00  0.00     0.167 HD
ATOM     45  C   UNL A   1      46.188  31.573  28.158  1.00  0.00     0.031 A 
ATOM     46  C   UNL A   1      43.941  25.031  27.154  1.00  0.00     0.031 A 
ATOM     47  C   UNL A   1      47.201  30.637  27.749  1.00  0.00     0.049 A 
ATOM     48  C   UNL A   1      45.376  25.416  26.919  1.00  0.00     0.074 A 
ATOM     49  C   UNL A   1      48.552  30.866  27.549  1.00  0.00     0.029 A 
ATOM     50  N   UNL A   1      46.978  29.296  27.479  1.00  0.00    -0.354 N 
ATOM     51  N   UNL A   1      45.950  26.584  27.078  1.00  0.00    -0.248 NA
ATOM     52  C   UNL A   1      46.281  24.356  26.455  1.00  0.00     0.031 C 
ATOM     53  C   UNL A   1      49.139  29.670  27.119  1.00  0.00     0.029 A 
ATOM     54  C   UNL A   1      48.162  28.686  27.101  1.00  0.00     0.049 A 
ATOM     55  H   UNL A   1      46.106  28.843  27.547  1.00  0.00     0.167 HD
ATOM     56  C   UNL A   1      47.290  26.392  26.760  1.00  0.00     0.074 A 
ATOM     57  C   UNL A   1      47.443  24.994  26.410  1.00  0.00     0.031 C 
ATOM     58  C   UNL A   1      48.303  27.293  26.760  1.00  0.00     0.031 A 
BRANCH  45  59
ATOM     59  C   UNL A   1      46.577  33.017  28.339  1.00  0.00    -0.014 A 
ATOM     60  C   UNL A   1      46.995  33.502  29.592  1.00  0.00     0.010 A 
ATOM     61  C   UNL A   1      46.554  33.893  27.239  1.00  0.00     0.010 A 
ATOM     62  C   UNL A   1      47.330  34.848  29.753  1.00  0.00     0.020 A 
ATOM     63  C   UNL A   1      46.915  35.234  27.389  1.00  0.00     0.020 A 
ATOM     64  C   UNL A   1      47.282  35.708  28.651  1.00  0.00     0.054 A 
BRANCH  64  65
ATOM     65  S   UNL A   1      47.730  37.449  28.888  1.00  0.00     0.124 S 
ATOM     66  O   UNL A   1      48.016  37.874  27.520  1.00  0.00    -0.237 OA
ATOM     67  O   UNL A   1      46.521  38.016  29.481  1.00  0.00    -0.237 OA
ATOM     68  O   UNL A   1      48.888  37.392  29.777  1.00  0.00    -0.744 OA
ENDBRANCH  64  65
ENDBRANCH  45  59
BRANCH  46  69
ATOM     69  C   UNL A   1      43.477  23.638  26.907  1.00  0.00    -0.014 A 
ATOM     70  C   UNL A   1      43.279  22.754  27.981  1.00  0.00     0.010 A 
ATOM     71  C   UNL A   1      43.214  23.194  25.598  1.00  0.00     0.010 A 
ATOM     72  C   UNL A   1      42.841  21.446  27.752  1.00  0.00     0.020 A 
ATOM     73  C   UNL A   1      42.752  21.894  25.367  1.00  0.00     0.020 A 
ATOM     74  C   UNL A   1      42.578  21.025  26.446  1.00  0.00     0.054 A 
BRANCH  74  75
ATOM     75  S   UNL A   1      41.952  19.343  26.176  1.00  0.00     0.124 S 
ATOM     76  O   UNL A   1      42.269  18.695  27.445  1.00  0.00    -0.237 OA
ATOM     77  O   UNL A   1      40.532  19.572  25.919  1.00  0.00    -0.237 OA
ATOM     78  O   UNL A   1      42.717  18.876  25.023  1.00  0.00    -0.744 OA
ENDBRANCH  74  75
ENDBRANCH  46  69
BRANCH  58  79
ATOM     79  C   UNL A   1      49.678  26.793  26.409  1.00  0.00    -0.014 A 
ATOM     80  C   UNL A   1      50.488  26.156  27.365  1.00  0.00     0.010 A 
ATOM     81  C   UNL A   1      50.138  26.907  25.085  1.00  0.00     0.010 A 
ATOM     82  C   UNL A   1      51.747  25.664  27.008  1.00  0.00     0.020 A 
ATOM     83  C   UNL A   1      51.385  26.395  24.718  1.00  0.00     0.020 A 
ATOM     84  C   UNL A   1      52.187  25.786  25.686  1.00  0.00     0.054 A 
BRANCH  84  85
ATOM     85  S   UNL A   1      53.802  25.094  25.234  1.00  0.00     0.124 S 
ATOM     86  O   UNL A   1      53.546  23.658  25.301  1.00  0.00    -0.237 OA
ATOM     87  O   UNL A   1      54.018  25.632  23.893  1.00  0.00    -0.237 OA
ATOM     88  O   UNL A   1      54.701  25.616  26.260  1.00  0.00    -0.744 OA
ENDBRANCH  84  85
ENDBRANCH  58  79
ENDBRANCH  32  33
ENDBRANCH  24  27
ENDBRANCH  22  23
ENDBRANCH  21  22
ENDBRANCH   1  21
TORSDOF 18
ENDMDL
MODEL 3
REMARK VINA RESULT:     -10.0      1.658      2.873
REMARK SMILES CCCC(=O)/C(=C/NC(N)=O)C(=O)NCCCCNC(=O)c1ccc(-c2c3nc(c(-c4ccc(S(=O)(=O)[O-])cc4)c4ccc([nH]4)c(-c4ccc(S(=O)(=O)[O-])cc4)c4nc(c(-c5ccc(S(=O)(=O)[O-])cc5)c5ccc2[nH]5)C=C4)C=C3)cc1
REMARK SMILES IDX 16 1 15 2 14 3 12 4 13 5 6 7 7 8 4 9 5 10 3 11 2 12 1 13
REMARK SMILES IDX 8 14 9 15 10 17 11 18 17 21 18 22 19 23 20 24 21 26 22 27
REMARK SMILES IDX 23 28 81 29 24 30 80 31 25 32 26 33 27 34 74 35 28 36 79 37
REMARK SMILES IDX 73 38 75 39 29 40 78 41 72 42 71 43 30 45 60 46 41 47 59 48
REMARK SMILES IDX 42 49 45 50 58 51 76 52 43 53 44 54 57 56 77 57 46 58 31 59
REMARK SMILES IDX 32 60 40 61 33 62 39 63 34 64 35 65 36 66 37 67 38 68 61 69
REMARK SMILES IDX 62 70 70 71 63 72 69 73 64 74 65 75 66 76 67 77 68 78 47 79
REMARK SMILES IDX 48 80 56 81 49 82 55 83 50 84 51 85 52 86 53 87 54 88
REMARK H PARENT 14 6 8 16 10 19 10 20 19 25 75 44 45 55
REMARK Flexibility Score: inf
ROOT
ATOM      1  C   UNL A   1      32.920  26.678  26.364  1.00  0.00     0.023 C 
ENDROOT
BRANCH   1   2
ATOM      2  C   UNL A   1      33.620  26.522  25.020  1.00  0.00     0.116 C 
BRANCH   2   3
ATOM      3  N   UNL A   1      32.756  26.340  23.869  1.00  0.00    -0.352 N 
ATOM      4  C   UNL A   1      32.157  25.203  23.384  1.00  0.00     0.256 C 
ATOM      5  O   UNL A   1      31.313  25.321  22.497  1.00  0.00    -0.269 OA
ATOM      6  H   UNL A   1      32.569  27.159  23.355  1.00  0.00     0.163 HD
BRANCH   4   7
ATOM      7  C   UNL A   1      32.519  23.848  23.906  1.00  0.00     0.098 C 
ATOM      8  C   UNL A   1      31.735  23.143  24.739  1.00  0.00     0.105 C 
BRANCH   7   9
ATOM      9  C   UNL A   1      33.852  23.273  23.483  1.00  0.00     0.169 C 
ATOM     10  O   UNL A   1      34.599  23.915  22.739  1.00  0.00    -0.294 OA
BRANCH   9  11
ATOM     11  C   UNL A   1      34.346  21.933  24.021  1.00  0.00     0.081 C 
BRANCH  11  12
ATOM     12  C   UNL A   1      35.529  22.093  24.977  1.00  0.00     0.005 C 
ATOM     13  C   UNL A   1      36.887  21.820  24.348  1.00  0.00     0.004 C 
ENDBRANCH  11  12
ENDBRANCH   9  11
ENDBRANCH   7   9
BRANCH   8  14
ATOM     14  N   UNL A   1      30.521  23.528  25.260  1.00  0.00    -0.314 N 
ATOM     15  C   UNL A   1      30.374  23.788  26.603  1.00  0.00     0.316 C 
ATOM     16  H   UNL A   1      29.745  23.618  24.661  1.00  0.00     0.171 HD
ATOM     17  N   UNL A   1      29.248  24.486  26.891  1.00  0.00    -0.351 N 
ATOM     18  O   UNL A   1      31.203  23.545  27.465  1.00  0.00    -0.249 OA
ATOM     19  H   UNL A   1      28.589  24.673  26.184  1.00  0.00     0.161 HD
ATOM     20  H   UNL A   1      29.090  24.807  27.809  1.00  0.00     0.161 HD
ENDBRANCH   8  14
ENDBRANCH   4   7
ENDBRANCH   2   3
ENDBRANCH   1   2
BRANCH   1  21
ATOM     21  C   UNL A   1      33.216  27.951  27.159  1.00  0.00     0.023 C 
BRANCH  21  22
ATOM     22  C   UNL A   1      33.561  29.215  26.375  1.00  0.00     0.116 C 
BRANCH  22  23
ATOM     23  N   UNL A   1      33.522  30.445  27.152  1.00  0.00    -0.352 N 
ATOM     24  C   UNL A   1      34.478  31.001  27.978  1.00  0.00     0.251 C 
ATOM     25  H   UNL A   1      32.685  30.959  27.077  1.00  0.00     0.163 HD
ATOM     26  O   UNL A   1      34.241  32.068  28.539  1.00  0.00    -0.269 OA
BRANCH  24  27
ATOM     27  C   UNL A   1      35.750  30.289  28.238  1.00  0.00     0.039 A 
ATOM     28  C   UNL A   1      36.725  30.273  27.234  1.00  0.00     0.014 A 
ATOM     29  C   UNL A   1      36.014  29.694  29.472  1.00  0.00     0.014 A 
ATOM     30  C   UNL A   1      37.999  29.768  27.510  1.00  0.00     0.010 A 
ATOM     31  C   UNL A   1      37.307  29.265  29.770  1.00  0.00     0.010 A 
ATOM     32  C   UNL A   1      38.320  29.318  28.801  1.00  0.00    -0.014 A 
BRANCH  32  33
ATOM     33  C   UNL A   1      39.714  28.942  29.169  1.00  0.00     0.031 A 
ATOM     34  C   UNL A   1      40.624  29.943  29.830  1.00  0.00     0.074 A 
ATOM     35  C   UNL A   1      40.193  27.728  28.825  1.00  0.00     0.049 A 
ATOM     36  N   UNL A   1      41.892  29.827  30.137  1.00  0.00    -0.248 NA
ATOM     37  C   UNL A   1      40.043  31.252  30.162  1.00  0.00     0.031 C 
ATOM     38  C   UNL A   1      39.437  26.681  28.133  1.00  0.00     0.029 A 
ATOM     39  N   UNL A   1      41.437  27.172  29.000  1.00  0.00    -0.354 N 
ATOM     40  C   UNL A   1      42.266  31.054  30.672  1.00  0.00     0.074 A 
ATOM     41  C   UNL A   1      41.102  31.913  30.606  1.00  0.00     0.031 C 
ATOM     42  C   UNL A   1      40.223  25.604  27.966  1.00  0.00     0.029 A 
ATOM     43  C   UNL A   1      41.549  25.895  28.499  1.00  0.00     0.049 A 
ATOM     44  H   UNL A   1      42.180  27.643  29.442  1.00  0.00     0.167 HD
ATOM     45  C   UNL A   1      43.460  31.431  31.188  1.00  0.00     0.031 A 
ATOM     46  C   UNL A   1      42.600  25.051  28.465  1.00  0.00     0.031 A 
ATOM     47  C   UNL A   1      44.611  30.572  31.274  1.00  0.00     0.049 A 
ATOM     48  C   UNL A   1      43.912  25.483  29.060  1.00  0.00     0.074 A 
ATOM     49  C   UNL A   1      45.846  30.843  31.838  1.00  0.00     0.029 A 
ATOM     50  N   UNL A   1      44.670  29.275  30.786  1.00  0.00    -0.354 N 
ATOM     51  N   UNL A   1      44.224  26.627  29.620  1.00  0.00    -0.248 NA
ATOM     52  C   UNL A   1      45.010  24.507  29.029  1.00  0.00     0.031 C 
ATOM     53  C   UNL A   1      46.666  29.723  31.655  1.00  0.00     0.029 A 
ATOM     54  C   UNL A   1      45.924  28.738  31.023  1.00  0.00     0.049 A 
ATOM     55  H   UNL A   1      43.930  28.806  30.338  1.00  0.00     0.167 HD
ATOM     56  C   UNL A   1      45.545  26.498  30.033  1.00  0.00     0.074 A 
ATOM     57  C   UNL A   1      45.970  25.161  29.669  1.00  0.00     0.031 C 
ATOM     58  C   UNL A   1      46.334  27.405  30.660  1.00  0.00     0.031 A 
BRANCH  45  59
ATOM     59  C   UNL A   1      43.580  32.842  31.699  1.00  0.00    -0.014 A 
ATOM     60  C   UNL A   1      43.319  33.149  33.047  1.00  0.00     0.010 A 
ATOM     61  C   UNL A   1      43.986  33.871  30.830  1.00  0.00     0.010 A 
ATOM     62  C   UNL A   1      43.410  34.466  33.503  1.00  0.00     0.020 A 
ATOM     63  C   UNL A   1      44.106  35.185  31.289  1.00  0.00     0.020 A 
ATOM     64  C   UNL A   1      43.797  35.478  32.619  1.00  0.00     0.054 A 
BRANCH  64  65
ATOM     65  S   UNL A   1      43.914  37.177  33.241  1.00  0.00     0.124 S 
ATOM     66  O   UNL A   1      42.739  37.262  34.104  1.00  0.00    -0.237 OA
ATOM     67  O   UNL A   1      45.201  37.180  33.932  1.00  0.00    -0.237 OA
ATOM     68  O   UNL A   1      43.859  37.994  32.030  1.00  0.00    -0.744 OA
ENDBRANCH  64  65
ENDBRANCH  45  59
BRANCH  46  69
ATOM     69  C   UNL A   1      42.446  23.698  27.864  1.00  0.00    -0.014 A 
ATOM     70  C   UNL A   1      42.707  23.492  26.498  1.00  0.00     0.010 A 
ATOM     71  C   UNL A   1      42.054  22.604  28.658  1.00  0.00     0.010 A 
ATOM     72  C   UNL A   1      42.566  22.221  25.932  1.00  0.00     0.020 A 
ATOM     73  C   UNL A   1      41.936  21.326  28.100  1.00  0.00     0.020 A 
ATOM     74  C   UNL A   1      42.184  21.146  26.737  1.00  0.00     0.054 A 
BRANCH  74  75
ATOM     75  S   UNL A   1      42.066  19.494  25.995  1.00  0.00     0.124 S 
ATOM     76  O   UNL A   1      42.532  18.639  27.082  1.00  0.00    -0.237 OA
ATOM     77  O   UNL A   1      40.644  19.393  25.674  1.00  0.00    -0.237 OA
ATOM     78  O   UNL A   1      42.952  19.577  24.837  1.00  0.00    -0.744 OA
ENDBRANCH  74  75
ENDBRANCH  46  69
BRANCH  58  79
ATOM     79  C   UNL A   1      47.727  26.975  31.032  1.00  0.00    -0.014 A 
ATOM     80  C   UNL A   1      47.983  26.294  32.235  1.00  0.00     0.010 A 
ATOM     81  C   UNL A   1      48.784  27.200  30.131  1.00  0.00     0.010 A 
ATOM     82  C   UNL A   1      49.280  25.869  32.542  1.00  0.00     0.020 A 
ATOM     83  C   UNL A   1      50.075  26.755  30.424  1.00  0.00     0.020 A 
ATOM     84  C   UNL A   1      50.317  26.102  31.633  1.00  0.00     0.054 A 
BRANCH  84  85
ATOM     85  S   UNL A   1      51.980  25.495  32.030  1.00  0.00     0.124 S 
ATOM     86  O   UNL A   1      51.749  24.063  32.196  1.00  0.00    -0.237 OA
ATOM     87  O   UNL A   1      52.751  25.875  30.849  1.00  0.00    -0.237 OA
ATOM     88  O   UNL A   1      52.329  26.217  33.252  1.00  0.00    -0.744 OA
ENDBRANCH  84  85
ENDBRANCH  58  79
ENDBRANCH  32  33
ENDBRANCH  24  27
ENDBRANCH  22  23
ENDBRANCH  21  22
ENDBRANCH   1  21
TORSDOF 18
ENDMDL
