MODEL 1
REMARK VINA RESULT:     -10.4      0.000      0.000
REMARK SMILES C[C@@H](SCCC(=O)NCCCCNC(=O)c1ccc(-c2c3nc(c(-c4ccc(S(=O)(=O)[O-])cc4)c4ccc([nH]4)c(-c4ccc(S(=O)(=O)[O-])cc4)c4nc(c(-c5ccc(S(=O)(=O)[O-])cc5)c5ccc2[nH]5)C=C4)C=C3)cc1)C(=O)Nc1ccc(C(N)=O)cc1
REMARK SMILES IDX 9 1 8 2 6 3 7 4 5 6 4 7 3 8 2 9 1 10 76 11 77 12 78 13 79 15
REMARK SMILES IDX 80 16 87 17 81 18 86 19 82 20 83 21 84 22 85 23 10 26 11 27
REMARK SMILES IDX 12 28 13 29 14 30 15 32 16 33 17 34 75 35 18 36 74 37 19 38
REMARK SMILES IDX 20 39 21 40 68 41 22 42 73 43 67 44 69 45 23 46 72 47 66 48
REMARK SMILES IDX 65 49 24 51 54 52 35 53 53 54 36 55 39 56 52 57 70 58 37 59
REMARK SMILES IDX 38 60 51 62 71 63 40 64 25 65 26 66 34 67 27 68 33 69 28 70
REMARK SMILES IDX 29 71 30 72 31 73 32 74 55 75 56 76 64 77 57 78 63 79 58 80
REMARK SMILES IDX 59 81 60 82 61 83 62 84 41 85 42 86 50 87 43 88 49 89 44 90
REMARK SMILES IDX 45 91 46 92 47 93 48 94
REMARK H PARENT 8 5 78 14 84 24 84 25 13 31 69 50 39 61
REMARK Flexibility Score: inf
ROOT
ATOM      1  C   UNL A   1      35.118  21.143  25.404  1.00  0.00     0.116 C 
ENDROOT
BRANCH   1   2
ATOM      2  N   UNL A   1      34.063  20.196  25.721  1.00  0.00    -0.356 N 
ATOM      3  C   UNL A   1      32.961  19.819  25.021  1.00  0.00     0.220 C 
ATOM      4  O   UNL A   1      32.184  19.022  25.550  1.00  0.00    -0.275 OA
ATOM      5  H   UNL A   1      34.162  19.753  26.594  1.00  0.00     0.163 HD
BRANCH   3   6
ATOM      6  C   UNL A   1      32.728  20.331  23.619  1.00  0.00     0.111 C 
BRANCH   6   7
ATOM      7  C   UNL A   1      32.187  21.763  23.597  1.00  0.00     0.080 C 
BRANCH   7   8
ATOM      8  S   UNL A   1      32.924  22.850  22.307  1.00  0.00    -0.148 SA
BRANCH   8   9
ATOM      9  C   UNL A   1      32.467  24.504  22.948  1.00  0.00     0.133 C 
ATOM     10  C   UNL A   1      30.975  24.708  23.155  1.00  0.00     0.030 C 
BRANCH   9  11
ATOM     11  C   UNL A   1      33.258  25.627  22.231  1.00  0.00     0.237 C 
ATOM     12  O   UNL A   1      33.188  25.784  21.005  1.00  0.00    -0.273 OA
ATOM     13  N   UNL A   1      34.040  26.527  22.916  1.00  0.00    -0.325 N 
ATOM     14  H   UNL A   1      34.993  26.642  22.698  1.00  0.00     0.169 HD
BRANCH  13  15
ATOM     15  C   UNL A   1      33.437  27.273  23.935  1.00  0.00     0.041 A 
ATOM     16  C   UNL A   1      33.832  27.013  25.248  1.00  0.00     0.027 A 
ATOM     17  C   UNL A   1      32.621  28.354  23.627  1.00  0.00     0.027 A 
ATOM     18  C   UNL A   1      33.545  27.942  26.241  1.00  0.00     0.016 A 
ATOM     19  C   UNL A   1      32.353  29.296  24.615  1.00  0.00     0.016 A 
ATOM     20  C   UNL A   1      32.844  29.110  25.913  1.00  0.00     0.039 A 
BRANCH  20  21
ATOM     21  C   UNL A   1      32.681  30.214  26.887  1.00  0.00     0.248 C 
ATOM     22  N   UNL A   1      33.646  30.360  27.838  1.00  0.00    -0.366 N 
ATOM     23  O   UNL A   1      31.714  30.970  26.847  1.00  0.00    -0.270 OA
ATOM     24  H   UNL A   1      34.415  29.746  27.857  1.00  0.00     0.159 HD
ATOM     25  H   UNL A   1      33.574  31.079  28.506  1.00  0.00     0.159 HD
ENDBRANCH  20  21
ENDBRANCH  13  15
ENDBRANCH   9  11
ENDBRANCH   8   9
ENDBRANCH   7   8
ENDBRANCH   6   7
ENDBRANCH   3   6
ENDBRANCH   1   2
BRANCH   1  26
ATOM     26  C   UNL A   1      34.783  22.579  25.804  1.00  0.00     0.023 C 
BRANCH  26  27
ATOM     27  C   UNL A   1      36.020  23.401  26.195  1.00  0.00     0.023 C 
BRANCH  27  28
ATOM     28  C   UNL A   1      37.117  23.414  25.153  1.00  0.00     0.116 C 
BRANCH  28  29
ATOM     29  N   UNL A   1      38.280  22.597  25.427  1.00  0.00    -0.352 N 
ATOM     30  C   UNL A   1      39.372  22.892  26.219  1.00  0.00     0.251 C 
ATOM     31  H   UNL A   1      38.296  21.715  24.991  1.00  0.00     0.163 HD
ATOM     32  O   UNL A   1      40.265  22.061  26.367  1.00  0.00    -0.269 OA
BRANCH  30  33
ATOM     33  C   UNL A   1      39.533  24.255  26.800  1.00  0.00     0.039 A 
ATOM     34  C   UNL A   1      39.100  24.474  28.112  1.00  0.00     0.014 A 
ATOM     35  C   UNL A   1      40.187  25.285  26.125  1.00  0.00     0.014 A 
ATOM     36  C   UNL A   1      39.409  25.673  28.764  1.00  0.00     0.010 A 
ATOM     37  C   UNL A   1      40.623  26.408  26.815  1.00  0.00     0.010 A 
ATOM     38  C   UNL A   1      40.229  26.625  28.139  1.00  0.00    -0.014 A 
BRANCH  38  39
ATOM     39  C   UNL A   1      40.673  27.863  28.829  1.00  0.00     0.031 A 
ATOM     40  C   UNL A   1      42.052  27.922  29.438  1.00  0.00     0.074 A 
ATOM     41  C   UNL A   1      39.814  28.890  28.981  1.00  0.00     0.049 A 
ATOM     42  N   UNL A   1      42.593  28.866  30.163  1.00  0.00    -0.248 NA
ATOM     43  C   UNL A   1      42.923  26.748  29.243  1.00  0.00     0.031 C 
ATOM     44  C   UNL A   1      38.432  28.924  28.490  1.00  0.00     0.029 A 
ATOM     45  N   UNL A   1      39.970  30.105  29.599  1.00  0.00    -0.354 N 
ATOM     46  C   UNL A   1      43.846  28.388  30.530  1.00  0.00     0.074 A 
ATOM     47  C   UNL A   1      43.962  27.048  30.007  1.00  0.00     0.031 C 
ATOM     48  C   UNL A   1      37.885  30.113  28.789  1.00  0.00     0.029 A 
ATOM     49  C   UNL A   1      38.853  30.906  29.536  1.00  0.00     0.049 A 
ATOM     50  H   UNL A   1      40.804  30.379  30.046  1.00  0.00     0.167 HD
ATOM     51  C   UNL A   1      44.828  29.022  31.214  1.00  0.00     0.031 A 
ATOM     52  C   UNL A   1      38.632  32.139  30.033  1.00  0.00     0.031 A 
ATOM     53  C   UNL A   1      44.716  30.369  31.700  1.00  0.00     0.049 A 
ATOM     54  C   UNL A   1      39.742  32.826  30.782  1.00  0.00     0.074 A 
ATOM     55  C   UNL A   1      45.672  31.134  32.343  1.00  0.00     0.029 A 
ATOM     56  N   UNL A   1      43.578  31.156  31.591  1.00  0.00    -0.354 N 
ATOM     57  N   UNL A   1      40.949  32.385  31.052  1.00  0.00    -0.248 NA
ATOM     58  C   UNL A   1      39.468  34.180  31.281  1.00  0.00     0.031 C 
ATOM     59  C   UNL A   1      45.094  32.362  32.676  1.00  0.00     0.029 A 
ATOM     60  C   UNL A   1      43.801  32.389  32.177  1.00  0.00     0.049 A 
ATOM     61  H   UNL A   1      42.737  30.877  31.160  1.00  0.00     0.167 HD
ATOM     62  C   UNL A   1      41.587  33.420  31.726  1.00  0.00     0.074 A 
ATOM     63  C   UNL A   1      40.640  34.513  31.804  1.00  0.00     0.031 C 
ATOM     64  C   UNL A   1      42.842  33.463  32.236  1.00  0.00     0.031 A 
BRANCH  51  65
ATOM     65  C   UNL A   1      46.108  28.268  31.470  1.00  0.00    -0.014 A 
ATOM     66  C   UNL A   1      47.174  28.310  30.551  1.00  0.00     0.010 A 
ATOM     67  C   UNL A   1      46.270  27.552  32.670  1.00  0.00     0.010 A 
ATOM     68  C   UNL A   1      48.362  27.622  30.813  1.00  0.00     0.020 A 
ATOM     69  C   UNL A   1      47.469  26.891  32.950  1.00  0.00     0.020 A 
ATOM     70  C   UNL A   1      48.503  26.920  32.013  1.00  0.00     0.054 A 
BRANCH  70  71
ATOM     71  S   UNL A   1      50.075  26.078  32.345  1.00  0.00     0.124 S 
ATOM     72  O   UNL A   1      50.931  26.611  31.288  1.00  0.00    -0.237 OA
ATOM     73  O   UNL A   1      50.396  26.527  33.698  1.00  0.00    -0.237 OA
ATOM     74  O   UNL A   1      49.744  24.660  32.222  1.00  0.00    -0.744 OA
ENDBRANCH  70  71
ENDBRANCH  51  65
BRANCH  52  75
ATOM     75  C   UNL A   1      37.315  32.808  29.830  1.00  0.00    -0.014 A 
ATOM     76  C   UNL A   1      37.068  33.567  28.672  1.00  0.00     0.010 A 
ATOM     77  C   UNL A   1      36.298  32.692  30.796  1.00  0.00     0.010 A 
ATOM     78  C   UNL A   1      35.844  34.222  28.498  1.00  0.00     0.020 A 
ATOM     79  C   UNL A   1      35.061  33.317  30.610  1.00  0.00     0.020 A 
ATOM     80  C   UNL A   1      34.848  34.091  29.469  1.00  0.00     0.054 A 
BRANCH  80  81
ATOM     81  S   UNL A   1      33.257  34.925  29.208  1.00  0.00     0.124 S 
ATOM     82  O   UNL A   1      32.620  34.059  28.220  1.00  0.00    -0.237 OA
ATOM     83  O   UNL A   1      32.667  34.903  30.544  1.00  0.00    -0.237 OA
ATOM     84  O   UNL A   1      33.641  36.250  28.725  1.00  0.00    -0.744 OA
ENDBRANCH  80  81
ENDBRANCH  52  75
BRANCH  64  85
ATOM     85  C   UNL A   1      43.282  34.749  32.885  1.00  0.00    -0.014 A 
ATOM     86  C   UNL A   1      43.292  34.896  34.282  1.00  0.00     0.010 A 
ATOM     87  C   UNL A   1      43.750  35.803  32.079  1.00  0.00     0.010 A 
ATOM     88  C   UNL A   1      43.731  36.089  34.862  1.00  0.00     0.020 A 
ATOM     89  C   UNL A   1      44.221  36.983  32.654  1.00  0.00     0.020 A 
ATOM     90  C   UNL A   1      44.194  37.125  34.043  1.00  0.00     0.054 A 
BRANCH  90  91
ATOM     91  S   UNL A   1      44.800  38.646  34.822  1.00  0.00     0.124 S 
ATOM     92  O   UNL A   1      44.471  39.653  33.817  1.00  0.00    -0.237 OA
ATOM     93  O   UNL A   1      44.016  38.707  36.053  1.00  0.00    -0.237 OA
ATOM     94  O   UNL A   1      46.226  38.395  35.009  1.00  0.00    -0.744 OA
ENDBRANCH  90  91
ENDBRANCH  64  85
ENDBRANCH  38  39
ENDBRANCH  30  33
ENDBRANCH  28  29
ENDBRANCH  27  28
ENDBRANCH  26  27
ENDBRANCH   1  26
TORSDOF 20
ENDMDL
MODEL 2
REMARK VINA RESULT:     -10.1      1.779      2.439
REMARK SMILES C[C@@H](SCCC(=O)NCCCCNC(=O)c1ccc(-c2c3nc(c(-c4ccc(S(=O)(=O)[O-])cc4)c4ccc([nH]4)c(-c4ccc(S(=O)(=O)[O-])cc4)c4nc(c(-c5ccc(S(=O)(=O)[O-])cc5)c5ccc2[nH]5)C=C4)C=C3)cc1)C(=O)Nc1ccc(C(N)=O)cc1
REMARK SMILES IDX 9 1 8 2 6 3 7 4 5 6 4 7 3 8 2 9 1 10 76 11 77 12 78 13 79 15
REMARK SMILES IDX 80 16 87 17 81 18 86 19 82 20 83 21 84 22 85 23 10 26 11 27
REMARK SMILES IDX 12 28 13 29 14 30 15 32 16 33 17 34 75 35 18 36 74 37 19 38
REMARK SMILES IDX 20 39 21 40 68 41 22 42 73 43 67 44 69 45 23 46 72 47 66 48
REMARK SMILES IDX 65 49 24 51 54 52 35 53 53 54 36 55 39 56 52 57 70 58 37 59
REMARK SMILES IDX 38 60 51 62 71 63 40 64 25 65 26 66 34 67 27 68 33 69 28 70
REMARK SMILES IDX 29 71 30 72 31 73 32 74 55 75 56 76 64 77 57 78 63 79 58 80
REMARK SMILES IDX 59 81 60 82 61 83 62 84 41 85 42 86 50 87 43 88 49 89 44 90
REMARK SMILES IDX 45 91 46 92 47 93 48 94
REMARK H PARENT 8 5 78 14 84 24 84 25 13 31 69 50 39 61
REMARK Flexibility Score: inf
ROOT
ATOM      1  C   UNL A   1      33.911  21.994  25.632  1.00  0.00     0.116 C 
ENDROOT
BRANCH   1   2
ATOM      2  N   UNL A   1      32.728  21.948  26.475  1.00  0.00    -0.356 N 
ATOM      3  C   UNL A   1      31.918  22.938  26.932  1.00  0.00     0.220 C 
ATOM      4  O   UNL A   1      30.996  22.629  27.688  1.00  0.00    -0.275 OA
ATOM      5  H   UNL A   1      32.469  21.044  26.765  1.00  0.00     0.163 HD
BRANCH   3   6
ATOM      6  C   UNL A   1      32.122  24.367  26.484  1.00  0.00     0.111 C 
BRANCH   6   7
ATOM      7  C   UNL A   1      31.172  24.772  25.354  1.00  0.00     0.080 C 
BRANCH   7   8
ATOM      8  S   UNL A   1      30.590  26.517  25.418  1.00  0.00    -0.148 SA
BRANCH   8   9
ATOM      9  C   UNL A   1      31.897  27.279  26.450  1.00  0.00     0.133 C 
ATOM     10  C   UNL A   1      31.379  28.208  27.535  1.00  0.00     0.030 C 
BRANCH   9  11
ATOM     11  C   UNL A   1      33.087  27.768  25.586  1.00  0.00     0.237 C 
ATOM     12  O   UNL A   1      34.044  27.027  25.328  1.00  0.00    -0.273 OA
ATOM     13  N   UNL A   1      33.123  29.025  25.030  1.00  0.00    -0.325 N 
ATOM     14  H   UNL A   1      33.874  29.637  25.206  1.00  0.00     0.169 HD
BRANCH  13  15
ATOM     15  C   UNL A   1      32.058  29.406  24.206  1.00  0.00     0.041 A 
ATOM     16  C   UNL A   1      31.954  28.790  22.958  1.00  0.00     0.027 A 
ATOM     17  C   UNL A   1      31.048  30.224  24.693  1.00  0.00     0.027 A 
ATOM     18  C   UNL A   1      30.752  28.858  22.264  1.00  0.00     0.016 A 
ATOM     19  C   UNL A   1      29.836  30.275  24.012  1.00  0.00     0.016 A 
ATOM     20  C   UNL A   1      29.675  29.564  22.816  1.00  0.00     0.039 A 
BRANCH  20  21
ATOM     21  C   UNL A   1      28.323  29.507  22.213  1.00  0.00     0.248 C 
ATOM     22  N   UNL A   1      27.329  28.937  22.951  1.00  0.00    -0.366 N 
ATOM     23  O   UNL A   1      28.101  29.952  21.090  1.00  0.00    -0.270 OA
ATOM     24  H   UNL A   1      27.523  28.584  23.848  1.00  0.00     0.159 HD
ATOM     25  H   UNL A   1      26.418  28.877  22.585  1.00  0.00     0.159 HD
ENDBRANCH  20  21
ENDBRANCH  13  15
ENDBRANCH   9  11
ENDBRANCH   8   9
ENDBRANCH   7   8
ENDBRANCH   6   7
ENDBRANCH   3   6
ENDBRANCH   1   2
BRANCH   1  26
ATOM     26  C   UNL A   1      35.179  22.383  26.390  1.00  0.00     0.023 C 
BRANCH  26  27
ATOM     27  C   UNL A   1      35.830  23.667  25.858  1.00  0.00     0.023 C 
BRANCH  27  28
ATOM     28  C   UNL A   1      36.946  23.437  24.862  1.00  0.00     0.116 C 
BRANCH  28  29
ATOM     29  N   UNL A   1      38.006  22.541  25.272  1.00  0.00    -0.352 N 
ATOM     30  C   UNL A   1      39.024  22.770  26.176  1.00  0.00     0.251 C 
ATOM     31  H   UNL A   1      38.001  21.651  24.851  1.00  0.00     0.163 HD
ATOM     32  O   UNL A   1      39.830  21.878  26.431  1.00  0.00    -0.269 OA
BRANCH  30  33
ATOM     33  C   UNL A   1      39.226  24.129  26.754  1.00  0.00     0.039 A 
ATOM     34  C   UNL A   1      38.775  24.371  28.056  1.00  0.00     0.014 A 
ATOM     35  C   UNL A   1      39.931  25.131  26.088  1.00  0.00     0.014 A 
ATOM     36  C   UNL A   1      39.117  25.561  28.708  1.00  0.00     0.010 A 
ATOM     37  C   UNL A   1      40.396  26.240  26.782  1.00  0.00     0.010 A 
ATOM     38  C   UNL A   1      39.984  26.478  28.096  1.00  0.00    -0.014 A 
BRANCH  38  39
ATOM     39  C   UNL A   1      40.461  27.701  28.789  1.00  0.00     0.031 A 
ATOM     40  C   UNL A   1      41.838  27.720  29.406  1.00  0.00     0.074 A 
ATOM     41  C   UNL A   1      39.631  28.753  28.938  1.00  0.00     0.049 A 
ATOM     42  N   UNL A   1      42.402  28.647  30.134  1.00  0.00    -0.248 NA
ATOM     43  C   UNL A   1      42.675  26.521  29.214  1.00  0.00     0.031 C 
ATOM     44  C   UNL A   1      38.253  28.828  28.441  1.00  0.00     0.029 A 
ATOM     45  N   UNL A   1      39.819  29.963  29.559  1.00  0.00    -0.354 N 
ATOM     46  C   UNL A   1      43.639  28.132  30.507  1.00  0.00     0.074 A 
ATOM     47  C   UNL A   1      43.719  26.790  29.983  1.00  0.00     0.031 C 
ATOM     48  C   UNL A   1      37.740  30.032  28.738  1.00  0.00     0.029 A 
ATOM     49  C   UNL A   1      38.727  30.796  29.491  1.00  0.00     0.049 A 
ATOM     50  H   UNL A   1      40.659  30.211  30.010  1.00  0.00     0.167 HD
ATOM     51  C   UNL A   1      44.636  28.736  31.196  1.00  0.00     0.031 A 
ATOM     52  C   UNL A   1      38.539  32.035  29.988  1.00  0.00     0.031 A 
ATOM     53  C   UNL A   1      44.560  30.086  31.683  1.00  0.00     0.049 A 
ATOM     54  C   UNL A   1      39.666  32.688  30.743  1.00  0.00     0.074 A 
ATOM     55  C   UNL A   1      45.536  30.822  32.332  1.00  0.00     0.029 A 
ATOM     56  N   UNL A   1      43.447  30.906  31.570  1.00  0.00    -0.354 N 
ATOM     57  N   UNL A   1      40.857  32.212  31.019  1.00  0.00    -0.248 NA
ATOM     58  C   UNL A   1      39.429  34.049  31.242  1.00  0.00     0.031 C 
ATOM     59  C   UNL A   1      44.992  32.065  32.663  1.00  0.00     0.029 A 
ATOM     60  C   UNL A   1      43.703  32.131  32.158  1.00  0.00     0.049 A 
ATOM     61  H   UNL A   1      42.601  30.652  31.134  1.00  0.00     0.167 HD
ATOM     62  C   UNL A   1      41.523  33.227  31.697  1.00  0.00     0.074 A 
ATOM     63  C   UNL A   1      40.607  34.348  31.771  1.00  0.00     0.031 C 
ATOM     64  C   UNL A   1      42.776  33.233  32.213  1.00  0.00     0.031 A 
BRANCH  51  65
ATOM     65  C   UNL A   1      45.892  27.945  31.458  1.00  0.00    -0.014 A 
ATOM     66  C   UNL A   1      46.984  27.999  30.572  1.00  0.00     0.010 A 
ATOM     67  C   UNL A   1      46.004  27.180  32.633  1.00  0.00     0.010 A 
ATOM     68  C   UNL A   1      48.150  27.275  30.839  1.00  0.00     0.020 A 
ATOM     69  C   UNL A   1      47.180  26.481  32.920  1.00  0.00     0.020 A 
ATOM     70  C   UNL A   1      48.241  26.524  32.013  1.00  0.00     0.054 A 
BRANCH  70  71
ATOM     71  S   UNL A   1      49.786  25.636  32.356  1.00  0.00     0.124 S 
ATOM     72  O   UNL A   1      49.392  24.759  33.455  1.00  0.00    -0.237 OA
ATOM     73  O   UNL A   1      50.056  24.967  31.086  1.00  0.00    -0.237 OA
ATOM     74  O   UNL A   1      50.726  26.697  32.713  1.00  0.00    -0.744 OA
ENDBRANCH  70  71
ENDBRANCH  51  65
BRANCH  52  75
ATOM     75  C   UNL A   1      37.244  32.742  29.779  1.00  0.00    -0.014 A 
ATOM     76  C   UNL A   1      36.988  33.430  28.579  1.00  0.00     0.010 A 
ATOM     77  C   UNL A   1      36.256  32.735  30.781  1.00  0.00     0.010 A 
ATOM     78  C   UNL A   1      35.785  34.121  28.397  1.00  0.00     0.020 A 
ATOM     79  C   UNL A   1      35.040  33.396  30.591  1.00  0.00     0.020 A 
ATOM     80  C   UNL A   1      34.819  34.099  29.405  1.00  0.00     0.054 A 
BRANCH  80  81
ATOM     81  S   UNL A   1      33.254  34.978  29.135  1.00  0.00     0.124 S 
ATOM     82  O   UNL A   1      32.601  34.136  28.137  1.00  0.00    -0.237 OA
ATOM     83  O   UNL A   1      32.652  34.965  30.466  1.00  0.00    -0.237 OA
ATOM     84  O   UNL A   1      33.678  36.294  28.664  1.00  0.00    -0.744 OA
ENDBRANCH  80  81
ENDBRANCH  52  75
BRANCH  64  85
ATOM     85  C   UNL A   1      43.250  34.505  32.866  1.00  0.00    -0.014 A 
ATOM     86  C   UNL A   1      43.842  35.534  32.116  1.00  0.00     0.010 A 
ATOM     87  C   UNL A   1      43.039  34.691  34.245  1.00  0.00     0.010 A 
ATOM     88  C   UNL A   1      44.248  36.716  32.740  1.00  0.00     0.020 A 
ATOM     89  C   UNL A   1      43.412  35.883  34.866  1.00  0.00     0.020 A 
ATOM     90  C   UNL A   1      44.029  36.883  34.111  1.00  0.00     0.054 A 
BRANCH  90  91
ATOM     91  S   UNL A   1      44.524  38.445  34.889  1.00  0.00     0.124 S 
ATOM     92  O   UNL A   1      44.373  38.138  36.308  1.00  0.00    -0.237 OA
ATOM     93  O   UNL A   1      45.898  38.610  34.423  1.00  0.00    -0.237 OA
ATOM     94  O   UNL A   1      43.571  39.415  34.356  1.00  0.00    -0.744 OA
ENDBRANCH  90  91
ENDBRANCH  64  85
ENDBRANCH  38  39
ENDBRANCH  30  33
ENDBRANCH  28  29
ENDBRANCH  27  28
ENDBRANCH  26  27
ENDBRANCH   1  26
TORSDOF 20
ENDMDL
MODEL 3
REMARK VINA RESULT:     -10.0      2.950      9.241
REMARK SMILES C[C@@H](SCCC(=O)NCCCCNC(=O)c1ccc(-c2c3nc(c(-c4ccc(S(=O)(=O)[O-])cc4)c4ccc([nH]4)c(-c4ccc(S(=O)(=O)[O-])cc4)c4nc(c(-c5ccc(S(=O)(=O)[O-])cc5)c5ccc2[nH]5)C=C4)C=C3)cc1)C(=O)Nc1ccc(C(N)=O)cc1
REMARK SMILES IDX 9 1 8 2 6 3 7 4 5 6 4 7 3 8 2 9 1 10 76 11 77 12 78 13 79 15
REMARK SMILES IDX 80 16 87 17 81 18 86 19 82 20 83 21 84 22 85 23 10 26 11 27
REMARK SMILES IDX 12 28 13 29 14 30 15 32 16 33 17 34 75 35 18 36 74 37 19 38
REMARK SMILES IDX 20 39 21 40 68 41 22 42 73 43 67 44 69 45 23 46 72 47 66 48
REMARK SMILES IDX 65 49 24 51 54 52 35 53 53 54 36 55 39 56 52 57 70 58 37 59
REMARK SMILES IDX 38 60 51 62 71 63 40 64 25 65 26 66 34 67 27 68 33 69 28 70
REMARK SMILES IDX 29 71 30 72 31 73 32 74 55 75 56 76 64 77 57 78 63 79 58 80
REMARK SMILES IDX 59 81 60 82 61 83 62 84 41 85 42 86 50 87 43 88 49 89 44 90
REMARK SMILES IDX 45 91 46 92 47 93 48 94
REMARK H PARENT 8 5 78 14 84 24 84 25 13 31 69 50 39 61
REMARK Flexibility Score: inf
ROOT
ATOM      1  C   UNL A   1      32.360  26.395  26.523  1.00  0.00     0.116 C 
ENDROOT
BRANCH   1   2
ATOM      2  N   UNL A   1      31.048  25.841  26.811  1.00  0.00    -0.356 N 
ATOM      3  C   UNL A   1      30.001  25.553  25.995  1.00  0.00     0.220 C 
ATOM      4  O   UNL A   1      28.964  25.133  26.510  1.00  0.00    -0.275 OA
ATOM      5  H   UNL A   1      30.890  25.642  27.762  1.00  0.00     0.163 HD
BRANCH   3   6
ATOM      6  C   UNL A   1      30.129  25.703  24.497  1.00  0.00     0.111 C 
BRANCH   6   7
ATOM      7  C   UNL A   1      29.964  27.153  24.035  1.00  0.00     0.080 C 
BRANCH   7   8
ATOM      8  S   UNL A   1      30.852  27.576  22.478  1.00  0.00    -0.148 SA
BRANCH   8   9
ATOM      9  C   UNL A   1      32.433  26.687  22.730  1.00  0.00     0.133 C 
ATOM     10  C   UNL A   1      33.586  27.569  23.181  1.00  0.00     0.030 C 
BRANCH   9  11
ATOM     11  C   UNL A   1      32.700  25.673  21.589  1.00  0.00     0.237 C 
ATOM     12  O   UNL A   1      33.351  25.989  20.585  1.00  0.00    -0.273 OA
ATOM     13  N   UNL A   1      32.268  24.369  21.649  1.00  0.00    -0.325 N 
ATOM     14  H   UNL A   1      31.698  23.989  20.942  1.00  0.00     0.169 HD
BRANCH  13  15
ATOM     15  C   UNL A   1      32.664  23.599  22.748  1.00  0.00     0.041 A 
ATOM     16  C   UNL A   1      31.739  22.695  23.272  1.00  0.00     0.027 A 
ATOM     17  C   UNL A   1      33.986  23.607  23.174  1.00  0.00     0.027 A 
ATOM     18  C   UNL A   1      32.181  21.676  24.107  1.00  0.00     0.016 A 
ATOM     19  C   UNL A   1      34.435  22.574  23.990  1.00  0.00     0.016 A 
ATOM     20  C   UNL A   1      33.543  21.589  24.429  1.00  0.00     0.039 A 
BRANCH  20  21
ATOM     21  C   UNL A   1      34.092  20.420  25.154  1.00  0.00     0.248 C 
ATOM     22  N   UNL A   1      33.369  19.933  26.201  1.00  0.00    -0.366 N 
ATOM     23  O   UNL A   1      35.160  19.906  24.830  1.00  0.00    -0.270 OA
ATOM     24  H   UNL A   1      32.515  20.355  26.448  1.00  0.00     0.159 HD
ATOM     25  H   UNL A   1      33.700  19.158  26.710  1.00  0.00     0.159 HD
ENDBRANCH  20  21
ENDBRANCH  13  15
ENDBRANCH   9  11
ENDBRANCH   8   9
ENDBRANCH   7   8
ENDBRANCH   6   7
ENDBRANCH   3   6
ENDBRANCH   1   2
BRANCH   1  26
ATOM     26  C   UNL A   1      32.461  27.892  26.805  1.00  0.00     0.023 C 
BRANCH  26  27
ATOM     27  C   UNL A   1      33.906  28.410  26.817  1.00  0.00     0.023 C 
BRANCH  27  28
ATOM     28  C   UNL A   1      34.072  29.816  26.284  1.00  0.00     0.116 C 
BRANCH  28  29
ATOM     29  N   UNL A   1      33.740  30.895  27.190  1.00  0.00    -0.352 N 
ATOM     30  C   UNL A   1      34.498  31.420  28.218  1.00  0.00     0.251 C 
ATOM     31  H   UNL A   1      32.857  31.309  27.057  1.00  0.00     0.163 HD
ATOM     32  O   UNL A   1      34.069  32.366  28.875  1.00  0.00    -0.269 OA
BRANCH  30  33
ATOM     33  C   UNL A   1      35.780  30.772  28.614  1.00  0.00     0.039 A 
ATOM     34  C   UNL A   1      36.978  31.341  28.169  1.00  0.00     0.014 A 
ATOM     35  C   UNL A   1      35.833  29.686  29.487  1.00  0.00     0.014 A 
ATOM     36  C   UNL A   1      38.202  30.889  28.675  1.00  0.00     0.010 A 
ATOM     37  C   UNL A   1      37.029  29.339  30.101  1.00  0.00     0.010 A 
ATOM     38  C   UNL A   1      38.232  29.925  29.694  1.00  0.00    -0.014 A 
BRANCH  38  39
ATOM     39  C   UNL A   1      39.498  29.491  30.337  1.00  0.00     0.031 A 
ATOM     40  C   UNL A   1      40.012  30.234  31.546  1.00  0.00     0.074 A 
ATOM     41  C   UNL A   1      40.222  28.496  29.787  1.00  0.00     0.049 A 
ATOM     42  N   UNL A   1      41.137  30.078  32.192  1.00  0.00    -0.248 NA
ATOM     43  C   UNL A   1      39.168  31.322  32.073  1.00  0.00     0.031 C 
ATOM     44  C   UNL A   1      39.859  27.745  28.580  1.00  0.00     0.029 A 
ATOM     45  N   UNL A   1      41.421  27.946  30.165  1.00  0.00    -0.354 N 
ATOM     46  C   UNL A   1      41.147  31.061  33.175  1.00  0.00     0.074 A 
ATOM     47  C   UNL A   1      39.951  31.850  33.002  1.00  0.00     0.031 C 
ATOM     48  C   UNL A   1      40.791  26.808  28.345  1.00  0.00     0.029 A 
ATOM     49  C   UNL A   1      41.843  26.923  29.347  1.00  0.00     0.049 A 
ATOM     50  H   UNL A   1      41.931  28.254  30.949  1.00  0.00     0.167 HD
ATOM     51  C   UNL A   1      42.055  31.269  34.157  1.00  0.00     0.031 A 
ATOM     52  C   UNL A   1      42.958  26.168  29.396  1.00  0.00     0.031 A 
ATOM     53  C   UNL A   1      43.225  30.455  34.342  1.00  0.00     0.049 A 
ATOM     54  C   UNL A   1      43.948  26.412  30.503  1.00  0.00     0.074 A 
ATOM     55  C   UNL A   1      44.175  30.531  35.345  1.00  0.00     0.029 A 
ATOM     56  N   UNL A   1      43.602  29.412  33.510  1.00  0.00    -0.354 N 
ATOM     57  N   UNL A   1      43.900  27.299  31.469  1.00  0.00    -0.248 NA
ATOM     58  C   UNL A   1      45.135  25.547  30.535  1.00  0.00     0.031 C 
ATOM     59  C   UNL A   1      45.158  29.573  35.085  1.00  0.00     0.029 A 
ATOM     60  C   UNL A   1      44.783  28.852  33.961  1.00  0.00     0.049 A 
ATOM     61  H   UNL A   1      43.102  29.114  32.715  1.00  0.00     0.167 HD
ATOM     62  C   UNL A   1      45.035  27.078  32.242  1.00  0.00     0.074 A 
ATOM     63  C   UNL A   1      45.737  25.962  31.641  1.00  0.00     0.031 C 
ATOM     64  C   UNL A   1      45.460  27.737  33.348  1.00  0.00     0.031 A 
BRANCH  51  65
ATOM     65  C   UNL A   1      41.817  32.414  35.107  1.00  0.00    -0.014 A 
ATOM     66  C   UNL A   1      42.385  33.681  34.879  1.00  0.00     0.010 A 
ATOM     67  C   UNL A   1      40.970  32.237  36.217  1.00  0.00     0.010 A 
ATOM     68  C   UNL A   1      42.138  34.739  35.759  1.00  0.00     0.020 A 
ATOM     69  C   UNL A   1      40.694  33.300  37.081  1.00  0.00     0.020 A 
ATOM     70  C   UNL A   1      41.291  34.542  36.852  1.00  0.00     0.054 A 
BRANCH  70  71
ATOM     71  S   UNL A   1      40.950  35.946  37.949  1.00  0.00     0.124 S 
ATOM     72  O   UNL A   1      40.551  35.276  39.183  1.00  0.00    -0.237 OA
ATOM     73  O   UNL A   1      42.238  36.633  37.995  1.00  0.00    -0.237 OA
ATOM     74  O   UNL A   1      39.883  36.672  37.263  1.00  0.00    -0.744 OA
ENDBRANCH  70  71
ENDBRANCH  51  65
BRANCH  52  75
ATOM     75  C   UNL A   1      43.192  25.104  28.378  1.00  0.00    -0.014 A 
ATOM     76  C   UNL A   1      42.684  23.806  28.566  1.00  0.00     0.010 A 
ATOM     77  C   UNL A   1      43.929  25.383  27.211  1.00  0.00     0.010 A 
ATOM     78  C   UNL A   1      42.934  22.801  27.626  1.00  0.00     0.020 A 
ATOM     79  C   UNL A   1      44.152  24.390  26.253  1.00  0.00     0.020 A 
ATOM     80  C   UNL A   1      43.666  23.100  26.474  1.00  0.00     0.054 A 
BRANCH  80  81
ATOM     81  S   UNL A   1      43.951  21.787  25.253  1.00  0.00     0.124 S 
ATOM     82  O   UNL A   1      42.908  20.824  25.595  1.00  0.00    -0.237 OA
ATOM     83  O   UNL A   1      43.773  22.492  23.987  1.00  0.00    -0.237 OA
ATOM     84  O   UNL A   1      45.319  21.355  25.531  1.00  0.00    -0.744 OA
ENDBRANCH  80  81
ENDBRANCH  52  75
BRANCH  64  85
ATOM     85  C   UNL A   1      46.720  27.243  34.007  1.00  0.00    -0.014 A 
ATOM     86  C   UNL A   1      47.977  27.774  33.672  1.00  0.00     0.010 A 
ATOM     87  C   UNL A   1      46.630  26.274  35.023  1.00  0.00     0.010 A 
ATOM     88  C   UNL A   1      49.128  27.318  34.318  1.00  0.00     0.020 A 
ATOM     89  C   UNL A   1      47.774  25.840  35.695  1.00  0.00     0.020 A 
ATOM     90  C   UNL A   1      49.019  26.355  35.327  1.00  0.00     0.054 A 
BRANCH  90  91
ATOM     91  S   UNL A   1      50.524  25.814  36.181  1.00  0.00     0.124 S 
ATOM     92  O   UNL A   1      50.100  24.546  36.767  1.00  0.00    -0.237 OA
ATOM     93  O   UNL A   1      51.490  25.711  35.090  1.00  0.00    -0.237 OA
ATOM     94  O   UNL A   1      50.785  26.886  37.138  1.00  0.00    -0.744 OA
ENDBRANCH  90  91
ENDBRANCH  64  85
ENDBRANCH  38  39
ENDBRANCH  30  33
ENDBRANCH  28  29
ENDBRANCH  27  28
ENDBRANCH  26  27
ENDBRANCH   1  26
TORSDOF 20
ENDMDL
