MODEL 1
REMARK VINA RESULT:     -10.3      0.000      0.000
REMARK SMILES O=C(Cc1cccn(C(F)F)c1=O)NCCCCNC(=O)c1ccc(-c2c3nc(c(-c4ccc(S(=O)(=O)[O-])cc4)c4ccc([nH]4)c(-c4ccc(S(=O)(=O)[O-])cc4)c4nc(c(-c5ccc(S(=O)(=O)[O-])cc5)c5ccc2[nH]5)C=C4)C=C3)cc1
REMARK SMILES IDX 17 1 16 2 15 3 14 4 1 5 2 6 3 8 4 9 5 10 12 11 6 12 8 13
REMARK SMILES IDX 13 14 7 15 9 16 10 17 11 18 18 19 19 20 20 21 21 23 22 24
REMARK SMILES IDX 23 25 81 26 24 27 80 28 25 29 26 30 27 31 74 32 28 33 79 34
REMARK SMILES IDX 73 35 75 36 29 37 78 38 72 39 71 40 30 42 60 43 41 44 59 45
REMARK SMILES IDX 42 46 45 47 58 48 76 49 43 50 44 51 57 53 77 54 46 55 31 56
REMARK SMILES IDX 32 57 40 58 33 59 39 60 34 61 35 62 36 63 37 64 38 65 61 66
REMARK SMILES IDX 62 67 70 68 63 69 69 70 64 71 65 72 66 73 67 74 68 75 47 76
REMARK SMILES IDX 48 77 56 78 49 79 55 80 50 81 51 82 52 83 53 84 54 85
REMARK H PARENT 14 7 19 22 75 41 45 52
REMARK Flexibility Score: inf
ROOT
ATOM      1  C   UNL A   1      40.474  20.134  26.147  1.00  0.00     0.023 C 
ENDROOT
BRANCH   1   2
ATOM      2  C   UNL A   1      41.729  19.533  26.781  1.00  0.00     0.023 C 
BRANCH   2   3
ATOM      3  C   UNL A   1      42.720  18.915  25.800  1.00  0.00     0.116 C 
BRANCH   3   4
ATOM      4  N   UNL A   1      43.408  19.902  24.992  1.00  0.00    -0.356 N 
ATOM      5  O   UNL A   1      45.529  19.222  25.567  1.00  0.00    -0.275 OA
ATOM      6  C   UNL A   1      44.783  19.900  24.864  1.00  0.00     0.224 C 
ATOM      7  H   UNL A   1      42.882  20.590  24.521  1.00  0.00     0.163 HD
BRANCH   6   8
ATOM      8  C   UNL A   1      45.338  20.878  23.832  1.00  0.00     0.141 C 
BRANCH   8   9
ATOM      9  C   UNL A   1      45.504  22.321  24.232  1.00  0.00     0.027 A 
ATOM     10  C   UNL A   1      46.722  22.896  24.219  1.00  0.00     0.011 A 
ATOM     11  C   UNL A   1      44.331  23.164  24.658  1.00  0.00     0.258 A 
ATOM     12  C   UNL A   1      46.924  24.265  24.614  1.00  0.00     0.019 A 
ATOM     13  N   UNL A   1      44.623  24.438  25.113  1.00  0.00    -0.258 N 
ATOM     14  O   UNL A   1      43.185  22.725  24.618  1.00  0.00    -0.269 OA
ATOM     15  C   UNL A   1      45.892  24.982  25.064  1.00  0.00     0.095 A 
BRANCH  13  16
ATOM     16  C   UNL A   1      43.534  25.235  25.621  1.00  0.00     0.451 C 
ATOM     17  F   UNL A   1      42.631  25.454  24.628  1.00  0.00    -0.185 F 
ATOM     18  F   UNL A   1      42.876  24.543  26.588  1.00  0.00    -0.185 F 
ENDBRANCH  13  16
ENDBRANCH   8   9
ENDBRANCH   6   8
ENDBRANCH   3   4
ENDBRANCH   2   3
ENDBRANCH   1   2
BRANCH   1  19
ATOM     19  C   UNL A   1      40.032  21.482  26.707  1.00  0.00     0.116 C 
BRANCH  19  20
ATOM     20  N   UNL A   1      38.807  21.988  26.104  1.00  0.00    -0.352 N 
ATOM     21  C   UNL A   1      38.256  23.250  26.175  1.00  0.00     0.251 C 
ATOM     22  H   UNL A   1      38.301  21.336  25.569  1.00  0.00     0.163 HD
ATOM     23  O   UNL A   1      37.151  23.466  25.688  1.00  0.00    -0.269 OA
BRANCH  21  24
ATOM     24  C   UNL A   1      38.981  24.332  26.881  1.00  0.00     0.039 A 
ATOM     25  C   UNL A   1      38.878  24.479  28.265  1.00  0.00     0.014 A 
ATOM     26  C   UNL A   1      39.740  25.241  26.137  1.00  0.00     0.014 A 
ATOM     27  C   UNL A   1      39.365  25.632  28.874  1.00  0.00     0.010 A 
ATOM     28  C   UNL A   1      40.305  26.356  26.768  1.00  0.00     0.010 A 
ATOM     29  C   UNL A   1      40.071  26.593  28.130  1.00  0.00    -0.014 A 
BRANCH  29  30
ATOM     30  C   UNL A   1      40.528  27.847  28.792  1.00  0.00     0.031 A 
ATOM     31  C   UNL A   1      41.977  28.032  29.174  1.00  0.00     0.074 A 
ATOM     32  C   UNL A   1      39.653  28.855  28.982  1.00  0.00     0.049 A 
ATOM     33  N   UNL A   1      42.554  29.073  29.718  1.00  0.00    -0.248 NA
ATOM     34  C   UNL A   1      42.897  26.912  28.909  1.00  0.00     0.031 C 
ATOM     35  C   UNL A   1      38.234  28.815  28.620  1.00  0.00     0.029 A 
ATOM     36  N   UNL A   1      39.829  30.120  29.487  1.00  0.00    -0.354 N 
ATOM     37  C   UNL A   1      43.894  28.731  29.872  1.00  0.00     0.074 A 
ATOM     38  C   UNL A   1      44.043  27.376  29.392  1.00  0.00     0.031 C 
ATOM     39  C   UNL A   1      37.689  30.019  28.846  1.00  0.00     0.029 A 
ATOM     40  C   UNL A   1      38.694  30.897  29.437  1.00  0.00     0.049 A 
ATOM     41  H   UNL A   1      40.686  30.441  29.851  1.00  0.00     0.167 HD
ATOM     42  C   UNL A   1      44.910  29.485  30.354  1.00  0.00     0.031 A 
ATOM     43  C   UNL A   1      38.478  32.171  29.823  1.00  0.00     0.031 A 
ATOM     44  C   UNL A   1      44.766  30.845  30.808  1.00  0.00     0.049 A 
ATOM     45  C   UNL A   1      39.608  32.961  30.417  1.00  0.00     0.074 A 
ATOM     46  C   UNL A   1      45.748  31.690  31.295  1.00  0.00     0.029 A 
ATOM     47  N   UNL A   1      43.578  31.559  30.824  1.00  0.00    -0.354 N 
ATOM     48  N   UNL A   1      40.866  32.616  30.557  1.00  0.00    -0.248 NA
ATOM     49  C   UNL A   1      39.295  34.309  30.912  1.00  0.00     0.031 C 
ATOM     50  C   UNL A   1      45.145  32.892  31.665  1.00  0.00     0.029 A 
ATOM     51  C   UNL A   1      43.800  32.825  31.340  1.00  0.00     0.049 A 
ATOM     52  H   UNL A   1      42.709  31.219  30.514  1.00  0.00     0.167 HD
ATOM     53  C   UNL A   1      41.496  33.709  31.141  1.00  0.00     0.074 A 
ATOM     54  C   UNL A   1      40.487  34.733  31.312  1.00  0.00     0.031 C 
ATOM     55  C   UNL A   1      42.793  33.843  31.505  1.00  0.00     0.031 A 
BRANCH  42  56
ATOM     56  C   UNL A   1      46.293  28.887  30.415  1.00  0.00    -0.014 A 
ATOM     57  C   UNL A   1      47.048  28.756  29.233  1.00  0.00     0.010 A 
ATOM     58  C   UNL A   1      46.776  28.310  31.602  1.00  0.00     0.010 A 
ATOM     59  C   UNL A   1      48.237  28.021  29.227  1.00  0.00     0.020 A 
ATOM     60  C   UNL A   1      47.979  27.596  31.606  1.00  0.00     0.020 A 
ATOM     61  C   UNL A   1      48.686  27.433  30.411  1.00  0.00     0.054 A 
BRANCH  61  62
ATOM     62  S   UNL A   1      50.199  26.432  30.373  1.00  0.00     0.124 S 
ATOM     63  O   UNL A   1      49.783  25.274  29.587  1.00  0.00    -0.237 OA
ATOM     64  O   UNL A   1      51.156  27.326  29.725  1.00  0.00    -0.237 OA
ATOM     65  O   UNL A   1      50.468  26.166  31.786  1.00  0.00    -0.744 OA
ENDBRANCH  61  62
ENDBRANCH  42  56
BRANCH  43  66
ATOM     66  C   UNL A   1      37.130  32.775  29.630  1.00  0.00    -0.014 A 
ATOM     67  C   UNL A   1      36.727  33.241  28.365  1.00  0.00     0.010 A 
ATOM     68  C   UNL A   1      36.267  32.948  30.727  1.00  0.00     0.010 A 
ATOM     69  C   UNL A   1      35.517  33.920  28.210  1.00  0.00     0.020 A 
ATOM     70  C   UNL A   1      35.039  33.597  30.570  1.00  0.00     0.020 A 
ATOM     71  C   UNL A   1      34.685  34.105  29.317  1.00  0.00     0.054 A 
BRANCH  71  72
ATOM     72  S   UNL A   1      33.136  35.025  29.101  1.00  0.00     0.124 S 
ATOM     73  O   UNL A   1      32.463  34.236  28.073  1.00  0.00    -0.237 OA
ATOM     74  O   UNL A   1      32.540  34.963  30.433  1.00  0.00    -0.237 OA
ATOM     75  O   UNL A   1      33.582  36.351  28.682  1.00  0.00    -0.744 OA
ENDBRANCH  71  72
ENDBRANCH  43  66
BRANCH  55  76
ATOM     76  C   UNL A   1      43.231  35.144  32.126  1.00  0.00    -0.014 A 
ATOM     77  C   UNL A   1      42.985  35.382  33.492  1.00  0.00     0.010 A 
ATOM     78  C   UNL A   1      43.750  36.182  31.333  1.00  0.00     0.010 A 
ATOM     79  C   UNL A   1      43.209  36.644  34.044  1.00  0.00     0.020 A 
ATOM     80  C   UNL A   1      44.004  37.439  31.889  1.00  0.00     0.020 A 
ATOM     81  C   UNL A   1      43.705  37.669  33.235  1.00  0.00     0.054 A 
BRANCH  81  82
ATOM     82  S   UNL A   1      43.947  39.316  33.957  1.00  0.00     0.124 S 
ATOM     83  O   UNL A   1      45.171  39.762  33.299  1.00  0.00    -0.237 OA
ATOM     84  O   UNL A   1      42.729  40.021  33.565  1.00  0.00    -0.237 OA
ATOM     85  O   UNL A   1      44.068  39.048  35.388  1.00  0.00    -0.744 OA
ENDBRANCH  81  82
ENDBRANCH  55  76
ENDBRANCH  29  30
ENDBRANCH  21  24
ENDBRANCH  19  20
ENDBRANCH   1  19
TORSDOF 16
ENDMDL
MODEL 2
REMARK VINA RESULT:      -9.9      4.291     12.567
REMARK SMILES O=C(Cc1cccn(C(F)F)c1=O)NCCCCNC(=O)c1ccc(-c2c3nc(c(-c4ccc(S(=O)(=O)[O-])cc4)c4ccc([nH]4)c(-c4ccc(S(=O)(=O)[O-])cc4)c4nc(c(-c5ccc(S(=O)(=O)[O-])cc5)c5ccc2[nH]5)C=C4)C=C3)cc1
REMARK SMILES IDX 17 1 16 2 15 3 14 4 1 5 2 6 3 8 4 9 5 10 12 11 6 12 8 13
REMARK SMILES IDX 13 14 7 15 9 16 10 17 11 18 18 19 19 20 20 21 21 23 22 24
REMARK SMILES IDX 23 25 81 26 24 27 80 28 25 29 26 30 27 31 74 32 28 33 79 34
REMARK SMILES IDX 73 35 75 36 29 37 78 38 72 39 71 40 30 42 60 43 41 44 59 45
REMARK SMILES IDX 42 46 45 47 58 48 76 49 43 50 44 51 57 53 77 54 46 55 31 56
REMARK SMILES IDX 32 57 40 58 33 59 39 60 34 61 35 62 36 63 37 64 38 65 61 66
REMARK SMILES IDX 62 67 70 68 63 69 69 70 64 71 65 72 66 73 67 74 68 75 47 76
REMARK SMILES IDX 48 77 56 78 49 79 55 80 50 81 51 82 52 83 53 84 54 85
REMARK H PARENT 14 7 19 22 75 41 45 52
REMARK Flexibility Score: inf
ROOT
ATOM      1  C   UNL A   1      37.276  33.794  33.434  1.00  0.00     0.023 C 
ENDROOT
BRANCH   1   2
ATOM      2  C   UNL A   1      36.154  33.484  34.427  1.00  0.00     0.023 C 
BRANCH   2   3
ATOM      3  C   UNL A   1      35.150  34.611  34.645  1.00  0.00     0.116 C 
BRANCH   3   4
ATOM      4  N   UNL A   1      34.148  34.687  33.600  1.00  0.00    -0.356 N 
ATOM      5  O   UNL A   1      34.401  36.941  33.214  1.00  0.00    -0.275 OA
ATOM      6  C   UNL A   1      33.932  35.852  32.891  1.00  0.00     0.224 C 
ATOM      7  H   UNL A   1      33.610  33.889  33.390  1.00  0.00     0.163 HD
BRANCH   6   8
ATOM      8  C   UNL A   1      32.985  35.718  31.701  1.00  0.00     0.141 C 
BRANCH   8   9
ATOM      9  C   UNL A   1      33.556  35.274  30.380  1.00  0.00     0.027 A 
ATOM     10  C   UNL A   1      33.639  36.137  29.349  1.00  0.00     0.011 A 
ATOM     11  C   UNL A   1      34.048  33.867  30.163  1.00  0.00     0.258 A 
ATOM     12  C   UNL A   1      34.160  35.745  28.065  1.00  0.00     0.019 A 
ATOM     13  N   UNL A   1      34.443  33.546  28.875  1.00  0.00    -0.258 N 
ATOM     14  O   UNL A   1      34.072  33.054  31.082  1.00  0.00    -0.269 OA
ATOM     15  C   UNL A   1      34.521  34.477  27.858  1.00  0.00     0.095 A 
BRANCH  13  16
ATOM     16  C   UNL A   1      34.826  32.181  28.612  1.00  0.00     0.451 C 
ATOM     17  F   UNL A   1      34.971  32.000  27.272  1.00  0.00    -0.185 F 
ATOM     18  F   UNL A   1      36.043  31.935  29.163  1.00  0.00    -0.185 F 
ENDBRANCH  13  16
ENDBRANCH   8   9
ENDBRANCH   6   8
ENDBRANCH   3   4
ENDBRANCH   2   3
ENDBRANCH   1   2
BRANCH   1  19
ATOM     19  C   UNL A   1      37.272  32.966  32.154  1.00  0.00     0.116 C 
BRANCH  19  20
ATOM     20  N   UNL A   1      36.682  31.644  32.319  1.00  0.00    -0.352 N 
ATOM     21  C   UNL A   1      37.164  30.418  31.916  1.00  0.00     0.251 C 
ATOM     22  H   UNL A   1      35.816  31.625  32.785  1.00  0.00     0.163 HD
ATOM     23  O   UNL A   1      36.473  29.413  32.046  1.00  0.00    -0.269 OA
BRANCH  21  24
ATOM     24  C   UNL A   1      38.501  30.321  31.285  1.00  0.00     0.039 A 
ATOM     25  C   UNL A   1      38.686  30.660  29.944  1.00  0.00     0.014 A 
ATOM     26  C   UNL A   1      39.578  29.842  32.038  1.00  0.00     0.014 A 
ATOM     27  C   UNL A   1      39.883  30.338  29.310  1.00  0.00     0.010 A 
ATOM     28  C   UNL A   1      40.809  29.601  31.418  1.00  0.00     0.010 A 
ATOM     29  C   UNL A   1      40.954  29.789  30.035  1.00  0.00    -0.014 A 
BRANCH  29  30
ATOM     30  C   UNL A   1      42.202  29.396  29.323  1.00  0.00     0.031 A 
ATOM     31  C   UNL A   1      43.391  30.325  29.282  1.00  0.00     0.074 A 
ATOM     32  C   UNL A   1      42.294  28.168  28.774  1.00  0.00     0.049 A 
ATOM     33  N   UNL A   1      44.567  30.128  28.744  1.00  0.00    -0.248 NA
ATOM     34  C   UNL A   1      43.247  31.641  29.931  1.00  0.00     0.031 C 
ATOM     35  C   UNL A   1      41.229  27.162  28.780  1.00  0.00     0.029 A 
ATOM     36  N   UNL A   1      43.338  27.538  28.141  1.00  0.00    -0.354 N 
ATOM     37  C   UNL A   1      45.295  31.291  28.975  1.00  0.00     0.074 A 
ATOM     38  C   UNL A   1      44.421  32.204  29.677  1.00  0.00     0.031 C 
ATOM     39  C   UNL A   1      41.697  26.023  28.248  1.00  0.00     0.029 A 
ATOM     40  C   UNL A   1      43.068  26.234  27.794  1.00  0.00     0.049 A 
ATOM     41  H   UNL A   1      44.199  27.978  27.953  1.00  0.00     0.167 HD
ATOM     42  C   UNL A   1      46.580  31.565  28.647  1.00  0.00     0.031 A 
ATOM     43  C   UNL A   1      43.830  25.308  27.178  1.00  0.00     0.031 A 
ATOM     44  C   UNL A   1      47.457  30.644  27.971  1.00  0.00     0.049 A 
ATOM     45  C   UNL A   1      45.229  25.663  26.765  1.00  0.00     0.074 A 
ATOM     46  C   UNL A   1      48.782  30.834  27.615  1.00  0.00     0.029 A 
ATOM     47  N   UNL A   1      47.110  29.368  27.557  1.00  0.00    -0.354 N 
ATOM     48  N   UNL A   1      45.895  26.771  26.990  1.00  0.00    -0.248 NA
ATOM     49  C   UNL A   1      45.981  24.651  26.010  1.00  0.00     0.031 C 
ATOM     50  C   UNL A   1      49.217  29.699  26.931  1.00  0.00     0.029 A 
ATOM     51  C   UNL A   1      48.188  28.771  26.925  1.00  0.00     0.049 A 
ATOM     52  H   UNL A   1      46.231  28.948  27.694  1.00  0.00     0.167 HD
ATOM     53  C   UNL A   1      47.148  26.582  26.419  1.00  0.00     0.074 A 
ATOM     54  C   UNL A   1      47.155  25.249  25.853  1.00  0.00     0.031 C 
ATOM     55  C   UNL A   1      48.193  27.442  26.367  1.00  0.00     0.031 A 
BRANCH  42  56
ATOM     56  C   UNL A   1      47.152  32.910  29.017  1.00  0.00    -0.014 A 
ATOM     57  C   UNL A   1      47.693  33.108  30.302  1.00  0.00     0.010 A 
ATOM     58  C   UNL A   1      47.010  34.014  28.158  1.00  0.00     0.010 A 
ATOM     59  C   UNL A   1      48.037  34.390  30.739  1.00  0.00     0.020 A 
ATOM     60  C   UNL A   1      47.377  35.295  28.583  1.00  0.00     0.020 A 
ATOM     61  C   UNL A   1      47.862  35.477  29.881  1.00  0.00     0.054 A 
BRANCH  61  62
ATOM     62  S   UNL A   1      48.257  37.142  30.485  1.00  0.00     0.124 S 
ATOM     63  O   UNL A   1      48.107  37.951  29.279  1.00  0.00    -0.237 OA
ATOM     64  O   UNL A   1      47.246  37.354  31.519  1.00  0.00    -0.237 OA
ATOM     65  O   UNL A   1      49.625  37.009  30.983  1.00  0.00    -0.744 OA
ENDBRANCH  61  62
ENDBRANCH  42  56
BRANCH  43  66
ATOM     66  C   UNL A   1      43.276  23.945  26.943  1.00  0.00    -0.014 A 
ATOM     67  C   UNL A   1      42.924  23.117  28.025  1.00  0.00     0.010 A 
ATOM     68  C   UNL A   1      43.161  23.443  25.634  1.00  0.00     0.010 A 
ATOM     69  C   UNL A   1      42.525  21.796  27.808  1.00  0.00     0.020 A 
ATOM     70  C   UNL A   1      42.729  22.132  25.411  1.00  0.00     0.020 A 
ATOM     71  C   UNL A   1      42.443  21.308  26.502  1.00  0.00     0.054 A 
BRANCH  71  72
ATOM     72  S   UNL A   1      41.961  19.578  26.246  1.00  0.00     0.124 S 
ATOM     73  O   UNL A   1      42.324  18.976  27.525  1.00  0.00    -0.237 OA
ATOM     74  O   UNL A   1      40.528  19.681  25.983  1.00  0.00    -0.237 OA
ATOM     75  O   UNL A   1      42.773  19.163  25.105  1.00  0.00    -0.744 OA
ENDBRANCH  71  72
ENDBRANCH  43  66
BRANCH  55  76
ATOM     76  C   UNL A   1      49.456  26.992  25.681  1.00  0.00    -0.014 A 
ATOM     77  C   UNL A   1      50.467  26.358  26.429  1.00  0.00     0.010 A 
ATOM     78  C   UNL A   1      49.704  27.324  24.338  1.00  0.00     0.010 A 
ATOM     79  C   UNL A   1      51.716  26.104  25.860  1.00  0.00     0.020 A 
ATOM     80  C   UNL A   1      50.944  27.043  23.756  1.00  0.00     0.020 A 
ATOM     81  C   UNL A   1      51.951  26.461  24.531  1.00  0.00     0.054 A 
BRANCH  81  82
ATOM     82  S   UNL A   1      53.594  26.164  23.821  1.00  0.00     0.124 S 
ATOM     83  O   UNL A   1      53.278  25.869  22.427  1.00  0.00    -0.237 OA
ATOM     84  O   UNL A   1      54.280  27.433  24.056  1.00  0.00    -0.237 OA
ATOM     85  O   UNL A   1      54.105  25.037  24.599  1.00  0.00    -0.744 OA
ENDBRANCH  81  82
ENDBRANCH  55  76
ENDBRANCH  29  30
ENDBRANCH  21  24
ENDBRANCH  19  20
ENDBRANCH   1  19
TORSDOF 16
ENDMDL
MODEL 3
REMARK VINA RESULT:      -9.9      3.294     10.082
REMARK SMILES O=C(Cc1cccn(C(F)F)c1=O)NCCCCNC(=O)c1ccc(-c2c3nc(c(-c4ccc(S(=O)(=O)[O-])cc4)c4ccc([nH]4)c(-c4ccc(S(=O)(=O)[O-])cc4)c4nc(c(-c5ccc(S(=O)(=O)[O-])cc5)c5ccc2[nH]5)C=C4)C=C3)cc1
REMARK SMILES IDX 17 1 16 2 15 3 14 4 1 5 2 6 3 8 4 9 5 10 12 11 6 12 8 13
REMARK SMILES IDX 13 14 7 15 9 16 10 17 11 18 18 19 19 20 20 21 21 23 22 24
REMARK SMILES IDX 23 25 81 26 24 27 80 28 25 29 26 30 27 31 74 32 28 33 79 34
REMARK SMILES IDX 73 35 75 36 29 37 78 38 72 39 71 40 30 42 60 43 41 44 59 45
REMARK SMILES IDX 42 46 45 47 58 48 76 49 43 50 44 51 57 53 77 54 46 55 31 56
REMARK SMILES IDX 32 57 40 58 33 59 39 60 34 61 35 62 36 63 37 64 38 65 61 66
REMARK SMILES IDX 62 67 70 68 63 69 69 70 64 71 65 72 66 73 67 74 68 75 47 76
REMARK SMILES IDX 48 77 56 78 49 79 55 80 50 81 51 82 52 83 53 84 54 85
REMARK H PARENT 14 7 19 22 75 41 45 52
REMARK Flexibility Score: inf
ROOT
ATOM      1  C   UNL A   1      35.596  22.707  24.765  1.00  0.00     0.023 C 
ENDROOT
BRANCH   1   2
ATOM      2  C   UNL A   1      35.470  21.282  25.307  1.00  0.00     0.023 C 
BRANCH   2   3
ATOM      3  C   UNL A   1      34.229  21.018  26.155  1.00  0.00     0.116 C 
BRANCH   3   4
ATOM      4  N   UNL A   1      33.187  22.006  25.957  1.00  0.00    -0.356 N 
ATOM      5  O   UNL A   1      32.967  22.546  28.182  1.00  0.00    -0.275 OA
ATOM      6  C   UNL A   1      32.711  22.773  27.001  1.00  0.00     0.224 C 
ATOM      7  H   UNL A   1      32.810  22.134  25.055  1.00  0.00     0.163 HD
BRANCH   6   8
ATOM      8  C   UNL A   1      31.757  23.895  26.597  1.00  0.00     0.141 C 
BRANCH   8   9
ATOM      9  C   UNL A   1      32.255  24.943  25.637  1.00  0.00     0.027 A 
ATOM     10  C   UNL A   1      33.270  25.758  25.983  1.00  0.00     0.011 A 
ATOM     11  C   UNL A   1      31.644  25.120  24.271  1.00  0.00     0.258 A 
ATOM     12  C   UNL A   1      33.759  26.785  25.101  1.00  0.00     0.019 A 
ATOM     13  N   UNL A   1      32.107  26.190  23.525  1.00  0.00    -0.258 N 
ATOM     14  O   UNL A   1      30.769  24.361  23.865  1.00  0.00    -0.269 OA
ATOM     15  C   UNL A   1      33.162  26.986  23.924  1.00  0.00     0.095 A 
BRANCH  13  16
ATOM     16  C   UNL A   1      31.473  26.445  22.255  1.00  0.00     0.451 C 
ATOM     17  F   UNL A   1      31.052  27.738  22.209  1.00  0.00    -0.185 F 
ATOM     18  F   UNL A   1      32.383  26.305  21.256  1.00  0.00    -0.185 F 
ENDBRANCH  13  16
ENDBRANCH   8   9
ENDBRANCH   6   8
ENDBRANCH   3   4
ENDBRANCH   2   3
ENDBRANCH   1   2
BRANCH   1  19
ATOM     19  C   UNL A   1      36.927  23.400  25.036  1.00  0.00     0.116 C 
BRANCH  19  20
ATOM     20  N   UNL A   1      37.988  22.485  25.433  1.00  0.00    -0.352 N 
ATOM     21  C   UNL A   1      39.130  22.737  26.162  1.00  0.00     0.251 C 
ATOM     22  H   UNL A   1      37.873  21.554  25.138  1.00  0.00     0.163 HD
ATOM     23  O   UNL A   1      39.973  21.858  26.308  1.00  0.00    -0.269 OA
BRANCH  21  24
ATOM     24  C   UNL A   1      39.359  24.086  26.731  1.00  0.00     0.039 A 
ATOM     25  C   UNL A   1      40.046  25.061  26.007  1.00  0.00     0.014 A 
ATOM     26  C   UNL A   1      38.917  24.362  28.029  1.00  0.00     0.014 A 
ATOM     27  C   UNL A   1      40.458  26.229  26.643  1.00  0.00     0.010 A 
ATOM     28  C   UNL A   1      39.258  25.576  28.637  1.00  0.00     0.010 A 
ATOM     29  C   UNL A   1      40.083  26.494  27.972  1.00  0.00    -0.014 A 
BRANCH  29  30
ATOM     30  C   UNL A   1      40.588  27.721  28.649  1.00  0.00     0.031 A 
ATOM     31  C   UNL A   1      39.677  28.903  28.880  1.00  0.00     0.074 A 
ATOM     32  C   UNL A   1      41.849  27.745  29.126  1.00  0.00     0.049 A 
ATOM     33  N   UNL A   1      39.939  30.032  29.489  1.00  0.00    -0.248 NA
ATOM     34  C   UNL A   1      38.298  28.807  28.371  1.00  0.00     0.031 C 
ATOM     35  C   UNL A   1      42.815  26.652  29.001  1.00  0.00     0.029 A 
ATOM     36  N   UNL A   1      42.524  28.701  29.844  1.00  0.00    -0.354 N 
ATOM     37  C   UNL A   1      38.768  30.782  29.425  1.00  0.00     0.074 A 
ATOM     38  C   UNL A   1      37.802  29.995  28.693  1.00  0.00     0.031 C 
ATOM     39  C   UNL A   1      43.927  26.968  29.680  1.00  0.00     0.029 A 
ATOM     40  C   UNL A   1      43.787  28.314  30.229  1.00  0.00     0.049 A 
ATOM     41  H   UNL A   1      42.141  29.582  30.063  1.00  0.00     0.167 HD
ATOM     42  C   UNL A   1      38.519  32.007  29.944  1.00  0.00     0.031 A 
ATOM     43  C   UNL A   1      44.733  28.962  30.938  1.00  0.00     0.031 A 
ATOM     44  C   UNL A   1      39.475  32.778  30.696  1.00  0.00     0.049 A 
ATOM     45  C   UNL A   1      44.452  30.348  31.444  1.00  0.00     0.074 A 
ATOM     46  C   UNL A   1      39.300  34.024  31.275  1.00  0.00     0.029 A 
ATOM     47  N   UNL A   1      40.773  32.384  30.981  1.00  0.00    -0.354 N 
ATOM     48  N   UNL A   1      43.340  31.039  31.367  1.00  0.00    -0.248 NA
ATOM     49  C   UNL A   1      45.550  31.047  32.126  1.00  0.00     0.031 C 
ATOM     50  C   UNL A   1      40.509  34.410  31.855  1.00  0.00     0.029 A 
ATOM     51  C   UNL A   1      41.416  33.375  31.703  1.00  0.00     0.049 A 
ATOM     52  H   UNL A   1      41.176  31.527  30.712  1.00  0.00     0.167 HD
ATOM     53  C   UNL A   1      43.600  32.247  32.004  1.00  0.00     0.074 A 
ATOM     54  C   UNL A   1      44.968  32.187  32.476  1.00  0.00     0.031 C 
ATOM     55  C   UNL A   1      42.777  33.309  32.175  1.00  0.00     0.031 A 
BRANCH  42  56
ATOM     56  C   UNL A   1      37.154  32.615  29.745  1.00  0.00    -0.014 A 
ATOM     57  C   UNL A   1      36.912  33.436  28.627  1.00  0.00     0.010 A 
ATOM     58  C   UNL A   1      36.165  32.507  30.740  1.00  0.00     0.010 A 
ATOM     59  C   UNL A   1      35.730  34.174  28.528  1.00  0.00     0.020 A 
ATOM     60  C   UNL A   1      34.970  33.224  30.632  1.00  0.00     0.020 A 
ATOM     61  C   UNL A   1      34.773  34.075  29.540  1.00  0.00     0.054 A 
BRANCH  61  62
ATOM     62  S   UNL A   1      33.270  35.085  29.427  1.00  0.00     0.124 S 
ATOM     63  O   UNL A   1      33.804  36.391  29.053  1.00  0.00    -0.237 OA
ATOM     64  O   UNL A   1      32.501  34.397  28.392  1.00  0.00    -0.237 OA
ATOM     65  O   UNL A   1      32.701  35.003  30.771  1.00  0.00    -0.744 OA
ENDBRANCH  61  62
ENDBRANCH  42  56
BRANCH  43  66
ATOM     66  C   UNL A   1      46.026  28.281  31.227  1.00  0.00    -0.014 A 
ATOM     67  C   UNL A   1      47.103  28.376  30.326  1.00  0.00     0.010 A 
ATOM     68  C   UNL A   1      46.164  27.478  32.373  1.00  0.00     0.010 A 
ATOM     69  C   UNL A   1      48.270  27.637  30.534  1.00  0.00     0.020 A 
ATOM     70  C   UNL A   1      47.343  26.763  32.602  1.00  0.00     0.020 A 
ATOM     71  C   UNL A   1      48.377  26.824  31.664  1.00  0.00     0.054 A 
BRANCH  71  72
ATOM     72  S   UNL A   1      49.885  25.842  31.893  1.00  0.00     0.124 S 
ATOM     73  O   UNL A   1      50.864  26.873  32.225  1.00  0.00    -0.237 OA
ATOM     74  O   UNL A   1      49.519  24.945  32.987  1.00  0.00    -0.237 OA
ATOM     75  O   UNL A   1      50.071  25.195  30.597  1.00  0.00    -0.744 OA
ENDBRANCH  71  72
ENDBRANCH  43  66
BRANCH  55  76
ATOM     76  C   UNL A   1      43.306  34.513  32.908  1.00  0.00    -0.014 A 
ATOM     77  C   UNL A   1      43.104  34.627  34.298  1.00  0.00     0.010 A 
ATOM     78  C   UNL A   1      43.869  35.594  32.207  1.00  0.00     0.010 A 
ATOM     79  C   UNL A   1      43.416  35.814  34.964  1.00  0.00     0.020 A 
ATOM     80  C   UNL A   1      44.211  36.772  32.877  1.00  0.00     0.020 A 
ATOM     81  C   UNL A   1      43.955  36.884  34.247  1.00  0.00     0.054 A 
BRANCH  81  82
ATOM     82  S   UNL A   1      44.311  38.433  35.121  1.00  0.00     0.124 S 
ATOM     83  O   UNL A   1      45.757  38.553  34.956  1.00  0.00    -0.237 OA
ATOM     84  O   UNL A   1      43.511  39.409  34.384  1.00  0.00    -0.237 OA
ATOM     85  O   UNL A   1      43.857  38.171  36.484  1.00  0.00    -0.744 OA
ENDBRANCH  81  82
ENDBRANCH  55  76
ENDBRANCH  29  30
ENDBRANCH  21  24
ENDBRANCH  19  20
ENDBRANCH   1  19
TORSDOF 16
ENDMDL
