MODEL 1
REMARK VINA RESULT:     -11.1      0.000      0.000
REMARK SMILES O=C(NCCCCNC(=O)[C@H](Cc1cccc(O)c1)Cc1cccc(F)c1)c1ccc(-c2c3nc(c(-c4ccc(S(=O)(=O)[O-])cc4)c4ccc([nH]4)c(-c4ccc(S(=O)(=O)[O-])cc4)c4nc(c(-c5ccc(S(=O)(=O)[O-])cc5)c5ccc2[nH]5)C=C4)C=C3)cc1
REMARK SMILES IDX 5 1 4 2 3 3 1 4 2 5 28 7 29 8 87 9 30 10 86 11 31 12 32 13
REMARK SMILES IDX 33 14 80 15 34 16 85 17 79 18 81 19 35 20 84 21 78 22 77 23
REMARK SMILES IDX 36 25 66 26 47 27 65 28 48 29 51 30 64 31 82 32 49 33 50 34
REMARK SMILES IDX 63 36 83 37 52 38 37 39 38 40 46 41 39 42 45 43 40 44 41 45
REMARK SMILES IDX 42 46 43 47 44 48 67 49 68 50 76 51 69 52 75 53 70 54 71 55
REMARK SMILES IDX 72 56 73 57 74 58 53 59 54 60 62 61 55 62 61 63 56 64 57 65
REMARK SMILES IDX 58 66 59 67 60 68 6 69 7 70 8 71 9 72 10 74 11 75 20 76
REMARK SMILES IDX 21 77 22 78 27 79 23 80 25 81 24 82 26 83 12 84 13 85 14 86
REMARK SMILES IDX 19 87 15 88 17 89 16 90 18 91
REMARK H PARENT 3 6 81 24 51 35 8 73 18 92
REMARK Flexibility Score: inf
ROOT
ATOM      1  C   UNL A   1      33.097  28.799  25.771  1.00  0.00     0.023 C 
ENDROOT
BRANCH   1   2
ATOM      2  C   UNL A   1      33.392  28.921  27.257  1.00  0.00     0.116 C 
BRANCH   2   3
ATOM      3  N   UNL A   1      33.502  30.296  27.744  1.00  0.00    -0.352 N 
ATOM      4  O   UNL A   1      34.552  32.072  28.690  1.00  0.00    -0.269 OA
ATOM      5  C   UNL A   1      34.615  30.922  28.265  1.00  0.00     0.251 C 
ATOM      6  H   UNL A   1      32.683  30.841  27.692  1.00  0.00     0.163 HD
BRANCH   5   7
ATOM      7  C   UNL A   1      35.866  30.143  28.356  1.00  0.00     0.039 A 
ATOM      8  C   UNL A   1      36.187  29.505  29.553  1.00  0.00     0.014 A 
ATOM      9  C   UNL A   1      36.792  30.208  27.314  1.00  0.00     0.014 A 
ATOM     10  C   UNL A   1      37.506  29.150  29.793  1.00  0.00     0.010 A 
ATOM     11  C   UNL A   1      38.092  29.735  27.519  1.00  0.00     0.010 A 
ATOM     12  C   UNL A   1      38.481  29.271  28.787  1.00  0.00    -0.014 A 
BRANCH  12  13
ATOM     13  C   UNL A   1      39.890  28.920  29.110  1.00  0.00     0.031 A 
ATOM     14  C   UNL A   1      40.747  29.818  29.968  1.00  0.00     0.074 A 
ATOM     15  C   UNL A   1      40.370  27.731  28.694  1.00  0.00     0.049 A 
ATOM     16  N   UNL A   1      41.972  29.624  30.390  1.00  0.00    -0.248 NA
ATOM     17  C   UNL A   1      40.166  31.099  30.406  1.00  0.00     0.031 C 
ATOM     18  C   UNL A   1      39.637  26.771  27.864  1.00  0.00     0.029 A 
ATOM     19  N   UNL A   1      41.561  27.103  28.953  1.00  0.00    -0.354 N 
ATOM     20  C   UNL A   1      42.325  30.771  31.093  1.00  0.00     0.074 A 
ATOM     21  C   UNL A   1      41.185  31.661  31.042  1.00  0.00     0.031 C 
ATOM     22  C   UNL A   1      40.352  25.642  27.762  1.00  0.00     0.029 A 
ATOM     23  C   UNL A   1      41.625  25.826  28.447  1.00  0.00     0.049 A 
ATOM     24  H   UNL A   1      42.296  27.525  29.452  1.00  0.00     0.167 HD
ATOM     25  C   UNL A   1      43.492  31.060  31.721  1.00  0.00     0.031 A 
ATOM     26  C   UNL A   1      42.600  24.902  28.518  1.00  0.00     0.031 A 
ATOM     27  C   UNL A   1      44.611  30.158  31.804  1.00  0.00     0.049 A 
ATOM     28  C   UNL A   1      43.870  25.235  29.239  1.00  0.00     0.074 A 
ATOM     29  C   UNL A   1      45.826  30.348  32.442  1.00  0.00     0.029 A 
ATOM     30  N   UNL A   1      44.653  28.892  31.239  1.00  0.00    -0.354 N 
ATOM     31  N   UNL A   1      44.182  26.331  29.887  1.00  0.00    -0.248 NA
ATOM     32  C   UNL A   1      44.921  24.211  29.231  1.00  0.00     0.031 C 
ATOM     33  C   UNL A   1      46.615  29.211  32.233  1.00  0.00     0.029 A 
ATOM     34  C   UNL A   1      45.875  28.295  31.503  1.00  0.00     0.049 A 
ATOM     35  H   UNL A   1      43.921  28.478  30.728  1.00  0.00     0.167 HD
ATOM     36  C   UNL A   1      45.469  26.128  30.368  1.00  0.00     0.074 A 
ATOM     37  C   UNL A   1      45.864  24.795  29.958  1.00  0.00     0.031 C 
ATOM     38  C   UNL A   1      46.256  26.974  31.078  1.00  0.00     0.031 A 
BRANCH  25  39
ATOM     39  C   UNL A   1      43.637  32.427  32.338  1.00  0.00    -0.014 A 
ATOM     40  C   UNL A   1      44.084  33.530  31.589  1.00  0.00     0.010 A 
ATOM     41  C   UNL A   1      43.275  32.617  33.684  1.00  0.00     0.010 A 
ATOM     42  C   UNL A   1      44.202  34.789  32.187  1.00  0.00     0.020 A 
ATOM     43  C   UNL A   1      43.370  33.878  34.280  1.00  0.00     0.020 A 
ATOM     44  C   UNL A   1      43.852  34.954  33.531  1.00  0.00     0.054 A 
BRANCH  44  45
ATOM     45  S   UNL A   1      43.999  36.599  34.282  1.00  0.00     0.124 S 
ATOM     46  O   UNL A   1      45.235  37.094  33.679  1.00  0.00    -0.237 OA
ATOM     47  O   UNL A   1      42.777  37.267  33.843  1.00  0.00    -0.237 OA
ATOM     48  O   UNL A   1      44.072  36.320  35.715  1.00  0.00    -0.744 OA
ENDBRANCH  44  45
ENDBRANCH  25  39
BRANCH  26  49
ATOM     49  C   UNL A   1      42.399  23.577  27.875  1.00  0.00    -0.014 A 
ATOM     50  C   UNL A   1      43.029  23.272  26.657  1.00  0.00     0.010 A 
ATOM     51  C   UNL A   1      41.615  22.596  28.510  1.00  0.00     0.010 A 
ATOM     52  C   UNL A   1      42.878  22.007  26.083  1.00  0.00     0.020 A 
ATOM     53  C   UNL A   1      41.486  21.321  27.953  1.00  0.00     0.020 A 
ATOM     54  C   UNL A   1      42.112  21.038  26.738  1.00  0.00     0.054 A 
BRANCH  54  55
ATOM     55  S   UNL A   1      41.995  19.374  26.023  1.00  0.00     0.124 S 
ATOM     56  O   UNL A   1      40.560  19.244  25.794  1.00  0.00    -0.237 OA
ATOM     57  O   UNL A   1      42.822  19.483  24.824  1.00  0.00    -0.237 OA
ATOM     58  O   UNL A   1      42.546  18.517  27.071  1.00  0.00    -0.744 OA
ENDBRANCH  54  55
ENDBRANCH  26  49
BRANCH  38  59
ATOM     59  C   UNL A   1      47.614  26.465  31.468  1.00  0.00    -0.014 A 
ATOM     60  C   UNL A   1      48.721  26.630  30.616  1.00  0.00     0.010 A 
ATOM     61  C   UNL A   1      47.788  25.826  32.708  1.00  0.00     0.010 A 
ATOM     62  C   UNL A   1      49.972  26.126  30.981  1.00  0.00     0.020 A 
ATOM     63  C   UNL A   1      49.042  25.339  33.085  1.00  0.00     0.020 A 
ATOM     64  C   UNL A   1      50.122  25.476  32.210  1.00  0.00     0.054 A 
BRANCH  64  65
ATOM     65  S   UNL A   1      51.756  24.840  32.672  1.00  0.00     0.124 S 
ATOM     66  O   UNL A   1      51.630  23.421  32.351  1.00  0.00    -0.237 OA
ATOM     67  O   UNL A   1      52.657  25.601  31.809  1.00  0.00    -0.237 OA
ATOM     68  O   UNL A   1      51.857  25.152  34.095  1.00  0.00    -0.744 OA
ENDBRANCH  64  65
ENDBRANCH  38  59
ENDBRANCH  12  13
ENDBRANCH   5   7
ENDBRANCH   2   3
ENDBRANCH   1   2
BRANCH   1  69
ATOM     69  C   UNL A   1      31.935  27.875  25.451  1.00  0.00     0.023 C 
BRANCH  69  70
ATOM     70  C   UNL A   1      32.306  26.433  25.118  1.00  0.00     0.116 C 
BRANCH  70  71
ATOM     71  N   UNL A   1      32.755  26.341  23.751  1.00  0.00    -0.356 N 
ATOM     72  C   UNL A   1      33.435  25.355  23.111  1.00  0.00     0.223 C 
ATOM     73  H   UNL A   1      32.534  27.119  23.190  1.00  0.00     0.163 HD
ATOM     74  O   UNL A   1      33.825  25.636  21.973  1.00  0.00    -0.275 OA
BRANCH  72  75
ATOM     75  C   UNL A   1      33.673  23.958  23.732  1.00  0.00     0.087 C 
BRANCH  75  76
ATOM     76  C   UNL A   1      32.425  23.122  23.309  1.00  0.00     0.049 C 
BRANCH  76  77
ATOM     77  C   UNL A   1      32.414  21.641  23.596  1.00  0.00    -0.044 A 
ATOM     78  C   UNL A   1      32.638  21.197  24.913  1.00  0.00     0.004 A 
ATOM     79  C   UNL A   1      32.237  20.693  22.585  1.00  0.00     0.043 A 
ATOM     80  C   UNL A   1      32.682  19.836  25.217  1.00  0.00     0.003 A 
ATOM     81  C   UNL A   1      32.286  19.336  22.900  1.00  0.00     0.123 A 
ATOM     82  C   UNL A   1      32.507  18.900  24.203  1.00  0.00     0.039 A 
ATOM     83  F   UNL A   1      32.128  18.429  21.925  1.00  0.00    -0.207 F 
ENDBRANCH  76  77
ENDBRANCH  75  76
BRANCH  75  84
ATOM     84  C   UNL A   1      34.976  23.285  23.221  1.00  0.00     0.049 C 
BRANCH  84  85
ATOM     85  C   UNL A   1      36.082  22.943  24.207  1.00  0.00    -0.044 A 
ATOM     86  C   UNL A   1      36.646  23.865  25.102  1.00  0.00     0.004 A 
ATOM     87  C   UNL A   1      36.553  21.617  24.247  1.00  0.00     0.049 A 
ATOM     88  C   UNL A   1      37.730  23.501  25.915  1.00  0.00     0.004 A 
ATOM     89  C   UNL A   1      37.630  21.265  25.058  1.00  0.00     0.115 A 
ATOM     90  C   UNL A   1      38.236  22.202  25.882  1.00  0.00     0.046 A 
BRANCH  89  91
ATOM     91  O   UNL A   1      38.089  19.983  24.979  1.00  0.00    -0.508 OA
ATOM     92  H   UNL A   1      38.980  19.818  24.739  1.00  0.00     0.293 HD
ENDBRANCH  89  91
ENDBRANCH  84  85
ENDBRANCH  75  84
ENDBRANCH  72  75
ENDBRANCH  70  71
ENDBRANCH  69  70
ENDBRANCH   1  69
TORSDOF 19
ENDMDL
MODEL 2
REMARK VINA RESULT:     -11.0      1.117      8.227
REMARK SMILES O=C(NCCCCNC(=O)[C@H](Cc1cccc(O)c1)Cc1cccc(F)c1)c1ccc(-c2c3nc(c(-c4ccc(S(=O)(=O)[O-])cc4)c4ccc([nH]4)c(-c4ccc(S(=O)(=O)[O-])cc4)c4nc(c(-c5ccc(S(=O)(=O)[O-])cc5)c5ccc2[nH]5)C=C4)C=C3)cc1
REMARK SMILES IDX 5 1 4 2 3 3 1 4 2 5 28 7 29 8 87 9 30 10 86 11 31 12 32 13
REMARK SMILES IDX 33 14 80 15 34 16 85 17 79 18 81 19 35 20 84 21 78 22 77 23
REMARK SMILES IDX 36 25 66 26 47 27 65 28 48 29 51 30 64 31 82 32 49 33 50 34
REMARK SMILES IDX 63 36 83 37 52 38 37 39 38 40 46 41 39 42 45 43 40 44 41 45
REMARK SMILES IDX 42 46 43 47 44 48 67 49 68 50 76 51 69 52 75 53 70 54 71 55
REMARK SMILES IDX 72 56 73 57 74 58 53 59 54 60 62 61 55 62 61 63 56 64 57 65
REMARK SMILES IDX 58 66 59 67 60 68 6 69 7 70 8 71 9 72 10 74 11 75 20 76
REMARK SMILES IDX 21 77 22 78 27 79 23 80 25 81 24 82 26 83 12 84 13 85 14 86
REMARK SMILES IDX 19 87 15 88 17 89 16 90 18 91
REMARK H PARENT 3 6 81 24 51 35 8 73 18 92
REMARK Flexibility Score: inf
ROOT
ATOM      1  C   UNL A   1      31.954  28.194  27.271  1.00  0.00     0.023 C 
ENDROOT
BRANCH   1   2
ATOM      2  C   UNL A   1      33.372  28.720  27.416  1.00  0.00     0.116 C 
BRANCH   2   3
ATOM      3  N   UNL A   1      33.462  30.112  27.859  1.00  0.00    -0.352 N 
ATOM      4  O   UNL A   1      34.496  31.942  28.713  1.00  0.00    -0.269 OA
ATOM      5  C   UNL A   1      34.575  30.782  28.319  1.00  0.00     0.251 C 
ATOM      6  H   UNL A   1      32.627  30.632  27.822  1.00  0.00     0.163 HD
BRANCH   5   7
ATOM      7  C   UNL A   1      35.850  30.040  28.387  1.00  0.00     0.039 A 
ATOM      8  C   UNL A   1      36.236  29.453  29.591  1.00  0.00     0.014 A 
ATOM      9  C   UNL A   1      36.732  30.092  27.306  1.00  0.00     0.014 A 
ATOM     10  C   UNL A   1      37.572  29.142  29.790  1.00  0.00     0.010 A 
ATOM     11  C   UNL A   1      38.051  29.660  27.475  1.00  0.00     0.010 A 
ATOM     12  C   UNL A   1      38.502  29.252  28.740  1.00  0.00    -0.014 A 
BRANCH  12  13
ATOM     13  C   UNL A   1      39.933  28.950  29.018  1.00  0.00     0.031 A 
ATOM     14  C   UNL A   1      40.561  27.651  28.577  1.00  0.00     0.074 A 
ATOM     15  C   UNL A   1      40.692  29.902  29.596  1.00  0.00     0.049 A 
ATOM     16  N   UNL A   1      41.808  27.264  28.689  1.00  0.00    -0.248 NA
ATOM     17  C   UNL A   1      39.687  26.653  27.938  1.00  0.00     0.031 C 
ATOM     18  C   UNL A   1      40.202  31.203  30.061  1.00  0.00     0.029 A 
ATOM     19  N   UNL A   1      42.040  29.948  29.844  1.00  0.00    -0.354 N 
ATOM     20  C   UNL A   1      41.858  25.968  28.187  1.00  0.00     0.074 A 
ATOM     21  C   UNL A   1      40.515  25.630  27.769  1.00  0.00     0.031 C 
ATOM     22  C   UNL A   1      41.244  31.953  30.447  1.00  0.00     0.029 A 
ATOM     23  C   UNL A   1      42.462  31.160  30.336  1.00  0.00     0.049 A 
ATOM     24  H   UNL A   1      42.644  29.189  29.684  1.00  0.00     0.167 HD
ATOM     25  C   UNL A   1      42.922  25.134  28.085  1.00  0.00     0.031 A 
ATOM     26  C   UNL A   1      43.692  31.592  30.670  1.00  0.00     0.031 A 
ATOM     27  C   UNL A   1      44.266  25.486  28.466  1.00  0.00     0.049 A 
ATOM     28  C   UNL A   1      44.856  30.660  30.524  1.00  0.00     0.074 A 
ATOM     29  C   UNL A   1      45.416  24.720  28.374  1.00  0.00     0.029 A 
ATOM     30  N   UNL A   1      44.644  26.708  29.003  1.00  0.00    -0.354 N 
ATOM     31  N   UNL A   1      44.874  29.436  30.055  1.00  0.00    -0.248 NA
ATOM     32  C   UNL A   1      46.163  31.165  30.960  1.00  0.00     0.031 C 
ATOM     33  C   UNL A   1      46.483  25.466  28.889  1.00  0.00     0.029 A 
ATOM     34  C   UNL A   1      46.005  26.713  29.259  1.00  0.00     0.049 A 
ATOM     35  H   UNL A   1      44.034  27.461  29.174  1.00  0.00     0.167 HD
ATOM     36  C   UNL A   1      46.197  29.023  30.138  1.00  0.00     0.074 A 
ATOM     37  C   UNL A   1      46.952  30.137  30.677  1.00  0.00     0.031 C 
ATOM     38  C   UNL A   1      46.737  27.825  29.806  1.00  0.00     0.031 A 
BRANCH  25  39
ATOM     39  C   UNL A   1      42.674  23.738  27.576  1.00  0.00    -0.014 A 
ATOM     40  C   UNL A   1      42.800  23.417  26.213  1.00  0.00     0.010 A 
ATOM     41  C   UNL A   1      42.351  22.718  28.491  1.00  0.00     0.010 A 
ATOM     42  C   UNL A   1      42.570  22.110  25.770  1.00  0.00     0.020 A 
ATOM     43  C   UNL A   1      42.143  21.406  28.056  1.00  0.00     0.020 A 
ATOM     44  C   UNL A   1      42.235  21.114  26.694  1.00  0.00     0.054 A 
BRANCH  44  45
ATOM     45  S   UNL A   1      41.956  19.423  26.099  1.00  0.00     0.124 S 
ATOM     46  O   UNL A   1      42.814  19.375  24.917  1.00  0.00    -0.237 OA
ATOM     47  O   UNL A   1      42.397  18.606  27.226  1.00  0.00    -0.237 OA
ATOM     48  O   UNL A   1      40.521  19.383  25.829  1.00  0.00    -0.744 OA
ENDBRANCH  44  45
ENDBRANCH  25  39
BRANCH  26  49
ATOM     49  C   UNL A   1      43.867  32.977  31.179  1.00  0.00    -0.014 A 
ATOM     50  C   UNL A   1      43.841  33.238  32.559  1.00  0.00     0.010 A 
ATOM     51  C   UNL A   1      44.113  34.034  30.283  1.00  0.00     0.010 A 
ATOM     52  C   UNL A   1      44.058  34.533  33.036  1.00  0.00     0.020 A 
ATOM     53  C   UNL A   1      44.358  35.324  30.758  1.00  0.00     0.020 A 
ATOM     54  C   UNL A   1      44.321  35.567  32.132  1.00  0.00     0.054 A 
BRANCH  54  55
ATOM     55  S   UNL A   1      44.683  37.226  32.771  1.00  0.00     0.124 S 
ATOM     56  O   UNL A   1      45.190  37.904  31.582  1.00  0.00    -0.237 OA
ATOM     57  O   UNL A   1      43.379  37.676  33.251  1.00  0.00    -0.237 OA
ATOM     58  O   UNL A   1      45.669  36.975  33.820  1.00  0.00    -0.744 OA
ENDBRANCH  54  55
ENDBRANCH  26  49
BRANCH  38  59
ATOM     59  C   UNL A   1      48.218  27.673  30.001  1.00  0.00    -0.014 A 
ATOM     60  C   UNL A   1      48.743  27.188  31.213  1.00  0.00     0.010 A 
ATOM     61  C   UNL A   1      49.096  28.009  28.956  1.00  0.00     0.010 A 
ATOM     62  C   UNL A   1      50.124  27.080  31.389  1.00  0.00     0.020 A 
ATOM     63  C   UNL A   1      50.477  27.883  29.121  1.00  0.00     0.020 A 
ATOM     64  C   UNL A   1      50.984  27.437  30.345  1.00  0.00     0.054 A 
BRANCH  64  65
ATOM     65  S   UNL A   1      52.773  27.278  30.588  1.00  0.00     0.124 S 
ATOM     66  O   UNL A   1      53.175  26.534  29.397  1.00  0.00    -0.237 OA
ATOM     67  O   UNL A   1      53.218  28.669  30.639  1.00  0.00    -0.237 OA
ATOM     68  O   UNL A   1      52.885  26.549  31.848  1.00  0.00    -0.744 OA
ENDBRANCH  64  65
ENDBRANCH  38  59
ENDBRANCH  12  13
ENDBRANCH   5   7
ENDBRANCH   2   3
ENDBRANCH   1   2
BRANCH   1  69
ATOM     69  C   UNL A   1      31.875  26.807  26.654  1.00  0.00     0.023 C 
BRANCH  69  70
ATOM     70  C   UNL A   1      33.116  26.347  25.895  1.00  0.00     0.116 C 
BRANCH  70  71
ATOM     71  N   UNL A   1      32.836  26.280  24.482  1.00  0.00    -0.356 N 
ATOM     72  C   UNL A   1      33.133  25.321  23.570  1.00  0.00     0.223 C 
ATOM     73  H   UNL A   1      32.351  27.056  24.120  1.00  0.00     0.163 HD
ATOM     74  O   UNL A   1      32.907  25.622  22.393  1.00  0.00    -0.275 OA
BRANCH  72  75
ATOM     75  C   UNL A   1      33.677  23.926  23.962  1.00  0.00     0.087 C 
BRANCH  75  76
ATOM     76  C   UNL A   1      32.650  22.920  23.353  1.00  0.00     0.049 C 
BRANCH  76  77
ATOM     77  C   UNL A   1      32.646  21.497  23.856  1.00  0.00    -0.044 A 
ATOM     78  C   UNL A   1      32.998  21.243  25.195  1.00  0.00     0.004 A 
ATOM     79  C   UNL A   1      32.350  20.417  23.020  1.00  0.00     0.043 A 
ATOM     80  C   UNL A   1      33.052  19.940  25.692  1.00  0.00     0.003 A 
ATOM     81  C   UNL A   1      32.409  19.120  23.527  1.00  0.00     0.123 A 
ATOM     82  C   UNL A   1      32.757  18.873  24.851  1.00  0.00     0.039 A 
ATOM     83  F   UNL A   1      32.136  18.086  22.719  1.00  0.00    -0.207 F 
ENDBRANCH  76  77
ENDBRANCH  75  76
BRANCH  75  84
ATOM     84  C   UNL A   1      35.100  23.654  23.405  1.00  0.00     0.049 C 
BRANCH  84  85
ATOM     85  C   UNL A   1      36.186  23.139  24.337  1.00  0.00    -0.044 A 
ATOM     86  C   UNL A   1      36.856  23.938  25.275  1.00  0.00     0.004 A 
ATOM     87  C   UNL A   1      36.524  21.774  24.275  1.00  0.00     0.049 A 
ATOM     88  C   UNL A   1      37.914  23.416  26.034  1.00  0.00     0.004 A 
ATOM     89  C   UNL A   1      37.577  21.264  25.033  1.00  0.00     0.115 A 
ATOM     90  C   UNL A   1      38.289  22.078  25.901  1.00  0.00     0.046 A 
BRANCH  89  91
ATOM     91  O   UNL A   1      37.906  19.952  24.857  1.00  0.00    -0.508 OA
ATOM     92  H   UNL A   1      38.208  19.652  24.022  1.00  0.00     0.293 HD
ENDBRANCH  89  91
ENDBRANCH  84  85
ENDBRANCH  75  84
ENDBRANCH  72  75
ENDBRANCH  70  71
ENDBRANCH  69  70
ENDBRANCH   1  69
TORSDOF 19
ENDMDL
MODEL 3
REMARK VINA RESULT:     -11.0      1.595      8.540
REMARK SMILES O=C(NCCCCNC(=O)[C@H](Cc1cccc(O)c1)Cc1cccc(F)c1)c1ccc(-c2c3nc(c(-c4ccc(S(=O)(=O)[O-])cc4)c4ccc([nH]4)c(-c4ccc(S(=O)(=O)[O-])cc4)c4nc(c(-c5ccc(S(=O)(=O)[O-])cc5)c5ccc2[nH]5)C=C4)C=C3)cc1
REMARK SMILES IDX 5 1 4 2 3 3 1 4 2 5 28 7 29 8 87 9 30 10 86 11 31 12 32 13
REMARK SMILES IDX 33 14 80 15 34 16 85 17 79 18 81 19 35 20 84 21 78 22 77 23
REMARK SMILES IDX 36 25 66 26 47 27 65 28 48 29 51 30 64 31 82 32 49 33 50 34
REMARK SMILES IDX 63 36 83 37 52 38 37 39 38 40 46 41 39 42 45 43 40 44 41 45
REMARK SMILES IDX 42 46 43 47 44 48 67 49 68 50 76 51 69 52 75 53 70 54 71 55
REMARK SMILES IDX 72 56 73 57 74 58 53 59 54 60 62 61 55 62 61 63 56 64 57 65
REMARK SMILES IDX 58 66 59 67 60 68 6 69 7 70 8 71 9 72 10 74 11 75 20 76
REMARK SMILES IDX 21 77 22 78 27 79 23 80 25 81 24 82 26 83 12 84 13 85 14 86
REMARK SMILES IDX 19 87 15 88 17 89 16 90 18 91
REMARK H PARENT 3 6 81 24 51 35 8 73 18 92
REMARK Flexibility Score: inf
ROOT
ATOM      1  C   UNL A   1      33.908  28.564  25.724  1.00  0.00     0.023 C 
ENDROOT
BRANCH   1   2
ATOM      2  C   UNL A   1      33.585  28.707  27.202  1.00  0.00     0.116 C 
BRANCH   2   3
ATOM      3  N   UNL A   1      33.660  30.076  27.711  1.00  0.00    -0.352 N 
ATOM      4  O   UNL A   1      34.663  31.859  28.692  1.00  0.00    -0.269 OA
ATOM      5  C   UNL A   1      34.755  30.719  28.250  1.00  0.00     0.251 C 
ATOM      6  H   UNL A   1      32.829  30.602  27.662  1.00  0.00     0.163 HD
BRANCH   5   7
ATOM      7  C   UNL A   1      36.023  29.967  28.338  1.00  0.00     0.039 A 
ATOM      8  C   UNL A   1      36.366  29.344  29.537  1.00  0.00     0.014 A 
ATOM      9  C   UNL A   1      36.940  30.044  27.288  1.00  0.00     0.014 A 
ATOM     10  C   UNL A   1      37.694  29.019  29.770  1.00  0.00     0.010 A 
ATOM     11  C   UNL A   1      38.251  29.600  27.488  1.00  0.00     0.010 A 
ATOM     12  C   UNL A   1      38.658  29.153  28.756  1.00  0.00    -0.014 A 
BRANCH  12  13
ATOM     13  C   UNL A   1      40.077  28.835  29.071  1.00  0.00     0.031 A 
ATOM     14  C   UNL A   1      40.709  27.537  28.629  1.00  0.00     0.074 A 
ATOM     15  C   UNL A   1      40.827  29.771  29.687  1.00  0.00     0.049 A 
ATOM     16  N   UNL A   1      41.949  27.139  28.772  1.00  0.00    -0.248 NA
ATOM     17  C   UNL A   1      39.846  26.558  27.947  1.00  0.00     0.031 C 
ATOM     18  C   UNL A   1      40.333  31.069  30.158  1.00  0.00     0.029 A 
ATOM     19  N   UNL A   1      42.166  29.802  29.976  1.00  0.00    -0.354 N 
ATOM     20  C   UNL A   1      42.003  25.851  28.250  1.00  0.00     0.074 A 
ATOM     21  C   UNL A   1      40.670  25.530  27.786  1.00  0.00     0.031 C 
ATOM     22  C   UNL A   1      41.368  31.803  30.587  1.00  0.00     0.029 A 
ATOM     23  C   UNL A   1      42.583  31.003  30.500  1.00  0.00     0.049 A 
ATOM     24  H   UNL A   1      42.769  29.040  29.822  1.00  0.00     0.167 HD
ATOM     25  C   UNL A   1      43.063  25.009  28.167  1.00  0.00     0.031 A 
ATOM     26  C   UNL A   1      43.806  31.419  30.878  1.00  0.00     0.031 A 
ATOM     27  C   UNL A   1      44.398  25.344  28.593  1.00  0.00     0.049 A 
ATOM     28  C   UNL A   1      44.966  30.480  30.752  1.00  0.00     0.074 A 
ATOM     29  C   UNL A   1      45.544  24.570  28.524  1.00  0.00     0.029 A 
ATOM     30  N   UNL A   1      44.769  26.554  29.161  1.00  0.00    -0.354 N 
ATOM     31  N   UNL A   1      44.988  29.263  30.264  1.00  0.00    -0.248 NA
ATOM     32  C   UNL A   1      46.263  30.967  31.236  1.00  0.00     0.031 C 
ATOM     33  C   UNL A   1      46.600  25.298  29.083  1.00  0.00     0.029 A 
ATOM     34  C   UNL A   1      46.122  26.543  29.458  1.00  0.00     0.049 A 
ATOM     35  H   UNL A   1      44.160  27.309  29.327  1.00  0.00     0.167 HD
ATOM     36  C   UNL A   1      46.306  28.838  30.380  1.00  0.00     0.074 A 
ATOM     37  C   UNL A   1      47.052  29.937  30.959  1.00  0.00     0.031 C 
ATOM     38  C   UNL A   1      46.845  27.640  30.045  1.00  0.00     0.031 A 
BRANCH  25  39
ATOM     39  C   UNL A   1      42.819  23.623  27.628  1.00  0.00    -0.014 A 
ATOM     40  C   UNL A   1      43.203  23.261  26.324  1.00  0.00     0.010 A 
ATOM     41  C   UNL A   1      42.233  22.653  28.462  1.00  0.00     0.010 A 
ATOM     42  C   UNL A   1      42.971  21.965  25.854  1.00  0.00     0.020 A 
ATOM     43  C   UNL A   1      42.020  21.350  28.004  1.00  0.00     0.020 A 
ATOM     44  C   UNL A   1      42.373  21.019  26.694  1.00  0.00     0.054 A 
BRANCH  44  45
ATOM     45  S   UNL A   1      42.094  19.339  26.067  1.00  0.00     0.124 S 
ATOM     46  O   UNL A   1      42.873  19.348  24.831  1.00  0.00    -0.237 OA
ATOM     47  O   UNL A   1      42.627  18.501  27.138  1.00  0.00    -0.237 OA
ATOM     48  O   UNL A   1      40.645  19.272  25.891  1.00  0.00    -0.744 OA
ENDBRANCH  44  45
ENDBRANCH  25  39
BRANCH  26  49
ATOM     49  C   UNL A   1      43.976  32.794  31.415  1.00  0.00    -0.014 A 
ATOM     50  C   UNL A   1      44.207  33.875  30.548  1.00  0.00     0.010 A 
ATOM     51  C   UNL A   1      43.854  33.033  32.796  1.00  0.00     0.010 A 
ATOM     52  C   UNL A   1      44.314  35.173  31.053  1.00  0.00     0.020 A 
ATOM     53  C   UNL A   1      43.932  34.333  33.301  1.00  0.00     0.020 A 
ATOM     54  C   UNL A   1      44.170  35.394  32.426  1.00  0.00     0.054 A 
BRANCH  54  55
ATOM     55  S   UNL A   1      44.227  37.094  33.056  1.00  0.00     0.124 S 
ATOM     56  O   UNL A   1      42.993  37.172  33.832  1.00  0.00    -0.237 OA
ATOM     57  O   UNL A   1      45.465  37.106  33.832  1.00  0.00    -0.237 OA
ATOM     58  O   UNL A   1      44.258  37.904  31.840  1.00  0.00    -0.744 OA
ENDBRANCH  54  55
ENDBRANCH  26  49
BRANCH  38  59
ATOM     59  C   UNL A   1      48.319  27.473  30.282  1.00  0.00    -0.014 A 
ATOM     60  C   UNL A   1      49.259  27.915  29.333  1.00  0.00     0.010 A 
ATOM     61  C   UNL A   1      48.770  26.879  31.473  1.00  0.00     0.010 A 
ATOM     62  C   UNL A   1      50.626  27.726  29.555  1.00  0.00     0.020 A 
ATOM     63  C   UNL A   1      50.136  26.708  31.708  1.00  0.00     0.020 A 
ATOM     64  C   UNL A   1      51.055  27.115  30.738  1.00  0.00     0.054 A 
BRANCH  64  65
ATOM     65  S   UNL A   1      52.833  26.891  31.014  1.00  0.00     0.124 S 
ATOM     66  O   UNL A   1      52.864  25.650  31.784  1.00  0.00    -0.237 OA
ATOM     67  O   UNL A   1      53.363  26.800  29.655  1.00  0.00    -0.237 OA
ATOM     68  O   UNL A   1      53.221  28.092  31.748  1.00  0.00    -0.744 OA
ENDBRANCH  64  65
ENDBRANCH  38  59
ENDBRANCH  12  13
ENDBRANCH   5   7
ENDBRANCH   2   3
ENDBRANCH   1   2
BRANCH   1  69
ATOM     69  C   UNL A   1      33.036  27.551  25.001  1.00  0.00     0.023 C 
BRANCH  69  70
ATOM     70  C   UNL A   1      33.371  26.085  25.259  1.00  0.00     0.116 C 
BRANCH  70  71
ATOM     71  N   UNL A   1      32.474  25.540  26.249  1.00  0.00    -0.356 N 
ATOM     72  C   UNL A   1      32.069  24.262  26.462  1.00  0.00     0.223 C 
ATOM     73  H   UNL A   1      32.094  26.201  26.870  1.00  0.00     0.163 HD
ATOM     74  O   UNL A   1      31.161  24.128  27.289  1.00  0.00    -0.275 OA
BRANCH  72  75
ATOM     75  C   UNL A   1      32.719  23.045  25.762  1.00  0.00     0.087 C 
BRANCH  75  76
ATOM     76  C   UNL A   1      33.866  22.604  26.725  1.00  0.00     0.049 C 
BRANCH  76  77
ATOM     77  C   UNL A   1      35.263  22.468  26.172  1.00  0.00    -0.044 A 
ATOM     78  C   UNL A   1      36.079  23.611  26.084  1.00  0.00     0.004 A 
ATOM     79  C   UNL A   1      35.757  21.248  25.700  1.00  0.00     0.043 A 
ATOM     80  C   UNL A   1      37.361  23.541  25.538  1.00  0.00     0.003 A 
ATOM     81  C   UNL A   1      37.038  21.191  25.155  1.00  0.00     0.123 A 
ATOM     82  C   UNL A   1      37.842  22.323  25.069  1.00  0.00     0.039 A 
ATOM     83  F   UNL A   1      37.503  20.022  24.692  1.00  0.00    -0.207 F 
ENDBRANCH  76  77
ENDBRANCH  75  76
BRANCH  75  84
ATOM     84  C   UNL A   1      31.723  21.878  25.532  1.00  0.00     0.049 C 
BRANCH  84  85
ATOM     85  C   UNL A   1      32.211  20.587  24.894  1.00  0.00    -0.044 A 
ATOM     86  C   UNL A   1      32.328  20.394  23.509  1.00  0.00     0.004 A 
ATOM     87  C   UNL A   1      32.594  19.529  25.739  1.00  0.00     0.049 A 
ATOM     88  C   UNL A   1      32.695  19.143  22.990  1.00  0.00     0.004 A 
ATOM     89  C   UNL A   1      32.956  18.289  25.214  1.00  0.00     0.115 A 
ATOM     90  C   UNL A   1      32.993  18.081  23.843  1.00  0.00     0.046 A 
BRANCH  89  91
ATOM     91  O   UNL A   1      33.229  17.285  26.094  1.00  0.00    -0.508 OA
ATOM     92  H   UNL A   1      33.238  17.458  27.016  1.00  0.00     0.293 HD
ENDBRANCH  89  91
ENDBRANCH  84  85
ENDBRANCH  75  84
ENDBRANCH  72  75
ENDBRANCH  70  71
ENDBRANCH  69  70
ENDBRANCH   1  69
TORSDOF 19
ENDMDL
