MODEL 1
REMARK VINA RESULT:     -12.9      0.000      0.000
REMARK SMILES O=C(CCC(=O)N1CCc2[nH]c3ccc(F)cc3c2C1)NCCCCNC(=O)c1ccc(-c2c3nc(c(-c4ccc(S(=O)(=O)[O-])cc4)c4ccc([nH]4)c(-c4ccc(S(=O)(=O)[O-])cc4)c4nc(c(-c5ccc(S(=O)(=O)[O-])cc5)c5ccc2[nH]5)C=C4)C=C3)cc1
REMARK SMILES IDX 23 1 22 2 21 3 1 4 2 5 3 7 4 8 5 9 6 10 7 11 8 12 20 13 9 14
REMARK SMILES IDX 19 15 10 16 18 17 11 18 12 19 17 20 13 22 15 23 14 24 16 25
REMARK SMILES IDX 24 26 25 27 26 28 27 29 28 31 29 32 30 33 88 34 31 35 87 36
REMARK SMILES IDX 32 37 33 38 34 39 81 40 35 41 86 42 80 43 82 44 36 45 85 46
REMARK SMILES IDX 79 47 78 48 37 50 67 51 48 52 66 53 49 54 52 55 65 56 83 57
REMARK SMILES IDX 50 58 51 59 64 61 84 62 53 63 38 64 39 65 47 66 40 67 46 68
REMARK SMILES IDX 41 69 42 70 43 71 44 72 45 73 68 74 69 75 77 76 70 77 76 78
REMARK SMILES IDX 71 79 72 80 73 81 74 82 75 83 54 84 55 85 63 86 56 87 62 88
REMARK SMILES IDX 57 89 58 90 59 91 60 92 61 93
REMARK H PARENT 21 6 11 21 26 30 82 49 52 60
REMARK Flexibility Score: inf
ROOT
ATOM      1  C   UNL A   1      40.166  21.250  26.035  1.00  0.00     0.023 C 
ENDROOT
BRANCH   1   2
ATOM      2  C   UNL A   1      39.224  22.385  26.470  1.00  0.00     0.116 C 
BRANCH   2   3
ATOM      3  N   UNL A   1      38.394  22.986  25.430  1.00  0.00    -0.356 N 
ATOM      4  O   UNL A   1      36.531  21.774  26.013  1.00  0.00    -0.275 OA
ATOM      5  C   UNL A   1      37.031  22.699  25.378  1.00  0.00     0.220 C 
ATOM      6  H   UNL A   1      38.796  23.592  24.765  1.00  0.00     0.163 HD
BRANCH   5   7
ATOM      7  C   UNL A   1      36.167  23.673  24.560  1.00  0.00     0.110 C 
BRANCH   7   8
ATOM      8  C   UNL A   1      35.060  24.348  25.410  1.00  0.00     0.110 C 
BRANCH   8   9
ATOM      9  C   UNL A   1      33.525  24.334  25.092  1.00  0.00     0.223 C 
ATOM     10  O   UNL A   1      32.845  23.380  25.483  1.00  0.00    -0.275 OA
BRANCH   9  11
ATOM     11  N   UNL A   1      32.917  25.445  24.532  1.00  0.00    -0.338 N 
ATOM     12  C   UNL A   1      33.739  26.511  24.008  1.00  0.00     0.126 C 
ATOM     13  C   UNL A   1      31.429  25.497  24.233  1.00  0.00     0.157 C 
ATOM     14  C   UNL A   1      33.418  26.821  22.562  1.00  0.00     0.075 C 
ATOM     15  C   UNL A   1      31.081  26.722  23.390  1.00  0.00     0.000 A 
ATOM     16  C   UNL A   1      32.049  27.320  22.612  1.00  0.00     0.023 A 
ATOM     17  C   UNL A   1      29.899  27.515  23.182  1.00  0.00     0.008 A 
ATOM     18  N   UNL A   1      31.603  28.491  22.112  1.00  0.00    -0.358 N 
ATOM     19  C   UNL A   1      30.289  28.650  22.451  1.00  0.00     0.046 A 
ATOM     20  C   UNL A   1      28.541  27.427  23.542  1.00  0.00     0.050 A 
ATOM     21  H   UNL A   1      32.138  29.128  21.586  1.00  0.00     0.166 HD
ATOM     22  C   UNL A   1      29.446  29.722  22.141  1.00  0.00     0.030 A 
ATOM     23  C   UNL A   1      27.670  28.461  23.160  1.00  0.00     0.123 A 
ATOM     24  C   UNL A   1      28.110  29.599  22.496  1.00  0.00     0.041 A 
ATOM     25  F   UNL A   1      26.365  28.351  23.446  1.00  0.00    -0.207 F 
ENDBRANCH   9  11
ENDBRANCH   8   9
ENDBRANCH   7   8
ENDBRANCH   5   7
ENDBRANCH   2   3
ENDBRANCH   1   2
BRANCH   1  26
ATOM     26  C   UNL A   1      41.419  21.010  26.884  1.00  0.00     0.023 C 
BRANCH  26  27
ATOM     27  C   UNL A   1      42.743  21.321  26.197  1.00  0.00     0.116 C 
BRANCH  27  28
ATOM     28  N   UNL A   1      42.717  22.304  25.140  1.00  0.00    -0.352 N 
ATOM     29  C   UNL A   1      43.083  23.627  25.309  1.00  0.00     0.251 C 
ATOM     30  H   UNL A   1      42.423  22.016  24.246  1.00  0.00     0.163 HD
ATOM     31  O   UNL A   1      44.036  24.072  24.675  1.00  0.00    -0.269 OA
BRANCH  29  32
ATOM     32  C   UNL A   1      42.201  24.561  26.067  1.00  0.00     0.039 A 
ATOM     33  C   UNL A   1      41.354  25.503  25.482  1.00  0.00     0.014 A 
ATOM     34  C   UNL A   1      42.404  24.589  27.458  1.00  0.00     0.014 A 
ATOM     35  C   UNL A   1      40.926  26.592  26.221  1.00  0.00     0.010 A 
ATOM     36  C   UNL A   1      41.966  25.672  28.206  1.00  0.00     0.010 A 
ATOM     37  C   UNL A   1      41.333  26.721  27.548  1.00  0.00    -0.014 A 
BRANCH  37  38
ATOM     38  C   UNL A   1      41.175  28.033  28.156  1.00  0.00     0.031 A 
ATOM     39  C   UNL A   1      42.276  28.996  27.934  1.00  0.00     0.074 A 
ATOM     40  C   UNL A   1      40.109  28.336  28.924  1.00  0.00     0.049 A 
ATOM     41  N   UNL A   1      43.101  29.465  28.811  1.00  0.00    -0.248 NA
ATOM     42  C   UNL A   1      42.562  29.398  26.553  1.00  0.00     0.031 C 
ATOM     43  C   UNL A   1      38.857  27.589  29.084  1.00  0.00     0.029 A 
ATOM     44  N   UNL A   1      39.891  29.459  29.661  1.00  0.00    -0.354 N 
ATOM     45  C   UNL A   1      43.919  30.359  28.128  1.00  0.00     0.074 A 
ATOM     46  C   UNL A   1      43.628  30.181  26.726  1.00  0.00     0.031 C 
ATOM     47  C   UNL A   1      37.932  28.393  29.653  1.00  0.00     0.029 A 
ATOM     48  C   UNL A   1      38.568  29.642  30.034  1.00  0.00     0.049 A 
ATOM     49  H   UNL A   1      40.608  30.086  29.907  1.00  0.00     0.167 HD
ATOM     50  C   UNL A   1      44.662  31.303  28.771  1.00  0.00     0.031 A 
ATOM     51  C   UNL A   1      38.023  30.776  30.540  1.00  0.00     0.031 A 
ATOM     52  C   UNL A   1      44.790  31.026  30.177  1.00  0.00     0.049 A 
ATOM     53  C   UNL A   1      39.128  31.558  31.150  1.00  0.00     0.074 A 
ATOM     54  C   UNL A   1      45.359  30.001  30.908  1.00  0.00     0.029 A 
ATOM     55  N   UNL A   1      43.959  31.694  31.045  1.00  0.00    -0.354 N 
ATOM     56  N   UNL A   1      39.777  31.165  32.211  1.00  0.00    -0.248 NA
ATOM     57  C   UNL A   1      39.809  32.554  30.337  1.00  0.00     0.031 C 
ATOM     58  C   UNL A   1      44.485  29.811  32.015  1.00  0.00     0.029 A 
ATOM     59  C   UNL A   1      43.472  30.770  31.934  1.00  0.00     0.049 A 
ATOM     60  H   UNL A   1      43.753  32.657  31.031  1.00  0.00     0.167 HD
ATOM     61  C   UNL A   1      41.098  31.513  31.966  1.00  0.00     0.074 A 
ATOM     62  C   UNL A   1      41.038  32.456  30.851  1.00  0.00     0.031 C 
ATOM     63  C   UNL A   1      42.134  30.797  32.497  1.00  0.00     0.031 A 
BRANCH  50  64
ATOM     64  C   UNL A   1      45.035  32.631  28.170  1.00  0.00    -0.014 A 
ATOM     65  C   UNL A   1      44.136  33.715  28.107  1.00  0.00     0.010 A 
ATOM     66  C   UNL A   1      46.385  32.902  27.867  1.00  0.00     0.010 A 
ATOM     67  C   UNL A   1      44.545  34.998  27.741  1.00  0.00     0.020 A 
ATOM     68  C   UNL A   1      46.816  34.198  27.542  1.00  0.00     0.020 A 
ATOM     69  C   UNL A   1      45.888  35.236  27.478  1.00  0.00     0.054 A 
BRANCH  69  70
ATOM     70  S   UNL A   1      46.396  36.939  27.137  1.00  0.00     0.124 S 
ATOM     71  O   UNL A   1      46.919  36.830  25.778  1.00  0.00    -0.237 OA
ATOM     72  O   UNL A   1      45.140  37.671  27.274  1.00  0.00    -0.237 OA
ATOM     73  O   UNL A   1      47.390  37.212  28.171  1.00  0.00    -0.744 OA
ENDBRANCH  69  70
ENDBRANCH  50  64
BRANCH  51  74
ATOM     74  C   UNL A   1      36.752  31.399  30.087  1.00  0.00    -0.014 A 
ATOM     75  C   UNL A   1      36.663  31.962  28.796  1.00  0.00     0.010 A 
ATOM     76  C   UNL A   1      35.736  31.713  31.009  1.00  0.00     0.010 A 
ATOM     77  C   UNL A   1      35.658  32.873  28.464  1.00  0.00     0.020 A 
ATOM     78  C   UNL A   1      34.724  32.632  30.685  1.00  0.00     0.020 A 
ATOM     79  C   UNL A   1      34.719  33.237  29.426  1.00  0.00     0.054 A 
BRANCH  79  80
ATOM     80  S   UNL A   1      33.567  34.583  29.032  1.00  0.00     0.124 S 
ATOM     81  O   UNL A   1      34.459  35.569  28.416  1.00  0.00    -0.237 OA
ATOM     82  O   UNL A   1      32.630  33.934  28.111  1.00  0.00    -0.237 OA
ATOM     83  O   UNL A   1      33.013  34.959  30.319  1.00  0.00    -0.744 OA
ENDBRANCH  79  80
ENDBRANCH  51  74
BRANCH  63  84
ATOM     84  C   UNL A   1      41.837  29.743  33.549  1.00  0.00    -0.014 A 
ATOM     85  C   UNL A   1      42.063  30.075  34.898  1.00  0.00     0.010 A 
ATOM     86  C   UNL A   1      41.546  28.399  33.237  1.00  0.00     0.010 A 
ATOM     87  C   UNL A   1      42.041  29.097  35.897  1.00  0.00     0.020 A 
ATOM     88  C   UNL A   1      41.493  27.416  34.239  1.00  0.00     0.020 A 
ATOM     89  C   UNL A   1      41.769  27.770  35.560  1.00  0.00     0.054 A 
BRANCH  89  90
ATOM     90  S   UNL A   1      41.816  26.520  36.874  1.00  0.00     0.124 S 
ATOM     91  O   UNL A   1      41.912  25.275  36.114  1.00  0.00    -0.237 OA
ATOM     92  O   UNL A   1      43.015  26.885  37.626  1.00  0.00    -0.237 OA
ATOM     93  O   UNL A   1      40.556  26.709  37.590  1.00  0.00    -0.744 OA
ENDBRANCH  89  90
ENDBRANCH  63  84
ENDBRANCH  37  38
ENDBRANCH  29  32
ENDBRANCH  27  28
ENDBRANCH  26  27
ENDBRANCH   1  26
TORSDOF 17
ENDMDL
MODEL 2
REMARK VINA RESULT:     -12.7      2.274      3.150
REMARK SMILES O=C(CCC(=O)N1CCc2[nH]c3ccc(F)cc3c2C1)NCCCCNC(=O)c1ccc(-c2c3nc(c(-c4ccc(S(=O)(=O)[O-])cc4)c4ccc([nH]4)c(-c4ccc(S(=O)(=O)[O-])cc4)c4nc(c(-c5ccc(S(=O)(=O)[O-])cc5)c5ccc2[nH]5)C=C4)C=C3)cc1
REMARK SMILES IDX 23 1 22 2 21 3 1 4 2 5 3 7 4 8 5 9 6 10 7 11 8 12 20 13 9 14
REMARK SMILES IDX 19 15 10 16 18 17 11 18 12 19 17 20 13 22 15 23 14 24 16 25
REMARK SMILES IDX 24 26 25 27 26 28 27 29 28 31 29 32 30 33 88 34 31 35 87 36
REMARK SMILES IDX 32 37 33 38 34 39 81 40 35 41 86 42 80 43 82 44 36 45 85 46
REMARK SMILES IDX 79 47 78 48 37 50 67 51 48 52 66 53 49 54 52 55 65 56 83 57
REMARK SMILES IDX 50 58 51 59 64 61 84 62 53 63 38 64 39 65 47 66 40 67 46 68
REMARK SMILES IDX 41 69 42 70 43 71 44 72 45 73 68 74 69 75 77 76 70 77 76 78
REMARK SMILES IDX 71 79 72 80 73 81 74 82 75 83 54 84 55 85 63 86 56 87 62 88
REMARK SMILES IDX 57 89 58 90 59 91 60 92 61 93
REMARK H PARENT 21 6 11 21 26 30 82 49 52 60
REMARK Flexibility Score: inf
ROOT
ATOM      1  C   UNL A   1      40.536  21.933  26.242  1.00  0.00     0.023 C 
ENDROOT
BRANCH   1   2
ATOM      2  C   UNL A   1      39.029  21.677  26.082  1.00  0.00     0.116 C 
BRANCH   2   3
ATOM      3  N   UNL A   1      38.145  22.830  26.236  1.00  0.00    -0.356 N 
ATOM      4  O   UNL A   1      37.135  22.511  24.197  1.00  0.00    -0.275 OA
ATOM      5  C   UNL A   1      37.153  23.074  25.289  1.00  0.00     0.220 C 
ATOM      6  H   UNL A   1      38.251  23.433  27.007  1.00  0.00     0.163 HD
BRANCH   5   7
ATOM      7  C   UNL A   1      36.018  24.014  25.728  1.00  0.00     0.110 C 
BRANCH   7   8
ATOM      8  C   UNL A   1      34.950  24.220  24.622  1.00  0.00     0.110 C 
BRANCH   8   9
ATOM      9  C   UNL A   1      33.423  24.478  24.861  1.00  0.00     0.223 C 
ATOM     10  O   UNL A   1      32.800  23.716  25.606  1.00  0.00    -0.275 OA
BRANCH   9  11
ATOM     11  N   UNL A   1      32.826  25.632  24.380  1.00  0.00    -0.338 N 
ATOM     12  C   UNL A   1      33.657  26.749  23.996  1.00  0.00     0.126 C 
ATOM     13  C   UNL A   1      31.353  25.699  24.021  1.00  0.00     0.157 C 
ATOM     14  C   UNL A   1      33.396  27.191  22.571  1.00  0.00     0.075 C 
ATOM     15  C   UNL A   1      31.026  26.995  23.281  1.00  0.00     0.000 A 
ATOM     16  C   UNL A   1      32.019  27.671  22.607  1.00  0.00     0.023 A 
ATOM     17  C   UNL A   1      29.845  27.793  23.095  1.00  0.00     0.008 A 
ATOM     18  N   UNL A   1      31.582  28.880  22.198  1.00  0.00    -0.358 N 
ATOM     19  C   UNL A   1      30.252  28.996  22.491  1.00  0.00     0.046 A 
ATOM     20  C   UNL A   1      28.473  27.661  23.384  1.00  0.00     0.050 A 
ATOM     21  H   UNL A   1      32.131  29.568  21.759  1.00  0.00     0.166 HD
ATOM     22  C   UNL A   1      29.410  30.085  22.245  1.00  0.00     0.030 A 
ATOM     23  C   UNL A   1      27.607  28.719  23.062  1.00  0.00     0.123 A 
ATOM     24  C   UNL A   1      28.062  29.918  22.527  1.00  0.00     0.041 A 
ATOM     25  F   UNL A   1      26.292  28.571  23.277  1.00  0.00    -0.207 F 
ENDBRANCH   9  11
ENDBRANCH   8   9
ENDBRANCH   7   8
ENDBRANCH   5   7
ENDBRANCH   2   3
ENDBRANCH   1   2
BRANCH   1  26
ATOM     26  C   UNL A   1      41.281  21.116  27.302  1.00  0.00     0.023 C 
BRANCH  26  27
ATOM     27  C   UNL A   1      42.032  19.897  26.779  1.00  0.00     0.116 C 
BRANCH  27  28
ATOM     28  N   UNL A   1      42.655  20.019  25.483  1.00  0.00    -0.352 N 
ATOM     29  C   UNL A   1      43.950  20.462  25.288  1.00  0.00     0.251 C 
ATOM     30  H   UNL A   1      42.127  19.771  24.689  1.00  0.00     0.163 HD
ATOM     31  O   UNL A   1      44.773  19.706  24.778  1.00  0.00    -0.269 OA
BRANCH  29  32
ATOM     32  C   UNL A   1      44.290  21.901  25.479  1.00  0.00     0.039 A 
ATOM     33  C   UNL A   1      45.168  22.387  26.450  1.00  0.00     0.014 A 
ATOM     34  C   UNL A   1      43.516  22.809  24.737  1.00  0.00     0.014 A 
ATOM     35  C   UNL A   1      45.089  23.712  26.843  1.00  0.00     0.010 A 
ATOM     36  C   UNL A   1      43.443  24.141  25.119  1.00  0.00     0.010 A 
ATOM     37  C   UNL A   1      44.145  24.547  26.249  1.00  0.00    -0.014 A 
BRANCH  37  38
ATOM     38  C   UNL A   1      43.849  25.794  26.937  1.00  0.00     0.031 A 
ATOM     39  C   UNL A   1      44.811  26.901  26.730  1.00  0.00     0.074 A 
ATOM     40  C   UNL A   1      42.788  25.918  27.758  1.00  0.00     0.049 A 
ATOM     41  N   UNL A   1      45.608  27.425  27.602  1.00  0.00    -0.248 NA
ATOM     42  C   UNL A   1      44.983  27.408  25.365  1.00  0.00     0.031 C 
ATOM     43  C   UNL A   1      41.649  25.010  27.921  1.00  0.00     0.029 A 
ATOM     44  N   UNL A   1      42.464  26.964  28.566  1.00  0.00    -0.354 N 
ATOM     45  C   UNL A   1      46.276  28.451  26.942  1.00  0.00     0.074 A 
ATOM     46  C   UNL A   1      45.949  28.310  25.544  1.00  0.00     0.031 C 
ATOM     47  C   UNL A   1      40.655  25.657  28.568  1.00  0.00     0.029 A 
ATOM     48  C   UNL A   1      41.145  26.956  28.998  1.00  0.00     0.049 A 
ATOM     49  H   UNL A   1      43.106  27.664  28.822  1.00  0.00     0.167 HD
ATOM     50  C   UNL A   1      46.922  29.447  27.611  1.00  0.00     0.031 A 
ATOM     51  C   UNL A   1      40.485  27.983  29.587  1.00  0.00     0.031 A 
ATOM     52  C   UNL A   1      47.145  29.115  28.994  1.00  0.00     0.049 A 
ATOM     53  C   UNL A   1      41.507  28.867  30.201  1.00  0.00     0.074 A 
ATOM     54  C   UNL A   1      47.869  28.135  29.643  1.00  0.00     0.029 A 
ATOM     55  N   UNL A   1      46.275  29.625  29.928  1.00  0.00    -0.354 N 
ATOM     56  N   UNL A   1      42.247  28.505  31.213  1.00  0.00    -0.248 NA
ATOM     57  C   UNL A   1      42.022  29.983  29.422  1.00  0.00     0.031 C 
ATOM     58  C   UNL A   1      47.075  27.776  30.768  1.00  0.00     0.029 A 
ATOM     59  C   UNL A   1      45.946  28.600  30.780  1.00  0.00     0.049 A 
ATOM     60  H   UNL A   1      45.948  30.553  29.977  1.00  0.00     0.167 HD
ATOM     61  C   UNL A   1      43.502  29.031  30.940  1.00  0.00     0.074 A 
ATOM     62  C   UNL A   1      43.275  30.017  29.884  1.00  0.00     0.031 C 
ATOM     63  C   UNL A   1      44.642  28.427  31.392  1.00  0.00     0.031 A 
BRANCH  50  64
ATOM     64  C   UNL A   1      47.098  30.841  27.075  1.00  0.00    -0.014 A 
ATOM     65  C   UNL A   1      46.008  31.685  26.778  1.00  0.00     0.010 A 
ATOM     66  C   UNL A   1      48.379  31.431  27.079  1.00  0.00     0.010 A 
ATOM     67  C   UNL A   1      46.176  33.038  26.480  1.00  0.00     0.020 A 
ATOM     68  C   UNL A   1      48.555  32.800  26.826  1.00  0.00     0.020 A 
ATOM     69  C   UNL A   1      47.449  33.592  26.523  1.00  0.00     0.054 A 
BRANCH  69  70
ATOM     70  S   UNL A   1      47.605  35.375  26.260  1.00  0.00     0.124 S 
ATOM     71  O   UNL A   1      48.555  35.433  25.152  1.00  0.00    -0.237 OA
ATOM     72  O   UNL A   1      46.235  35.764  25.938  1.00  0.00    -0.237 OA
ATOM     73  O   UNL A   1      48.106  35.867  27.541  1.00  0.00    -0.744 OA
ENDBRANCH  69  70
ENDBRANCH  50  64
BRANCH  51  74
ATOM     74  C   UNL A   1      39.127  28.461  29.217  1.00  0.00    -0.014 A 
ATOM     75  C   UNL A   1      38.924  29.127  27.990  1.00  0.00     0.010 A 
ATOM     76  C   UNL A   1      38.104  28.539  30.181  1.00  0.00     0.010 A 
ATOM     77  C   UNL A   1      37.793  29.916  27.765  1.00  0.00     0.020 A 
ATOM     78  C   UNL A   1      36.966  29.333  29.965  1.00  0.00     0.020 A 
ATOM     79  C   UNL A   1      36.840  30.050  28.772  1.00  0.00     0.054 A 
BRANCH  79  80
ATOM     80  S   UNL A   1      35.502  31.252  28.531  1.00  0.00     0.124 S 
ATOM     81  O   UNL A   1      35.191  31.632  29.912  1.00  0.00    -0.237 OA
ATOM     82  O   UNL A   1      36.156  32.293  27.734  1.00  0.00    -0.237 OA
ATOM     83  O   UNL A   1      34.472  30.497  27.843  1.00  0.00    -0.744 OA
ENDBRANCH  79  80
ENDBRANCH  51  74
BRANCH  63  84
ATOM     84  C   UNL A   1      44.525  27.290  32.391  1.00  0.00    -0.014 A 
ATOM     85  C   UNL A   1      44.673  25.974  31.915  1.00  0.00     0.010 A 
ATOM     86  C   UNL A   1      44.076  27.469  33.716  1.00  0.00     0.010 A 
ATOM     87  C   UNL A   1      44.348  24.874  32.715  1.00  0.00     0.020 A 
ATOM     88  C   UNL A   1      43.777  26.369  34.536  1.00  0.00     0.020 A 
ATOM     89  C   UNL A   1      43.888  25.078  34.018  1.00  0.00     0.054 A 
BRANCH  89  90
ATOM     90  S   UNL A   1      43.414  23.629  35.000  1.00  0.00     0.124 S 
ATOM     91  O   UNL A   1      42.097  24.014  35.503  1.00  0.00    -0.237 OA
ATOM     92  O   UNL A   1      43.412  22.553  34.011  1.00  0.00    -0.237 OA
ATOM     93  O   UNL A   1      44.458  23.531  36.018  1.00  0.00    -0.744 OA
ENDBRANCH  89  90
ENDBRANCH  63  84
ENDBRANCH  37  38
ENDBRANCH  29  32
ENDBRANCH  27  28
ENDBRANCH  26  27
ENDBRANCH   1  26
TORSDOF 17
ENDMDL
MODEL 3
REMARK VINA RESULT:     -12.6      2.039      2.334
REMARK SMILES O=C(CCC(=O)N1CCc2[nH]c3ccc(F)cc3c2C1)NCCCCNC(=O)c1ccc(-c2c3nc(c(-c4ccc(S(=O)(=O)[O-])cc4)c4ccc([nH]4)c(-c4ccc(S(=O)(=O)[O-])cc4)c4nc(c(-c5ccc(S(=O)(=O)[O-])cc5)c5ccc2[nH]5)C=C4)C=C3)cc1
REMARK SMILES IDX 23 1 22 2 21 3 1 4 2 5 3 7 4 8 5 9 6 10 7 11 8 12 20 13 9 14
REMARK SMILES IDX 19 15 10 16 18 17 11 18 12 19 17 20 13 22 15 23 14 24 16 25
REMARK SMILES IDX 24 26 25 27 26 28 27 29 28 31 29 32 30 33 88 34 31 35 87 36
REMARK SMILES IDX 32 37 33 38 34 39 81 40 35 41 86 42 80 43 82 44 36 45 85 46
REMARK SMILES IDX 79 47 78 48 37 50 67 51 48 52 66 53 49 54 52 55 65 56 83 57
REMARK SMILES IDX 50 58 51 59 64 61 84 62 53 63 38 64 39 65 47 66 40 67 46 68
REMARK SMILES IDX 41 69 42 70 43 71 44 72 45 73 68 74 69 75 77 76 70 77 76 78
REMARK SMILES IDX 71 79 72 80 73 81 74 82 75 83 54 84 55 85 63 86 56 87 62 88
REMARK SMILES IDX 57 89 58 90 59 91 60 92 61 93
REMARK H PARENT 21 6 11 21 26 30 82 49 52 60
REMARK Flexibility Score: inf
ROOT
ATOM      1  C   UNL A   1      40.910  22.381  25.944  1.00  0.00     0.023 C 
ENDROOT
BRANCH   1   2
ATOM      2  C   UNL A   1      39.624  22.264  26.778  1.00  0.00     0.116 C 
BRANCH   2   3
ATOM      3  N   UNL A   1      38.456  21.696  26.109  1.00  0.00    -0.356 N 
ATOM      4  O   UNL A   1      37.663  23.745  25.437  1.00  0.00    -0.275 OA
ATOM      5  C   UNL A   1      37.616  22.520  25.363  1.00  0.00     0.220 C 
ATOM      6  H   UNL A   1      38.263  20.733  26.184  1.00  0.00     0.163 HD
BRANCH   5   7
ATOM      7  C   UNL A   1      36.690  21.809  24.361  1.00  0.00     0.110 C 
BRANCH   7   8
ATOM      8  C   UNL A   1      35.629  22.761  23.749  1.00  0.00     0.110 C 
BRANCH   8   9
ATOM      9  C   UNL A   1      34.090  22.725  24.041  1.00  0.00     0.223 C 
ATOM     10  O   UNL A   1      33.490  21.650  23.944  1.00  0.00    -0.275 OA
BRANCH   9  11
ATOM     11  N   UNL A   1      33.452  23.839  24.561  1.00  0.00    -0.338 N 
ATOM     12  C   UNL A   1      32.009  23.870  24.603  1.00  0.00     0.126 C 
ATOM     13  C   UNL A   1      34.198  24.935  25.301  1.00  0.00     0.157 C 
ATOM     14  C   UNL A   1      31.484  24.130  26.000  1.00  0.00     0.075 C 
ATOM     15  C   UNL A   1      33.226  25.897  25.982  1.00  0.00     0.000 A 
ATOM     16  C   UNL A   1      31.952  25.478  26.298  1.00  0.00     0.023 A 
ATOM     17  C   UNL A   1      33.280  27.269  26.411  1.00  0.00     0.008 A 
ATOM     18  N   UNL A   1      31.193  26.519  26.700  1.00  0.00    -0.358 N 
ATOM     19  C   UNL A   1      31.973  27.639  26.771  1.00  0.00     0.046 A 
ATOM     20  C   UNL A   1      34.273  28.260  26.520  1.00  0.00     0.050 A 
ATOM     21  H   UNL A   1      30.232  26.478  26.910  1.00  0.00     0.166 HD
ATOM     22  C   UNL A   1      31.587  28.932  27.139  1.00  0.00     0.030 A 
ATOM     23  C   UNL A   1      33.908  29.539  26.970  1.00  0.00     0.123 A 
ATOM     24  C   UNL A   1      32.591  29.883  27.251  1.00  0.00     0.041 A 
ATOM     25  F   UNL A   1      34.860  30.468  27.135  1.00  0.00    -0.207 F 
ENDBRANCH   9  11
ENDBRANCH   8   9
ENDBRANCH   7   8
ENDBRANCH   5   7
ENDBRANCH   2   3
ENDBRANCH   1   2
BRANCH   1  26
ATOM     26  C   UNL A   1      42.049  21.408  26.264  1.00  0.00     0.023 C 
BRANCH  26  27
ATOM     27  C   UNL A   1      43.442  21.876  25.860  1.00  0.00     0.116 C 
BRANCH  27  28
ATOM     28  N   UNL A   1      43.518  22.969  24.920  1.00  0.00    -0.352 N 
ATOM     29  C   UNL A   1      43.870  24.260  25.265  1.00  0.00     0.251 C 
ATOM     30  H   UNL A   1      43.308  22.783  23.976  1.00  0.00     0.163 HD
ATOM     31  O   UNL A   1      44.880  24.759  24.775  1.00  0.00    -0.269 OA
BRANCH  29  32
ATOM     32  C   UNL A   1      42.924  25.117  26.036  1.00  0.00     0.039 A 
ATOM     33  C   UNL A   1      41.995  25.988  25.463  1.00  0.00     0.014 A 
ATOM     34  C   UNL A   1      43.141  25.160  27.425  1.00  0.00     0.014 A 
ATOM     35  C   UNL A   1      41.488  27.036  26.210  1.00  0.00     0.010 A 
ATOM     36  C   UNL A   1      42.624  26.203  28.180  1.00  0.00     0.010 A 
ATOM     37  C   UNL A   1      41.899  27.197  27.532  1.00  0.00    -0.014 A 
BRANCH  37  38
ATOM     38  C   UNL A   1      41.641  28.491  28.145  1.00  0.00     0.031 A 
ATOM     39  C   UNL A   1      42.702  29.512  27.994  1.00  0.00     0.074 A 
ATOM     40  C   UNL A   1      40.521  28.729  28.856  1.00  0.00     0.049 A 
ATOM     41  N   UNL A   1      43.453  30.010  28.919  1.00  0.00    -0.248 NA
ATOM     42  C   UNL A   1      43.040  29.947  26.635  1.00  0.00     0.031 C 
ATOM     43  C   UNL A   1      39.303  27.917  28.940  1.00  0.00     0.029 A 
ATOM     44  N   UNL A   1      40.207  29.829  29.593  1.00  0.00    -0.354 N 
ATOM     45  C   UNL A   1      44.259  30.954  28.292  1.00  0.00     0.074 A 
ATOM     46  C   UNL A   1      44.054  30.780  26.874  1.00  0.00     0.031 C 
ATOM     47  C   UNL A   1      38.308  28.665  29.466  1.00  0.00     0.029 A 
ATOM     48  C   UNL A   1      38.858  29.939  29.895  1.00  0.00     0.049 A 
ATOM     49  H   UNL A   1      40.876  30.489  29.884  1.00  0.00     0.167 HD
ATOM     50  C   UNL A   1      44.917  31.926  28.984  1.00  0.00     0.031 A 
ATOM     51  C   UNL A   1      38.228  31.037  30.383  1.00  0.00     0.031 A 
ATOM     52  C   UNL A   1      44.983  31.636  30.392  1.00  0.00     0.049 A 
ATOM     53  C   UNL A   1      39.257  31.866  31.061  1.00  0.00     0.074 A 
ATOM     54  C   UNL A   1      45.564  30.632  31.142  1.00  0.00     0.029 A 
ATOM     55  N   UNL A   1      44.074  32.249  31.220  1.00  0.00    -0.354 N 
ATOM     56  N   UNL A   1      39.868  31.492  32.151  1.00  0.00    -0.248 NA
ATOM     57  C   UNL A   1      39.928  32.906  30.297  1.00  0.00     0.031 C 
ATOM     58  C   UNL A   1      44.643  30.383  32.197  1.00  0.00     0.029 A 
ATOM     59  C   UNL A   1      43.587  31.289  32.072  1.00  0.00     0.049 A 
ATOM     60  H   UNL A   1      43.819  33.201  31.206  1.00  0.00     0.167 HD
ATOM     61  C   UNL A   1      41.180  31.910  31.982  1.00  0.00     0.074 A 
ATOM     62  C   UNL A   1      41.131  32.865  30.876  1.00  0.00     0.031 C 
ATOM     63  C   UNL A   1      42.222  31.241  32.562  1.00  0.00     0.031 A 
BRANCH  50  64
ATOM     64  C   UNL A   1      45.253  33.279  28.419  1.00  0.00    -0.014 A 
ATOM     65  C   UNL A   1      44.264  34.204  28.025  1.00  0.00     0.010 A 
ATOM     66  C   UNL A   1      46.579  33.753  28.491  1.00  0.00     0.010 A 
ATOM     67  C   UNL A   1      44.573  35.525  27.699  1.00  0.00     0.020 A 
ATOM     68  C   UNL A   1      46.893  35.092  28.209  1.00  0.00     0.020 A 
ATOM     69  C   UNL A   1      45.885  35.967  27.810  1.00  0.00     0.054 A 
BRANCH  69  70
ATOM     70  S   UNL A   1      46.218  37.718  27.505  1.00  0.00     0.124 S 
ATOM     71  O   UNL A   1      47.074  38.063  28.637  1.00  0.00    -0.237 OA
ATOM     72  O   UNL A   1      46.877  37.687  26.202  1.00  0.00    -0.237 OA
ATOM     73  O   UNL A   1      44.891  38.326  27.516  1.00  0.00    -0.744 OA
ENDBRANCH  69  70
ENDBRANCH  50  64
BRANCH  51  74
ATOM     74  C   UNL A   1      36.953  31.601  29.868  1.00  0.00    -0.014 A 
ATOM     75  C   UNL A   1      36.953  32.392  28.699  1.00  0.00     0.010 A 
ATOM     76  C   UNL A   1      35.799  31.622  30.674  1.00  0.00     0.010 A 
ATOM     77  C   UNL A   1      35.886  33.241  28.393  1.00  0.00     0.020 A 
ATOM     78  C   UNL A   1      34.724  32.476  30.374  1.00  0.00     0.020 A 
ATOM     79  C   UNL A   1      34.797  33.311  29.257  1.00  0.00     0.054 A 
BRANCH  79  80
ATOM     80  S   UNL A   1      33.537  34.581  28.946  1.00  0.00     0.124 S 
ATOM     81  O   UNL A   1      34.325  35.627  28.289  1.00  0.00    -0.237 OA
ATOM     82  O   UNL A   1      32.592  33.878  28.075  1.00  0.00    -0.237 OA
ATOM     83  O   UNL A   1      33.038  34.910  30.267  1.00  0.00    -0.744 OA
ENDBRANCH  79  80
ENDBRANCH  51  74
BRANCH  63  84
ATOM     84  C   UNL A   1      41.922  30.159  33.584  1.00  0.00    -0.014 A 
ATOM     85  C   UNL A   1      42.312  30.385  34.918  1.00  0.00     0.010 A 
ATOM     86  C   UNL A   1      41.467  28.871  33.236  1.00  0.00     0.010 A 
ATOM     87  C   UNL A   1      42.289  29.355  35.863  1.00  0.00     0.020 A 
ATOM     88  C   UNL A   1      41.412  27.839  34.188  1.00  0.00     0.020 A 
ATOM     89  C   UNL A   1      41.851  28.083  35.490  1.00  0.00     0.054 A 
BRANCH  89  90
ATOM     90  S   UNL A   1      41.898  26.758  36.727  1.00  0.00     0.124 S 
ATOM     91  O   UNL A   1      42.044  25.564  35.896  1.00  0.00    -0.237 OA
ATOM     92  O   UNL A   1      43.070  27.105  37.529  1.00  0.00    -0.237 OA
ATOM     93  O   UNL A   1      40.618  26.873  37.422  1.00  0.00    -0.744 OA
ENDBRANCH  89  90
ENDBRANCH  63  84
ENDBRANCH  37  38
ENDBRANCH  29  32
ENDBRANCH  27  28
ENDBRANCH  26  27
ENDBRANCH   1  26
TORSDOF 17
ENDMDL
