MODEL 1
REMARK VINA RESULT:      -8.6      0.000      0.000
REMARK SMILES COC(=O)[C@H]1CC[C@]2(C)[C@H](CC[C@]3(C)[C@H]2CC=C2[C@H]4CC(C)(C)CC[C@]4(C(=O)NCCCCNC(=O)c4ccc(-c5c6nc(c(-c7ccc(S(=O)(=O)[O-])cc7)c7ccc([nH]7)c(-c7ccc(S(=O)(=O)[O-])cc7)c7nc(c(-c8ccc(S(=O)(=O)[O-])cc8)c8ccc5[nH]8)C=C7)C=C6)cc4)CC[C@@]23C)C1(C)C
REMARK SMILES IDX 32 1 31 2 30 3 29 4 27 5 28 6 26 8 5 9 6 10 101 11 7 12
REMARK SMILES IDX 10 13 102 14 103 15 8 16 11 17 15 18 9 19 12 20 16 21 13 22
REMARK SMILES IDX 17 23 99 24 14 25 18 26 98 27 100 28 19 29 97 30 20 31 21 32
REMARK SMILES IDX 25 33 24 34 22 35 23 36 3 37 4 38 2 39 1 40 33 41 34 42
REMARK SMILES IDX 35 43 36 45 37 46 38 47 96 48 39 49 95 50 40 51 41 52 42 53
REMARK SMILES IDX 89 54 43 55 94 56 88 57 90 58 44 59 93 60 87 61 86 62 45 64
REMARK SMILES IDX 75 65 56 66 74 67 57 68 60 69 73 70 91 71 58 72 59 73 72 75
REMARK SMILES IDX 92 76 61 77 46 78 47 79 55 80 48 81 54 82 49 83 50 84 51 85
REMARK SMILES IDX 52 86 53 87 76 88 77 89 85 90 78 91 84 92 79 93 80 94 81 95
REMARK SMILES IDX 82 96 83 97 62 98 63 99 71 100 64 101 70 102 65 103 66 104
REMARK SMILES IDX 67 105 68 106 69 107
REMARK H PARENT 29 7 34 44 90 63 60 74
REMARK Flexibility Score: inf
ROOT
ATOM      1  C   UNL A   1      39.011  32.475  34.865  1.00  0.00     0.023 C 
ENDROOT
BRANCH   1   2
ATOM      2  C   UNL A   1      40.109  31.416  34.979  1.00  0.00     0.023 C 
BRANCH   2   3
ATOM      3  C   UNL A   1      39.691  30.101  35.612  1.00  0.00     0.116 C 
BRANCH   3   4
ATOM      4  N   UNL A   1      40.765  29.341  36.187  1.00  0.00    -0.356 N 
ATOM      5  C   UNL A   1      41.406  28.392  35.428  1.00  0.00     0.226 C 
ATOM      6  O   UNL A   1      40.800  27.702  34.612  1.00  0.00    -0.274 OA
ATOM      7  H   UNL A   1      41.039  29.498  37.119  1.00  0.00     0.163 HD
BRANCH   5   8
ATOM      8  C   UNL A   1      42.939  28.393  35.544  1.00  0.00     0.056 C 
ATOM      9  C   UNL A   1      49.428  28.290  30.701  1.00  0.00     0.105 C 
ATOM     10  C   UNL A   1      49.079  26.903  30.064  1.00  0.00     0.016 C 
ATOM     11  C   UNL A   1      48.407  28.918  31.739  1.00  0.00    -0.019 C 
ATOM     12  C   UNL A   1      48.118  25.963  30.838  1.00  0.00     0.008 C 
ATOM     13  C   UNL A   1      47.699  27.701  32.450  1.00  0.00     0.002 C 
ATOM     14  C   UNL A   1      47.398  29.910  31.064  1.00  0.00     0.012 C 
ATOM     15  C   UNL A   1      49.131  29.869  32.742  1.00  0.00     0.012 C 
ATOM     16  C   UNL A   1      46.925  26.741  31.470  1.00  0.00    -0.026 C 
ATOM     17  C   UNL A   1      46.924  28.042  33.693  1.00  0.00     0.005 C 
ATOM     18  C   UNL A   1      45.848  25.730  32.159  1.00  0.00     0.006 C 
ATOM     19  C   UNL A   1      46.240  27.412  30.247  1.00  0.00     0.012 C 
ATOM     20  C   UNL A   1      46.584  26.792  34.503  1.00  0.00     0.008 C 
ATOM     21  C   UNL A   1      44.383  25.802  31.486  1.00  0.00     0.032 C 
ATOM     22  C   UNL A   1      45.740  25.693  33.801  1.00  0.00    -0.020 C 
ATOM     23  C   UNL A   1      43.519  26.849  32.145  1.00  0.00    -0.027 C 
ATOM     24  C   UNL A   1      44.180  25.767  34.241  1.00  0.00    -0.006 C 
ATOM     25  C   UNL A   1      46.352  24.342  34.289  1.00  0.00     0.012 C 
ATOM     26  C   UNL A   1      43.647  26.988  33.475  1.00  0.00    -0.064 C 
ATOM     27  C   UNL A   1      43.723  25.865  35.735  1.00  0.00     0.013 C 
ATOM     28  C   UNL A   1      43.492  24.385  33.859  1.00  0.00     0.017 C 
ATOM     29  C   UNL A   1      43.643  28.350  34.197  1.00  0.00     0.031 C 
ATOM     30  C   UNL A   1      43.421  27.201  36.416  1.00  0.00     0.018 C 
ATOM     31  C   UNL A   1      43.437  29.638  33.362  1.00  0.00     0.015 C 
ATOM     32  C   UNL A   1      43.813  30.955  34.116  1.00  0.00    -0.035 C 
ATOM     33  C   UNL A   1      43.396  29.667  36.316  1.00  0.00     0.018 C 
ATOM     34  C   UNL A   1      43.252  30.978  35.551  1.00  0.00     0.007 C 
ATOM     35  C   UNL A   1      43.221  32.155  33.351  1.00  0.00     0.011 C 
ATOM     36  C   UNL A   1      45.341  31.183  34.166  1.00  0.00     0.011 C 
BRANCH   9  37
ATOM     37  C   UNL A   1      50.856  28.158  31.231  1.00  0.00     0.309 C 
ATOM     38  O   UNL A   1      51.185  27.361  32.085  1.00  0.00    -0.252 OA
BRANCH  37  39
ATOM     39  O   UNL A   1      51.677  29.081  30.657  1.00  0.00    -0.469 OA
ATOM     40  C   UNL A   1      51.116  29.861  29.601  1.00  0.00     0.282 C 
ENDBRANCH  37  39
ENDBRANCH   9  37
ENDBRANCH   5   8
ENDBRANCH   3   4
ENDBRANCH   2   3
ENDBRANCH   1   2
BRANCH   1  41
ATOM     41  C   UNL A   1      38.379  32.627  33.483  1.00  0.00     0.116 C 
BRANCH  41  42
ATOM     42  N   UNL A   1      37.357  31.622  33.222  1.00  0.00    -0.352 N 
ATOM     43  C   UNL A   1      37.298  30.640  32.273  1.00  0.00     0.251 C 
ATOM     44  H   UNL A   1      36.582  31.656  33.829  1.00  0.00     0.163 HD
ATOM     45  O   UNL A   1      36.231  30.078  32.047  1.00  0.00    -0.269 OA
BRANCH  43  46
ATOM     46  C   UNL A   1      38.511  30.257  31.531  1.00  0.00     0.039 A 
ATOM     47  C   UNL A   1      38.662  30.703  30.218  1.00  0.00     0.014 A 
ATOM     48  C   UNL A   1      39.471  29.425  32.114  1.00  0.00     0.014 A 
ATOM     49  C   UNL A   1      39.801  30.346  29.502  1.00  0.00     0.010 A 
ATOM     50  C   UNL A   1      40.644  29.134  31.425  1.00  0.00     0.010 A 
ATOM     51  C   UNL A   1      40.814  29.580  30.108  1.00  0.00    -0.014 A 
BRANCH  51  52
ATOM     52  C   UNL A   1      42.052  29.259  29.360  1.00  0.00     0.031 A 
ATOM     53  C   UNL A   1      43.128  30.294  29.176  1.00  0.00     0.074 A 
ATOM     54  C   UNL A   1      42.197  28.024  28.840  1.00  0.00     0.049 A 
ATOM     55  N   UNL A   1      44.302  30.166  28.614  1.00  0.00    -0.248 NA
ATOM     56  C   UNL A   1      42.844  31.652  29.667  1.00  0.00     0.031 C 
ATOM     57  C   UNL A   1      41.191  26.959  28.901  1.00  0.00     0.029 A 
ATOM     58  N   UNL A   1      43.248  27.449  28.173  1.00  0.00    -0.354 N 
ATOM     59  C   UNL A   1      44.896  31.420  28.686  1.00  0.00     0.074 A 
ATOM     60  C   UNL A   1      43.928  32.311  29.286  1.00  0.00     0.031 C 
ATOM     61  C   UNL A   1      41.694  25.848  28.342  1.00  0.00     0.029 A 
ATOM     62  C   UNL A   1      43.039  26.129  27.853  1.00  0.00     0.049 A 
ATOM     63  H   UNL A   1      44.073  27.936  27.947  1.00  0.00     0.167 HD
ATOM     64  C   UNL A   1      46.144  31.789  28.312  1.00  0.00     0.031 A 
ATOM     65  C   UNL A   1      43.844  25.241  27.241  1.00  0.00     0.031 A 
ATOM     66  C   UNL A   1      47.099  30.896  27.710  1.00  0.00     0.049 A 
ATOM     67  C   UNL A   1      45.226  25.674  26.839  1.00  0.00     0.074 A 
ATOM     68  C   UNL A   1      48.404  31.157  27.330  1.00  0.00     0.029 A 
ATOM     69  N   UNL A   1      46.850  29.568  27.395  1.00  0.00    -0.354 N 
ATOM     70  N   UNL A   1      45.798  26.847  26.985  1.00  0.00    -0.248 NA
ATOM     71  C   UNL A   1      46.079  24.658  26.211  1.00  0.00     0.031 C 
ATOM     72  C   UNL A   1      48.926  30.002  26.736  1.00  0.00     0.029 A 
ATOM     73  C   UNL A   1      47.968  29.002  26.804  1.00  0.00     0.049 A 
ATOM     74  H   UNL A   1      46.003  29.096  27.566  1.00  0.00     0.167 HD
ATOM     75  C   UNL A   1      47.085  26.705  26.479  1.00  0.00     0.074 A 
ATOM     76  C   UNL A   1      47.215  25.324  26.057  1.00  0.00     0.031 C 
ATOM     77  C   UNL A   1      48.069  27.632  26.368  1.00  0.00     0.031 A 
BRANCH  64  78
ATOM     78  C   UNL A   1      46.546  33.224  28.545  1.00  0.00    -0.014 A 
ATOM     79  C   UNL A   1      47.319  33.588  29.664  1.00  0.00     0.010 A 
ATOM     80  C   UNL A   1      46.182  34.217  27.617  1.00  0.00     0.010 A 
ATOM     81  C   UNL A   1      47.686  34.920  29.871  1.00  0.00     0.020 A 
ATOM     82  C   UNL A   1      46.573  35.547  27.805  1.00  0.00     0.020 A 
ATOM     83  C   UNL A   1      47.309  35.893  28.939  1.00  0.00     0.054 A 
BRANCH  83  84
ATOM     84  S   UNL A   1      47.824  37.609  29.220  1.00  0.00     0.124 S 
ATOM     85  O   UNL A   1      47.016  38.330  28.239  1.00  0.00    -0.237 OA
ATOM     86  O   UNL A   1      47.457  37.829  30.617  1.00  0.00    -0.237 OA
ATOM     87  O   UNL A   1      49.260  37.590  28.951  1.00  0.00    -0.744 OA
ENDBRANCH  83  84
ENDBRANCH  64  78
BRANCH  65  88
ATOM     88  C   UNL A   1      43.365  23.854  26.992  1.00  0.00    -0.014 A 
ATOM     89  C   UNL A   1      43.106  23.403  25.686  1.00  0.00     0.010 A 
ATOM     90  C   UNL A   1      43.182  22.967  28.069  1.00  0.00     0.010 A 
ATOM     91  C   UNL A   1      42.653  22.099  25.463  1.00  0.00     0.020 A 
ATOM     92  C   UNL A   1      42.760  21.654  27.848  1.00  0.00     0.020 A 
ATOM     93  C   UNL A   1      42.485  21.232  26.545  1.00  0.00     0.054 A 
BRANCH  93  94
ATOM     94  S   UNL A   1      41.941  19.530  26.230  1.00  0.00     0.124 S 
ATOM     95  O   UNL A   1      40.496  19.691  26.109  1.00  0.00    -0.237 OA
ATOM     96  O   UNL A   1      42.648  19.198  24.995  1.00  0.00    -0.237 OA
ATOM     97  O   UNL A   1      42.394  18.801  27.413  1.00  0.00    -0.744 OA
ENDBRANCH  93  94
ENDBRANCH  65  88
BRANCH  77  98
ATOM     98  C   UNL A   1      49.373  27.169  25.773  1.00  0.00    -0.014 A 
ATOM     99  C   UNL A   1      50.325  26.481  26.548  1.00  0.00     0.010 A 
ATOM    100  C   UNL A   1      49.651  27.425  24.417  1.00  0.00     0.010 A 
ATOM    101  C   UNL A   1      51.554  26.112  25.995  1.00  0.00     0.020 A 
ATOM    102  C   UNL A   1      50.864  27.026  23.851  1.00  0.00     0.020 A 
ATOM    103  C   UNL A   1      51.818  26.395  24.650  1.00  0.00     0.054 A 
BRANCH 103 104
ATOM    104  S   UNL A   1      53.422  25.911  23.957  1.00  0.00     0.124 S 
ATOM    105  O   UNL A   1      53.156  25.953  22.522  1.00  0.00    -0.237 OA
ATOM    106  O   UNL A   1      54.316  26.950  24.462  1.00  0.00    -0.237 OA
ATOM    107  O   UNL A   1      53.650  24.579  24.510  1.00  0.00    -0.744 OA
ENDBRANCH 103 104
ENDBRANCH  77  98
ENDBRANCH  51  52
ENDBRANCH  43  46
ENDBRANCH  41  42
ENDBRANCH   1  41
TORSDOF 16
ENDMDL
MODEL 2
REMARK VINA RESULT:      -8.0      4.466     12.053
REMARK SMILES COC(=O)[C@H]1CC[C@]2(C)[C@H](CC[C@]3(C)[C@H]2CC=C2[C@H]4CC(C)(C)CC[C@]4(C(=O)NCCCCNC(=O)c4ccc(-c5c6nc(c(-c7ccc(S(=O)(=O)[O-])cc7)c7ccc([nH]7)c(-c7ccc(S(=O)(=O)[O-])cc7)c7nc(c(-c8ccc(S(=O)(=O)[O-])cc8)c8ccc5[nH]8)C=C7)C=C6)cc4)CC[C@@]23C)C1(C)C
REMARK SMILES IDX 32 1 31 2 30 3 29 4 27 5 28 6 26 8 5 9 6 10 101 11 7 12
REMARK SMILES IDX 10 13 102 14 103 15 8 16 11 17 15 18 9 19 12 20 16 21 13 22
REMARK SMILES IDX 17 23 99 24 14 25 18 26 98 27 100 28 19 29 97 30 20 31 21 32
REMARK SMILES IDX 25 33 24 34 22 35 23 36 3 37 4 38 2 39 1 40 33 41 34 42
REMARK SMILES IDX 35 43 36 45 37 46 38 47 96 48 39 49 95 50 40 51 41 52 42 53
REMARK SMILES IDX 89 54 43 55 94 56 88 57 90 58 44 59 93 60 87 61 86 62 45 64
REMARK SMILES IDX 75 65 56 66 74 67 57 68 60 69 73 70 91 71 58 72 59 73 72 75
REMARK SMILES IDX 92 76 61 77 46 78 47 79 55 80 48 81 54 82 49 83 50 84 51 85
REMARK SMILES IDX 52 86 53 87 76 88 77 89 85 90 78 91 84 92 79 93 80 94 81 95
REMARK SMILES IDX 82 96 83 97 62 98 63 99 71 100 64 101 70 102 65 103 66 104
REMARK SMILES IDX 67 105 68 106 69 107
REMARK H PARENT 29 7 34 44 90 63 60 74
REMARK Flexibility Score: inf
ROOT
ATOM      1  C   UNL A   1      45.398  27.038  27.338  1.00  0.00     0.023 C 
ENDROOT
BRANCH   1   2
ATOM      2  C   UNL A   1      46.291  28.027  26.586  1.00  0.00     0.023 C 
BRANCH   2   3
ATOM      3  C   UNL A   1      45.564  29.063  25.747  1.00  0.00     0.116 C 
BRANCH   3   4
ATOM      4  N   UNL A   1      46.032  30.410  25.915  1.00  0.00    -0.356 N 
ATOM      5  C   UNL A   1      45.181  31.367  26.411  1.00  0.00     0.226 C 
ATOM      6  O   UNL A   1      43.985  31.375  26.126  1.00  0.00    -0.274 OA
ATOM      7  H   UNL A   1      46.957  30.646  25.675  1.00  0.00     0.163 HD
BRANCH   5   8
ATOM      8  C   UNL A   1      45.791  32.293  27.476  1.00  0.00     0.056 C 
ATOM      9  C   UNL A   1      44.314  34.665  35.075  1.00  0.00     0.105 C 
ATOM     10  C   UNL A   1      42.931  35.313  34.731  1.00  0.00     0.016 C 
ATOM     11  C   UNL A   1      45.101  33.915  33.921  1.00  0.00    -0.019 C 
ATOM     12  C   UNL A   1      42.651  35.699  33.256  1.00  0.00     0.008 C 
ATOM     13  C   UNL A   1      44.702  34.638  32.577  1.00  0.00     0.002 C 
ATOM     14  C   UNL A   1      44.813  32.375  33.901  1.00  0.00     0.012 C 
ATOM     15  C   UNL A   1      46.639  33.926  34.182  1.00  0.00     0.012 C 
ATOM     16  C   UNL A   1      43.158  34.612  32.262  1.00  0.00    -0.026 C 
ATOM     17  C   UNL A   1      45.562  34.311  31.388  1.00  0.00     0.005 C 
ATOM     18  C   UNL A   1      42.734  34.958  30.726  1.00  0.00     0.006 C 
ATOM     19  C   UNL A   1      42.388  33.333  32.697  1.00  0.00     0.012 C 
ATOM     20  C   UNL A   1      45.344  35.302  30.246  1.00  0.00     0.008 C 
ATOM     21  C   UNL A   1      41.771  33.846  30.064  1.00  0.00     0.032 C 
ATOM     22  C   UNL A   1      43.907  35.425  29.670  1.00  0.00    -0.020 C 
ATOM     23  C   UNL A   1      42.564  32.756  29.386  1.00  0.00    -0.027 C 
ATOM     24  C   UNL A   1      43.748  34.596  28.285  1.00  0.00    -0.006 C 
ATOM     25  C   UNL A   1      43.715  36.948  29.387  1.00  0.00     0.012 C 
ATOM     26  C   UNL A   1      43.684  33.132  28.747  1.00  0.00    -0.064 C 
ATOM     27  C   UNL A   1      44.768  34.713  27.103  1.00  0.00     0.013 C 
ATOM     28  C   UNL A   1      42.442  35.121  27.542  1.00  0.00     0.017 C 
ATOM     29  C   UNL A   1      44.997  32.323  28.771  1.00  0.00     0.031 C 
ATOM     30  C   UNL A   1      45.933  33.738  26.923  1.00  0.00     0.018 C 
ATOM     31  C   UNL A   1      45.031  30.977  29.537  1.00  0.00     0.015 C 
ATOM     32  C   UNL A   1      46.471  30.434  29.809  1.00  0.00    -0.035 C 
ATOM     33  C   UNL A   1      47.248  31.834  27.782  1.00  0.00     0.018 C 
ATOM     34  C   UNL A   1      47.369  30.529  28.560  1.00  0.00     0.007 C 
ATOM     35  C   UNL A   1      46.377  28.951  30.219  1.00  0.00     0.011 C 
ATOM     36  C   UNL A   1      47.159  31.167  30.984  1.00  0.00     0.011 C 
BRANCH   9  37
ATOM     37  C   UNL A   1      45.123  35.758  35.776  1.00  0.00     0.309 C 
ATOM     38  O   UNL A   1      45.655  35.611  36.857  1.00  0.00    -0.252 OA
BRANCH  37  39
ATOM     39  O   UNL A   1      45.115  36.911  35.052  1.00  0.00    -0.469 OA
ATOM     40  C   UNL A   1      45.050  38.128  35.796  1.00  0.00     0.282 C 
ENDBRANCH  37  39
ENDBRANCH   9  37
ENDBRANCH   5   8
ENDBRANCH   3   4
ENDBRANCH   2   3
ENDBRANCH   1   2
BRANCH   1  41
ATOM     41  C   UNL A   1      45.145  25.707  26.633  1.00  0.00     0.116 C 
BRANCH  41  42
ATOM     42  N   UNL A   1      44.043  25.779  25.683  1.00  0.00    -0.352 N 
ATOM     43  C   UNL A   1      42.750  26.191  25.852  1.00  0.00     0.251 C 
ATOM     44  H   UNL A   1      44.266  25.483  24.771  1.00  0.00     0.163 HD
ATOM     45  O   UNL A   1      41.910  25.915  25.001  1.00  0.00    -0.269 OA
BRANCH  43  46
ATOM     46  C   UNL A   1      42.372  26.964  27.046  1.00  0.00     0.039 A 
ATOM     47  C   UNL A   1      41.822  26.289  28.135  1.00  0.00     0.014 A 
ATOM     48  C   UNL A   1      42.517  28.355  27.070  1.00  0.00     0.014 A 
ATOM     49  C   UNL A   1      41.454  27.008  29.270  1.00  0.00     0.010 A 
ATOM     50  C   UNL A   1      42.222  29.060  28.233  1.00  0.00     0.010 A 
ATOM     51  C   UNL A   1      41.676  28.395  29.338  1.00  0.00    -0.014 A 
BRANCH  51  52
ATOM     52  C   UNL A   1      41.342  29.142  30.574  1.00  0.00     0.031 A 
ATOM     53  C   UNL A   1      42.165  28.969  31.821  1.00  0.00     0.074 A 
ATOM     54  C   UNL A   1      40.283  29.975  30.565  1.00  0.00     0.049 A 
ATOM     55  N   UNL A   1      42.061  29.594  32.966  1.00  0.00    -0.248 NA
ATOM     56  C   UNL A   1      43.229  27.953  31.788  1.00  0.00     0.031 C 
ATOM     57  C   UNL A   1      39.374  30.174  29.431  1.00  0.00     0.029 A 
ATOM     58  N   UNL A   1      39.799  30.821  31.529  1.00  0.00    -0.354 N 
ATOM     59  C   UNL A   1      43.043  29.050  33.785  1.00  0.00     0.074 A 
ATOM     60  C   UNL A   1      43.690  28.001  33.029  1.00  0.00     0.031 C 
ATOM     61  C   UNL A   1      38.476  31.118  29.749  1.00  0.00     0.029 A 
ATOM     62  C   UNL A   1      38.721  31.567  31.115  1.00  0.00     0.049 A 
ATOM     63  H   UNL A   1      40.187  30.888  32.431  1.00  0.00     0.167 HD
ATOM     64  C   UNL A   1      43.393  29.412  35.043  1.00  0.00     0.031 A 
ATOM     65  C   UNL A   1      38.014  32.513  31.761  1.00  0.00     0.031 A 
ATOM     66  C   UNL A   1      42.739  30.455  35.789  1.00  0.00     0.049 A 
ATOM     67  C   UNL A   1      38.426  32.900  33.154  1.00  0.00     0.074 A 
ATOM     68  C   UNL A   1      43.041  30.929  37.054  1.00  0.00     0.029 A 
ATOM     69  N   UNL A   1      41.648  31.184  35.340  1.00  0.00    -0.354 N 
ATOM     70  N   UNL A   1      39.407  32.426  33.885  1.00  0.00    -0.248 NA
ATOM     71  C   UNL A   1      37.647  33.964  33.799  1.00  0.00     0.031 C 
ATOM     72  C   UNL A   1      42.097  31.906  37.391  1.00  0.00     0.029 A 
ATOM     73  C   UNL A   1      41.248  32.088  36.311  1.00  0.00     0.049 A 
ATOM     74  H   UNL A   1      41.220  31.076  34.460  1.00  0.00     0.167 HD
ATOM     75  C   UNL A   1      39.373  33.146  35.074  1.00  0.00     0.074 A 
ATOM     76  C   UNL A   1      38.297  34.108  34.946  1.00  0.00     0.031 C 
ATOM     77  C   UNL A   1      40.157  33.020  36.174  1.00  0.00     0.031 A 
BRANCH  64  78
ATOM     78  C   UNL A   1      44.537  28.670  35.688  1.00  0.00    -0.014 A 
ATOM     79  C   UNL A   1      44.311  27.504  36.443  1.00  0.00     0.010 A 
ATOM     80  C   UNL A   1      45.858  29.118  35.505  1.00  0.00     0.010 A 
ATOM     81  C   UNL A   1      45.378  26.824  37.035  1.00  0.00     0.020 A 
ATOM     82  C   UNL A   1      46.932  28.424  36.072  1.00  0.00     0.020 A 
ATOM     83  C   UNL A   1      46.684  27.289  36.847  1.00  0.00     0.054 A 
BRANCH  83  84
ATOM     84  S   UNL A   1      48.050  26.369  37.605  1.00  0.00     0.124 S 
ATOM     85  O   UNL A   1      49.214  27.122  37.140  1.00  0.00    -0.237 OA
ATOM     86  O   UNL A   1      47.760  26.483  39.032  1.00  0.00    -0.237 OA
ATOM     87  O   UNL A   1      47.916  25.025  37.050  1.00  0.00    -0.744 OA
ENDBRANCH  83  84
ENDBRANCH  64  78
BRANCH  65  88
ATOM     88  C   UNL A   1      36.861  33.168  31.084  1.00  0.00    -0.014 A 
ATOM     89  C   UNL A   1      37.032  33.851  29.867  1.00  0.00     0.010 A 
ATOM     90  C   UNL A   1      35.576  33.096  31.652  1.00  0.00     0.010 A 
ATOM     91  C   UNL A   1      35.944  34.466  29.241  1.00  0.00     0.020 A 
ATOM     92  C   UNL A   1      34.480  33.682  31.014  1.00  0.00     0.020 A 
ATOM     93  C   UNL A   1      34.674  34.376  29.817  1.00  0.00     0.054 A 
BRANCH  93  94
ATOM     94  S   UNL A   1      33.267  35.141  28.964  1.00  0.00     0.124 S 
ATOM     95  O   UNL A   1      32.337  35.375  30.065  1.00  0.00    -0.237 OA
ATOM     96  O   UNL A   1      33.868  36.336  28.376  1.00  0.00    -0.237 OA
ATOM     97  O   UNL A   1      32.855  34.122  28.002  1.00  0.00    -0.744 OA
ENDBRANCH  93  94
ENDBRANCH  65  88
BRANCH  77  98
ATOM     98  C   UNL A   1      39.876  33.958  37.318  1.00  0.00    -0.014 A 
ATOM     99  C   UNL A   1      38.984  33.606  38.349  1.00  0.00     0.010 A 
ATOM    100  C   UNL A   1      40.515  35.211  37.366  1.00  0.00     0.010 A 
ATOM    101  C   UNL A   1      38.690  34.512  39.370  1.00  0.00     0.020 A 
ATOM    102  C   UNL A   1      40.251  36.106  38.405  1.00  0.00     0.020 A 
ATOM    103  C   UNL A   1      39.321  35.760  39.387  1.00  0.00     0.054 A 
BRANCH 103 104
ATOM    104  S   UNL A   1      38.919  36.921  40.720  1.00  0.00     0.124 S 
ATOM    105  O   UNL A   1      38.152  36.078  41.634  1.00  0.00    -0.237 OA
ATOM    106  O   UNL A   1      40.237  37.331  41.198  1.00  0.00    -0.237 OA
ATOM    107  O   UNL A   1      38.154  37.968  40.048  1.00  0.00    -0.744 OA
ENDBRANCH 103 104
ENDBRANCH  77  98
ENDBRANCH  51  52
ENDBRANCH  43  46
ENDBRANCH  41  42
ENDBRANCH   1  41
TORSDOF 16
ENDMDL
MODEL 3
REMARK VINA RESULT:      -7.8      2.569      8.623
REMARK SMILES COC(=O)[C@H]1CC[C@]2(C)[C@H](CC[C@]3(C)[C@H]2CC=C2[C@H]4CC(C)(C)CC[C@]4(C(=O)NCCCCNC(=O)c4ccc(-c5c6nc(c(-c7ccc(S(=O)(=O)[O-])cc7)c7ccc([nH]7)c(-c7ccc(S(=O)(=O)[O-])cc7)c7nc(c(-c8ccc(S(=O)(=O)[O-])cc8)c8ccc5[nH]8)C=C7)C=C6)cc4)CC[C@@]23C)C1(C)C
REMARK SMILES IDX 32 1 31 2 30 3 29 4 27 5 28 6 26 8 5 9 6 10 101 11 7 12
REMARK SMILES IDX 10 13 102 14 103 15 8 16 11 17 15 18 9 19 12 20 16 21 13 22
REMARK SMILES IDX 17 23 99 24 14 25 18 26 98 27 100 28 19 29 97 30 20 31 21 32
REMARK SMILES IDX 25 33 24 34 22 35 23 36 3 37 4 38 2 39 1 40 33 41 34 42
REMARK SMILES IDX 35 43 36 45 37 46 38 47 96 48 39 49 95 50 40 51 41 52 42 53
REMARK SMILES IDX 89 54 43 55 94 56 88 57 90 58 44 59 93 60 87 61 86 62 45 64
REMARK SMILES IDX 75 65 56 66 74 67 57 68 60 69 73 70 91 71 58 72 59 73 72 75
REMARK SMILES IDX 92 76 61 77 46 78 47 79 55 80 48 81 54 82 49 83 50 84 51 85
REMARK SMILES IDX 52 86 53 87 76 88 77 89 85 90 78 91 84 92 79 93 80 94 81 95
REMARK SMILES IDX 82 96 83 97 62 98 63 99 71 100 64 101 70 102 65 103 66 104
REMARK SMILES IDX 67 105 68 106 69 107
REMARK H PARENT 29 7 34 44 90 63 60 74
REMARK Flexibility Score: inf
ROOT
ATOM      1  C   UNL A   1      34.886  32.651  30.831  1.00  0.00     0.023 C 
ENDROOT
BRANCH   1   2
ATOM      2  C   UNL A   1      36.089  32.892  31.745  1.00  0.00     0.023 C 
BRANCH   2   3
ATOM      3  C   UNL A   1      37.448  32.855  31.068  1.00  0.00     0.116 C 
BRANCH   3   4
ATOM      4  N   UNL A   1      38.437  32.064  31.744  1.00  0.00    -0.356 N 
ATOM      5  C   UNL A   1      39.464  32.686  32.410  1.00  0.00     0.226 C 
ATOM      6  O   UNL A   1      39.978  33.717  31.982  1.00  0.00    -0.274 OA
ATOM      7  H   UNL A   1      38.379  31.081  31.729  1.00  0.00     0.163 HD
BRANCH   5   8
ATOM      8  C   UNL A   1      39.784  32.109  33.799  1.00  0.00     0.056 C 
ATOM      9  C   UNL A   1      46.221  29.658  38.055  1.00  0.00     0.105 C 
ATOM     10  C   UNL A   1      46.598  28.515  37.054  1.00  0.00     0.016 C 
ATOM     11  C   UNL A   1      45.004  30.606  37.690  1.00  0.00    -0.019 C 
ATOM     12  C   UNL A   1      45.498  27.992  36.093  1.00  0.00     0.008 C 
ATOM     13  C   UNL A   1      44.009  29.732  36.833  1.00  0.00     0.002 C 
ATOM     14  C   UNL A   1      45.460  31.915  36.959  1.00  0.00     0.012 C 
ATOM     15  C   UNL A   1      44.341  31.198  38.973  1.00  0.00     0.012 C 
ATOM     16  C   UNL A   1      44.635  29.150  35.510  1.00  0.00    -0.026 C 
ATOM     17  C   UNL A   1      42.637  30.317  36.641  1.00  0.00     0.005 C 
ATOM     18  C   UNL A   1      43.577  28.606  34.395  1.00  0.00     0.006 C 
ATOM     19  C   UNL A   1      45.675  30.050  34.786  1.00  0.00     0.012 C 
ATOM     20  C   UNL A   1      41.648  29.274  36.126  1.00  0.00     0.008 C 
ATOM     21  C   UNL A   1      43.815  29.235  32.929  1.00  0.00     0.032 C 
ATOM     22  C   UNL A   1      41.975  28.585  34.773  1.00  0.00    -0.020 C 
ATOM     23  C   UNL A   1      43.043  30.518  32.741  1.00  0.00    -0.027 C 
ATOM     24  C   UNL A   1      41.124  29.232  33.553  1.00  0.00    -0.006 C 
ATOM     25  C   UNL A   1      41.551  27.094  34.967  1.00  0.00     0.012 C 
ATOM     26  C   UNL A   1      41.823  30.576  33.299  1.00  0.00    -0.064 C 
ATOM     27  C   UNL A   1      39.578  29.469  33.628  1.00  0.00     0.013 C 
ATOM     28  C   UNL A   1      41.162  28.216  32.329  1.00  0.00     0.017 C 
ATOM     29  C   UNL A   1      41.263  31.828  34.005  1.00  0.00     0.031 C 
ATOM     30  C   UNL A   1      38.972  30.809  34.049  1.00  0.00     0.018 C 
ATOM     31  C   UNL A   1      42.127  33.113  34.044  1.00  0.00     0.015 C 
ATOM     32  C   UNL A   1      41.640  34.179  35.078  1.00  0.00    -0.035 C 
ATOM     33  C   UNL A   1      39.298  33.105  34.894  1.00  0.00     0.018 C 
ATOM     34  C   UNL A   1      40.114  34.387  35.017  1.00  0.00     0.007 C 
ATOM     35  C   UNL A   1      42.320  35.527  34.765  1.00  0.00     0.011 C 
ATOM     36  C   UNL A   1      42.043  33.815  36.526  1.00  0.00     0.011 C 
BRANCH   9  37
ATOM     37  C   UNL A   1      46.104  28.989  39.426  1.00  0.00     0.309 C 
ATOM     38  O   UNL A   1      45.280  28.138  39.690  1.00  0.00    -0.252 OA
BRANCH  37  39
ATOM     39  O   UNL A   1      47.003  29.515  40.304  1.00  0.00    -0.469 OA
ATOM     40  C   UNL A   1      48.285  28.888  40.352  1.00  0.00     0.282 C 
ENDBRANCH  37  39
ENDBRANCH   9  37
ENDBRANCH   5   8
ENDBRANCH   3   4
ENDBRANCH   2   3
ENDBRANCH   1   2
BRANCH   1  41
ATOM     41  C   UNL A   1      35.212  32.403  29.360  1.00  0.00     0.116 C 
BRANCH  41  42
ATOM     42  N   UNL A   1      34.532  31.231  28.826  1.00  0.00    -0.352 N 
ATOM     43  C   UNL A   1      35.035  30.104  28.238  1.00  0.00     0.251 C 
ATOM     44  H   UNL A   1      33.551  31.254  28.902  1.00  0.00     0.163 HD
ATOM     45  O   UNL A   1      34.285  29.362  27.610  1.00  0.00    -0.269 OA
BRANCH  43  46
ATOM     46  C   UNL A   1      36.466  29.781  28.363  1.00  0.00     0.039 A 
ATOM     47  C   UNL A   1      37.283  29.915  27.241  1.00  0.00     0.014 A 
ATOM     48  C   UNL A   1      36.987  29.305  29.569  1.00  0.00     0.014 A 
ATOM     49  C   UNL A   1      38.638  29.610  27.341  1.00  0.00     0.010 A 
ATOM     50  C   UNL A   1      38.355  29.075  29.689  1.00  0.00     0.010 A 
ATOM     51  C   UNL A   1      39.190  29.212  28.573  1.00  0.00    -0.014 A 
BRANCH  51  52
ATOM     52  C   UNL A   1      40.644  28.952  28.686  1.00  0.00     0.031 A 
ATOM     53  C   UNL A   1      41.211  27.600  28.352  1.00  0.00     0.074 A 
ATOM     54  C   UNL A   1      41.452  29.947  29.101  1.00  0.00     0.049 A 
ATOM     55  N   UNL A   1      42.462  27.217  28.326  1.00  0.00    -0.248 NA
ATOM     56  C   UNL A   1      40.252  26.533  28.024  1.00  0.00     0.031 C 
ATOM     57  C   UNL A   1      41.006  31.282  29.514  1.00  0.00     0.029 A 
ATOM     58  N   UNL A   1      42.817  30.000  29.230  1.00  0.00    -0.354 N 
ATOM     59  C   UNL A   1      42.440  25.872  27.978  1.00  0.00     0.074 A 
ATOM     60  C   UNL A   1      41.050  25.487  27.866  1.00  0.00     0.031 C 
ATOM     61  C   UNL A   1      42.079  32.034  29.801  1.00  0.00     0.029 A 
ATOM     62  C   UNL A   1      43.283  31.230  29.628  1.00  0.00     0.049 A 
ATOM     63  H   UNL A   1      43.405  29.230  29.055  1.00  0.00     0.167 HD
ATOM     64  C   UNL A   1      43.484  25.041  27.745  1.00  0.00     0.031 A 
ATOM     65  C   UNL A   1      44.542  31.664  29.823  1.00  0.00     0.031 A 
ATOM     66  C   UNL A   1      44.864  25.432  27.863  1.00  0.00     0.049 A 
ATOM     67  C   UNL A   1      45.683  30.724  29.553  1.00  0.00     0.074 A 
ATOM     68  C   UNL A   1      45.998  24.680  27.610  1.00  0.00     0.029 A 
ATOM     69  N   UNL A   1      45.299  26.684  28.274  1.00  0.00    -0.354 N 
ATOM     70  N   UNL A   1      45.644  29.475  29.150  1.00  0.00    -0.248 NA
ATOM     71  C   UNL A   1      47.037  31.258  29.742  1.00  0.00     0.031 C 
ATOM     72  C   UNL A   1      47.117  25.460  27.921  1.00  0.00     0.029 A 
ATOM     73  C   UNL A   1      46.683  26.720  28.305  1.00  0.00     0.049 A 
ATOM     74  H   UNL A   1      44.709  27.437  28.509  1.00  0.00     0.167 HD
ATOM     75  C   UNL A   1      46.971  29.078  29.024  1.00  0.00     0.074 A 
ATOM     76  C   UNL A   1      47.783  30.231  29.359  1.00  0.00     0.031 C 
ATOM     77  C   UNL A   1      47.473  27.869  28.667  1.00  0.00     0.031 A 
BRANCH  64  78
ATOM     78  C   UNL A   1      43.167  23.624  27.336  1.00  0.00    -0.014 A 
ATOM     79  C   UNL A   1      42.804  22.657  28.294  1.00  0.00     0.010 A 
ATOM     80  C   UNL A   1      43.192  23.261  25.978  1.00  0.00     0.010 A 
ATOM     81  C   UNL A   1      42.512  21.347  27.905  1.00  0.00     0.020 A 
ATOM     82  C   UNL A   1      42.871  21.958  25.581  1.00  0.00     0.020 A 
ATOM     83  C   UNL A   1      42.548  21.005  26.549  1.00  0.00     0.054 A 
BRANCH  83  84
ATOM     84  S   UNL A   1      42.137  19.304  26.072  1.00  0.00     0.124 S 
ATOM     85  O   UNL A   1      42.480  18.561  27.283  1.00  0.00    -0.237 OA
ATOM     86  O   UNL A   1      40.710  19.392  25.774  1.00  0.00    -0.237 OA
ATOM     87  O   UNL A   1      42.998  19.048  24.920  1.00  0.00    -0.744 OA
ENDBRANCH  83  84
ENDBRANCH  64  78
BRANCH  65  88
ATOM     88  C   UNL A   1      44.783  33.061  30.279  1.00  0.00    -0.014 A 
ATOM     89  C   UNL A   1      44.772  34.130  29.366  1.00  0.00     0.010 A 
ATOM     90  C   UNL A   1      45.007  33.330  31.642  1.00  0.00     0.010 A 
ATOM     91  C   UNL A   1      45.002  35.438  29.803  1.00  0.00     0.020 A 
ATOM     92  C   UNL A   1      45.206  34.639  32.088  1.00  0.00     0.020 A 
ATOM     93  C   UNL A   1      45.216  35.684  31.162  1.00  0.00     0.054 A 
BRANCH  93  94
ATOM     94  S   UNL A   1      45.465  37.395  31.715  1.00  0.00     0.124 S 
ATOM     95  O   UNL A   1      44.295  38.066  31.160  1.00  0.00    -0.237 OA
ATOM     96  O   UNL A   1      45.486  37.254  33.170  1.00  0.00    -0.237 OA
ATOM     97  O   UNL A   1      46.745  37.765  31.115  1.00  0.00    -0.744 OA
ENDBRANCH  93  94
ENDBRANCH  65  88
BRANCH  77  98
ATOM     98  C   UNL A   1      48.973  27.746  28.617  1.00  0.00    -0.014 A 
ATOM     99  C   UNL A   1      49.687  28.005  27.432  1.00  0.00     0.010 A 
ATOM    100  C   UNL A   1      49.681  27.367  29.772  1.00  0.00     0.010 A 
ATOM    101  C   UNL A   1      51.072  27.828  27.387  1.00  0.00     0.020 A 
ATOM    102  C   UNL A   1      51.070  27.223  29.742  1.00  0.00     0.020 A 
ATOM    103  C   UNL A   1      51.753  27.430  28.542  1.00  0.00     0.054 A 
BRANCH 103 104
ATOM    104  S   UNL A   1      53.550  27.201  28.458  1.00  0.00     0.124 S 
ATOM    105  O   UNL A   1      53.662  25.967  27.684  1.00  0.00    -0.237 OA
ATOM    106  O   UNL A   1      53.997  28.414  27.777  1.00  0.00    -0.237 OA
ATOM    107  O   UNL A   1      53.952  27.097  29.858  1.00  0.00    -0.744 OA
ENDBRANCH 103 104
ENDBRANCH  77  98
ENDBRANCH  51  52
ENDBRANCH  43  46
ENDBRANCH  41  42
ENDBRANCH   1  41
TORSDOF 16
ENDMDL
