MODEL 1
REMARK VINA RESULT:     -10.6      0.000      0.000
REMARK SMILES C[C@@H](C(=O)NCCCCNC(=O)c1ccc(-c2c3nc(c(-c4ccc(S(=O)(=O)[O-])cc4)c4ccc([nH]4)c(-c4ccc(S(=O)(=O)[O-])cc4)c4nc(c(-c5ccc(S(=O)(=O)[O-])cc5)c5ccc2[nH]5)C=C4)C=C3)cc1)[C@H](C)[S@@](=O)c1ccc(F)c(F)c1
REMARK SMILES IDX 7 1 6 2 5 3 3 4 4 5 2 7 1 8 73 9 74 10 75 11 76 12 77 13
REMARK SMILES IDX 78 14 84 15 79 16 82 17 80 18 83 19 81 20 8 21 9 22 10 23
REMARK SMILES IDX 11 24 12 26 13 27 14 28 72 29 15 30 71 31 16 32 17 33 18 34
REMARK SMILES IDX 65 35 19 36 70 37 64 38 66 39 20 40 69 41 63 42 62 43 21 45
REMARK SMILES IDX 51 46 32 47 50 48 33 49 36 50 49 51 67 52 34 53 35 54 48 56
REMARK SMILES IDX 68 57 37 58 22 59 23 60 31 61 24 62 30 63 25 64 26 65 27 66
REMARK SMILES IDX 28 67 29 68 52 69 53 70 61 71 54 72 60 73 55 74 56 75 57 76
REMARK SMILES IDX 58 77 59 78 38 79 39 80 47 81 40 82 46 83 41 84 42 85 43 86
REMARK SMILES IDX 44 87 45 88
REMARK H PARENT 5 6 10 25 66 44 36 55
REMARK Flexibility Score: inf
ROOT
ATOM      1  C   UNL A   1      33.373  29.189  24.779  1.00  0.00     0.023 C 
ENDROOT
BRANCH   1   2
ATOM      2  C   UNL A   1      33.566  28.834  23.303  1.00  0.00     0.116 C 
BRANCH   2   3
ATOM      3  N   UNL A   1      32.303  28.559  22.642  1.00  0.00    -0.356 N 
ATOM      4  C   UNL A   1      31.576  27.411  22.554  1.00  0.00     0.224 C 
ATOM      5  O   UNL A   1      30.517  27.466  21.931  1.00  0.00    -0.275 OA
ATOM      6  H   UNL A   1      31.905  29.332  22.179  1.00  0.00     0.163 HD
BRANCH   4   7
ATOM      7  C   UNL A   1      32.072  26.131  23.229  1.00  0.00     0.091 C 
ATOM      8  C   UNL A   1      32.209  25.010  22.188  1.00  0.00     0.019 C 
BRANCH   7   9
ATOM      9  C   UNL A   1      31.177  25.630  24.390  1.00  0.00     0.093 C 
ATOM     10  C   UNL A   1      29.901  26.412  24.694  1.00  0.00     0.023 C 
BRANCH   9  11
ATOM     11  S   UNL A   1      32.087  25.180  25.922  1.00  0.00     0.057 S 
ATOM     12  O   UNL A   1      31.168  24.328  26.750  1.00  0.00    -0.254 OA
BRANCH  11  13
ATOM     13  C   UNL A   1      33.371  24.070  25.327  1.00  0.00     0.042 A 
ATOM     14  C   UNL A   1      34.704  24.506  25.320  1.00  0.00     0.021 A 
ATOM     15  C   UNL A   1      33.081  22.745  24.985  1.00  0.00     0.060 A 
ATOM     16  C   UNL A   1      35.731  23.636  24.940  1.00  0.00     0.043 A 
ATOM     17  C   UNL A   1      34.104  21.895  24.578  1.00  0.00     0.160 A 
ATOM     18  C   UNL A   1      35.422  22.335  24.560  1.00  0.00     0.158 A 
ATOM     19  F   UNL A   1      33.806  20.639  24.216  1.00  0.00    -0.204 F 
ATOM     20  F   UNL A   1      36.407  21.504  24.197  1.00  0.00    -0.204 F 
ENDBRANCH  11  13
ENDBRANCH   9  11
ENDBRANCH   7   9
ENDBRANCH   4   7
ENDBRANCH   2   3
ENDBRANCH   1   2
BRANCH   1  21
ATOM     21  C   UNL A   1      33.885  28.145  25.773  1.00  0.00     0.023 C 
BRANCH  21  22
ATOM     22  C   UNL A   1      33.533  28.402  27.234  1.00  0.00     0.116 C 
BRANCH  22  23
ATOM     23  N   UNL A   1      33.465  29.818  27.557  1.00  0.00    -0.352 N 
ATOM     24  C   UNL A   1      34.427  30.625  28.119  1.00  0.00     0.251 C 
ATOM     25  H   UNL A   1      32.614  30.261  27.342  1.00  0.00     0.163 HD
ATOM     26  O   UNL A   1      34.143  31.774  28.445  1.00  0.00    -0.269 OA
BRANCH  24  27
ATOM     27  C   UNL A   1      35.786  30.094  28.362  1.00  0.00     0.039 A 
ATOM     28  C   UNL A   1      36.713  30.114  27.317  1.00  0.00     0.014 A 
ATOM     29  C   UNL A   1      36.151  29.595  29.615  1.00  0.00     0.014 A 
ATOM     30  C   UNL A   1      38.027  29.699  27.550  1.00  0.00     0.010 A 
ATOM     31  C   UNL A   1      37.478  29.248  29.863  1.00  0.00     0.010 A 
ATOM     32  C   UNL A   1      38.430  29.300  28.835  1.00  0.00    -0.014 A 
BRANCH  32  33
ATOM     33  C   UNL A   1      39.845  28.951  29.124  1.00  0.00     0.031 A 
ATOM     34  C   UNL A   1      40.774  29.974  29.721  1.00  0.00     0.074 A 
ATOM     35  C   UNL A   1      40.312  27.732  28.786  1.00  0.00     0.049 A 
ATOM     36  N   UNL A   1      42.051  29.871  29.986  1.00  0.00    -0.248 NA
ATOM     37  C   UNL A   1      40.198  31.290  30.043  1.00  0.00     0.031 C 
ATOM     38  C   UNL A   1      39.524  26.664  28.163  1.00  0.00     0.029 A 
ATOM     39  N   UNL A   1      41.565  27.185  28.913  1.00  0.00    -0.354 N 
ATOM     40  C   UNL A   1      42.436  31.110  30.487  1.00  0.00     0.074 A 
ATOM     41  C   UNL A   1      41.267  31.961  30.448  1.00  0.00     0.031 C 
ATOM     42  C   UNL A   1      40.306  25.587  27.984  1.00  0.00     0.029 A 
ATOM     43  C   UNL A   1      41.657  25.897  28.439  1.00  0.00     0.049 A 
ATOM     44  H   UNL A   1      42.327  27.669  29.306  1.00  0.00     0.167 HD
ATOM     45  C   UNL A   1      43.646  31.497  30.954  1.00  0.00     0.031 A 
ATOM     46  C   UNL A   1      42.711  25.060  28.370  1.00  0.00     0.031 A 
ATOM     47  C   UNL A   1      44.804  30.645  31.003  1.00  0.00     0.049 A 
ATOM     48  C   UNL A   1      44.046  25.518  28.889  1.00  0.00     0.074 A 
ATOM     49  C   UNL A   1      46.060  30.929  31.511  1.00  0.00     0.029 A 
ATOM     50  N   UNL A   1      44.851  29.342  30.527  1.00  0.00    -0.354 N 
ATOM     51  N   UNL A   1      44.372  26.671  29.421  1.00  0.00    -0.248 NA
ATOM     52  C   UNL A   1      45.155  24.555  28.809  1.00  0.00     0.031 C 
ATOM     53  C   UNL A   1      46.881  29.816  31.297  1.00  0.00     0.029 A 
ATOM     54  C   UNL A   1      46.119  28.818  30.710  1.00  0.00     0.049 A 
ATOM     55  H   UNL A   1      44.095  28.862  30.120  1.00  0.00     0.167 HD
ATOM     56  C   UNL A   1      45.715  26.562  29.766  1.00  0.00     0.074 A 
ATOM     57  C   UNL A   1      46.136  25.227  29.396  1.00  0.00     0.031 C 
ATOM     58  C   UNL A   1      46.525  27.486  30.340  1.00  0.00     0.031 A 
BRANCH  45  59
ATOM     59  C   UNL A   1      43.784  32.913  31.450  1.00  0.00    -0.014 A 
ATOM     60  C   UNL A   1      43.612  33.225  32.810  1.00  0.00     0.010 A 
ATOM     61  C   UNL A   1      44.142  33.937  30.553  1.00  0.00     0.010 A 
ATOM     62  C   UNL A   1      43.763  34.539  33.260  1.00  0.00     0.020 A 
ATOM     63  C   UNL A   1      44.321  35.248  31.004  1.00  0.00     0.020 A 
ATOM     64  C   UNL A   1      44.117  35.543  32.353  1.00  0.00     0.054 A 
BRANCH  64  65
ATOM     65  S   UNL A   1      44.339  37.234  32.972  1.00  0.00     0.124 S 
ATOM     66  O   UNL A   1      45.593  37.120  33.713  1.00  0.00    -0.237 OA
ATOM     67  O   UNL A   1      44.407  38.019  31.742  1.00  0.00    -0.237 OA
ATOM     68  O   UNL A   1      43.151  37.464  33.790  1.00  0.00    -0.744 OA
ENDBRANCH  64  65
ENDBRANCH  45  59
BRANCH  46  69
ATOM     69  C   UNL A   1      42.543  23.696  27.794  1.00  0.00    -0.014 A 
ATOM     70  C   UNL A   1      42.096  22.632  28.596  1.00  0.00     0.010 A 
ATOM     71  C   UNL A   1      42.832  23.455  26.439  1.00  0.00     0.010 A 
ATOM     72  C   UNL A   1      41.962  21.347  28.061  1.00  0.00     0.020 A 
ATOM     73  C   UNL A   1      42.672  22.179  25.892  1.00  0.00     0.020 A 
ATOM     74  C   UNL A   1      42.252  21.129  26.711  1.00  0.00     0.054 A 
BRANCH  74  75
ATOM     75  S   UNL A   1      42.032  19.464  26.025  1.00  0.00     0.124 S 
ATOM     76  O   UNL A   1      42.522  18.622  27.112  1.00  0.00    -0.237 OA
ATOM     77  O   UNL A   1      40.592  19.410  25.782  1.00  0.00    -0.237 OA
ATOM     78  O   UNL A   1      42.859  19.479  24.821  1.00  0.00    -0.744 OA
ENDBRANCH  74  75
ENDBRANCH  46  69
BRANCH  58  79
ATOM     79  C   UNL A   1      47.941  27.075  30.643  1.00  0.00    -0.014 A 
ATOM     80  C   UNL A   1      48.993  27.367  29.757  1.00  0.00     0.010 A 
ATOM     81  C   UNL A   1      48.230  26.435  31.862  1.00  0.00     0.010 A 
ATOM     82  C   UNL A   1      50.304  26.999  30.072  1.00  0.00     0.020 A 
ATOM     83  C   UNL A   1      49.542  26.090  32.193  1.00  0.00     0.020 A 
ATOM     84  C   UNL A   1      50.570  26.362  31.289  1.00  0.00     0.054 A 
BRANCH  84  85
ATOM     85  S   UNL A   1      52.285  25.935  31.693  1.00  0.00     0.124 S 
ATOM     86  O   UNL A   1      52.156  24.553  32.147  1.00  0.00    -0.237 OA
ATOM     87  O   UNL A   1      52.971  26.117  30.416  1.00  0.00    -0.237 OA
ATOM     88  O   UNL A   1      52.647  26.899  32.730  1.00  0.00    -0.744 OA
ENDBRANCH  84  85
ENDBRANCH  58  79
ENDBRANCH  32  33
ENDBRANCH  24  27
ENDBRANCH  22  23
ENDBRANCH  21  22
ENDBRANCH   1  21
TORSDOF 17
ENDMDL
MODEL 2
REMARK VINA RESULT:     -10.3      3.063      9.269
REMARK SMILES C[C@@H](C(=O)NCCCCNC(=O)c1ccc(-c2c3nc(c(-c4ccc(S(=O)(=O)[O-])cc4)c4ccc([nH]4)c(-c4ccc(S(=O)(=O)[O-])cc4)c4nc(c(-c5ccc(S(=O)(=O)[O-])cc5)c5ccc2[nH]5)C=C4)C=C3)cc1)[C@H](C)[S@@](=O)c1ccc(F)c(F)c1
REMARK SMILES IDX 7 1 6 2 5 3 3 4 4 5 2 7 1 8 73 9 74 10 75 11 76 12 77 13
REMARK SMILES IDX 78 14 84 15 79 16 82 17 80 18 83 19 81 20 8 21 9 22 10 23
REMARK SMILES IDX 11 24 12 26 13 27 14 28 72 29 15 30 71 31 16 32 17 33 18 34
REMARK SMILES IDX 65 35 19 36 70 37 64 38 66 39 20 40 69 41 63 42 62 43 21 45
REMARK SMILES IDX 51 46 32 47 50 48 33 49 36 50 49 51 67 52 34 53 35 54 48 56
REMARK SMILES IDX 68 57 37 58 22 59 23 60 31 61 24 62 30 63 25 64 26 65 27 66
REMARK SMILES IDX 28 67 29 68 52 69 53 70 61 71 54 72 60 73 55 74 56 75 57 76
REMARK SMILES IDX 58 77 59 78 38 79 39 80 47 81 40 82 46 83 41 84 42 85 43 86
REMARK SMILES IDX 44 87 45 88
REMARK H PARENT 5 6 10 25 66 44 36 55
REMARK Flexibility Score: inf
ROOT
ATOM      1  C   UNL A   1      34.894  22.460  26.121  1.00  0.00     0.023 C 
ENDROOT
BRANCH   1   2
ATOM      2  C   UNL A   1      33.510  22.621  25.490  1.00  0.00     0.116 C 
BRANCH   2   3
ATOM      3  N   UNL A   1      32.634  23.442  26.306  1.00  0.00    -0.356 N 
ATOM      4  C   UNL A   1      31.855  24.511  25.979  1.00  0.00     0.224 C 
ATOM      5  O   UNL A   1      31.194  25.018  26.884  1.00  0.00    -0.275 OA
ATOM      6  H   UNL A   1      32.597  23.184  27.256  1.00  0.00     0.163 HD
BRANCH   4   7
ATOM      7  C   UNL A   1      31.813  25.020  24.537  1.00  0.00     0.091 C 
ATOM      8  C   UNL A   1      33.242  25.244  24.019  1.00  0.00     0.019 C 
BRANCH   7   9
ATOM      9  C   UNL A   1      30.999  26.324  24.341  1.00  0.00     0.093 C 
ATOM     10  C   UNL A   1      29.594  26.204  23.756  1.00  0.00     0.023 C 
BRANCH   9  11
ATOM     11  S   UNL A   1      31.940  27.711  23.588  1.00  0.00     0.057 S 
ATOM     12  O   UNL A   1      30.957  28.550  22.824  1.00  0.00    -0.254 OA
BRANCH  11  13
ATOM     13  C   UNL A   1      32.419  28.702  25.010  1.00  0.00     0.042 A 
ATOM     14  C   UNL A   1      33.663  28.471  25.618  1.00  0.00     0.021 A 
ATOM     15  C   UNL A   1      31.632  29.773  25.446  1.00  0.00     0.060 A 
ATOM     16  C   UNL A   1      34.095  29.282  26.673  1.00  0.00     0.043 A 
ATOM     17  C   UNL A   1      32.055  30.554  26.517  1.00  0.00     0.160 A 
ATOM     18  C   UNL A   1      33.281  30.314  27.123  1.00  0.00     0.158 A 
ATOM     19  F   UNL A   1      31.271  31.552  26.948  1.00  0.00    -0.204 F 
ATOM     20  F   UNL A   1      33.699  31.088  28.134  1.00  0.00    -0.204 F 
ENDBRANCH  11  13
ENDBRANCH   9  11
ENDBRANCH   7   9
ENDBRANCH   4   7
ENDBRANCH   2   3
ENDBRANCH   1   2
BRANCH   1  21
ATOM     21  C   UNL A   1      35.791  23.698  26.050  1.00  0.00     0.023 C 
BRANCH  21  22
ATOM     22  C   UNL A   1      36.923  23.629  25.031  1.00  0.00     0.116 C 
BRANCH  22  23
ATOM     23  N   UNL A   1      37.924  22.630  25.366  1.00  0.00    -0.352 N 
ATOM     24  C   UNL A   1      39.090  22.778  26.079  1.00  0.00     0.251 C 
ATOM     25  H   UNL A   1      37.742  21.721  25.037  1.00  0.00     0.163 HD
ATOM     26  O   UNL A   1      39.885  21.845  26.148  1.00  0.00    -0.269 OA
BRANCH  24  27
ATOM     27  C   UNL A   1      39.400  24.070  26.729  1.00  0.00     0.039 A 
ATOM     28  C   UNL A   1      38.948  24.294  28.032  1.00  0.00     0.014 A 
ATOM     29  C   UNL A   1      40.143  25.050  26.066  1.00  0.00     0.014 A 
ATOM     30  C   UNL A   1      39.303  25.471  28.695  1.00  0.00     0.010 A 
ATOM     31  C   UNL A   1      40.554  26.191  26.752  1.00  0.00     0.010 A 
ATOM     32  C   UNL A   1      40.142  26.411  28.075  1.00  0.00    -0.014 A 
BRANCH  32  33
ATOM     33  C   UNL A   1      40.611  27.621  28.799  1.00  0.00     0.031 A 
ATOM     34  C   UNL A   1      41.972  27.642  29.443  1.00  0.00     0.074 A 
ATOM     35  C   UNL A   1      39.784  28.677  28.936  1.00  0.00     0.049 A 
ATOM     36  N   UNL A   1      42.526  28.581  30.166  1.00  0.00    -0.248 NA
ATOM     37  C   UNL A   1      42.810  26.444  29.270  1.00  0.00     0.031 C 
ATOM     38  C   UNL A   1      38.425  28.766  28.396  1.00  0.00     0.029 A 
ATOM     39  N   UNL A   1      39.962  29.878  29.579  1.00  0.00    -0.354 N 
ATOM     40  C   UNL A   1      43.767  28.083  30.548  1.00  0.00     0.074 A 
ATOM     41  C   UNL A   1      43.865  26.742  30.014  1.00  0.00     0.031 C 
ATOM     42  C   UNL A   1      37.903  29.963  28.709  1.00  0.00     0.029 A 
ATOM     43  C   UNL A   1      38.870  30.711  29.506  1.00  0.00     0.049 A 
ATOM     44  H   UNL A   1      40.793  30.120  30.047  1.00  0.00     0.167 HD
ATOM     45  C   UNL A   1      44.743  28.693  31.262  1.00  0.00     0.031 A 
ATOM     46  C   UNL A   1      38.665  31.936  30.027  1.00  0.00     0.031 A 
ATOM     47  C   UNL A   1      44.648  30.032  31.781  1.00  0.00     0.049 A 
ATOM     48  C   UNL A   1      39.761  32.589  30.823  1.00  0.00     0.074 A 
ATOM     49  C   UNL A   1      45.605  30.757  32.469  1.00  0.00     0.029 A 
ATOM     50  N   UNL A   1      43.531  30.847  31.672  1.00  0.00    -0.354 N 
ATOM     51  N   UNL A   1      40.953  32.126  31.116  1.00  0.00    -0.248 NA
ATOM     52  C   UNL A   1      39.490  33.935  31.348  1.00  0.00     0.031 C 
ATOM     53  C   UNL A   1      45.050  31.992  32.820  1.00  0.00     0.029 A 
ATOM     54  C   UNL A   1      43.768  32.058  32.299  1.00  0.00     0.049 A 
ATOM     55  H   UNL A   1      42.693  30.600  31.218  1.00  0.00     0.167 HD
ATOM     56  C   UNL A   1      41.584  33.136  31.834  1.00  0.00     0.074 A 
ATOM     57  C   UNL A   1      40.649  34.238  31.919  1.00  0.00     0.031 C 
ATOM     58  C   UNL A   1      42.829  33.149  32.373  1.00  0.00     0.031 A 
BRANCH  45  59
ATOM     59  C   UNL A   1      46.005  27.914  31.528  1.00  0.00    -0.014 A 
ATOM     60  C   UNL A   1      46.106  27.055  32.637  1.00  0.00     0.010 A 
ATOM     61  C   UNL A   1      47.083  28.000  30.628  1.00  0.00     0.010 A 
ATOM     62  C   UNL A   1      47.275  26.323  32.861  1.00  0.00     0.020 A 
ATOM     63  C   UNL A   1      48.244  27.248  30.833  1.00  0.00     0.020 A 
ATOM     64  C   UNL A   1      48.337  26.425  31.957  1.00  0.00     0.054 A 
BRANCH  64  65
ATOM     65  S   UNL A   1      49.828  25.436  32.254  1.00  0.00     0.124 S 
ATOM     66  O   UNL A   1      50.775  26.448  32.715  1.00  0.00    -0.237 OA
ATOM     67  O   UNL A   1      49.385  24.484  33.269  1.00  0.00    -0.237 OA
ATOM     68  O   UNL A   1      50.126  24.854  30.947  1.00  0.00    -0.744 OA
ENDBRANCH  64  65
ENDBRANCH  45  59
BRANCH  46  69
ATOM     69  C   UNL A   1      37.366  32.633  29.805  1.00  0.00    -0.014 A 
ATOM     70  C   UNL A   1      37.194  33.489  28.704  1.00  0.00     0.010 A 
ATOM     71  C   UNL A   1      36.295  32.444  30.697  1.00  0.00     0.010 A 
ATOM     72  C   UNL A   1      35.984  34.161  28.509  1.00  0.00     0.020 A 
ATOM     73  C   UNL A   1      35.074  33.091  30.491  1.00  0.00     0.020 A 
ATOM     74  C   UNL A   1      34.930  33.957  29.406  1.00  0.00     0.054 A 
BRANCH  74  75
ATOM     75  S   UNL A   1      33.354  34.807  29.113  1.00  0.00     0.124 S 
ATOM     76  O   UNL A   1      32.774  34.839  30.451  1.00  0.00    -0.237 OA
ATOM     77  O   UNL A   1      33.785  36.097  28.578  1.00  0.00    -0.237 OA
ATOM     78  O   UNL A   1      32.673  33.941  28.154  1.00  0.00    -0.744 OA
ENDBRANCH  74  75
ENDBRANCH  46  69
BRANCH  58  79
ATOM     79  C   UNL A   1      43.270  34.408  33.070  1.00  0.00    -0.014 A 
ATOM     80  C   UNL A   1      43.117  34.568  34.458  1.00  0.00     0.010 A 
ATOM     81  C   UNL A   1      43.901  35.424  32.328  1.00  0.00     0.010 A 
ATOM     82  C   UNL A   1      43.558  35.736  35.087  1.00  0.00     0.020 A 
ATOM     83  C   UNL A   1      44.370  36.580  32.957  1.00  0.00     0.020 A 
ATOM     84  C   UNL A   1      44.182  36.734  34.332  1.00  0.00     0.054 A 
BRANCH  84  85
ATOM     85  S   UNL A   1      44.787  38.219  35.179  1.00  0.00     0.124 S 
ATOM     86  O   UNL A   1      44.689  37.830  36.584  1.00  0.00    -0.237 OA
ATOM     87  O   UNL A   1      46.145  38.356  34.658  1.00  0.00    -0.237 OA
ATOM     88  O   UNL A   1      43.856  39.262  34.757  1.00  0.00    -0.744 OA
ENDBRANCH  84  85
ENDBRANCH  58  79
ENDBRANCH  32  33
ENDBRANCH  24  27
ENDBRANCH  22  23
ENDBRANCH  21  22
ENDBRANCH   1  21
TORSDOF 17
ENDMDL
MODEL 3
REMARK VINA RESULT:     -10.1      1.547      2.375
REMARK SMILES C[C@@H](C(=O)NCCCCNC(=O)c1ccc(-c2c3nc(c(-c4ccc(S(=O)(=O)[O-])cc4)c4ccc([nH]4)c(-c4ccc(S(=O)(=O)[O-])cc4)c4nc(c(-c5ccc(S(=O)(=O)[O-])cc5)c5ccc2[nH]5)C=C4)C=C3)cc1)[C@H](C)[S@@](=O)c1ccc(F)c(F)c1
REMARK SMILES IDX 7 1 6 2 5 3 3 4 4 5 2 7 1 8 73 9 74 10 75 11 76 12 77 13
REMARK SMILES IDX 78 14 84 15 79 16 82 17 80 18 83 19 81 20 8 21 9 22 10 23
REMARK SMILES IDX 11 24 12 26 13 27 14 28 72 29 15 30 71 31 16 32 17 33 18 34
REMARK SMILES IDX 65 35 19 36 70 37 64 38 66 39 20 40 69 41 63 42 62 43 21 45
REMARK SMILES IDX 51 46 32 47 50 48 33 49 36 50 49 51 67 52 34 53 35 54 48 56
REMARK SMILES IDX 68 57 37 58 22 59 23 60 31 61 24 62 30 63 25 64 26 65 27 66
REMARK SMILES IDX 28 67 29 68 52 69 53 70 61 71 54 72 60 73 55 74 56 75 57 76
REMARK SMILES IDX 58 77 59 78 38 79 39 80 47 81 40 82 46 83 41 84 42 85 43 86
REMARK SMILES IDX 44 87 45 88
REMARK H PARENT 5 6 10 25 66 44 36 55
REMARK Flexibility Score: inf
ROOT
ATOM      1  C   UNL A   1      31.990  26.894  26.042  1.00  0.00     0.023 C 
ENDROOT
BRANCH   1   2
ATOM      2  C   UNL A   1      32.354  25.594  25.322  1.00  0.00     0.116 C 
BRANCH   2   3
ATOM      3  N   UNL A   1      33.624  25.060  25.777  1.00  0.00    -0.356 N 
ATOM      4  C   UNL A   1      34.544  24.284  25.138  1.00  0.00     0.224 C 
ATOM      5  O   UNL A   1      35.556  23.982  25.769  1.00  0.00    -0.275 OA
ATOM      6  H   UNL A   1      33.861  25.297  26.703  1.00  0.00     0.163 HD
BRANCH   4   7
ATOM      7  C   UNL A   1      34.308  23.842  23.693  1.00  0.00     0.091 C 
ATOM      8  C   UNL A   1      33.888  25.048  22.839  1.00  0.00     0.019 C 
BRANCH   7   9
ATOM      9  C   UNL A   1      33.252  22.721  23.529  1.00  0.00     0.093 C 
ATOM     10  C   UNL A   1      31.950  23.069  22.809  1.00  0.00     0.023 C 
BRANCH   9  11
ATOM     11  S   UNL A   1      32.952  21.721  25.041  1.00  0.00     0.057 S 
ATOM     12  O   UNL A   1      31.482  21.792  25.336  1.00  0.00    -0.254 OA
BRANCH  11  13
ATOM     13  C   UNL A   1      33.252  20.036  24.486  1.00  0.00     0.042 A 
ATOM     14  C   UNL A   1      32.348  19.437  23.595  1.00  0.00     0.021 A 
ATOM     15  C   UNL A   1      34.426  19.359  24.830  1.00  0.00     0.060 A 
ATOM     16  C   UNL A   1      32.600  18.160  23.085  1.00  0.00     0.043 A 
ATOM     17  C   UNL A   1      34.654  18.076  24.343  1.00  0.00     0.160 A 
ATOM     18  C   UNL A   1      33.750  17.482  23.471  1.00  0.00     0.158 A 
ATOM     19  F   UNL A   1      35.765  17.424  24.712  1.00  0.00    -0.204 F 
ATOM     20  F   UNL A   1      33.989  16.258  22.980  1.00  0.00    -0.204 F 
ENDBRANCH  11  13
ENDBRANCH   9  11
ENDBRANCH   7   9
ENDBRANCH   4   7
ENDBRANCH   2   3
ENDBRANCH   1   2
BRANCH   1  21
ATOM     21  C   UNL A   1      33.124  27.916  26.157  1.00  0.00     0.023 C 
BRANCH  21  22
ATOM     22  C   UNL A   1      33.390  28.444  27.562  1.00  0.00     0.116 C 
BRANCH  22  23
ATOM     23  N   UNL A   1      33.399  29.897  27.626  1.00  0.00    -0.352 N 
ATOM     24  C   UNL A   1      34.419  30.741  27.997  1.00  0.00     0.251 C 
ATOM     25  H   UNL A   1      32.558  30.337  27.367  1.00  0.00     0.163 HD
ATOM     26  O   UNL A   1      34.201  31.943  28.120  1.00  0.00    -0.269 OA
BRANCH  24  27
ATOM     27  C   UNL A   1      35.763  30.194  28.281  1.00  0.00     0.039 A 
ATOM     28  C   UNL A   1      36.705  30.152  27.250  1.00  0.00     0.014 A 
ATOM     29  C   UNL A   1      36.101  29.739  29.559  1.00  0.00     0.014 A 
ATOM     30  C   UNL A   1      38.007  29.720  27.518  1.00  0.00     0.010 A 
ATOM     31  C   UNL A   1      37.416  29.377  29.840  1.00  0.00     0.010 A 
ATOM     32  C   UNL A   1      38.384  29.367  28.824  1.00  0.00    -0.014 A 
BRANCH  32  33
ATOM     33  C   UNL A   1      39.787  29.002  29.149  1.00  0.00     0.031 A 
ATOM     34  C   UNL A   1      40.711  30.012  29.774  1.00  0.00     0.074 A 
ATOM     35  C   UNL A   1      40.250  27.779  28.818  1.00  0.00     0.049 A 
ATOM     36  N   UNL A   1      41.980  29.895  30.071  1.00  0.00    -0.248 NA
ATOM     37  C   UNL A   1      40.140  31.333  30.087  1.00  0.00     0.031 C 
ATOM     38  C   UNL A   1      39.468  26.723  28.169  1.00  0.00     0.029 A 
ATOM     39  N   UNL A   1      41.494  27.219  28.974  1.00  0.00    -0.354 N 
ATOM     40  C   UNL A   1      42.364  31.127  30.587  1.00  0.00     0.074 A 
ATOM     41  C   UNL A   1      41.205  31.992  30.522  1.00  0.00     0.031 C 
ATOM     42  C   UNL A   1      40.242  25.638  28.005  1.00  0.00     0.029 A 
ATOM     43  C   UNL A   1      41.584  25.931  28.497  1.00  0.00     0.049 A 
ATOM     44  H   UNL A   1      42.250  27.693  29.388  1.00  0.00     0.167 HD
ATOM     45  C   UNL A   1      43.566  31.500  31.087  1.00  0.00     0.031 A 
ATOM     46  C   UNL A   1      42.631  25.084  28.451  1.00  0.00     0.031 A 
ATOM     47  C   UNL A   1      44.714  30.635  31.162  1.00  0.00     0.049 A 
ATOM     48  C   UNL A   1      43.957  25.525  29.006  1.00  0.00     0.074 A 
ATOM     49  C   UNL A   1      45.959  30.905  31.703  1.00  0.00     0.029 A 
ATOM     50  N   UNL A   1      44.759  29.335  30.682  1.00  0.00    -0.354 N 
ATOM     51  N   UNL A   1      44.281  26.673  29.552  1.00  0.00    -0.248 NA
ATOM     52  C   UNL A   1      45.057  24.551  28.950  1.00  0.00     0.031 C 
ATOM     53  C   UNL A   1      46.773  29.784  31.505  1.00  0.00     0.029 A 
ATOM     54  C   UNL A   1      46.017  28.797  30.894  1.00  0.00     0.049 A 
ATOM     55  H   UNL A   1      44.009  28.864  30.252  1.00  0.00     0.167 HD
ATOM     56  C   UNL A   1      45.613  26.549  29.930  1.00  0.00     0.074 A 
ATOM     57  C   UNL A   1      46.030  25.211  29.565  1.00  0.00     0.031 C 
ATOM     58  C   UNL A   1      46.418  27.461  30.529  1.00  0.00     0.031 A 
BRANCH  45  59
ATOM     59  C   UNL A   1      43.705  32.913  31.592  1.00  0.00    -0.014 A 
ATOM     60  C   UNL A   1      44.133  33.948  30.743  1.00  0.00     0.010 A 
ATOM     61  C   UNL A   1      43.352  33.219  32.920  1.00  0.00     0.010 A 
ATOM     62  C   UNL A   1      44.238  35.258  31.220  1.00  0.00     0.020 A 
ATOM     63  C   UNL A   1      43.428  34.532  33.393  1.00  0.00     0.020 A 
ATOM     64  C   UNL A   1      43.885  35.541  32.543  1.00  0.00     0.054 A 
BRANCH  64  65
ATOM     65  S   UNL A   1      43.997  37.256  33.124  1.00  0.00     0.124 S 
ATOM     66  O   UNL A   1      43.879  38.005  31.876  1.00  0.00    -0.237 OA
ATOM     67  O   UNL A   1      42.856  37.363  34.029  1.00  0.00    -0.237 OA
ATOM     68  O   UNL A   1      45.307  37.319  33.767  1.00  0.00    -0.744 OA
ENDBRANCH  64  65
ENDBRANCH  45  59
BRANCH  46  69
ATOM     69  C   UNL A   1      42.464  23.725  27.865  1.00  0.00    -0.014 A 
ATOM     70  C   UNL A   1      42.035  22.650  28.663  1.00  0.00     0.010 A 
ATOM     71  C   UNL A   1      42.735  23.498  26.503  1.00  0.00     0.010 A 
ATOM     72  C   UNL A   1      41.902  21.370  28.118  1.00  0.00     0.020 A 
ATOM     73  C   UNL A   1      42.576  22.226  25.947  1.00  0.00     0.020 A 
ATOM     74  C   UNL A   1      42.174  21.166  26.762  1.00  0.00     0.054 A 
BRANCH  74  75
ATOM     75  S   UNL A   1      41.955  19.505  26.064  1.00  0.00     0.124 S 
ATOM     76  O   UNL A   1      40.513  19.453  25.852  1.00  0.00    -0.237 OA
ATOM     77  O   UNL A   1      42.772  19.561  24.853  1.00  0.00    -0.237 OA
ATOM     78  O   UNL A   1      42.468  18.625  27.111  1.00  0.00    -0.744 OA
ENDBRANCH  74  75
ENDBRANCH  46  69
BRANCH  58  79
ATOM     79  C   UNL A   1      47.821  27.034  30.866  1.00  0.00    -0.014 A 
ATOM     80  C   UNL A   1      48.876  27.198  29.951  1.00  0.00     0.010 A 
ATOM     81  C   UNL A   1      48.098  26.513  32.143  1.00  0.00     0.010 A 
ATOM     82  C   UNL A   1      50.176  26.818  30.295  1.00  0.00     0.020 A 
ATOM     83  C   UNL A   1      49.400  26.158  32.502  1.00  0.00     0.020 A 
ATOM     84  C   UNL A   1      50.429  26.300  31.570  1.00  0.00     0.054 A 
BRANCH  84  85
ATOM     85  S   UNL A   1      52.132  25.857  32.009  1.00  0.00     0.124 S 
ATOM     86  O   UNL A   1      52.318  26.573  33.269  1.00  0.00    -0.237 OA
ATOM     87  O   UNL A   1      52.069  24.402  32.115  1.00  0.00    -0.237 OA
ATOM     88  O   UNL A   1      52.921  26.360  30.886  1.00  0.00    -0.744 OA
ENDBRANCH  84  85
ENDBRANCH  58  79
ENDBRANCH  32  33
ENDBRANCH  24  27
ENDBRANCH  22  23
ENDBRANCH  21  22
ENDBRANCH   1  21
TORSDOF 17
ENDMDL
