MODEL 1
REMARK VINA RESULT:     -10.9      0.000      0.000
REMARK SMILES Nn1c(SCC(=O)Nc2c(Cl)cccc2Cl)nnc(CCC(=O)NCCCCNC(=O)c2ccc(-c3c4nc(c(-c5ccc(S(=O)(=O)[O-])cc5)c5ccc([nH]5)c(-c5ccc(S(=O)(=O)[O-])cc5)c5nc(c(-c6ccc(S(=O)(=O)[O-])cc6)c6ccc3[nH]6)C=C5)C=C4)cc2)c1=O
REMARK SMILES IDX 25 1 24 2 22 3 23 4 21 6 20 7 19 8 2 9 3 10 92 11 17 12
REMARK SMILES IDX 93 13 18 14 1 15 4 18 5 19 6 20 7 21 8 22 9 24 10 25 15 26
REMARK SMILES IDX 11 27 12 28 14 29 16 30 13 31 26 32 27 33 28 34 29 35 30 36
REMARK SMILES IDX 31 38 32 39 33 40 91 41 34 42 90 43 35 44 36 45 37 46 84 47
REMARK SMILES IDX 38 48 89 49 83 50 85 51 39 52 88 53 82 54 81 55 40 57 70 58
REMARK SMILES IDX 51 59 69 60 52 61 55 62 68 63 86 64 53 65 54 66 67 68 87 69
REMARK SMILES IDX 56 70 41 71 42 72 50 73 43 74 49 75 44 76 45 77 46 78 47 79
REMARK SMILES IDX 48 80 71 81 72 82 80 83 73 84 79 85 74 86 75 87 76 88 77 89
REMARK SMILES IDX 78 90 57 91 58 92 66 93 59 94 65 95 60 96 61 97 62 98 63 99
REMARK SMILES IDX 64 100
REMARK H PARENT 24 5 1 16 1 17 8 23 29 37 85 56 55 67
REMARK Flexibility Score: inf
ROOT
ATOM      1  C   UNL A   1      37.216  23.133  25.755  1.00  0.00     0.116 C 
ENDROOT
BRANCH   1   2
ATOM      2  N   UNL A   1      36.284  22.030  25.617  1.00  0.00    -0.356 N 
ATOM      3  C   UNL A   1      35.028  21.883  26.127  1.00  0.00     0.220 C 
ATOM      4  O   UNL A   1      34.452  20.804  25.983  1.00  0.00    -0.275 OA
ATOM      5  H   UNL A   1      36.607  21.275  25.073  1.00  0.00     0.163 HD
BRANCH   3   6
ATOM      6  C   UNL A   1      34.347  23.039  26.834  1.00  0.00     0.106 C 
BRANCH   6   7
ATOM      7  C   UNL A   1      32.929  22.695  27.291  1.00  0.00     0.074 C 
BRANCH   7   8
ATOM      8  C   UNL A   1      31.886  23.514  26.568  1.00  0.00     0.131 A 
ATOM      9  N   UNL A   1      30.720  23.958  24.493  1.00  0.00    -0.199 N 
ATOM     10  C   UNL A   1      30.393  25.172  25.072  1.00  0.00     0.211 A 
ATOM     11  C   UNL A   1      31.378  23.000  25.243  1.00  0.00     0.294 A 
ATOM     12  N   UNL A   1      30.671  25.477  26.295  1.00  0.00    -0.123 NA
ATOM     13  O   UNL A   1      31.555  21.833  24.943  1.00  0.00    -0.265 OA
ATOM     14  N   UNL A   1      31.481  24.636  27.069  1.00  0.00    -0.147 NA
BRANCH   9  15
ATOM     15  N   UNL A   1      30.337  23.609  23.154  1.00  0.00    -0.334 N 
ATOM     16  H   UNL A   1      30.134  22.673  22.928  1.00  0.00     0.178 HD
ATOM     17  H   UNL A   1      30.276  24.306  22.462  1.00  0.00     0.178 HD
ENDBRANCH   9  15
BRANCH  10  18
ATOM     18  S   UNL A   1      29.531  26.306  24.051  1.00  0.00    -0.074 SA
BRANCH  18  19
ATOM     19  C   UNL A   1      30.455  27.839  24.284  1.00  0.00     0.178 C 
BRANCH  19  20
ATOM     20  C   UNL A   1      31.029  28.501  23.038  1.00  0.00     0.234 C 
ATOM     21  O   UNL A   1      30.600  29.597  22.663  1.00  0.00    -0.274 OA
ATOM     22  N   UNL A   1      32.132  27.988  22.398  1.00  0.00    -0.323 N 
ATOM     23  H   UNL A   1      32.381  28.389  21.535  1.00  0.00     0.170 HD
BRANCH  22  24
ATOM     24  C   UNL A   1      32.936  26.936  22.880  1.00  0.00     0.078 A 
ATOM     25  C   UNL A   1      33.063  25.734  22.167  1.00  0.00     0.066 A 
ATOM     26  C   UNL A   1      33.631  27.082  24.089  1.00  0.00     0.066 A 
ATOM     27  Cl  UNL A   1      32.499  25.566  20.537  1.00  0.00    -0.082 Cl
ATOM     28  C   UNL A   1      33.727  24.644  22.735  1.00  0.00     0.023 A 
ATOM     29  C   UNL A   1      34.327  26.002  24.638  1.00  0.00     0.023 A 
ATOM     30  Cl  UNL A   1      33.631  28.575  24.956  1.00  0.00    -0.082 Cl
ATOM     31  C   UNL A   1      34.342  24.772  23.980  1.00  0.00     0.003 A 
ENDBRANCH  22  24
ENDBRANCH  19  20
ENDBRANCH  18  19
ENDBRANCH  10  18
ENDBRANCH   7   8
ENDBRANCH   6   7
ENDBRANCH   3   6
ENDBRANCH   1   2
BRANCH   1  32
ATOM     32  C   UNL A   1      38.604  22.618  26.116  1.00  0.00     0.023 C 
BRANCH  32  33
ATOM     33  C   UNL A   1      38.970  21.277  25.497  1.00  0.00     0.023 C 
BRANCH  33  34
ATOM     34  C   UNL A   1      39.400  20.222  26.509  1.00  0.00     0.116 C 
BRANCH  34  35
ATOM     35  N   UNL A   1      40.538  19.419  26.063  1.00  0.00    -0.352 N 
ATOM     36  C   UNL A   1      41.857  19.759  25.875  1.00  0.00     0.251 C 
ATOM     37  H   UNL A   1      40.324  18.479  25.865  1.00  0.00     0.163 HD
ATOM     38  O   UNL A   1      42.613  18.970  25.315  1.00  0.00    -0.269 OA
BRANCH  36  39
ATOM     39  C   UNL A   1      42.356  21.083  26.303  1.00  0.00     0.039 A 
ATOM     40  C   UNL A   1      42.607  21.320  27.659  1.00  0.00     0.014 A 
ATOM     41  C   UNL A   1      42.579  22.092  25.369  1.00  0.00     0.014 A 
ATOM     42  C   UNL A   1      43.166  22.538  28.060  1.00  0.00     0.010 A 
ATOM     43  C   UNL A   1      43.238  23.251  25.751  1.00  0.00     0.010 A 
ATOM     44  C   UNL A   1      43.526  23.495  27.102  1.00  0.00    -0.014 A 
BRANCH  44  45
ATOM     45  C   UNL A   1      44.147  24.798  27.451  1.00  0.00     0.031 A 
ATOM     46  C   UNL A   1      43.261  25.907  27.955  1.00  0.00     0.074 A 
ATOM     47  C   UNL A   1      45.450  25.030  27.198  1.00  0.00     0.049 A 
ATOM     48  N   UNL A   1      43.505  27.188  28.047  1.00  0.00    -0.248 NA
ATOM     49  C   UNL A   1      41.892  25.527  28.349  1.00  0.00     0.031 C 
ATOM     50  C   UNL A   1      46.410  24.052  26.681  1.00  0.00     0.029 A 
ATOM     51  N   UNL A   1      46.184  26.184  27.315  1.00  0.00    -0.354 N 
ATOM     52  C   UNL A   1      42.305  27.770  28.441  1.00  0.00     0.074 A 
ATOM     53  C   UNL A   1      41.328  26.709  28.537  1.00  0.00     0.031 C 
ATOM     54  C   UNL A   1      47.608  24.644  26.539  1.00  0.00     0.029 A 
ATOM     55  C   UNL A   1      47.489  26.052  26.903  1.00  0.00     0.049 A 
ATOM     56  H   UNL A   1      45.811  27.027  27.662  1.00  0.00     0.167 HD
ATOM     57  C   UNL A   1      42.045  29.070  28.713  1.00  0.00     0.031 A 
ATOM     58  C   UNL A   1      48.470  26.969  26.807  1.00  0.00     0.031 A 
ATOM     59  C   UNL A   1      43.039  30.107  28.683  1.00  0.00     0.049 A 
ATOM     60  C   UNL A   1      48.175  28.397  27.181  1.00  0.00     0.074 A 
ATOM     61  C   UNL A   1      42.900  31.446  29.002  1.00  0.00     0.029 A 
ATOM     62  N   UNL A   1      44.369  29.910  28.341  1.00  0.00    -0.354 N 
ATOM     63  N   UNL A   1      47.038  28.931  27.558  1.00  0.00    -0.248 NA
ATOM     64  C   UNL A   1      49.298  29.344  27.121  1.00  0.00     0.031 C 
ATOM     65  C   UNL A   1      44.145  32.063  28.838  1.00  0.00     0.029 A 
ATOM     66  C   UNL A   1      45.064  31.100  28.451  1.00  0.00     0.049 A 
ATOM     67  H   UNL A   1      44.758  29.051  28.060  1.00  0.00     0.167 HD
ATOM     68  C   UNL A   1      47.314  30.272  27.805  1.00  0.00     0.074 A 
ATOM     69  C   UNL A   1      48.726  30.463  27.545  1.00  0.00     0.031 C 
ATOM     70  C   UNL A   1      46.474  31.258  28.205  1.00  0.00     0.031 A 
BRANCH  57  71
ATOM     71  C   UNL A   1      40.629  29.432  29.073  1.00  0.00    -0.014 A 
ATOM     72  C   UNL A   1      39.622  29.487  28.092  1.00  0.00     0.010 A 
ATOM     73  C   UNL A   1      40.297  29.716  30.410  1.00  0.00     0.010 A 
ATOM     74  C   UNL A   1      38.322  29.868  28.432  1.00  0.00     0.020 A 
ATOM     75  C   UNL A   1      38.991  30.070  30.760  1.00  0.00     0.020 A 
ATOM     76  C   UNL A   1      38.016  30.165  29.763  1.00  0.00     0.054 A 
BRANCH  76  77
ATOM     77  S   UNL A   1      36.319  30.648  30.180  1.00  0.00     0.124 S 
ATOM     78  O   UNL A   1      35.982  29.686  31.226  1.00  0.00    -0.237 OA
ATOM     79  O   UNL A   1      36.476  32.030  30.626  1.00  0.00    -0.237 OA
ATOM     80  O   UNL A   1      35.594  30.483  28.922  1.00  0.00    -0.744 OA
ENDBRANCH  76  77
ENDBRANCH  57  71
BRANCH  58  81
ATOM     81  C   UNL A   1      49.829  26.568  26.352  1.00  0.00    -0.014 A 
ATOM     82  C   UNL A   1      50.750  26.033  27.270  1.00  0.00     0.010 A 
ATOM     83  C   UNL A   1      50.209  26.709  25.005  1.00  0.00     0.010 A 
ATOM     84  C   UNL A   1      52.034  25.669  26.856  1.00  0.00     0.020 A 
ATOM     85  C   UNL A   1      51.485  26.324  24.583  1.00  0.00     0.020 A 
ATOM     86  C   UNL A   1      52.395  25.820  25.514  1.00  0.00     0.054 A 
BRANCH  86  87
ATOM     87  S   UNL A   1      54.054  25.301  24.991  1.00  0.00     0.124 S 
ATOM     88  O   UNL A   1      53.914  23.850  24.933  1.00  0.00    -0.237 OA
ATOM     89  O   UNL A   1      54.207  25.974  23.702  1.00  0.00    -0.237 OA
ATOM     90  O   UNL A   1      54.920  25.807  26.054  1.00  0.00    -0.744 OA
ENDBRANCH  86  87
ENDBRANCH  58  81
BRANCH  70  91
ATOM     91  C   UNL A   1      47.068  32.618  28.435  1.00  0.00    -0.014 A 
ATOM     92  C   UNL A   1      47.619  32.968  29.679  1.00  0.00     0.010 A 
ATOM     93  C   UNL A   1      47.134  33.532  27.368  1.00  0.00     0.010 A 
ATOM     94  C   UNL A   1      48.209  34.222  29.859  1.00  0.00     0.020 A 
ATOM     95  C   UNL A   1      47.741  34.778  27.539  1.00  0.00     0.020 A 
ATOM     96  C   UNL A   1      48.264  35.119  28.788  1.00  0.00     0.054 A 
BRANCH  96  97
ATOM     97  S   UNL A   1      49.081  36.721  29.028  1.00  0.00     0.124 S 
ATOM     98  O   UNL A   1      49.819  36.502  30.268  1.00  0.00    -0.237 OA
ATOM     99  O   UNL A   1      49.898  36.851  27.824  1.00  0.00    -0.237 OA
ATOM    100  O   UNL A   1      47.969  37.665  29.122  1.00  0.00    -0.744 OA
ENDBRANCH  96  97
ENDBRANCH  70  91
ENDBRANCH  44  45
ENDBRANCH  36  39
ENDBRANCH  34  35
ENDBRANCH  33  34
ENDBRANCH  32  33
ENDBRANCH   1  32
TORSDOF 21
ENDMDL
MODEL 2
REMARK VINA RESULT:     -10.0      6.646     10.441
REMARK SMILES Nn1c(SCC(=O)Nc2c(Cl)cccc2Cl)nnc(CCC(=O)NCCCCNC(=O)c2ccc(-c3c4nc(c(-c5ccc(S(=O)(=O)[O-])cc5)c5ccc([nH]5)c(-c5ccc(S(=O)(=O)[O-])cc5)c5nc(c(-c6ccc(S(=O)(=O)[O-])cc6)c6ccc3[nH]6)C=C5)C=C4)cc2)c1=O
REMARK SMILES IDX 25 1 24 2 22 3 23 4 21 6 20 7 19 8 2 9 3 10 92 11 17 12
REMARK SMILES IDX 93 13 18 14 1 15 4 18 5 19 6 20 7 21 8 22 9 24 10 25 15 26
REMARK SMILES IDX 11 27 12 28 14 29 16 30 13 31 26 32 27 33 28 34 29 35 30 36
REMARK SMILES IDX 31 38 32 39 33 40 91 41 34 42 90 43 35 44 36 45 37 46 84 47
REMARK SMILES IDX 38 48 89 49 83 50 85 51 39 52 88 53 82 54 81 55 40 57 70 58
REMARK SMILES IDX 51 59 69 60 52 61 55 62 68 63 86 64 53 65 54 66 67 68 87 69
REMARK SMILES IDX 56 70 41 71 42 72 50 73 43 74 49 75 44 76 45 77 46 78 47 79
REMARK SMILES IDX 48 80 71 81 72 82 80 83 73 84 79 85 74 86 75 87 76 88 77 89
REMARK SMILES IDX 78 90 57 91 58 92 66 93 59 94 65 95 60 96 61 97 62 98 63 99
REMARK SMILES IDX 64 100
REMARK H PARENT 24 5 1 16 1 17 8 23 29 37 85 56 55 67
REMARK Flexibility Score: inf
ROOT
ATOM      1  C   UNL A   1      36.043  33.342  27.693  1.00  0.00     0.116 C 
ENDROOT
BRANCH   1   2
ATOM      2  N   UNL A   1      36.256  31.959  28.079  1.00  0.00    -0.356 N 
ATOM      3  C   UNL A   1      35.402  30.899  28.023  1.00  0.00     0.220 C 
ATOM      4  O   UNL A   1      35.754  29.827  28.518  1.00  0.00    -0.275 OA
ATOM      5  H   UNL A   1      37.152  31.758  28.434  1.00  0.00     0.163 HD
BRANCH   3   6
ATOM      6  C   UNL A   1      34.055  31.032  27.340  1.00  0.00     0.106 C 
BRANCH   6   7
ATOM      7  C   UNL A   1      33.113  29.873  27.664  1.00  0.00     0.074 C 
BRANCH   7   8
ATOM      8  C   UNL A   1      32.504  29.273  26.418  1.00  0.00     0.131 A 
ATOM      9  N   UNL A   1      31.349  27.398  25.412  1.00  0.00    -0.199 N 
ATOM     10  C   UNL A   1      31.787  27.923  24.208  1.00  0.00     0.211 A 
ATOM     11  C   UNL A   1      31.568  28.101  26.583  1.00  0.00     0.294 A 
ATOM     12  N   UNL A   1      32.405  29.052  24.106  1.00  0.00    -0.123 NA
ATOM     13  O   UNL A   1      31.079  27.871  27.674  1.00  0.00    -0.265 OA
ATOM     14  N   UNL A   1      32.815  29.743  25.253  1.00  0.00    -0.147 NA
BRANCH   9  15
ATOM     15  N   UNL A   1      30.599  26.177  25.498  1.00  0.00    -0.334 N 
ATOM     16  H   UNL A   1      30.118  25.838  24.709  1.00  0.00     0.178 HD
ATOM     17  H   UNL A   1      30.566  25.678  26.346  1.00  0.00     0.178 HD
ENDBRANCH   9  15
BRANCH  10  18
ATOM     18  S   UNL A   1      31.433  26.975  22.778  1.00  0.00    -0.074 SA
BRANCH  18  19
ATOM     19  C   UNL A   1      33.031  26.239  22.377  1.00  0.00     0.178 C 
BRANCH  19  20
ATOM     20  C   UNL A   1      33.030  25.051  21.424  1.00  0.00     0.234 C 
ATOM     21  O   UNL A   1      33.125  25.232  20.206  1.00  0.00    -0.274 OA
ATOM     22  N   UNL A   1      33.088  23.759  21.890  1.00  0.00    -0.323 N 
ATOM     23  H   UNL A   1      32.963  23.036  21.234  1.00  0.00     0.170 HD
BRANCH  22  24
ATOM     24  C   UNL A   1      33.313  23.386  23.229  1.00  0.00     0.078 A 
ATOM     25  C   UNL A   1      32.253  23.283  24.143  1.00  0.00     0.066 A 
ATOM     26  C   UNL A   1      34.615  23.104  23.669  1.00  0.00     0.066 A 
ATOM     27  Cl  UNL A   1      30.596  23.312  23.638  1.00  0.00    -0.082 Cl
ATOM     28  C   UNL A   1      32.510  23.075  25.500  1.00  0.00     0.023 A 
ATOM     29  C   UNL A   1      34.865  22.859  25.022  1.00  0.00     0.023 A 
ATOM     30  Cl  UNL A   1      35.951  23.080  22.577  1.00  0.00    -0.082 Cl
ATOM     31  C   UNL A   1      33.818  22.883  25.942  1.00  0.00     0.003 A 
ENDBRANCH  22  24
ENDBRANCH  19  20
ENDBRANCH  18  19
ENDBRANCH  10  18
ENDBRANCH   7   8
ENDBRANCH   6   7
ENDBRANCH   3   6
ENDBRANCH   1   2
BRANCH   1  32
ATOM     32  C   UNL A   1      35.646  34.180  28.902  1.00  0.00     0.023 C 
BRANCH  32  33
ATOM     33  C   UNL A   1      34.458  35.104  28.678  1.00  0.00     0.023 C 
BRANCH  33  34
ATOM     34  C   UNL A   1      33.149  34.586  29.261  1.00  0.00     0.116 C 
BRANCH  34  35
ATOM     35  N   UNL A   1      32.726  35.299  30.464  1.00  0.00    -0.352 N 
ATOM     36  C   UNL A   1      33.218  35.264  31.748  1.00  0.00     0.251 C 
ATOM     37  H   UNL A   1      31.962  35.907  30.334  1.00  0.00     0.163 HD
ATOM     38  O   UNL A   1      32.592  35.810  32.654  1.00  0.00    -0.269 OA
BRANCH  36  39
ATOM     39  C   UNL A   1      34.469  34.537  32.049  1.00  0.00     0.039 A 
ATOM     40  C   UNL A   1      35.658  35.255  32.227  1.00  0.00     0.014 A 
ATOM     41  C   UNL A   1      34.473  33.149  32.160  1.00  0.00     0.014 A 
ATOM     42  C   UNL A   1      36.826  34.583  32.601  1.00  0.00     0.010 A 
ATOM     43  C   UNL A   1      35.599  32.500  32.643  1.00  0.00     0.010 A 
ATOM     44  C   UNL A   1      36.793  33.205  32.855  1.00  0.00    -0.014 A 
BRANCH  44  45
ATOM     45  C   UNL A   1      37.986  32.431  33.282  1.00  0.00     0.031 A 
ATOM     46  C   UNL A   1      38.513  32.630  34.679  1.00  0.00     0.074 A 
ATOM     47  C   UNL A   1      38.664  31.669  32.402  1.00  0.00     0.049 A 
ATOM     48  N   UNL A   1      39.674  32.305  35.183  1.00  0.00    -0.248 NA
ATOM     49  C   UNL A   1      37.633  33.351  35.617  1.00  0.00     0.031 C 
ATOM     50  C   UNL A   1      38.279  31.417  31.011  1.00  0.00     0.029 A 
ATOM     51  N   UNL A   1      39.846  30.987  32.546  1.00  0.00    -0.354 N 
ATOM     52  C   UNL A   1      39.689  32.839  36.466  1.00  0.00     0.074 A 
ATOM     53  C   UNL A   1      38.437  33.539  36.651  1.00  0.00     0.031 C 
ATOM     54  C   UNL A   1      39.200  30.626  30.435  1.00  0.00     0.029 A 
ATOM     55  C   UNL A   1      40.265  30.359  31.396  1.00  0.00     0.049 A 
ATOM     56  H   UNL A   1      40.348  30.950  33.393  1.00  0.00     0.167 HD
ATOM     57  C   UNL A   1      40.654  32.745  37.412  1.00  0.00     0.031 A 
ATOM     58  C   UNL A   1      41.392  29.668  31.141  1.00  0.00     0.031 A 
ATOM     59  C   UNL A   1      41.864  31.990  37.244  1.00  0.00     0.049 A 
ATOM     60  C   UNL A   1      42.420  29.517  32.231  1.00  0.00     0.074 A 
ATOM     61  C   UNL A   1      42.879  31.773  38.159  1.00  0.00     0.029 A 
ATOM     62  N   UNL A   1      42.206  31.300  36.091  1.00  0.00    -0.354 N 
ATOM     63  N   UNL A   1      42.416  30.022  33.441  1.00  0.00    -0.248 NA
ATOM     64  C   UNL A   1      43.600  28.698  31.921  1.00  0.00     0.031 C 
ATOM     65  C   UNL A   1      43.845  30.963  37.552  1.00  0.00     0.029 A 
ATOM     66  C   UNL A   1      43.412  30.648  36.272  1.00  0.00     0.049 A 
ATOM     67  H   UNL A   1      41.671  31.279  35.266  1.00  0.00     0.167 HD
ATOM     68  C   UNL A   1      43.581  29.562  34.046  1.00  0.00     0.074 A 
ATOM     69  C   UNL A   1      44.257  28.729  33.072  1.00  0.00     0.031 C 
ATOM     70  C   UNL A   1      44.053  29.810  35.292  1.00  0.00     0.031 A 
BRANCH  57  71
ATOM     71  C   UNL A   1      40.425  33.472  38.710  1.00  0.00    -0.014 A 
ATOM     72  C   UNL A   1      39.722  32.866  39.766  1.00  0.00     0.010 A 
ATOM     73  C   UNL A   1      40.925  34.775  38.879  1.00  0.00     0.010 A 
ATOM     74  C   UNL A   1      39.476  33.568  40.949  1.00  0.00     0.020 A 
ATOM     75  C   UNL A   1      40.707  35.472  40.072  1.00  0.00     0.020 A 
ATOM     76  C   UNL A   1      39.965  34.870  41.091  1.00  0.00     0.054 A 
BRANCH  76  77
ATOM     77  S   UNL A   1      39.641  35.757  42.640  1.00  0.00     0.124 S 
ATOM     78  O   UNL A   1      38.430  35.094  43.117  1.00  0.00    -0.237 OA
ATOM     79  O   UNL A   1      40.848  35.495  43.420  1.00  0.00    -0.237 OA
ATOM     80  O   UNL A   1      39.468  37.143  42.214  1.00  0.00    -0.744 OA
ENDBRANCH  76  77
ENDBRANCH  57  71
BRANCH  58  81
ATOM     81  C   UNL A   1      41.606  29.050  29.804  1.00  0.00    -0.014 A 
ATOM     82  C   UNL A   1      41.249  27.708  29.582  1.00  0.00     0.010 A 
ATOM     83  C   UNL A   1      42.157  29.796  28.746  1.00  0.00     0.010 A 
ATOM     84  C   UNL A   1      41.462  27.115  28.336  1.00  0.00     0.020 A 
ATOM     85  C   UNL A   1      42.349  29.212  27.490  1.00  0.00     0.020 A 
ATOM     86  C   UNL A   1      42.013  27.870  27.296  1.00  0.00     0.054 A 
BRANCH  86  87
ATOM     87  S   UNL A   1      42.242  27.090  25.673  1.00  0.00     0.124 S 
ATOM     88  O   UNL A   1      41.030  26.287  25.551  1.00  0.00    -0.237 OA
ATOM     89  O   UNL A   1      42.331  28.241  24.777  1.00  0.00    -0.237 OA
ATOM     90  O   UNL A   1      43.483  26.335  25.830  1.00  0.00    -0.744 OA
ENDBRANCH  86  87
ENDBRANCH  58  81
BRANCH  70  91
ATOM     91  C   UNL A   1      45.334  29.133  35.692  1.00  0.00    -0.014 A 
ATOM     92  C   UNL A   1      46.574  29.768  35.515  1.00  0.00     0.010 A 
ATOM     93  C   UNL A   1      45.283  27.873  36.314  1.00  0.00     0.010 A 
ATOM     94  C   UNL A   1      47.750  29.141  35.936  1.00  0.00     0.020 A 
ATOM     95  C   UNL A   1      46.454  27.254  36.754  1.00  0.00     0.020 A 
ATOM     96  C   UNL A   1      47.682  27.887  36.551  1.00  0.00     0.054 A 
BRANCH  96  97
ATOM     97  S   UNL A   1      49.215  27.114  37.138  1.00  0.00     0.124 S 
ATOM     98  O   UNL A   1      49.189  27.433  38.563  1.00  0.00    -0.237 OA
ATOM     99  O   UNL A   1      49.015  25.706  36.806  1.00  0.00    -0.237 OA
ATOM    100  O   UNL A   1      50.258  27.787  36.366  1.00  0.00    -0.744 OA
ENDBRANCH  96  97
ENDBRANCH  70  91
ENDBRANCH  44  45
ENDBRANCH  36  39
ENDBRANCH  34  35
ENDBRANCH  33  34
ENDBRANCH  32  33
ENDBRANCH   1  32
TORSDOF 21
ENDMDL
MODEL 3
REMARK VINA RESULT:      -9.9      5.273      8.606
REMARK SMILES Nn1c(SCC(=O)Nc2c(Cl)cccc2Cl)nnc(CCC(=O)NCCCCNC(=O)c2ccc(-c3c4nc(c(-c5ccc(S(=O)(=O)[O-])cc5)c5ccc([nH]5)c(-c5ccc(S(=O)(=O)[O-])cc5)c5nc(c(-c6ccc(S(=O)(=O)[O-])cc6)c6ccc3[nH]6)C=C5)C=C4)cc2)c1=O
REMARK SMILES IDX 25 1 24 2 22 3 23 4 21 6 20 7 19 8 2 9 3 10 92 11 17 12
REMARK SMILES IDX 93 13 18 14 1 15 4 18 5 19 6 20 7 21 8 22 9 24 10 25 15 26
REMARK SMILES IDX 11 27 12 28 14 29 16 30 13 31 26 32 27 33 28 34 29 35 30 36
REMARK SMILES IDX 31 38 32 39 33 40 91 41 34 42 90 43 35 44 36 45 37 46 84 47
REMARK SMILES IDX 38 48 89 49 83 50 85 51 39 52 88 53 82 54 81 55 40 57 70 58
REMARK SMILES IDX 51 59 69 60 52 61 55 62 68 63 86 64 53 65 54 66 67 68 87 69
REMARK SMILES IDX 56 70 41 71 42 72 50 73 43 74 49 75 44 76 45 77 46 78 47 79
REMARK SMILES IDX 48 80 71 81 72 82 80 83 73 84 79 85 74 86 75 87 76 88 77 89
REMARK SMILES IDX 78 90 57 91 58 92 66 93 59 94 65 95 60 96 61 97 62 98 63 99
REMARK SMILES IDX 64 100
REMARK H PARENT 24 5 1 16 1 17 8 23 29 37 85 56 55 67
REMARK Flexibility Score: inf
ROOT
ATOM      1  C   UNL A   1      31.461  29.652  24.353  1.00  0.00     0.116 C 
ENDROOT
BRANCH   1   2
ATOM      2  N   UNL A   1      30.090  29.667  23.879  1.00  0.00    -0.356 N 
ATOM      3  C   UNL A   1      29.385  28.702  23.225  1.00  0.00     0.220 C 
ATOM      4  O   UNL A   1      28.258  28.972  22.805  1.00  0.00    -0.275 OA
ATOM      5  H   UNL A   1      29.596  30.501  24.057  1.00  0.00     0.163 HD
BRANCH   3   6
ATOM      6  C   UNL A   1      29.969  27.314  23.043  1.00  0.00     0.106 C 
BRANCH   6   7
ATOM      7  C   UNL A   1      30.447  26.701  24.359  1.00  0.00     0.074 C 
BRANCH   7   8
ATOM      8  C   UNL A   1      31.032  25.322  24.162  1.00  0.00     0.131 A 
ATOM      9  N   UNL A   1      32.208  23.797  22.695  1.00  0.00    -0.199 N 
ATOM     10  C   UNL A   1      31.716  22.803  23.524  1.00  0.00     0.211 A 
ATOM     11  C   UNL A   1      32.008  25.124  23.027  1.00  0.00     0.294 A 
ATOM     12  N   UNL A   1      31.062  23.041  24.611  1.00  0.00    -0.123 NA
ATOM     13  O   UNL A   1      32.539  26.093  22.515  1.00  0.00    -0.265 OA
ATOM     14  N   UNL A   1      30.669  24.347  24.931  1.00  0.00    -0.147 NA
BRANCH   9  15
ATOM     15  N   UNL A   1      32.997  23.513  21.529  1.00  0.00    -0.334 N 
ATOM     16  H   UNL A   1      32.652  23.737  20.634  1.00  0.00     0.178 HD
ATOM     17  H   UNL A   1      33.883  23.095  21.623  1.00  0.00     0.178 HD
ENDBRANCH   9  15
BRANCH  10  18
ATOM     18  S   UNL A   1      32.051  21.154  23.035  1.00  0.00    -0.074 SA
BRANCH  18  19
ATOM     19  C   UNL A   1      33.637  20.814  23.825  1.00  0.00     0.178 C 
BRANCH  19  20
ATOM     20  C   UNL A   1      33.604  20.319  25.265  1.00  0.00     0.234 C 
ATOM     21  O   UNL A   1      32.893  19.357  25.575  1.00  0.00    -0.274 OA
ATOM     22  N   UNL A   1      34.472  20.810  26.211  1.00  0.00    -0.323 N 
ATOM     23  H   UNL A   1      34.322  20.539  27.145  1.00  0.00     0.170 HD
BRANCH  22  24
ATOM     24  C   UNL A   1      35.558  21.667  25.952  1.00  0.00     0.078 A 
ATOM     25  C   UNL A   1      36.790  21.164  25.506  1.00  0.00     0.066 A 
ATOM     26  C   UNL A   1      35.418  23.051  26.133  1.00  0.00     0.066 A 
ATOM     27  Cl  UNL A   1      36.976  19.529  24.966  1.00  0.00    -0.082 Cl
ATOM     28  C   UNL A   1      37.902  22.005  25.413  1.00  0.00     0.023 A 
ATOM     29  C   UNL A   1      36.523  23.896  26.002  1.00  0.00     0.023 A 
ATOM     30  Cl  UNL A   1      33.899  23.758  26.550  1.00  0.00    -0.082 Cl
ATOM     31  C   UNL A   1      37.773  23.367  25.680  1.00  0.00     0.003 A 
ENDBRANCH  22  24
ENDBRANCH  19  20
ENDBRANCH  18  19
ENDBRANCH  10  18
ENDBRANCH   7   8
ENDBRANCH   6   7
ENDBRANCH   3   6
ENDBRANCH   1   2
BRANCH   1  32
ATOM     32  C   UNL A   1      31.502  29.728  25.875  1.00  0.00     0.023 C 
BRANCH  32  33
ATOM     33  C   UNL A   1      32.508  28.796  26.535  1.00  0.00     0.023 C 
BRANCH  33  34
ATOM     34  C   UNL A   1      33.900  29.394  26.693  1.00  0.00     0.116 C 
BRANCH  34  35
ATOM     35  N   UNL A   1      33.888  30.833  26.949  1.00  0.00    -0.352 N 
ATOM     36  C   UNL A   1      34.706  31.612  27.735  1.00  0.00     0.251 C 
ATOM     37  H   UNL A   1      33.177  31.328  26.481  1.00  0.00     0.163 HD
ATOM     38  O   UNL A   1      34.402  32.782  27.954  1.00  0.00    -0.269 OA
BRANCH  36  39
ATOM     39  C   UNL A   1      35.920  31.036  28.351  1.00  0.00     0.039 A 
ATOM     40  C   UNL A   1      37.117  31.759  28.322  1.00  0.00     0.014 A 
ATOM     41  C   UNL A   1      35.879  29.783  28.960  1.00  0.00     0.014 A 
ATOM     42  C   UNL A   1      38.246  31.262  28.981  1.00  0.00     0.010 A 
ATOM     43  C   UNL A   1      36.961  29.347  29.709  1.00  0.00     0.010 A 
ATOM     44  C   UNL A   1      38.162  30.072  29.717  1.00  0.00    -0.014 A 
BRANCH  44  45
ATOM     45  C   UNL A   1      39.310  29.498  30.464  1.00  0.00     0.031 A 
ATOM     46  C   UNL A   1      39.723  30.145  31.760  1.00  0.00     0.074 A 
ATOM     47  C   UNL A   1      40.051  28.506  29.933  1.00  0.00     0.049 A 
ATOM     48  N   UNL A   1      40.837  30.020  32.432  1.00  0.00    -0.248 NA
ATOM     49  C   UNL A   1      38.776  31.112  32.343  1.00  0.00     0.031 C 
ATOM     50  C   UNL A   1      39.778  27.814  28.671  1.00  0.00     0.029 A 
ATOM     51  N   UNL A   1      41.212  27.929  30.382  1.00  0.00    -0.354 N 
ATOM     52  C   UNL A   1      40.752  30.939  33.473  1.00  0.00     0.074 A 
ATOM     53  C   UNL A   1      39.495  31.637  33.322  1.00  0.00     0.031 C 
ATOM     54  C   UNL A   1      40.737  26.897  28.455  1.00  0.00     0.029 A 
ATOM     55  C   UNL A   1      41.718  26.973  29.532  1.00  0.00     0.049 A 
ATOM     56  H   UNL A   1      41.643  28.175  31.233  1.00  0.00     0.167 HD
ATOM     57  C   UNL A   1      41.635  31.171  34.472  1.00  0.00     0.031 A 
ATOM     58  C   UNL A   1      42.856  26.257  29.604  1.00  0.00     0.031 A 
ATOM     59  C   UNL A   1      42.849  30.425  34.653  1.00  0.00     0.049 A 
ATOM     60  C   UNL A   1      43.790  26.483  30.762  1.00  0.00     0.074 A 
ATOM     61  C   UNL A   1      43.785  30.532  35.666  1.00  0.00     0.029 A 
ATOM     62  N   UNL A   1      43.278  29.407  33.814  1.00  0.00    -0.354 N 
ATOM     63  N   UNL A   1      43.693  27.351  31.742  1.00  0.00    -0.248 NA
ATOM     64  C   UNL A   1      44.986  25.630  30.827  1.00  0.00     0.031 C 
ATOM     65  C   UNL A   1      44.790  29.587  35.431  1.00  0.00     0.029 A 
ATOM     66  C   UNL A   1      44.460  28.870  34.291  1.00  0.00     0.049 A 
ATOM     67  H   UNL A   1      42.811  29.112  32.999  1.00  0.00     0.167 HD
ATOM     68  C   UNL A   1      44.801  27.130  32.553  1.00  0.00     0.074 A 
ATOM     69  C   UNL A   1      45.547  26.041  31.956  1.00  0.00     0.031 C 
ATOM     70  C   UNL A   1      45.171  27.774  33.687  1.00  0.00     0.031 A 
BRANCH  57  71
ATOM     71  C   UNL A   1      41.307  32.272  35.445  1.00  0.00    -0.014 A 
ATOM     72  C   UNL A   1      40.601  32.005  36.631  1.00  0.00     0.010 A 
ATOM     73  C   UNL A   1      41.716  33.590  35.174  1.00  0.00     0.010 A 
ATOM     74  C   UNL A   1      40.264  33.043  37.503  1.00  0.00     0.020 A 
ATOM     75  C   UNL A   1      41.406  34.628  36.058  1.00  0.00     0.020 A 
ATOM     76  C   UNL A   1      40.662  34.349  37.207  1.00  0.00     0.054 A 
BRANCH  76  77
ATOM     77  S   UNL A   1      40.220  35.677  38.360  1.00  0.00     0.124 S 
ATOM     78  O   UNL A   1      38.990  35.160  38.955  1.00  0.00    -0.237 OA
ATOM     79  O   UNL A   1      41.374  35.729  39.253  1.00  0.00    -0.237 OA
ATOM     80  O   UNL A   1      40.053  36.843  37.496  1.00  0.00    -0.744 OA
ENDBRANCH  76  77
ENDBRANCH  57  71
BRANCH  58  81
ATOM     81  C   UNL A   1      43.173  25.247  28.558  1.00  0.00    -0.014 A 
ATOM     82  C   UNL A   1      42.655  23.943  28.658  1.00  0.00     0.010 A 
ATOM     83  C   UNL A   1      43.983  25.579  27.457  1.00  0.00     0.010 A 
ATOM     84  C   UNL A   1      42.961  22.983  27.690  1.00  0.00     0.020 A 
ATOM     85  C   UNL A   1      44.271  24.628  26.474  1.00  0.00     0.020 A 
ATOM     86  C   UNL A   1      43.770  23.331  26.604  1.00  0.00     0.054 A 
BRANCH  86  87
ATOM     87  S   UNL A   1      44.119  22.079  25.337  1.00  0.00     0.124 S 
ATOM     88  O   UNL A   1      43.545  22.689  24.142  1.00  0.00    -0.237 OA
ATOM     89  O   UNL A   1      45.578  21.995  25.366  1.00  0.00    -0.237 OA
ATOM     90  O   UNL A   1      43.426  20.892  25.831  1.00  0.00    -0.744 OA
ENDBRANCH  86  87
ENDBRANCH  58  81
BRANCH  70  91
ATOM     91  C   UNL A   1      46.410  27.286  34.383  1.00  0.00    -0.014 A 
ATOM     92  C   UNL A   1      46.347  26.257  35.339  1.00  0.00     0.010 A 
ATOM     93  C   UNL A   1      47.660  27.821  34.024  1.00  0.00     0.010 A 
ATOM     94  C   UNL A   1      47.516  25.786  35.941  1.00  0.00     0.020 A 
ATOM     95  C   UNL A   1      48.831  27.337  34.609  1.00  0.00     0.020 A 
ATOM     96  C   UNL A   1      48.750  26.331  35.574  1.00  0.00     0.054 A 
BRANCH  96  97
ATOM     97  S   UNL A   1      50.261  25.667  36.329  1.00  0.00     0.124 S 
ATOM     98  O   UNL A   1      50.624  26.729  37.263  1.00  0.00    -0.237 OA
ATOM     99  O   UNL A   1      49.797  24.424  36.941  1.00  0.00    -0.237 OA
ATOM    100  O   UNL A   1      51.167  25.495  35.195  1.00  0.00    -0.744 OA
ENDBRANCH  96  97
ENDBRANCH  70  91
ENDBRANCH  44  45
ENDBRANCH  36  39
ENDBRANCH  34  35
ENDBRANCH  33  34
ENDBRANCH  32  33
ENDBRANCH   1  32
TORSDOF 21
ENDMDL
