MODEL 1
REMARK VINA RESULT:     -12.3      0.000      0.000
REMARK SMILES CCc1noc(C)c1C(=O)Nc1cc(Cl)ccc1C(=O)NCCCCNC(=O)c1ccc(-c2c3nc(c(-c4ccc(S(=O)(=O)[O-])cc4)c4ccc([nH]4)c(-c4ccc(S(=O)(=O)[O-])cc4)c4nc(c(-c5ccc(S(=O)(=O)[O-])cc5)c5ccc2[nH]5)C=C4)C=C3)cc1
REMARK SMILES IDX 23 1 22 2 21 3 19 4 20 5 18 7 12 8 13 9 14 10 17 11 15 12
REMARK SMILES IDX 16 13 11 14 9 15 10 16 8 18 3 19 4 20 5 21 6 22 7 23 2 24
REMARK SMILES IDX 1 25 24 26 25 27 26 28 27 29 28 31 29 32 30 33 88 34 31 35
REMARK SMILES IDX 87 36 32 37 33 38 34 39 81 40 35 41 86 42 80 43 82 44 36 45
REMARK SMILES IDX 85 46 79 47 78 48 37 50 67 51 48 52 66 53 49 54 52 55 65 56
REMARK SMILES IDX 83 57 50 58 51 59 64 61 84 62 53 63 38 64 39 65 47 66 40 67
REMARK SMILES IDX 46 68 41 69 42 70 43 71 44 72 45 73 68 74 69 75 77 76 70 77
REMARK SMILES IDX 76 78 71 79 72 80 73 81 74 82 75 83 54 84 55 85 63 86 56 87
REMARK SMILES IDX 62 88 57 89 58 90 59 91 60 92 61 93
REMARK H PARENT 21 6 11 17 26 30 82 49 52 60
REMARK Flexibility Score: inf
ROOT
ATOM      1  C   UNL A   1      38.250  24.113  26.327  1.00  0.00     0.023 C 
ENDROOT
BRANCH   1   2
ATOM      2  C   UNL A   1      36.872  23.626  25.897  1.00  0.00     0.116 C 
BRANCH   2   3
ATOM      3  N   UNL A   1      36.743  22.229  25.561  1.00  0.00    -0.352 N 
ATOM      4  C   UNL A   1      35.724  21.512  24.977  1.00  0.00     0.253 C 
ATOM      5  O   UNL A   1      35.956  20.316  24.771  1.00  0.00    -0.269 OA
ATOM      6  H   UNL A   1      37.531  21.688  25.792  1.00  0.00     0.163 HD
BRANCH   4   7
ATOM      7  C   UNL A   1      34.351  22.018  24.621  1.00  0.00     0.063 A 
ATOM      8  C   UNL A   1      33.091  21.457  24.916  1.00  0.00     0.055 A 
ATOM      9  C   UNL A   1      31.905  22.129  24.564  1.00  0.00     0.047 A 
ATOM     10  C   UNL A   1      31.955  23.332  23.866  1.00  0.00     0.043 A 
ATOM     11  C   UNL A   1      34.360  23.228  23.890  1.00  0.00     0.017 A 
ATOM     12  Cl  UNL A   1      30.496  24.132  23.433  1.00  0.00    -0.084 Cl
ATOM     13  C   UNL A   1      33.179  23.876  23.507  1.00  0.00     0.021 A 
BRANCH   8  14
ATOM     14  N   UNL A   1      32.943  20.319  25.696  1.00  0.00    -0.321 N 
ATOM     15  C   UNL A   1      32.684  19.005  25.367  1.00  0.00     0.261 C 
ATOM     16  O   UNL A   1      32.397  18.292  26.332  1.00  0.00    -0.269 OA
ATOM     17  H   UNL A   1      33.038  20.479  26.663  1.00  0.00     0.170 HD
BRANCH  15  18
ATOM     18  C   UNL A   1      32.887  18.404  24.042  1.00  0.00     0.105 A 
ATOM     19  C   UNL A   1      33.761  17.272  23.815  1.00  0.00     0.096 A 
ATOM     20  N   UNL A   1      33.731  16.860  22.545  1.00  0.00    -0.084 NA
ATOM     21  O   UNL A   1      32.962  17.771  21.884  1.00  0.00    -0.361 OA
ATOM     22  C   UNL A   1      32.534  18.741  22.738  1.00  0.00     0.146 A 
ATOM     23  C   UNL A   1      31.891  19.844  21.997  1.00  0.00     0.092 C 
BRANCH  19  24
ATOM     24  C   UNL A   1      34.727  16.604  24.741  1.00  0.00     0.057 C 
ATOM     25  C   UNL A   1      34.115  15.475  25.546  1.00  0.00     0.011 C 
ENDBRANCH  19  24
ENDBRANCH  15  18
ENDBRANCH   8  14
ENDBRANCH   4   7
ENDBRANCH   2   3
ENDBRANCH   1   2
BRANCH   1  26
ATOM     26  C   UNL A   1      39.266  23.048  26.733  1.00  0.00     0.023 C 
BRANCH  26  27
ATOM     27  C   UNL A   1      40.644  23.529  27.181  1.00  0.00     0.116 C 
BRANCH  27  28
ATOM     28  N   UNL A   1      41.419  24.200  26.146  1.00  0.00    -0.352 N 
ATOM     29  C   UNL A   1      41.775  25.523  26.007  1.00  0.00     0.251 C 
ATOM     30  H   UNL A   1      41.740  23.609  25.428  1.00  0.00     0.163 HD
ATOM     31  O   UNL A   1      42.392  25.879  25.003  1.00  0.00    -0.269 OA
BRANCH  29  32
ATOM     32  C   UNL A   1      41.382  26.533  27.017  1.00  0.00     0.039 A 
ATOM     33  C   UNL A   1      40.472  26.168  28.013  1.00  0.00     0.014 A 
ATOM     34  C   UNL A   1      41.907  27.826  27.004  1.00  0.00     0.014 A 
ATOM     35  C   UNL A   1      40.182  27.055  29.056  1.00  0.00     0.010 A 
ATOM     36  C   UNL A   1      41.690  28.673  28.089  1.00  0.00     0.010 A 
ATOM     37  C   UNL A   1      40.839  28.293  29.137  1.00  0.00    -0.014 A 
BRANCH  37  38
ATOM     38  C   UNL A   1      40.679  29.184  30.319  1.00  0.00     0.031 A 
ATOM     39  C   UNL A   1      41.537  28.996  31.541  1.00  0.00     0.074 A 
ATOM     40  C   UNL A   1      39.696  30.109  30.329  1.00  0.00     0.049 A 
ATOM     41  N   UNL A   1      41.475  29.611  32.695  1.00  0.00    -0.248 NA
ATOM     42  C   UNL A   1      42.581  27.961  31.468  1.00  0.00     0.031 C 
ATOM     43  C   UNL A   1      38.756  30.364  29.233  1.00  0.00     0.029 A 
ATOM     44  N   UNL A   1      39.315  31.001  31.301  1.00  0.00    -0.354 N 
ATOM     45  C   UNL A   1      42.450  29.020  33.492  1.00  0.00     0.074 A 
ATOM     46  C   UNL A   1      43.056  27.968  32.705  1.00  0.00     0.031 C 
ATOM     47  C   UNL A   1      37.930  31.361  29.583  1.00  0.00     0.029 A 
ATOM     48  C   UNL A   1      38.246  31.791  30.941  1.00  0.00     0.049 A 
ATOM     49  H   UNL A   1      39.763  31.070  32.175  1.00  0.00     0.167 HD
ATOM     50  C   UNL A   1      42.820  29.334  34.757  1.00  0.00     0.031 A 
ATOM     51  C   UNL A   1      37.588  32.747  31.624  1.00  0.00     0.031 A 
ATOM     52  C   UNL A   1      42.235  30.394  35.534  1.00  0.00     0.049 A 
ATOM     53  C   UNL A   1      38.026  33.089  33.021  1.00  0.00     0.074 A 
ATOM     54  C   UNL A   1      42.587  30.829  36.800  1.00  0.00     0.029 A 
ATOM     55  N   UNL A   1      41.175  31.186  35.120  1.00  0.00    -0.354 N 
ATOM     56  N   UNL A   1      38.991  32.559  33.733  1.00  0.00    -0.248 NA
ATOM     57  C   UNL A   1      37.293  34.165  33.703  1.00  0.00     0.031 C 
ATOM     58  C   UNL A   1      41.713  31.859  37.167  1.00  0.00     0.029 A 
ATOM     59  C   UNL A   1      40.849  32.097  36.111  1.00  0.00     0.049 A 
ATOM     60  H   UNL A   1      40.721  31.113  34.249  1.00  0.00     0.167 HD
ATOM     61  C   UNL A   1      38.997  33.254  34.937  1.00  0.00     0.074 A 
ATOM     62  C   UNL A   1      37.949  34.249  34.852  1.00  0.00     0.031 C 
ATOM     63  C   UNL A   1      39.802  33.083  36.015  1.00  0.00     0.031 A 
BRANCH  50  64
ATOM     64  C   UNL A   1      43.916  28.510  35.381  1.00  0.00    -0.014 A 
ATOM     65  C   UNL A   1      43.617  27.381  36.165  1.00  0.00     0.010 A 
ATOM     66  C   UNL A   1      45.263  28.854  35.164  1.00  0.00     0.010 A 
ATOM     67  C   UNL A   1      44.642  26.643  36.765  1.00  0.00     0.020 A 
ATOM     68  C   UNL A   1      46.292  28.101  35.738  1.00  0.00     0.020 A 
ATOM     69  C   UNL A   1      45.973  27.013  36.552  1.00  0.00     0.054 A 
BRANCH  69  70
ATOM     70  S   UNL A   1      47.283  26.036  37.339  1.00  0.00     0.124 S 
ATOM     71  O   UNL A   1      46.511  25.096  38.148  1.00  0.00    -0.237 OA
ATOM     72  O   UNL A   1      47.982  25.453  36.196  1.00  0.00    -0.237 OA
ATOM     73  O   UNL A   1      48.048  27.026  38.094  1.00  0.00    -0.744 OA
ENDBRANCH  69  70
ENDBRANCH  50  64
BRANCH  51  74
ATOM     74  C   UNL A   1      36.455  33.468  30.982  1.00  0.00    -0.014 A 
ATOM     75  C   UNL A   1      35.288  33.752  31.713  1.00  0.00     0.010 A 
ATOM     76  C   UNL A   1      36.546  33.896  29.645  1.00  0.00     0.010 A 
ATOM     77  C   UNL A   1      34.227  34.440  31.117  1.00  0.00     0.020 A 
ATOM     78  C   UNL A   1      35.498  34.605  29.053  1.00  0.00     0.020 A 
ATOM     79  C   UNL A   1      34.340  34.865  29.791  1.00  0.00     0.054 A 
BRANCH  79  80
ATOM     80  S   UNL A   1      32.979  35.815  29.056  1.00  0.00     0.124 S 
ATOM     81  O   UNL A   1      33.691  36.902  28.392  1.00  0.00    -0.237 OA
ATOM     82  O   UNL A   1      32.351  34.835  28.173  1.00  0.00    -0.237 OA
ATOM     83  O   UNL A   1      32.174  36.205  30.212  1.00  0.00    -0.744 OA
ENDBRANCH  79  80
ENDBRANCH  51  74
BRANCH  63  84
ATOM     84  C   UNL A   1      39.603  34.011  37.182  1.00  0.00    -0.014 A 
ATOM     85  C   UNL A   1      38.788  33.651  38.269  1.00  0.00     0.010 A 
ATOM     86  C   UNL A   1      40.291  35.238  37.217  1.00  0.00     0.010 A 
ATOM     87  C   UNL A   1      38.641  34.514  39.359  1.00  0.00     0.020 A 
ATOM     88  C   UNL A   1      40.167  36.093  38.314  1.00  0.00     0.020 A 
ATOM     89  C   UNL A   1      39.331  35.731  39.373  1.00  0.00     0.054 A 
BRANCH  89  90
ATOM     90  S   UNL A   1      39.163  36.814  40.819  1.00  0.00     0.124 S 
ATOM     91  O   UNL A   1      38.373  37.918  40.281  1.00  0.00    -0.237 OA
ATOM     92  O   UNL A   1      38.475  35.960  41.783  1.00  0.00    -0.237 OA
ATOM     93  O   UNL A   1      40.544  37.146  41.165  1.00  0.00    -0.744 OA
ENDBRANCH  89  90
ENDBRANCH  63  84
ENDBRANCH  37  38
ENDBRANCH  29  32
ENDBRANCH  27  28
ENDBRANCH  26  27
ENDBRANCH   1  26
TORSDOF 17
ENDMDL
MODEL 2
REMARK VINA RESULT:     -12.1      4.961     10.581
REMARK SMILES CCc1noc(C)c1C(=O)Nc1cc(Cl)ccc1C(=O)NCCCCNC(=O)c1ccc(-c2c3nc(c(-c4ccc(S(=O)(=O)[O-])cc4)c4ccc([nH]4)c(-c4ccc(S(=O)(=O)[O-])cc4)c4nc(c(-c5ccc(S(=O)(=O)[O-])cc5)c5ccc2[nH]5)C=C4)C=C3)cc1
REMARK SMILES IDX 23 1 22 2 21 3 19 4 20 5 18 7 12 8 13 9 14 10 17 11 15 12
REMARK SMILES IDX 16 13 11 14 9 15 10 16 8 18 3 19 4 20 5 21 6 22 7 23 2 24
REMARK SMILES IDX 1 25 24 26 25 27 26 28 27 29 28 31 29 32 30 33 88 34 31 35
REMARK SMILES IDX 87 36 32 37 33 38 34 39 81 40 35 41 86 42 80 43 82 44 36 45
REMARK SMILES IDX 85 46 79 47 78 48 37 50 67 51 48 52 66 53 49 54 52 55 65 56
REMARK SMILES IDX 83 57 50 58 51 59 64 61 84 62 53 63 38 64 39 65 47 66 40 67
REMARK SMILES IDX 46 68 41 69 42 70 43 71 44 72 45 73 68 74 69 75 77 76 70 77
REMARK SMILES IDX 76 78 71 79 72 80 73 81 74 82 75 83 54 84 55 85 63 86 56 87
REMARK SMILES IDX 62 88 57 89 58 90 59 91 60 92 61 93
REMARK H PARENT 21 6 11 17 26 30 82 49 52 60
REMARK Flexibility Score: inf
ROOT
ATOM      1  C   UNL A   1      34.381  27.525  25.748  1.00  0.00     0.023 C 
ENDROOT
BRANCH   1   2
ATOM      2  C   UNL A   1      33.917  26.094  25.506  1.00  0.00     0.116 C 
BRANCH   2   3
ATOM      3  N   UNL A   1      32.892  25.578  26.380  1.00  0.00    -0.352 N 
ATOM      4  C   UNL A   1      32.048  24.497  26.274  1.00  0.00     0.253 C 
ATOM      5  O   UNL A   1      31.310  24.291  27.242  1.00  0.00    -0.269 OA
ATOM      6  H   UNL A   1      32.776  26.096  27.209  1.00  0.00     0.163 HD
BRANCH   4   7
ATOM      7  C   UNL A   1      31.894  23.585  25.085  1.00  0.00     0.063 A 
ATOM      8  C   UNL A   1      30.937  23.626  24.050  1.00  0.00     0.055 A 
ATOM      9  C   UNL A   1      31.007  22.725  22.970  1.00  0.00     0.047 A 
ATOM     10  C   UNL A   1      31.989  21.739  22.935  1.00  0.00     0.043 A 
ATOM     11  C   UNL A   1      32.860  22.555  25.025  1.00  0.00     0.017 A 
ATOM     12  Cl  UNL A   1      32.052  20.639  21.615  1.00  0.00    -0.084 Cl
ATOM     13  C   UNL A   1      32.906  21.636  23.970  1.00  0.00     0.021 A 
BRANCH   8  14
ATOM     14  N   UNL A   1      29.987  24.632  23.947  1.00  0.00    -0.321 N 
ATOM     15  C   UNL A   1      30.102  25.986  23.711  1.00  0.00     0.261 C 
ATOM     16  O   UNL A   1      29.061  26.620  23.904  1.00  0.00    -0.269 OA
ATOM     17  H   UNL A   1      29.060  24.323  24.066  1.00  0.00     0.170 HD
BRANCH  15  18
ATOM     18  C   UNL A   1      31.268  26.649  23.112  1.00  0.00     0.105 A 
ATOM     19  C   UNL A   1      31.495  28.076  23.201  1.00  0.00     0.096 A 
ATOM     20  N   UNL A   1      32.653  28.437  22.641  1.00  0.00    -0.084 NA
ATOM     21  O   UNL A   1      33.146  27.306  22.061  1.00  0.00    -0.361 OA
ATOM     22  C   UNL A   1      32.292  26.263  22.251  1.00  0.00     0.146 A 
ATOM     23  C   UNL A   1      32.702  25.097  21.444  1.00  0.00     0.092 C 
BRANCH  19  24
ATOM     24  C   UNL A   1      30.602  29.161  23.711  1.00  0.00     0.057 C 
ATOM     25  C   UNL A   1      29.750  29.804  22.635  1.00  0.00     0.011 C 
ENDBRANCH  19  24
ENDBRANCH  15  18
ENDBRANCH   8  14
ENDBRANCH   4   7
ENDBRANCH   2   3
ENDBRANCH   1   2
BRANCH   1  26
ATOM     26  C   UNL A   1      33.316  28.540  26.160  1.00  0.00     0.023 C 
BRANCH  26  27
ATOM     27  C   UNL A   1      33.257  28.935  27.633  1.00  0.00     0.116 C 
BRANCH  27  28
ATOM     28  N   UNL A   1      33.432  30.359  27.886  1.00  0.00    -0.352 N 
ATOM     29  C   UNL A   1      34.541  31.071  28.284  1.00  0.00     0.251 C 
ATOM     30  H   UNL A   1      32.622  30.901  27.750  1.00  0.00     0.163 HD
ATOM     31  O   UNL A   1      34.439  32.278  28.497  1.00  0.00    -0.269 OA
BRANCH  29  32
ATOM     32  C   UNL A   1      35.842  30.398  28.511  1.00  0.00     0.039 A 
ATOM     33  C   UNL A   1      36.760  30.337  27.458  1.00  0.00     0.014 A 
ATOM     34  C   UNL A   1      36.173  29.840  29.748  1.00  0.00     0.014 A 
ATOM     35  C   UNL A   1      38.044  29.827  27.678  1.00  0.00     0.010 A 
ATOM     36  C   UNL A   1      37.480  29.419  29.990  1.00  0.00     0.010 A 
ATOM     37  C   UNL A   1      38.436  29.422  28.964  1.00  0.00    -0.014 A 
BRANCH  37  38
ATOM     38  C   UNL A   1      39.842  29.034  29.265  1.00  0.00     0.031 A 
ATOM     39  C   UNL A   1      40.796  30.027  29.873  1.00  0.00     0.074 A 
ATOM     40  C   UNL A   1      40.289  27.812  28.904  1.00  0.00     0.049 A 
ATOM     41  N   UNL A   1      42.077  29.900  30.114  1.00  0.00    -0.248 NA
ATOM     42  C   UNL A   1      40.247  31.346  30.229  1.00  0.00     0.031 C 
ATOM     43  C   UNL A   1      39.487  26.770  28.258  1.00  0.00     0.029 A 
ATOM     44  N   UNL A   1      41.534  27.244  29.021  1.00  0.00    -0.354 N 
ATOM     45  C   UNL A   1      42.490  31.126  30.623  1.00  0.00     0.074 A 
ATOM     46  C   UNL A   1      41.335  31.998  30.612  1.00  0.00     0.031 C 
ATOM     47  C   UNL A   1      40.250  25.684  28.062  1.00  0.00     0.029 A 
ATOM     48  C   UNL A   1      41.605  25.961  28.526  1.00  0.00     0.049 A 
ATOM     49  H   UNL A   1      42.303  27.709  29.421  1.00  0.00     0.167 HD
ATOM     50  C   UNL A   1      43.714  31.490  31.075  1.00  0.00     0.031 A 
ATOM     51  C   UNL A   1      42.642  25.106  28.445  1.00  0.00     0.031 A 
ATOM     52  C   UNL A   1      44.859  30.620  31.108  1.00  0.00     0.049 A 
ATOM     53  C   UNL A   1      43.988  25.525  28.966  1.00  0.00     0.074 A 
ATOM     54  C   UNL A   1      46.124  30.878  31.607  1.00  0.00     0.029 A 
ATOM     55  N   UNL A   1      44.879  29.321  30.623  1.00  0.00    -0.354 N 
ATOM     56  N   UNL A   1      44.342  26.670  29.500  1.00  0.00    -0.248 NA
ATOM     57  C   UNL A   1      45.071  24.537  28.884  1.00  0.00     0.031 C 
ATOM     58  C   UNL A   1      46.921  29.749  31.387  1.00  0.00     0.029 A 
ATOM     59  C   UNL A   1      46.139  28.771  30.796  1.00  0.00     0.049 A 
ATOM     60  H   UNL A   1      44.112  28.857  30.217  1.00  0.00     0.167 HD
ATOM     61  C   UNL A   1      45.682  26.529  29.840  1.00  0.00     0.074 A 
ATOM     62  C   UNL A   1      46.072  25.186  29.463  1.00  0.00     0.031 C 
ATOM     63  C   UNL A   1      46.515  27.432  30.415  1.00  0.00     0.031 A 
BRANCH  50  64
ATOM     64  C   UNL A   1      43.876  32.904  31.570  1.00  0.00    -0.014 A 
ATOM     65  C   UNL A   1      43.691  33.223  32.928  1.00  0.00     0.010 A 
ATOM     66  C   UNL A   1      44.238  33.924  30.672  1.00  0.00     0.010 A 
ATOM     67  C   UNL A   1      43.813  34.543  33.369  1.00  0.00     0.020 A 
ATOM     68  C   UNL A   1      44.390  35.242  31.114  1.00  0.00     0.020 A 
ATOM     69  C   UNL A   1      44.155  35.546  32.456  1.00  0.00     0.054 A 
BRANCH  69  70
ATOM     70  S   UNL A   1      44.310  37.251  33.056  1.00  0.00     0.124 S 
ATOM     71  O   UNL A   1      43.016  37.461  33.700  1.00  0.00    -0.237 OA
ATOM     72  O   UNL A   1      45.455  37.173  33.959  1.00  0.00    -0.237 OA
ATOM     73  O   UNL A   1      44.533  38.027  31.837  1.00  0.00    -0.744 OA
ENDBRANCH  69  70
ENDBRANCH  50  64
BRANCH  51  74
ATOM     74  C   UNL A   1      42.438  23.749  27.866  1.00  0.00    -0.014 A 
ATOM     75  C   UNL A   1      42.578  23.540  26.483  1.00  0.00     0.010 A 
ATOM     76  C   UNL A   1      42.127  22.656  28.696  1.00  0.00     0.010 A 
ATOM     77  C   UNL A   1      42.401  22.265  25.936  1.00  0.00     0.020 A 
ATOM     78  C   UNL A   1      41.973  21.376  28.157  1.00  0.00     0.020 A 
ATOM     79  C   UNL A   1      42.102  21.190  26.778  1.00  0.00     0.054 A 
BRANCH  79  80
ATOM     80  S   UNL A   1      41.940  19.532  26.058  1.00  0.00     0.124 S 
ATOM     81  O   UNL A   1      40.507  19.455  25.793  1.00  0.00    -0.237 OA
ATOM     82  O   UNL A   1      42.799  19.615  24.879  1.00  0.00    -0.237 OA
ATOM     83  O   UNL A   1      42.432  18.652  27.116  1.00  0.00    -0.744 OA
ENDBRANCH  79  80
ENDBRANCH  51  74
BRANCH  63  84
ATOM     84  C   UNL A   1      47.924  26.991  30.702  1.00  0.00    -0.014 A 
ATOM     85  C   UNL A   1      48.993  27.386  29.880  1.00  0.00     0.010 A 
ATOM     86  C   UNL A   1      48.189  26.217  31.847  1.00  0.00     0.010 A 
ATOM     87  C   UNL A   1      50.300  26.992  30.181  1.00  0.00     0.020 A 
ATOM     88  C   UNL A   1      49.495  25.840  32.165  1.00  0.00     0.020 A 
ATOM     89  C   UNL A   1      50.542  26.220  31.322  1.00  0.00     0.054 A 
BRANCH  89  90
ATOM     90  S   UNL A   1      52.251  25.759  31.719  1.00  0.00     0.124 S 
ATOM     91  O   UNL A   1      52.110  24.353  32.083  1.00  0.00    -0.237 OA
ATOM     92  O   UNL A   1      52.954  26.016  30.464  1.00  0.00    -0.237 OA
ATOM     93  O   UNL A   1      52.604  26.656  32.818  1.00  0.00    -0.744 OA
ENDBRANCH  89  90
ENDBRANCH  63  84
ENDBRANCH  37  38
ENDBRANCH  29  32
ENDBRANCH  27  28
ENDBRANCH  26  27
ENDBRANCH   1  26
TORSDOF 17
ENDMDL
MODEL 3
REMARK VINA RESULT:     -12.0      4.935     10.436
REMARK SMILES CCc1noc(C)c1C(=O)Nc1cc(Cl)ccc1C(=O)NCCCCNC(=O)c1ccc(-c2c3nc(c(-c4ccc(S(=O)(=O)[O-])cc4)c4ccc([nH]4)c(-c4ccc(S(=O)(=O)[O-])cc4)c4nc(c(-c5ccc(S(=O)(=O)[O-])cc5)c5ccc2[nH]5)C=C4)C=C3)cc1
REMARK SMILES IDX 23 1 22 2 21 3 19 4 20 5 18 7 12 8 13 9 14 10 17 11 15 12
REMARK SMILES IDX 16 13 11 14 9 15 10 16 8 18 3 19 4 20 5 21 6 22 7 23 2 24
REMARK SMILES IDX 1 25 24 26 25 27 26 28 27 29 28 31 29 32 30 33 88 34 31 35
REMARK SMILES IDX 87 36 32 37 33 38 34 39 81 40 35 41 86 42 80 43 82 44 36 45
REMARK SMILES IDX 85 46 79 47 78 48 37 50 67 51 48 52 66 53 49 54 52 55 65 56
REMARK SMILES IDX 83 57 50 58 51 59 64 61 84 62 53 63 38 64 39 65 47 66 40 67
REMARK SMILES IDX 46 68 41 69 42 70 43 71 44 72 45 73 68 74 69 75 77 76 70 77
REMARK SMILES IDX 76 78 71 79 72 80 73 81 74 82 75 83 54 84 55 85 63 86 56 87
REMARK SMILES IDX 62 88 57 89 58 90 59 91 60 92 61 93
REMARK H PARENT 21 6 11 17 26 30 82 49 52 60
REMARK Flexibility Score: inf
ROOT
ATOM      1  C   UNL A   1      33.701  27.943  24.990  1.00  0.00     0.023 C 
ENDROOT
BRANCH   1   2
ATOM      2  C   UNL A   1      34.178  26.741  25.795  1.00  0.00     0.116 C 
BRANCH   2   3
ATOM      3  N   UNL A   1      33.185  25.763  26.168  1.00  0.00    -0.352 N 
ATOM      4  C   UNL A   1      33.197  24.388  26.159  1.00  0.00     0.253 C 
ATOM      5  O   UNL A   1      32.185  23.836  26.604  1.00  0.00    -0.269 OA
ATOM      6  H   UNL A   1      32.341  26.153  26.490  1.00  0.00     0.163 HD
BRANCH   4   7
ATOM      7  C   UNL A   1      34.282  23.497  25.614  1.00  0.00     0.063 A 
ATOM      8  C   UNL A   1      34.945  23.560  24.371  1.00  0.00     0.055 A 
ATOM      9  C   UNL A   1      36.001  22.677  24.074  1.00  0.00     0.047 A 
ATOM     10  C   UNL A   1      36.372  21.688  24.980  1.00  0.00     0.043 A 
ATOM     11  C   UNL A   1      34.672  22.463  26.498  1.00  0.00     0.017 A 
ATOM     12  Cl  UNL A   1      37.655  20.611  24.595  1.00  0.00    -0.084 Cl
ATOM     13  C   UNL A   1      35.697  21.563  26.185  1.00  0.00     0.021 A 
BRANCH   8  14
ATOM     14  N   UNL A   1      34.715  24.572  23.450  1.00  0.00    -0.321 N 
ATOM     15  C   UNL A   1      33.638  24.848  22.635  1.00  0.00     0.261 C 
ATOM     16  O   UNL A   1      33.863  25.707  21.778  1.00  0.00    -0.269 OA
ATOM     17  H   UNL A   1      35.459  25.211  23.361  1.00  0.00     0.170 HD
BRANCH  15  18
ATOM     18  C   UNL A   1      32.273  24.339  22.828  1.00  0.00     0.105 A 
ATOM     19  C   UNL A   1      31.147  25.197  23.134  1.00  0.00     0.096 A 
ATOM     20  N   UNL A   1      30.000  24.517  23.196  1.00  0.00    -0.084 NA
ATOM     21  O   UNL A   1      30.345  23.205  23.071  1.00  0.00    -0.361 OA
ATOM     22  C   UNL A   1      31.696  23.078  22.948  1.00  0.00     0.146 A 
ATOM     23  C   UNL A   1      32.098  21.661  23.035  1.00  0.00     0.092 C 
BRANCH  19  24
ATOM     24  C   UNL A   1      31.114  26.651  23.481  1.00  0.00     0.057 C 
ATOM     25  C   UNL A   1      30.762  27.547  22.310  1.00  0.00     0.011 C 
ENDBRANCH  19  24
ENDBRANCH  15  18
ENDBRANCH   8  14
ENDBRANCH   4   7
ENDBRANCH   2   3
ENDBRANCH   1   2
BRANCH   1  26
ATOM     26  C   UNL A   1      33.363  29.212  25.771  1.00  0.00     0.023 C 
BRANCH  26  27
ATOM     27  C   UNL A   1      33.563  29.178  27.283  1.00  0.00     0.116 C 
BRANCH  27  28
ATOM     28  N   UNL A   1      33.639  30.488  27.915  1.00  0.00    -0.352 N 
ATOM     29  C   UNL A   1      34.671  31.101  28.590  1.00  0.00     0.251 C 
ATOM     30  H   UNL A   1      32.816  31.022  27.849  1.00  0.00     0.163 HD
ATOM     31  O   UNL A   1      34.486  32.205  29.101  1.00  0.00    -0.269 OA
BRANCH  29  32
ATOM     32  C   UNL A   1      35.982  30.431  28.757  1.00  0.00     0.039 A 
ATOM     33  C   UNL A   1      36.906  30.494  27.710  1.00  0.00     0.014 A 
ATOM     34  C   UNL A   1      36.317  29.757  29.932  1.00  0.00     0.014 A 
ATOM     35  C   UNL A   1      38.199  29.986  27.886  1.00  0.00     0.010 A 
ATOM     36  C   UNL A   1      37.629  29.336  30.140  1.00  0.00     0.010 A 
ATOM     37  C   UNL A   1      38.590  29.459  29.127  1.00  0.00    -0.014 A 
BRANCH  37  38
ATOM     38  C   UNL A   1      40.002  29.067  29.396  1.00  0.00     0.031 A 
ATOM     39  C   UNL A   1      40.969  30.054  29.993  1.00  0.00     0.074 A 
ATOM     40  C   UNL A   1      40.439  27.848  29.018  1.00  0.00     0.049 A 
ATOM     41  N   UNL A   1      42.254  29.923  30.208  1.00  0.00    -0.248 NA
ATOM     42  C   UNL A   1      40.430  31.371  30.370  1.00  0.00     0.031 C 
ATOM     43  C   UNL A   1      39.623  26.811  28.380  1.00  0.00     0.029 A 
ATOM     44  N   UNL A   1      41.685  27.276  29.106  1.00  0.00    -0.354 N 
ATOM     45  C   UNL A   1      42.680  31.145  30.718  1.00  0.00     0.074 A 
ATOM     46  C   UNL A   1      41.526  32.018  30.736  1.00  0.00     0.031 C 
ATOM     47  C   UNL A   1      40.380  25.726  28.160  1.00  0.00     0.029 A 
ATOM     48  C   UNL A   1      41.745  25.997  28.600  1.00  0.00     0.049 A 
ATOM     49  H   UNL A   1      42.463  27.737  29.493  1.00  0.00     0.167 HD
ATOM     50  C   UNL A   1      43.913  31.504  31.148  1.00  0.00     0.031 A 
ATOM     51  C   UNL A   1      42.779  25.141  28.492  1.00  0.00     0.031 A 
ATOM     52  C   UNL A   1      45.057  30.631  31.152  1.00  0.00     0.049 A 
ATOM     53  C   UNL A   1      44.135  25.555  28.989  1.00  0.00     0.074 A 
ATOM     54  C   UNL A   1      46.331  30.884  31.628  1.00  0.00     0.029 A 
ATOM     55  N   UNL A   1      45.065  29.336  30.657  1.00  0.00    -0.354 N 
ATOM     56  N   UNL A   1      44.501  26.695  29.525  1.00  0.00    -0.248 NA
ATOM     57  C   UNL A   1      45.215  24.565  28.878  1.00  0.00     0.031 C 
ATOM     58  C   UNL A   1      47.122  29.756  31.383  1.00  0.00     0.029 A 
ATOM     59  C   UNL A   1      46.327  28.783  30.800  1.00  0.00     0.049 A 
ATOM     60  H   UNL A   1      44.289  28.877  30.262  1.00  0.00     0.167 HD
ATOM     61  C   UNL A   1      45.848  26.549  29.837  1.00  0.00     0.074 A 
ATOM     62  C   UNL A   1      46.228  25.209  29.442  1.00  0.00     0.031 C 
ATOM     63  C   UNL A   1      46.693  27.447  30.402  1.00  0.00     0.031 A 
BRANCH  50  64
ATOM     64  C   UNL A   1      44.086  32.914  31.650  1.00  0.00    -0.014 A 
ATOM     65  C   UNL A   1      43.892  33.229  33.008  1.00  0.00     0.010 A 
ATOM     66  C   UNL A   1      44.470  33.933  30.760  1.00  0.00     0.010 A 
ATOM     67  C   UNL A   1      44.025  34.546  33.455  1.00  0.00     0.020 A 
ATOM     68  C   UNL A   1      44.633  35.247  31.209  1.00  0.00     0.020 A 
ATOM     69  C   UNL A   1      44.388  35.549  32.550  1.00  0.00     0.054 A 
BRANCH  69  70
ATOM     70  S   UNL A   1      44.558  37.249  33.158  1.00  0.00     0.124 S 
ATOM     71  O   UNL A   1      45.990  37.486  32.992  1.00  0.00    -0.237 OA
ATOM     72  O   UNL A   1      43.689  38.002  32.258  1.00  0.00    -0.237 OA
ATOM     73  O   UNL A   1      44.097  37.169  34.543  1.00  0.00    -0.744 OA
ENDBRANCH  69  70
ENDBRANCH  50  64
BRANCH  51  74
ATOM     74  C   UNL A   1      42.561  23.789  27.906  1.00  0.00    -0.014 A 
ATOM     75  C   UNL A   1      42.832  23.552  26.547  1.00  0.00     0.010 A 
ATOM     76  C   UNL A   1      42.106  22.727  28.709  1.00  0.00     0.010 A 
ATOM     77  C   UNL A   1      42.642  22.281  25.997  1.00  0.00     0.020 A 
ATOM     78  C   UNL A   1      41.937  21.449  28.168  1.00  0.00     0.020 A 
ATOM     79  C   UNL A   1      42.198  21.237  26.812  1.00  0.00     0.054 A 
BRANCH  79  80
ATOM     80  S   UNL A   1      42.021  19.580  26.094  1.00  0.00     0.124 S 
ATOM     81  O   UNL A   1      42.556  18.731  27.154  1.00  0.00    -0.237 OA
ATOM     82  O   UNL A   1      40.580  19.484  25.872  1.00  0.00    -0.237 OA
ATOM     83  O   UNL A   1      42.827  19.648  24.877  1.00  0.00    -0.744 OA
ENDBRANCH  79  80
ENDBRANCH  51  74
BRANCH  63  84
ATOM     84  C   UNL A   1      48.107  27.001  30.657  1.00  0.00    -0.014 A 
ATOM     85  C   UNL A   1      49.142  27.312  29.759  1.00  0.00     0.010 A 
ATOM     86  C   UNL A   1      48.413  26.312  31.846  1.00  0.00     0.010 A 
ATOM     87  C   UNL A   1      50.456  26.916  30.030  1.00  0.00     0.020 A 
ATOM     88  C   UNL A   1      49.727  25.936  32.132  1.00  0.00     0.020 A 
ATOM     89  C   UNL A   1      50.739  26.229  31.215  1.00  0.00     0.054 A 
BRANCH  89  90
ATOM     90  S   UNL A   1      52.457  25.767  31.568  1.00  0.00     0.124 S 
ATOM     91  O   UNL A   1      53.080  25.886  30.254  1.00  0.00    -0.237 OA
ATOM     92  O   UNL A   1      52.865  26.770  32.550  1.00  0.00    -0.237 OA
ATOM     93  O   UNL A   1      52.350  24.406  32.088  1.00  0.00    -0.744 OA
ENDBRANCH  89  90
ENDBRANCH  63  84
ENDBRANCH  37  38
ENDBRANCH  29  32
ENDBRANCH  27  28
ENDBRANCH  26  27
ENDBRANCH   1  26
TORSDOF 17
ENDMDL
