MODEL 1
REMARK VINA RESULT:     -11.0      0.000      0.000
REMARK SMILES N#C/C(=C/c1cccc(OC2CCCC2)c1)C(=O)NCCCCNC(=O)c1ccc(-c2c3nc(c(-c4ccc(S(=O)(=O)[O-])cc4)c4ccc([nH]4)c(-c4ccc(S(=O)(=O)[O-])cc4)c4nc(c(-c5ccc(S(=O)(=O)[O-])cc5)c5ccc2[nH]5)C=C4)C=C3)cc1
REMARK SMILES IDX 21 1 20 2 19 3 17 4 18 5 3 7 4 8 2 9 1 10 5 11 6 12 16 13
REMARK SMILES IDX 7 14 9 15 8 16 10 17 11 18 12 19 15 20 13 21 14 22 22 23
REMARK SMILES IDX 23 24 24 25 25 26 26 28 27 29 28 30 86 31 29 32 85 33 30 34
REMARK SMILES IDX 31 35 32 36 79 37 33 38 84 39 78 40 80 41 34 42 83 43 77 44
REMARK SMILES IDX 76 45 35 47 65 48 46 49 64 50 47 51 50 52 63 53 81 54 48 55
REMARK SMILES IDX 49 56 62 58 82 59 51 60 36 61 37 62 45 63 38 64 44 65 39 66
REMARK SMILES IDX 40 67 41 68 42 69 43 70 66 71 67 72 75 73 68 74 74 75 69 76
REMARK SMILES IDX 70 77 71 78 72 79 73 80 52 81 53 82 61 83 54 84 60 85 55 86
REMARK SMILES IDX 56 87 57 88 58 89 59 90
REMARK H PARENT 19 6 24 27 80 46 50 57
REMARK Flexibility Score: inf
ROOT
ATOM      1  C   UNL A   1      31.774  26.726  26.533  1.00  0.00     0.023 C 
ENDROOT
BRANCH   1   2
ATOM      2  C   UNL A   1      32.928  25.761  26.277  1.00  0.00     0.116 C 
BRANCH   2   3
ATOM      3  N   UNL A   1      32.573  24.366  26.102  1.00  0.00    -0.351 N 
ATOM      4  C   UNL A   1      32.710  23.539  25.018  1.00  0.00     0.261 C 
ATOM      5  O   UNL A   1      32.382  22.359  25.155  1.00  0.00    -0.268 OA
ATOM      6  H   UNL A   1      32.165  23.943  26.892  1.00  0.00     0.163 HD
BRANCH   4   7
ATOM      7  C   UNL A   1      33.173  24.009  23.676  1.00  0.00     0.117 C 
ATOM      8  C   UNL A   1      32.613  24.891  22.812  1.00  0.00     0.033 C 
BRANCH   7   9
ATOM      9  C   UNL A   1      34.558  23.573  23.228  1.00  0.00     0.105 C 
ATOM     10  N   UNL A   1      35.707  23.210  22.856  1.00  0.00    -0.192 NA
ENDBRANCH   7   9
BRANCH   8  11
ATOM     11  C   UNL A   1      31.419  25.718  22.973  1.00  0.00    -0.020 A 
ATOM     12  C   UNL A   1      30.241  25.185  23.506  1.00  0.00     0.008 A 
ATOM     13  C   UNL A   1      31.476  27.069  22.620  1.00  0.00     0.054 A 
ATOM     14  C   UNL A   1      29.162  26.029  23.768  1.00  0.00     0.004 A 
ATOM     15  C   UNL A   1      30.433  27.929  22.937  1.00  0.00     0.120 A 
ATOM     16  C   UNL A   1      29.268  27.398  23.501  1.00  0.00     0.046 A 
BRANCH  15  17
ATOM     17  O   UNL A   1      30.444  29.284  22.795  1.00  0.00    -0.490 OA
BRANCH  17  18
ATOM     18  C   UNL A   1      29.252  30.068  22.802  1.00  0.00     0.173 C 
ATOM     19  C   UNL A   1      29.182  31.242  23.783  1.00  0.00     0.045 C 
ATOM     20  C   UNL A   1      28.813  30.594  21.430  1.00  0.00     0.045 C 
ATOM     21  C   UNL A   1      28.147  32.168  23.163  1.00  0.00     0.004 C 
ATOM     22  C   UNL A   1      28.364  32.036  21.661  1.00  0.00     0.004 C 
ENDBRANCH  17  18
ENDBRANCH  15  17
ENDBRANCH   8  11
ENDBRANCH   4   7
ENDBRANCH   2   3
ENDBRANCH   1   2
BRANCH   1  23
ATOM     23  C   UNL A   1      32.114  28.219  26.558  1.00  0.00     0.023 C 
BRANCH  23  24
ATOM     24  C   UNL A   1      33.431  28.649  27.207  1.00  0.00     0.116 C 
BRANCH  24  25
ATOM     25  N   UNL A   1      33.450  30.007  27.725  1.00  0.00    -0.352 N 
ATOM     26  C   UNL A   1      34.489  30.739  28.260  1.00  0.00     0.251 C 
ATOM     27  H   UNL A   1      32.586  30.479  27.688  1.00  0.00     0.163 HD
ATOM     28  O   UNL A   1      34.283  31.897  28.623  1.00  0.00    -0.269 OA
BRANCH  26  29
ATOM     29  C   UNL A   1      35.829  30.134  28.462  1.00  0.00     0.039 A 
ATOM     30  C   UNL A   1      36.737  30.151  27.398  1.00  0.00     0.014 A 
ATOM     31  C   UNL A   1      36.209  29.566  29.681  1.00  0.00     0.014 A 
ATOM     32  C   UNL A   1      38.050  29.702  27.587  1.00  0.00     0.010 A 
ATOM     33  C   UNL A   1      37.537  29.184  29.888  1.00  0.00     0.010 A 
ATOM     34  C   UNL A   1      38.479  29.265  28.850  1.00  0.00    -0.014 A 
BRANCH  34  35
ATOM     35  C   UNL A   1      39.909  28.934  29.108  1.00  0.00     0.031 A 
ATOM     36  C   UNL A   1      40.840  29.949  29.716  1.00  0.00     0.074 A 
ATOM     37  C   UNL A   1      40.395  27.732  28.731  1.00  0.00     0.049 A 
ATOM     38  N   UNL A   1      42.120  29.845  29.974  1.00  0.00    -0.248 NA
ATOM     39  C   UNL A   1      40.264  31.258  30.059  1.00  0.00     0.031 C 
ATOM     40  C   UNL A   1      39.619  26.669  28.086  1.00  0.00     0.029 A 
ATOM     41  N   UNL A   1      41.659  27.204  28.830  1.00  0.00    -0.354 N 
ATOM     42  C   UNL A   1      42.509  31.080  30.480  1.00  0.00     0.074 A 
ATOM     43  C   UNL A   1      41.335  31.928  30.461  1.00  0.00     0.031 C 
ATOM     44  C   UNL A   1      40.415  25.606  27.880  1.00  0.00     0.029 A 
ATOM     45  C   UNL A   1      41.763  25.920  28.344  1.00  0.00     0.049 A 
ATOM     46  H   UNL A   1      42.420  27.696  29.213  1.00  0.00     0.167 HD
ATOM     47  C   UNL A   1      43.724  31.472  30.933  1.00  0.00     0.031 A 
ATOM     48  C   UNL A   1      42.817  25.084  28.282  1.00  0.00     0.031 A 
ATOM     49  C   UNL A   1      44.889  30.628  30.976  1.00  0.00     0.049 A 
ATOM     50  C   UNL A   1      44.150  25.532  28.817  1.00  0.00     0.074 A 
ATOM     51  C   UNL A   1      46.147  30.920  31.476  1.00  0.00     0.029 A 
ATOM     52  N   UNL A   1      44.941  29.327  30.502  1.00  0.00    -0.354 N 
ATOM     53  N   UNL A   1      44.478  26.683  29.353  1.00  0.00    -0.248 NA
ATOM     54  C   UNL A   1      45.250  24.559  28.754  1.00  0.00     0.031 C 
ATOM     55  C   UNL A   1      46.969  29.805  31.274  1.00  0.00     0.029 A 
ATOM     56  C   UNL A   1      46.211  28.805  30.688  1.00  0.00     0.049 A 
ATOM     57  H   UNL A   1      44.187  28.844  30.094  1.00  0.00     0.167 HD
ATOM     58  C   UNL A   1      45.812  26.558  29.724  1.00  0.00     0.074 A 
ATOM     59  C   UNL A   1      46.229  25.221  29.356  1.00  0.00     0.031 C 
ATOM     60  C   UNL A   1      46.615  27.471  30.326  1.00  0.00     0.031 A 
BRANCH  47  61
ATOM     61  C   UNL A   1      43.853  32.894  31.413  1.00  0.00    -0.014 A 
ATOM     62  C   UNL A   1      43.552  33.243  32.742  1.00  0.00     0.010 A 
ATOM     63  C   UNL A   1      44.293  33.894  30.526  1.00  0.00     0.010 A 
ATOM     64  C   UNL A   1      43.630  34.575  33.159  1.00  0.00     0.020 A 
ATOM     65  C   UNL A   1      44.399  35.222  30.947  1.00  0.00     0.020 A 
ATOM     66  C   UNL A   1      44.043  35.558  32.255  1.00  0.00     0.054 A 
BRANCH  66  67
ATOM     67  S   UNL A   1      44.125  37.282  32.814  1.00  0.00     0.124 S 
ATOM     68  O   UNL A   1      42.995  37.351  33.737  1.00  0.00    -0.237 OA
ATOM     69  O   UNL A   1      45.445  37.358  33.433  1.00  0.00    -0.237 OA
ATOM     70  O   UNL A   1      43.973  38.051  31.583  1.00  0.00    -0.744 OA
ENDBRANCH  66  67
ENDBRANCH  47  61
BRANCH  48  71
ATOM     71  C   UNL A   1      42.646  23.712  27.732  1.00  0.00    -0.014 A 
ATOM     72  C   UNL A   1      42.450  22.624  28.602  1.00  0.00     0.010 A 
ATOM     73  C   UNL A   1      42.666  23.486  26.344  1.00  0.00     0.010 A 
ATOM     74  C   UNL A   1      42.291  21.331  28.093  1.00  0.00     0.020 A 
ATOM     75  C   UNL A   1      42.485  22.197  25.833  1.00  0.00     0.020 A 
ATOM     76  C   UNL A   1      42.308  21.127  26.712  1.00  0.00     0.054 A 
BRANCH  76  77
ATOM     77  S   UNL A   1      42.041  19.450  26.072  1.00  0.00     0.124 S 
ATOM     78  O   UNL A   1      42.469  18.624  27.197  1.00  0.00    -0.237 OA
ATOM     79  O   UNL A   1      40.609  19.442  25.789  1.00  0.00    -0.237 OA
ATOM     80  O   UNL A   1      42.901  19.396  24.891  1.00  0.00    -0.744 OA
ENDBRANCH  76  77
ENDBRANCH  48  71
BRANCH  60  81
ATOM     81  C   UNL A   1      48.014  27.038  30.674  1.00  0.00    -0.014 A 
ATOM     82  C   UNL A   1      49.099  27.316  29.825  1.00  0.00     0.010 A 
ATOM     83  C   UNL A   1      48.248  26.378  31.894  1.00  0.00     0.010 A 
ATOM     84  C   UNL A   1      50.391  26.910  30.175  1.00  0.00     0.020 A 
ATOM     85  C   UNL A   1      49.541  25.992  32.259  1.00  0.00     0.020 A 
ATOM     86  C   UNL A   1      50.603  26.248  31.389  1.00  0.00     0.054 A 
BRANCH  86  87
ATOM     87  S   UNL A   1      52.291  25.763  31.843  1.00  0.00     0.124 S 
ATOM     88  O   UNL A   1      53.017  25.989  30.596  1.00  0.00    -0.237 OA
ATOM     89  O   UNL A   1      52.610  26.683  32.932  1.00  0.00    -0.237 OA
ATOM     90  O   UNL A   1      52.153  24.363  32.239  1.00  0.00    -0.744 OA
ENDBRANCH  86  87
ENDBRANCH  60  81
ENDBRANCH  34  35
ENDBRANCH  26  29
ENDBRANCH  24  25
ENDBRANCH  23  24
ENDBRANCH   1  23
TORSDOF 18
ENDMDL
MODEL 2
REMARK VINA RESULT:     -10.6      1.451      3.791
REMARK SMILES N#C/C(=C/c1cccc(OC2CCCC2)c1)C(=O)NCCCCNC(=O)c1ccc(-c2c3nc(c(-c4ccc(S(=O)(=O)[O-])cc4)c4ccc([nH]4)c(-c4ccc(S(=O)(=O)[O-])cc4)c4nc(c(-c5ccc(S(=O)(=O)[O-])cc5)c5ccc2[nH]5)C=C4)C=C3)cc1
REMARK SMILES IDX 21 1 20 2 19 3 17 4 18 5 3 7 4 8 2 9 1 10 5 11 6 12 16 13
REMARK SMILES IDX 7 14 9 15 8 16 10 17 11 18 12 19 15 20 13 21 14 22 22 23
REMARK SMILES IDX 23 24 24 25 25 26 26 28 27 29 28 30 86 31 29 32 85 33 30 34
REMARK SMILES IDX 31 35 32 36 79 37 33 38 84 39 78 40 80 41 34 42 83 43 77 44
REMARK SMILES IDX 76 45 35 47 65 48 46 49 64 50 47 51 50 52 63 53 81 54 48 55
REMARK SMILES IDX 49 56 62 58 82 59 51 60 36 61 37 62 45 63 38 64 44 65 39 66
REMARK SMILES IDX 40 67 41 68 42 69 43 70 66 71 67 72 75 73 68 74 74 75 69 76
REMARK SMILES IDX 70 77 71 78 72 79 73 80 52 81 53 82 61 83 54 84 60 85 55 86
REMARK SMILES IDX 56 87 57 88 58 89 59 90
REMARK H PARENT 19 6 24 27 80 46 50 57
REMARK Flexibility Score: inf
ROOT
ATOM      1  C   UNL A   1      34.018  27.434  23.877  1.00  0.00     0.023 C 
ENDROOT
BRANCH   1   2
ATOM      2  C   UNL A   1      33.126  28.362  23.058  1.00  0.00     0.116 C 
BRANCH   2   3
ATOM      3  N   UNL A   1      32.304  29.291  23.810  1.00  0.00    -0.351 N 
ATOM      4  C   UNL A   1      30.941  29.408  23.899  1.00  0.00     0.261 C 
ATOM      5  O   UNL A   1      30.490  30.255  24.672  1.00  0.00    -0.268 OA
ATOM      6  H   UNL A   1      32.808  29.945  24.346  1.00  0.00     0.163 HD
BRANCH   4   7
ATOM      7  C   UNL A   1      29.989  28.612  23.064  1.00  0.00     0.117 C 
ATOM      8  C   UNL A   1      29.690  27.291  23.090  1.00  0.00     0.033 C 
BRANCH   7   9
ATOM      9  C   UNL A   1      29.080  29.385  22.123  1.00  0.00     0.105 C 
ATOM     10  N   UNL A   1      28.325  30.026  21.342  1.00  0.00    -0.192 NA
ENDBRANCH   7   9
BRANCH   8  11
ATOM     11  C   UNL A   1      30.152  26.252  24.008  1.00  0.00    -0.020 A 
ATOM     12  C   UNL A   1      29.783  26.268  25.357  1.00  0.00     0.008 A 
ATOM     13  C   UNL A   1      30.944  25.212  23.515  1.00  0.00     0.054 A 
ATOM     14  C   UNL A   1      30.130  25.195  26.177  1.00  0.00     0.004 A 
ATOM     15  C   UNL A   1      31.239  24.109  24.305  1.00  0.00     0.120 A 
ATOM     16  C   UNL A   1      30.840  24.113  25.645  1.00  0.00     0.046 A 
BRANCH  15  17
ATOM     17  O   UNL A   1      31.856  22.969  23.886  1.00  0.00    -0.490 OA
BRANCH  17  18
ATOM     18  C   UNL A   1      32.951  22.384  24.589  1.00  0.00     0.173 C 
ATOM     19  C   UNL A   1      33.292  20.922  24.280  1.00  0.00     0.045 C 
ATOM     20  C   UNL A   1      34.260  23.179  24.528  1.00  0.00     0.045 C 
ATOM     21  C   UNL A   1      34.753  20.800  24.683  1.00  0.00     0.004 C 
ATOM     22  C   UNL A   1      35.366  22.146  24.317  1.00  0.00     0.004 C 
ENDBRANCH  17  18
ENDBRANCH  15  17
ENDBRANCH   8  11
ENDBRANCH   4   7
ENDBRANCH   2   3
ENDBRANCH   1   2
BRANCH   1  23
ATOM     23  C   UNL A   1      33.510  27.037  25.266  1.00  0.00     0.023 C 
BRANCH  23  24
ATOM     24  C   UNL A   1      34.203  27.639  26.489  1.00  0.00     0.116 C 
BRANCH  24  25
ATOM     25  N   UNL A   1      33.662  28.909  26.944  1.00  0.00    -0.352 N 
ATOM     26  C   UNL A   1      34.281  29.958  27.591  1.00  0.00     0.251 C 
ATOM     27  H   UNL A   1      32.703  29.042  26.762  1.00  0.00     0.163 HD
ATOM     28  O   UNL A   1      33.627  30.962  27.869  1.00  0.00    -0.269 OA
BRANCH  26  29
ATOM     29  C   UNL A   1      35.702  29.868  28.011  1.00  0.00     0.039 A 
ATOM     30  C   UNL A   1      35.987  29.506  29.332  1.00  0.00     0.014 A 
ATOM     31  C   UNL A   1      36.753  30.120  27.126  1.00  0.00     0.014 A 
ATOM     32  C   UNL A   1      37.312  29.292  29.732  1.00  0.00     0.010 A 
ATOM     33  C   UNL A   1      38.068  29.838  27.505  1.00  0.00     0.010 A 
ATOM     34  C   UNL A   1      38.363  29.402  28.808  1.00  0.00    -0.014 A 
BRANCH  34  35
ATOM     35  C   UNL A   1      39.757  29.025  29.174  1.00  0.00     0.031 A 
ATOM     36  C   UNL A   1      40.660  30.000  29.883  1.00  0.00     0.074 A 
ATOM     37  C   UNL A   1      40.241  27.820  28.808  1.00  0.00     0.049 A 
ATOM     38  N   UNL A   1      41.910  29.854  30.243  1.00  0.00    -0.248 NA
ATOM     39  C   UNL A   1      40.091  31.316  30.209  1.00  0.00     0.031 C 
ATOM     40  C   UNL A   1      39.495  26.793  28.075  1.00  0.00     0.029 A 
ATOM     41  N   UNL A   1      41.479  27.254  28.998  1.00  0.00    -0.354 N 
ATOM     42  C   UNL A   1      42.288  31.066  30.810  1.00  0.00     0.074 A 
ATOM     43  C   UNL A   1      41.142  31.947  30.715  1.00  0.00     0.031 C 
ATOM     44  C   UNL A   1      40.277  25.714  27.910  1.00  0.00     0.029 A 
ATOM     45  C   UNL A   1      41.589  25.980  28.491  1.00  0.00     0.049 A 
ATOM     46  H   UNL A   1      42.218  27.716  29.455  1.00  0.00     0.167 HD
ATOM     47  C   UNL A   1      43.471  31.415  31.372  1.00  0.00     0.031 A 
ATOM     48  C   UNL A   1      42.624  25.117  28.495  1.00  0.00     0.031 A 
ATOM     49  C   UNL A   1      44.606  30.538  31.490  1.00  0.00     0.049 A 
ATOM     50  C   UNL A   1      43.919  25.514  29.150  1.00  0.00     0.074 A 
ATOM     51  C   UNL A   1      45.825  30.783  32.099  1.00  0.00     0.029 A 
ATOM     52  N   UNL A   1      44.664  29.247  30.989  1.00  0.00    -0.354 N 
ATOM     53  N   UNL A   1      44.230  26.643  29.740  1.00  0.00    -0.248 NA
ATOM     54  C   UNL A   1      44.995  24.513  29.154  1.00  0.00     0.031 C 
ATOM     55  C   UNL A   1      46.632  29.651  31.938  1.00  0.00     0.029 A 
ATOM     56  C   UNL A   1      45.900  28.686  31.266  1.00  0.00     0.049 A 
ATOM     57  H   UNL A   1      43.934  28.794  30.507  1.00  0.00     0.167 HD
ATOM     58  C   UNL A   1      45.524  26.474  30.216  1.00  0.00     0.074 A 
ATOM     59  C   UNL A   1      45.937  25.135  29.850  1.00  0.00     0.031 C 
ATOM     60  C   UNL A   1      46.298  27.349  30.905  1.00  0.00     0.031 A 
BRANCH  47  61
ATOM     61  C   UNL A   1      43.596  32.821  31.896  1.00  0.00    -0.014 A 
ATOM     62  C   UNL A   1      43.166  33.154  33.193  1.00  0.00     0.010 A 
ATOM     63  C   UNL A   1      44.162  33.821  31.085  1.00  0.00     0.010 A 
ATOM     64  C   UNL A   1      43.244  34.474  33.648  1.00  0.00     0.020 A 
ATOM     65  C   UNL A   1      44.267  35.136  31.545  1.00  0.00     0.020 A 
ATOM     66  C   UNL A   1      43.785  35.459  32.816  1.00  0.00     0.054 A 
BRANCH  66  67
ATOM     67  S   UNL A   1      43.865  37.167  33.421  1.00  0.00     0.124 S 
ATOM     68  O   UNL A   1      45.164  37.187  34.090  1.00  0.00    -0.237 OA
ATOM     69  O   UNL A   1      43.781  37.950  32.191  1.00  0.00    -0.237 OA
ATOM     70  O   UNL A   1      42.707  37.275  34.304  1.00  0.00    -0.744 OA
ENDBRANCH  66  67
ENDBRANCH  47  61
BRANCH  48  71
ATOM     71  C   UNL A   1      42.464  23.763  27.899  1.00  0.00    -0.014 A 
ATOM     72  C   UNL A   1      41.932  22.712  28.668  1.00  0.00     0.010 A 
ATOM     73  C   UNL A   1      42.829  23.517  26.563  1.00  0.00     0.010 A 
ATOM     74  C   UNL A   1      41.781  21.436  28.117  1.00  0.00     0.020 A 
ATOM     75  C   UNL A   1      42.657  22.248  26.002  1.00  0.00     0.020 A 
ATOM     76  C   UNL A   1      42.143  21.213  26.786  1.00  0.00     0.054 A 
BRANCH  76  77
ATOM     77  S   UNL A   1      41.884  19.565  26.074  1.00  0.00     0.124 S 
ATOM     78  O   UNL A   1      40.443  19.557  25.841  1.00  0.00    -0.237 OA
ATOM     79  O   UNL A   1      42.719  19.602  24.875  1.00  0.00    -0.237 OA
ATOM     80  O   UNL A   1      42.356  18.663  27.122  1.00  0.00    -0.744 OA
ENDBRANCH  76  77
ENDBRANCH  48  71
BRANCH  60  81
ATOM     81  C   UNL A   1      47.652  26.870  31.356  1.00  0.00    -0.014 A 
ATOM     82  C   UNL A   1      47.831  26.249  32.605  1.00  0.00     0.010 A 
ATOM     83  C   UNL A   1      48.755  27.010  30.494  1.00  0.00     0.010 A 
ATOM     84  C   UNL A   1      49.097  25.804  32.996  1.00  0.00     0.020 A 
ATOM     85  C   UNL A   1      50.018  26.546  30.873  1.00  0.00     0.020 A 
ATOM     86  C   UNL A   1      50.184  25.959  32.129  1.00  0.00     0.054 A 
BRANCH  86  87
ATOM     87  S   UNL A   1      51.812  25.343  32.640  1.00  0.00     0.124 S 
ATOM     88  O   UNL A   1      51.795  25.599  34.078  1.00  0.00    -0.237 OA
ATOM     89  O   UNL A   1      51.762  23.935  32.252  1.00  0.00    -0.237 OA
ATOM     90  O   UNL A   1      52.747  26.161  31.872  1.00  0.00    -0.744 OA
ENDBRANCH  86  87
ENDBRANCH  60  81
ENDBRANCH  34  35
ENDBRANCH  26  29
ENDBRANCH  24  25
ENDBRANCH  23  24
ENDBRANCH   1  23
TORSDOF 18
ENDMDL
MODEL 3
REMARK VINA RESULT:     -10.4      2.944      4.768
REMARK SMILES N#C/C(=C/c1cccc(OC2CCCC2)c1)C(=O)NCCCCNC(=O)c1ccc(-c2c3nc(c(-c4ccc(S(=O)(=O)[O-])cc4)c4ccc([nH]4)c(-c4ccc(S(=O)(=O)[O-])cc4)c4nc(c(-c5ccc(S(=O)(=O)[O-])cc5)c5ccc2[nH]5)C=C4)C=C3)cc1
REMARK SMILES IDX 21 1 20 2 19 3 17 4 18 5 3 7 4 8 2 9 1 10 5 11 6 12 16 13
REMARK SMILES IDX 7 14 9 15 8 16 10 17 11 18 12 19 15 20 13 21 14 22 22 23
REMARK SMILES IDX 23 24 24 25 25 26 26 28 27 29 28 30 86 31 29 32 85 33 30 34
REMARK SMILES IDX 31 35 32 36 79 37 33 38 84 39 78 40 80 41 34 42 83 43 77 44
REMARK SMILES IDX 76 45 35 47 65 48 46 49 64 50 47 51 50 52 63 53 81 54 48 55
REMARK SMILES IDX 49 56 62 58 82 59 51 60 36 61 37 62 45 63 38 64 44 65 39 66
REMARK SMILES IDX 40 67 41 68 42 69 43 70 66 71 67 72 75 73 68 74 74 75 69 76
REMARK SMILES IDX 70 77 71 78 72 79 73 80 52 81 53 82 61 83 54 84 60 85 55 86
REMARK SMILES IDX 56 87 57 88 58 89 59 90
REMARK H PARENT 19 6 24 27 80 46 50 57
REMARK Flexibility Score: inf
ROOT
ATOM      1  C   UNL A   1      33.738  27.422  24.010  1.00  0.00     0.023 C 
ENDROOT
BRANCH   1   2
ATOM      2  C   UNL A   1      32.848  28.301  23.137  1.00  0.00     0.116 C 
BRANCH   2   3
ATOM      3  N   UNL A   1      32.082  29.322  23.824  1.00  0.00    -0.351 N 
ATOM      4  C   UNL A   1      30.728  29.514  23.913  1.00  0.00     0.261 C 
ATOM      5  O   UNL A   1      30.328  30.437  24.626  1.00  0.00    -0.268 OA
ATOM      6  H   UNL A   1      32.623  29.988  24.306  1.00  0.00     0.163 HD
BRANCH   4   7
ATOM      7  C   UNL A   1      29.728  28.708  23.147  1.00  0.00     0.117 C 
ATOM      8  C   UNL A   1      29.504  27.372  23.129  1.00  0.00     0.033 C 
BRANCH   7   9
ATOM      9  C   UNL A   1      28.675  29.475  22.363  1.00  0.00     0.105 C 
ATOM     10  N   UNL A   1      27.802  30.110  21.712  1.00  0.00    -0.192 NA
ENDBRANCH   7   9
BRANCH   8  11
ATOM     11  C   UNL A   1      30.124  26.316  23.925  1.00  0.00    -0.020 A 
ATOM     12  C   UNL A   1      30.154  26.390  25.321  1.00  0.00     0.008 A 
ATOM     13  C   UNL A   1      30.662  25.202  23.275  1.00  0.00     0.054 A 
ATOM     14  C   UNL A   1      30.634  25.307  26.057  1.00  0.00     0.004 A 
ATOM     15  C   UNL A   1      31.082  24.092  23.998  1.00  0.00     0.120 A 
ATOM     16  C   UNL A   1      31.078  24.158  25.395  1.00  0.00     0.046 A 
BRANCH  15  17
ATOM     17  O   UNL A   1      31.465  22.896  23.473  1.00  0.00    -0.490 OA
BRANCH  17  18
ATOM     18  C   UNL A   1      32.832  22.553  23.256  1.00  0.00     0.173 C 
ATOM     19  C   UNL A   1      33.841  23.700  23.138  1.00  0.00     0.045 C 
ATOM     20  C   UNL A   1      33.412  21.537  24.249  1.00  0.00     0.045 C 
ATOM     21  C   UNL A   1      35.166  23.053  23.508  1.00  0.00     0.004 C 
ATOM     22  C   UNL A   1      34.813  22.043  24.591  1.00  0.00     0.004 C 
ENDBRANCH  17  18
ENDBRANCH  15  17
ENDBRANCH   8  11
ENDBRANCH   4   7
ENDBRANCH   2   3
ENDBRANCH   1   2
BRANCH   1  23
ATOM     23  C   UNL A   1      33.601  27.592  25.526  1.00  0.00     0.023 C 
BRANCH  23  24
ATOM     24  C   UNL A   1      34.525  28.587  26.229  1.00  0.00     0.116 C 
BRANCH  24  25
ATOM     25  N   UNL A   1      33.919  29.866  26.561  1.00  0.00    -0.352 N 
ATOM     26  C   UNL A   1      34.341  30.850  27.429  1.00  0.00     0.251 C 
ATOM     27  H   UNL A   1      33.074  30.060  26.093  1.00  0.00     0.163 HD
ATOM     28  O   UNL A   1      33.673  31.877  27.543  1.00  0.00    -0.269 OA
BRANCH  26  29
ATOM     29  C   UNL A   1      35.550  30.664  28.271  1.00  0.00     0.039 A 
ATOM     30  C   UNL A   1      35.515  29.702  29.287  1.00  0.00     0.014 A 
ATOM     31  C   UNL A   1      36.716  31.406  28.067  1.00  0.00     0.014 A 
ATOM     32  C   UNL A   1      36.672  29.412  30.020  1.00  0.00     0.010 A 
ATOM     33  C   UNL A   1      37.887  31.067  28.750  1.00  0.00     0.010 A 
ATOM     34  C   UNL A   1      37.885  30.053  29.721  1.00  0.00    -0.014 A 
BRANCH  34  35
ATOM     35  C   UNL A   1      39.157  29.645  30.381  1.00  0.00     0.031 A 
ATOM     36  C   UNL A   1      39.663  30.371  31.600  1.00  0.00     0.074 A 
ATOM     37  C   UNL A   1      39.902  28.657  29.842  1.00  0.00     0.049 A 
ATOM     38  N   UNL A   1      40.766  30.175  32.277  1.00  0.00    -0.248 NA
ATOM     39  C   UNL A   1      38.833  31.472  32.110  1.00  0.00     0.031 C 
ATOM     40  C   UNL A   1      39.560  27.898  28.635  1.00  0.00     0.029 A 
ATOM     41  N   UNL A   1      41.105  28.123  30.236  1.00  0.00    -0.354 N 
ATOM     42  C   UNL A   1      40.778  31.145  33.273  1.00  0.00     0.074 A 
ATOM     43  C   UNL A   1      39.587  31.949  33.089  1.00  0.00     0.031 C 
ATOM     44  C   UNL A   1      40.511  26.977  28.409  1.00  0.00     0.029 A 
ATOM     45  C   UNL A   1      41.547  27.098  29.430  1.00  0.00     0.049 A 
ATOM     46  H   UNL A   1      41.604  28.442  31.021  1.00  0.00     0.167 HD
ATOM     47  C   UNL A   1      41.686  31.344  34.261  1.00  0.00     0.031 A 
ATOM     48  C   UNL A   1      42.655  26.336  29.502  1.00  0.00     0.031 A 
ATOM     49  C   UNL A   1      42.859  30.536  34.463  1.00  0.00     0.049 A 
ATOM     50  C   UNL A   1      43.635  26.556  30.623  1.00  0.00     0.074 A 
ATOM     51  C   UNL A   1      43.802  30.624  35.473  1.00  0.00     0.029 A 
ATOM     52  N   UNL A   1      43.252  29.491  33.641  1.00  0.00    -0.354 N 
ATOM     53  N   UNL A   1      43.590  27.437  31.594  1.00  0.00    -0.248 NA
ATOM     54  C   UNL A   1      44.803  25.666  30.667  1.00  0.00     0.031 C 
ATOM     55  C   UNL A   1      44.783  29.652  35.243  1.00  0.00     0.029 A 
ATOM     56  C   UNL A   1      44.427  28.932  34.115  1.00  0.00     0.049 A 
ATOM     57  H   UNL A   1      42.766  29.190  32.840  1.00  0.00     0.167 HD
ATOM     58  C   UNL A   1      44.706  27.182  32.383  1.00  0.00     0.074 A 
ATOM     59  C   UNL A   1      45.403  26.065  31.781  1.00  0.00     0.031 C 
ATOM     60  C   UNL A   1      45.110  27.814  33.513  1.00  0.00     0.031 A 
BRANCH  47  61
ATOM     61  C   UNL A   1      41.442  32.498  35.197  1.00  0.00    -0.014 A 
ATOM     62  C   UNL A   1      41.960  33.777  34.924  1.00  0.00     0.010 A 
ATOM     63  C   UNL A   1      40.676  32.304  36.361  1.00  0.00     0.010 A 
ATOM     64  C   UNL A   1      41.766  34.826  35.828  1.00  0.00     0.020 A 
ATOM     65  C   UNL A   1      40.457  33.357  37.253  1.00  0.00     0.020 A 
ATOM     66  C   UNL A   1      41.024  34.606  36.992  1.00  0.00     0.054 A 
BRANCH  66  67
ATOM     67  S   UNL A   1      40.796  35.978  38.156  1.00  0.00     0.124 S 
ATOM     68  O   UNL A   1      42.121  36.592  38.159  1.00  0.00    -0.237 OA
ATOM     69  O   UNL A   1      39.741  36.767  37.524  1.00  0.00    -0.237 OA
ATOM     70  O   UNL A   1      40.413  35.316  39.400  1.00  0.00    -0.744 OA
ENDBRANCH  66  67
ENDBRANCH  47  61
BRANCH  48  71
ATOM     71  C   UNL A   1      42.878  25.253  28.506  1.00  0.00    -0.014 A 
ATOM     72  C   UNL A   1      42.353  23.968  28.733  1.00  0.00     0.010 A 
ATOM     73  C   UNL A   1      43.603  25.500  27.326  1.00  0.00     0.010 A 
ATOM     74  C   UNL A   1      42.561  22.944  27.804  1.00  0.00     0.020 A 
ATOM     75  C   UNL A   1      43.792  24.483  26.384  1.00  0.00     0.020 A 
ATOM     76  C   UNL A   1      43.278  23.209  26.635  1.00  0.00     0.054 A 
BRANCH  76  77
ATOM     77  S   UNL A   1      43.485  21.882  25.415  1.00  0.00     0.124 S 
ATOM     78  O   UNL A   1      43.402  22.612  24.154  1.00  0.00    -0.237 OA
ATOM     79  O   UNL A   1      44.801  21.344  25.751  1.00  0.00    -0.237 OA
ATOM     80  O   UNL A   1      42.365  20.985  25.696  1.00  0.00    -0.744 OA
ENDBRANCH  76  77
ENDBRANCH  48  71
BRANCH  60  81
ATOM     81  C   UNL A   1      46.335  27.280  34.205  1.00  0.00    -0.014 A 
ATOM     82  C   UNL A   1      47.616  27.784  33.920  1.00  0.00     0.010 A 
ATOM     83  C   UNL A   1      46.191  26.283  35.188  1.00  0.00     0.010 A 
ATOM     84  C   UNL A   1      48.737  27.276  34.583  1.00  0.00     0.020 A 
ATOM     85  C   UNL A   1      47.307  25.790  35.869  1.00  0.00     0.020 A 
ATOM     86  C   UNL A   1      48.576  26.280  35.552  1.00  0.00     0.054 A 
BRANCH  86  87
ATOM     87  S   UNL A   1      50.039  25.660  36.428  1.00  0.00     0.124 S 
ATOM     88  O   UNL A   1      50.799  25.040  35.346  1.00  0.00    -0.237 OA
ATOM     89  O   UNL A   1      50.621  26.878  36.987  1.00  0.00    -0.237 OA
ATOM     90  O   UNL A   1      49.484  24.734  37.412  1.00  0.00    -0.744 OA
ENDBRANCH  86  87
ENDBRANCH  60  81
ENDBRANCH  34  35
ENDBRANCH  26  29
ENDBRANCH  24  25
ENDBRANCH  23  24
ENDBRANCH   1  23
TORSDOF 18
ENDMDL
