MODEL 1
REMARK VINA RESULT:     -11.8      0.000      0.000
REMARK SMILES Cc1cc(C(=O)NCCCCNC(=O)c2ccc(-c3c4nc(c(-c5ccc(S(=O)(=O)[O-])cc5)c5ccc([nH]5)c(-c5ccc(S(=O)(=O)[O-])cc5)c5nc(c(-c6ccc(S(=O)(=O)[O-])cc6)c6ccc3[nH]6)C=C5)C=C4)cc2)c(C)n1[C@@H]1C[N@H+]2CC[C@@H]1CC2
REMARK SMILES IDX 10 1 9 2 8 3 7 4 5 5 6 6 4 8 1 9 2 10 3 11 77 12 75 13 76 14
REMARK SMILES IDX 78 15 79 16 83 17 80 18 84 19 82 20 85 21 81 22 11 24 12 25
REMARK SMILES IDX 13 26 14 28 15 29 16 30 74 31 17 32 73 33 18 34 19 35 20 36
REMARK SMILES IDX 67 37 21 38 72 39 66 40 68 41 22 42 71 43 65 44 64 45 23 47
REMARK SMILES IDX 53 48 34 49 52 50 35 51 38 52 51 53 69 54 36 55 37 56 50 58
REMARK SMILES IDX 70 59 39 60 24 61 25 62 33 63 26 64 32 65 27 66 28 67 29 68
REMARK SMILES IDX 30 69 31 70 54 71 55 72 63 73 56 74 62 75 57 76 58 77 59 78
REMARK SMILES IDX 60 79 61 80 40 81 41 82 49 83 42 84 48 85 43 86 44 87 45 88
REMARK SMILES IDX 46 89 47 90
REMARK H PARENT 7 7 80 23 12 27 68 46 38 57
REMARK Flexibility Score: inf
ROOT
ATOM      1  C   UNL A   1      32.894  30.303  27.140  1.00  0.00     0.023 C 
ENDROOT
BRANCH   1   2
ATOM      2  C   UNL A   1      32.539  30.038  25.658  1.00  0.00     0.023 C 
BRANCH   2   3
ATOM      3  C   UNL A   1      31.048  29.973  25.320  1.00  0.00     0.116 C 
BRANCH   3   4
ATOM      4  N   UNL A   1      30.822  29.962  23.883  1.00  0.00    -0.352 N 
ATOM      5  C   UNL A   1      30.856  28.987  22.912  1.00  0.00     0.253 C 
ATOM      6  O   UNL A   1      30.490  29.331  21.789  1.00  0.00    -0.269 OA
ATOM      7  H   UNL A   1      30.596  30.851  23.525  1.00  0.00     0.163 HD
BRANCH   5   8
ATOM      8  C   UNL A   1      31.258  27.604  23.211  1.00  0.00     0.060 A 
ATOM      9  C   UNL A   1      30.582  24.014  23.345  1.00  0.00     0.064 C 
ATOM     10  C   UNL A   1      31.201  25.361  23.458  1.00  0.00     0.016 A 
ATOM     11  C   UNL A   1      30.479  26.518  23.653  1.00  0.00     0.037 A 
ATOM     12  N   UNL A   1      32.537  25.724  23.364  1.00  0.00    -0.339 N 
ATOM     13  C   UNL A   1      32.569  27.108  23.136  1.00  0.00     0.028 A 
ATOM     14  C   UNL A   1      33.798  27.912  22.825  1.00  0.00     0.065 C 
BRANCH  12  15
ATOM     15  C   UNL A   1      33.723  24.873  23.531  1.00  0.00     0.145 C 
ATOM     16  C   UNL A   1      33.683  23.448  22.925  1.00  0.00     0.288 C 
ATOM     17  C   UNL A   1      34.267  24.775  24.986  1.00  0.00     0.029 C 
ATOM     18  N   UNL A   1      34.143  22.409  23.892  1.00  0.00    -0.333 N 
ATOM     19  C   UNL A   1      35.663  24.107  24.917  1.00  0.00     0.067 C 
ATOM     20  C   UNL A   1      33.409  23.819  25.826  1.00  0.00     0.067 C 
ATOM     21  C   UNL A   1      35.537  22.709  24.283  1.00  0.00     0.262 C 
ATOM     22  C   UNL A   1      33.305  22.462  25.111  1.00  0.00     0.262 C 
ATOM     23  H   UNL A   1      34.076  21.488  23.458  1.00  0.00     0.348 HD
ENDBRANCH  12  15
ENDBRANCH   5   8
ENDBRANCH   3   4
ENDBRANCH   2   3
ENDBRANCH   1   2
BRANCH   1  24
ATOM     24  C   UNL A   1      34.229  31.011  27.483  1.00  0.00     0.116 C 
BRANCH  24  25
ATOM     25  N   UNL A   1      34.103  32.213  28.274  1.00  0.00    -0.352 N 
ATOM     26  C   UNL A   1      34.929  32.685  29.288  1.00  0.00     0.251 C 
ATOM     27  H   UNL A   1      33.324  32.776  28.067  1.00  0.00     0.163 HD
ATOM     28  O   UNL A   1      34.552  33.698  29.875  1.00  0.00    -0.269 OA
BRANCH  26  29
ATOM     29  C   UNL A   1      36.168  31.950  29.776  1.00  0.00     0.039 A 
ATOM     30  C   UNL A   1      37.322  32.043  29.013  1.00  0.00     0.014 A 
ATOM     31  C   UNL A   1      36.185  30.949  30.768  1.00  0.00     0.014 A 
ATOM     32  C   UNL A   1      38.466  31.216  29.280  1.00  0.00     0.010 A 
ATOM     33  C   UNL A   1      37.331  30.045  30.981  1.00  0.00     0.010 A 
ATOM     34  C   UNL A   1      38.530  30.133  30.236  1.00  0.00    -0.014 A 
BRANCH  34  35
ATOM     35  C   UNL A   1      39.599  28.925  29.881  1.00  0.00     0.031 A 
ATOM     36  C   UNL A   1      40.350  28.833  31.163  1.00  0.00     0.074 A 
ATOM     37  C   UNL A   1      40.132  28.084  28.887  1.00  0.00     0.049 A 
ATOM     38  N   UNL A   1      40.935  29.902  31.619  1.00  0.00    -0.248 NA
ATOM     39  C   UNL A   1      40.136  27.779  32.153  1.00  0.00     0.031 C 
ATOM     40  C   UNL A   1      39.825  28.047  27.446  1.00  0.00     0.029 A 
ATOM     41  N   UNL A   1      41.110  27.019  28.932  1.00  0.00    -0.354 N 
ATOM     42  C   UNL A   1      41.411  29.588  32.863  1.00  0.00     0.074 A 
ATOM     43  C   UNL A   1      40.703  28.361  33.217  1.00  0.00     0.031 C 
ATOM     44  C   UNL A   1      40.427  26.990  26.814  1.00  0.00     0.029 A 
ATOM     45  C   UNL A   1      41.271  26.215  27.729  1.00  0.00     0.049 A 
ATOM     46  H   UNL A   1      41.644  26.845  29.741  1.00  0.00     0.167 HD
ATOM     47  C   UNL A   1      42.721  29.901  33.077  1.00  0.00     0.031 A 
ATOM     48  C   UNL A   1      42.072  25.093  27.452  1.00  0.00     0.031 A 
ATOM     49  C   UNL A   1      43.569  28.754  32.869  1.00  0.00     0.049 A 
ATOM     50  C   UNL A   1      43.234  25.216  28.345  1.00  0.00     0.074 A 
ATOM     51  C   UNL A   1      43.477  27.435  33.265  1.00  0.00     0.029 A 
ATOM     52  N   UNL A   1      44.407  28.790  31.771  1.00  0.00    -0.354 N 
ATOM     53  N   UNL A   1      44.186  26.061  28.093  1.00  0.00    -0.248 NA
ATOM     54  C   UNL A   1      43.486  24.305  29.456  1.00  0.00     0.031 C 
ATOM     55  C   UNL A   1      43.816  26.700  32.110  1.00  0.00     0.029 A 
ATOM     56  C   UNL A   1      44.453  27.537  31.200  1.00  0.00     0.049 A 
ATOM     57  H   UNL A   1      44.893  29.583  31.448  1.00  0.00     0.167 HD
ATOM     58  C   UNL A   1      44.822  26.161  29.291  1.00  0.00     0.074 A 
ATOM     59  C   UNL A   1      44.576  24.893  29.955  1.00  0.00     0.031 C 
ATOM     60  C   UNL A   1      44.898  27.405  29.831  1.00  0.00     0.031 A 
BRANCH  47  61
ATOM     61  C   UNL A   1      43.125  31.290  32.645  1.00  0.00    -0.014 A 
ATOM     62  C   UNL A   1      43.849  31.447  31.458  1.00  0.00     0.010 A 
ATOM     63  C   UNL A   1      42.833  32.441  33.415  1.00  0.00     0.010 A 
ATOM     64  C   UNL A   1      44.299  32.716  31.072  1.00  0.00     0.020 A 
ATOM     65  C   UNL A   1      43.301  33.703  33.051  1.00  0.00     0.020 A 
ATOM     66  C   UNL A   1      44.033  33.833  31.876  1.00  0.00     0.054 A 
BRANCH  66  67
ATOM     67  S   UNL A   1      44.693  35.441  31.370  1.00  0.00     0.124 S 
ATOM     68  O   UNL A   1      45.550  35.805  32.495  1.00  0.00    -0.237 OA
ATOM     69  O   UNL A   1      45.396  35.108  30.138  1.00  0.00    -0.237 OA
ATOM     70  O   UNL A   1      43.502  36.283  31.220  1.00  0.00    -0.744 OA
ENDBRANCH  66  67
ENDBRANCH  47  61
BRANCH  48  71
ATOM     71  C   UNL A   1      42.396  23.898  26.463  1.00  0.00    -0.014 A 
ATOM     72  C   UNL A   1      43.561  23.973  25.610  1.00  0.00     0.010 A 
ATOM     73  C   UNL A   1      41.919  22.586  26.636  1.00  0.00     0.010 A 
ATOM     74  C   UNL A   1      44.272  22.849  25.109  1.00  0.00     0.020 A 
ATOM     75  C   UNL A   1      42.608  21.442  26.100  1.00  0.00     0.020 A 
ATOM     76  C   UNL A   1      43.807  21.574  25.385  1.00  0.00     0.054 A 
BRANCH  76  77
ATOM     77  S   UNL A   1      44.845  20.125  24.931  1.00  0.00     0.124 S 
ATOM     78  O   UNL A   1      46.178  20.518  25.380  1.00  0.00    -0.237 OA
ATOM     79  O   UNL A   1      44.228  19.035  25.686  1.00  0.00    -0.237 OA
ATOM     80  O   UNL A   1      44.686  20.026  23.481  1.00  0.00    -0.744 OA
ENDBRANCH  76  77
ENDBRANCH  48  71
BRANCH  60  81
ATOM     81  C   UNL A   1      45.181  28.564  28.879  1.00  0.00    -0.014 A 
ATOM     82  C   UNL A   1      46.473  28.954  28.443  1.00  0.00     0.010 A 
ATOM     83  C   UNL A   1      44.104  29.361  28.457  1.00  0.00     0.010 A 
ATOM     84  C   UNL A   1      46.688  30.130  27.711  1.00  0.00     0.020 A 
ATOM     85  C   UNL A   1      44.305  30.514  27.679  1.00  0.00     0.020 A 
ATOM     86  C   UNL A   1      45.599  30.913  27.344  1.00  0.00     0.054 A 
BRANCH  86  87
ATOM     87  S   UNL A   1      45.901  32.471  26.463  1.00  0.00     0.124 S 
ATOM     88  O   UNL A   1      45.456  33.469  27.434  1.00  0.00    -0.237 OA
ATOM     89  O   UNL A   1      47.343  32.437  26.226  1.00  0.00    -0.237 OA
ATOM     90  O   UNL A   1      45.064  32.364  25.271  1.00  0.00    -0.744 OA
ENDBRANCH  86  87
ENDBRANCH  60  81
ENDBRANCH  34  35
ENDBRANCH  26  29
ENDBRANCH  24  25
ENDBRANCH   1  24
TORSDOF 15
ENDMDL
MODEL 2
REMARK VINA RESULT:     -11.6      3.868      9.243
REMARK SMILES Cc1cc(C(=O)NCCCCNC(=O)c2ccc(-c3c4nc(c(-c5ccc(S(=O)(=O)[O-])cc5)c5ccc([nH]5)c(-c5ccc(S(=O)(=O)[O-])cc5)c5nc(c(-c6ccc(S(=O)(=O)[O-])cc6)c6ccc3[nH]6)C=C5)C=C4)cc2)c(C)n1[C@@H]1C[N@H+]2CC[C@@H]1CC2
REMARK SMILES IDX 10 1 9 2 8 3 7 4 5 5 6 6 4 8 1 9 2 10 3 11 77 12 75 13 76 14
REMARK SMILES IDX 78 15 79 16 83 17 80 18 84 19 82 20 85 21 81 22 11 24 12 25
REMARK SMILES IDX 13 26 14 28 15 29 16 30 74 31 17 32 73 33 18 34 19 35 20 36
REMARK SMILES IDX 67 37 21 38 72 39 66 40 68 41 22 42 71 43 65 44 64 45 23 47
REMARK SMILES IDX 53 48 34 49 52 50 35 51 38 52 51 53 69 54 36 55 37 56 50 58
REMARK SMILES IDX 70 59 39 60 24 61 25 62 33 63 26 64 32 65 27 66 28 67 29 68
REMARK SMILES IDX 30 69 31 70 54 71 55 72 63 73 56 74 62 75 57 76 58 77 59 78
REMARK SMILES IDX 60 79 61 80 40 81 41 82 49 83 42 84 48 85 43 86 44 87 45 88
REMARK SMILES IDX 46 89 47 90
REMARK H PARENT 7 7 80 23 12 27 68 46 38 57
REMARK Flexibility Score: inf
ROOT
ATOM      1  C   UNL A   1      37.849  21.779  25.259  1.00  0.00     0.023 C 
ENDROOT
BRANCH   1   2
ATOM      2  C   UNL A   1      36.588  22.655  25.065  1.00  0.00     0.023 C 
BRANCH   2   3
ATOM      3  C   UNL A   1      35.385  22.315  25.948  1.00  0.00     0.116 C 
BRANCH   3   4
ATOM      4  N   UNL A   1      34.415  21.492  25.241  1.00  0.00    -0.352 N 
ATOM      5  C   UNL A   1      33.467  21.741  24.276  1.00  0.00     0.253 C 
ATOM      6  O   UNL A   1      32.891  20.756  23.818  1.00  0.00    -0.269 OA
ATOM      7  H   UNL A   1      34.444  20.548  25.515  1.00  0.00     0.163 HD
BRANCH   5   8
ATOM      8  C   UNL A   1      33.194  23.101  23.784  1.00  0.00     0.060 A 
ATOM      9  C   UNL A   1      32.771  25.518  21.075  1.00  0.00     0.064 C 
ATOM     10  C   UNL A   1      32.892  24.861  22.403  1.00  0.00     0.016 A 
ATOM     11  C   UNL A   1      33.681  23.755  22.637  1.00  0.00     0.037 A 
ATOM     12  N   UNL A   1      32.258  25.171  23.597  1.00  0.00    -0.339 N 
ATOM     13  C   UNL A   1      32.382  24.047  24.428  1.00  0.00     0.028 A 
ATOM     14  C   UNL A   1      31.723  23.876  25.766  1.00  0.00     0.065 C 
BRANCH  12  15
ATOM     15  C   UNL A   1      31.626  26.438  23.987  1.00  0.00     0.145 C 
ATOM     16  C   UNL A   1      30.909  27.258  22.886  1.00  0.00     0.288 C 
ATOM     17  C   UNL A   1      32.529  27.402  24.811  1.00  0.00     0.029 C 
ATOM     18  N   UNL A   1      31.296  28.699  22.911  1.00  0.00    -0.333 N 
ATOM     19  C   UNL A   1      31.618  28.517  25.383  1.00  0.00     0.067 C 
ATOM     20  C   UNL A   1      33.525  28.129  23.898  1.00  0.00     0.067 C 
ATOM     21  C   UNL A   1      30.929  29.266  24.227  1.00  0.00     0.262 C 
ATOM     22  C   UNL A   1      32.763  28.820  22.755  1.00  0.00     0.262 C 
ATOM     23  H   UNL A   1      30.819  29.192  22.156  1.00  0.00     0.348 HD
ENDBRANCH  12  15
ENDBRANCH   5   8
ENDBRANCH   3   4
ENDBRANCH   2   3
ENDBRANCH   1   2
BRANCH   1  24
ATOM     24  C   UNL A   1      39.047  22.345  26.061  1.00  0.00     0.116 C 
BRANCH  24  25
ATOM     25  N   UNL A   1      40.318  21.712  25.798  1.00  0.00    -0.352 N 
ATOM     26  C   UNL A   1      41.602  22.201  26.013  1.00  0.00     0.251 C 
ATOM     27  H   UNL A   1      40.269  20.808  25.413  1.00  0.00     0.163 HD
ATOM     28  O   UNL A   1      42.530  21.497  25.618  1.00  0.00    -0.269 OA
BRANCH  26  29
ATOM     29  C   UNL A   1      41.893  23.584  26.575  1.00  0.00     0.039 A 
ATOM     30  C   UNL A   1      41.551  23.834  27.896  1.00  0.00     0.014 A 
ATOM     31  C   UNL A   1      42.209  24.725  25.811  1.00  0.00     0.014 A 
ATOM     32  C   UNL A   1      41.590  25.163  28.441  1.00  0.00     0.010 A 
ATOM     33  C   UNL A   1      42.166  26.095  26.355  1.00  0.00     0.010 A 
ATOM     34  C   UNL A   1      41.844  26.380  27.702  1.00  0.00    -0.014 A 
BRANCH  34  35
ATOM     35  C   UNL A   1      41.155  27.749  28.318  1.00  0.00     0.031 A 
ATOM     36  C   UNL A   1      42.299  28.698  28.230  1.00  0.00     0.074 A 
ATOM     37  C   UNL A   1      40.038  28.315  28.958  1.00  0.00     0.049 A 
ATOM     38  N   UNL A   1      43.412  28.387  28.825  1.00  0.00    -0.248 NA
ATOM     39  C   UNL A   1      42.418  29.728  27.200  1.00  0.00     0.031 C 
ATOM     40  C   UNL A   1      38.812  27.651  29.435  1.00  0.00     0.029 A 
ATOM     41  N   UNL A   1      39.719  29.671  29.347  1.00  0.00    -0.354 N 
ATOM     42  C   UNL A   1      44.330  29.337  28.463  1.00  0.00     0.074 A 
ATOM     43  C   UNL A   1      43.727  29.992  27.306  1.00  0.00     0.031 C 
ATOM     44  C   UNL A   1      37.871  28.548  29.872  1.00  0.00     0.029 A 
ATOM     45  C   UNL A   1      38.364  29.928  29.812  1.00  0.00     0.049 A 
ATOM     46  H   UNL A   1      40.390  30.391  29.300  1.00  0.00     0.167 HD
ATOM     47  C   UNL A   1      45.011  29.906  29.498  1.00  0.00     0.031 A 
ATOM     48  C   UNL A   1      37.716  31.113  30.205  1.00  0.00     0.031 A 
ATOM     49  C   UNL A   1      44.416  31.161  29.884  1.00  0.00     0.049 A 
ATOM     50  C   UNL A   1      38.783  31.988  30.713  1.00  0.00     0.074 A 
ATOM     51  C   UNL A   1      43.952  32.241  29.162  1.00  0.00     0.029 A 
ATOM     52  N   UNL A   1      43.794  31.200  31.118  1.00  0.00    -0.354 N 
ATOM     53  N   UNL A   1      39.312  31.791  31.881  1.00  0.00    -0.248 NA
ATOM     54  C   UNL A   1      39.198  33.212  30.038  1.00  0.00     0.031 C 
ATOM     55  C   UNL A   1      42.719  32.562  29.766  1.00  0.00     0.029 A 
ATOM     56  C   UNL A   1      42.647  31.958  31.017  1.00  0.00     0.049 A 
ATOM     57  H   UNL A   1      44.117  30.758  31.936  1.00  0.00     0.167 HD
ATOM     58  C   UNL A   1      40.468  32.502  31.811  1.00  0.00     0.074 A 
ATOM     59  C   UNL A   1      40.203  33.556  30.848  1.00  0.00     0.031 C 
ATOM     60  C   UNL A   1      41.617  31.808  32.020  1.00  0.00     0.031 A 
BRANCH  47  61
ATOM     61  C   UNL A   1      45.567  28.933  30.509  1.00  0.00    -0.014 A 
ATOM     62  C   UNL A   1      46.503  27.981  30.091  1.00  0.00     0.010 A 
ATOM     63  C   UNL A   1      45.148  28.918  31.861  1.00  0.00     0.010 A 
ATOM     64  C   UNL A   1      46.979  27.020  30.992  1.00  0.00     0.020 A 
ATOM     65  C   UNL A   1      45.597  27.948  32.757  1.00  0.00     0.020 A 
ATOM     66  C   UNL A   1      46.514  27.002  32.315  1.00  0.00     0.054 A 
BRANCH  66  67
ATOM     67  S   UNL A   1      47.108  25.700  33.423  1.00  0.00     0.124 S 
ATOM     68  O   UNL A   1      46.132  24.634  33.217  1.00  0.00    -0.237 OA
ATOM     69  O   UNL A   1      48.439  25.432  32.894  1.00  0.00    -0.237 OA
ATOM     70  O   UNL A   1      47.058  26.315  34.753  1.00  0.00    -0.744 OA
ENDBRANCH  66  67
ENDBRANCH  47  61
BRANCH  48  71
ATOM     71  C   UNL A   1      36.347  31.829  30.557  1.00  0.00    -0.014 A 
ATOM     72  C   UNL A   1      36.072  32.210  31.924  1.00  0.00     0.010 A 
ATOM     73  C   UNL A   1      35.563  32.524  29.619  1.00  0.00     0.010 A 
ATOM     74  C   UNL A   1      35.220  33.280  32.311  1.00  0.00     0.020 A 
ATOM     75  C   UNL A   1      34.667  33.583  30.003  1.00  0.00     0.020 A 
ATOM     76  C   UNL A   1      34.538  33.990  31.338  1.00  0.00     0.054 A 
BRANCH  76  77
ATOM     77  S   UNL A   1      33.618  35.509  31.818  1.00  0.00     0.124 S 
ATOM     78  O   UNL A   1      32.411  34.982  32.448  1.00  0.00    -0.237 OA
ATOM     79  O   UNL A   1      34.552  36.181  32.723  1.00  0.00    -0.237 OA
ATOM     80  O   UNL A   1      33.402  36.198  30.547  1.00  0.00    -0.744 OA
ENDBRANCH  76  77
ENDBRANCH  48  71
BRANCH  60  81
ATOM     81  C   UNL A   1      41.604  30.752  33.122  1.00  0.00    -0.014 A 
ATOM     82  C   UNL A   1      41.873  31.009  34.490  1.00  0.00     0.010 A 
ATOM     83  C   UNL A   1      41.389  29.411  32.761  1.00  0.00     0.010 A 
ATOM     84  C   UNL A   1      42.020  29.976  35.427  1.00  0.00     0.020 A 
ATOM     85  C   UNL A   1      41.483  28.374  33.703  1.00  0.00     0.020 A 
ATOM     86  C   UNL A   1      41.837  28.658  35.022  1.00  0.00     0.054 A 
BRANCH  86  87
ATOM     87  S   UNL A   1      42.105  27.329  36.229  1.00  0.00     0.124 S 
ATOM     88  O   UNL A   1      42.525  26.217  35.379  1.00  0.00    -0.237 OA
ATOM     89  O   UNL A   1      43.149  27.878  37.092  1.00  0.00    -0.237 OA
ATOM     90  O   UNL A   1      40.796  27.158  36.853  1.00  0.00    -0.744 OA
ENDBRANCH  86  87
ENDBRANCH  60  81
ENDBRANCH  34  35
ENDBRANCH  26  29
ENDBRANCH  24  25
ENDBRANCH   1  24
TORSDOF 15
ENDMDL
MODEL 3
REMARK VINA RESULT:     -11.2      0.975      1.736
REMARK SMILES Cc1cc(C(=O)NCCCCNC(=O)c2ccc(-c3c4nc(c(-c5ccc(S(=O)(=O)[O-])cc5)c5ccc([nH]5)c(-c5ccc(S(=O)(=O)[O-])cc5)c5nc(c(-c6ccc(S(=O)(=O)[O-])cc6)c6ccc3[nH]6)C=C5)C=C4)cc2)c(C)n1[C@@H]1C[N@H+]2CC[C@@H]1CC2
REMARK SMILES IDX 10 1 9 2 8 3 7 4 5 5 6 6 4 8 1 9 2 10 3 11 77 12 75 13 76 14
REMARK SMILES IDX 78 15 79 16 83 17 80 18 84 19 82 20 85 21 81 22 11 24 12 25
REMARK SMILES IDX 13 26 14 28 15 29 16 30 74 31 17 32 73 33 18 34 19 35 20 36
REMARK SMILES IDX 67 37 21 38 72 39 66 40 68 41 22 42 71 43 65 44 64 45 23 47
REMARK SMILES IDX 53 48 34 49 52 50 35 51 38 52 51 53 69 54 36 55 37 56 50 58
REMARK SMILES IDX 70 59 39 60 24 61 25 62 33 63 26 64 32 65 27 66 28 67 29 68
REMARK SMILES IDX 30 69 31 70 54 71 55 72 63 73 56 74 62 75 57 76 58 77 59 78
REMARK SMILES IDX 60 79 61 80 40 81 41 82 49 83 42 84 48 85 43 86 44 87 45 88
REMARK SMILES IDX 46 89 47 90
REMARK H PARENT 7 7 80 23 12 27 68 46 38 57
REMARK Flexibility Score: inf
ROOT
ATOM      1  C   UNL A   1      33.282  31.424  27.376  1.00  0.00     0.023 C 
ENDROOT
BRANCH   1   2
ATOM      2  C   UNL A   1      33.278  30.240  26.381  1.00  0.00     0.023 C 
BRANCH   2   3
ATOM      3  C   UNL A   1      31.908  29.646  26.040  1.00  0.00     0.116 C 
BRANCH   3   4
ATOM      4  N   UNL A   1      31.664  29.646  24.606  1.00  0.00    -0.352 N 
ATOM      5  C   UNL A   1      31.802  28.707  23.609  1.00  0.00     0.253 C 
ATOM      6  O   UNL A   1      31.380  29.032  22.499  1.00  0.00    -0.269 OA
ATOM      7  H   UNL A   1      31.326  30.509  24.275  1.00  0.00     0.163 HD
BRANCH   5   8
ATOM      8  C   UNL A   1      32.374  27.376  23.864  1.00  0.00     0.060 A 
ATOM      9  C   UNL A   1      34.734  25.160  25.560  1.00  0.00     0.064 C 
ATOM     10  C   UNL A   1      33.677  25.723  24.681  1.00  0.00     0.016 A 
ATOM     11  C   UNL A   1      33.692  27.015  24.202  1.00  0.00     0.037 A 
ATOM     12  N   UNL A   1      32.513  25.129  24.216  1.00  0.00    -0.339 N 
ATOM     13  C   UNL A   1      31.673  26.163  23.776  1.00  0.00     0.028 A 
ATOM     14  C   UNL A   1      30.250  25.999  23.325  1.00  0.00     0.065 C 
BRANCH  12  15
ATOM     15  C   UNL A   1      32.201  23.696  24.118  1.00  0.00     0.145 C 
ATOM     16  C   UNL A   1      32.411  22.822  25.379  1.00  0.00     0.288 C 
ATOM     17  C   UNL A   1      32.834  22.963  22.899  1.00  0.00     0.029 C 
ATOM     18  N   UNL A   1      33.163  21.569  25.080  1.00  0.00    -0.333 N 
ATOM     19  C   UNL A   1      32.159  21.573  22.791  1.00  0.00     0.067 C 
ATOM     20  C   UNL A   1      34.318  22.668  23.151  1.00  0.00     0.067 C 
ATOM     21  C   UNL A   1      32.397  20.781  24.091  1.00  0.00     0.262 C 
ATOM     22  C   UNL A   1      34.472  21.908  24.479  1.00  0.00     0.262 C 
ATOM     23  H   UNL A   1      33.298  21.040  25.942  1.00  0.00     0.348 HD
ENDBRANCH  12  15
ENDBRANCH   5   8
ENDBRANCH   3   4
ENDBRANCH   2   3
ENDBRANCH   1   2
BRANCH   1  24
ATOM     24  C   UNL A   1      34.327  31.447  28.519  1.00  0.00     0.116 C 
BRANCH  24  25
ATOM     25  N   UNL A   1      34.064  32.397  29.575  1.00  0.00    -0.352 N 
ATOM     26  C   UNL A   1      34.824  32.687  30.702  1.00  0.00     0.251 C 
ATOM     27  H   UNL A   1      33.230  32.912  29.483  1.00  0.00     0.163 HD
ATOM     28  O   UNL A   1      34.334  33.481  31.504  1.00  0.00    -0.269 OA
BRANCH  26  29
ATOM     29  C   UNL A   1      36.130  31.985  31.041  1.00  0.00     0.039 A 
ATOM     30  C   UNL A   1      37.196  32.139  30.167  1.00  0.00     0.014 A 
ATOM     31  C   UNL A   1      36.282  30.962  31.997  1.00  0.00     0.014 A 
ATOM     32  C   UNL A   1      38.388  31.346  30.293  1.00  0.00     0.010 A 
ATOM     33  C   UNL A   1      37.474  30.095  32.068  1.00  0.00     0.010 A 
ATOM     34  C   UNL A   1      38.586  30.243  31.206  1.00  0.00    -0.014 A 
BRANCH  34  35
ATOM     35  C   UNL A   1      39.652  29.084  30.710  1.00  0.00     0.031 A 
ATOM     36  C   UNL A   1      40.600  29.069  31.858  1.00  0.00     0.074 A 
ATOM     37  C   UNL A   1      40.068  28.243  29.663  1.00  0.00     0.049 A 
ATOM     38  N   UNL A   1      41.188  30.180  32.192  1.00  0.00    -0.248 NA
ATOM     39  C   UNL A   1      40.606  28.035  32.891  1.00  0.00     0.031 C 
ATOM     40  C   UNL A   1      39.540  28.147  28.290  1.00  0.00     0.029 A 
ATOM     41  N   UNL A   1      41.099  27.232  29.573  1.00  0.00    -0.354 N 
ATOM     42  C   UNL A   1      41.872  29.929  33.351  1.00  0.00     0.074 A 
ATOM     43  C   UNL A   1      41.300  28.677  33.839  1.00  0.00     0.031 C 
ATOM     44  C   UNL A   1      40.093  27.104  27.592  1.00  0.00     0.029 A 
ATOM     45  C   UNL A   1      41.114  26.402  28.377  1.00  0.00     0.049 A 
ATOM     46  H   UNL A   1      41.764  27.111  30.290  1.00  0.00     0.167 HD
ATOM     47  C   UNL A   1      43.180  30.316  33.347  1.00  0.00     0.031 A 
ATOM     48  C   UNL A   1      41.923  25.316  27.999  1.00  0.00     0.031 A 
ATOM     49  C   UNL A   1      44.048  29.210  33.031  1.00  0.00     0.049 A 
ATOM     50  C   UNL A   1      43.203  25.527  28.692  1.00  0.00     0.074 A 
ATOM     51  C   UNL A   1      44.094  27.901  33.463  1.00  0.00     0.029 A 
ATOM     52  N   UNL A   1      44.698  29.258  31.812  1.00  0.00    -0.354 N 
ATOM     53  N   UNL A   1      44.053  26.414  28.275  1.00  0.00    -0.248 NA
ATOM     54  C   UNL A   1      43.678  24.663  29.768  1.00  0.00     0.031 C 
ATOM     55  C   UNL A   1      44.288  27.150  32.285  1.00  0.00     0.029 A 
ATOM     56  C   UNL A   1      44.724  27.993  31.268  1.00  0.00     0.049 A 
ATOM     57  H   UNL A   1      45.082  30.066  31.400  1.00  0.00     0.167 HD
ATOM     58  C   UNL A   1      44.865  26.582  29.353  1.00  0.00     0.074 A 
ATOM     59  C   UNL A   1      44.799  25.323  30.074  1.00  0.00     0.031 C 
ATOM     60  C   UNL A   1      44.954  27.844  29.848  1.00  0.00     0.031 A 
BRANCH  47  61
ATOM     61  C   UNL A   1      43.431  31.711  32.827  1.00  0.00    -0.014 A 
ATOM     62  C   UNL A   1      43.342  32.791  33.713  1.00  0.00     0.010 A 
ATOM     63  C   UNL A   1      43.715  31.977  31.466  1.00  0.00     0.010 A 
ATOM     64  C   UNL A   1      43.498  34.101  33.242  1.00  0.00     0.020 A 
ATOM     65  C   UNL A   1      43.845  33.279  30.986  1.00  0.00     0.020 A 
ATOM     66  C   UNL A   1      43.736  34.337  31.881  1.00  0.00     0.054 A 
BRANCH  66  67
ATOM     67  S   UNL A   1      43.864  36.051  31.309  1.00  0.00     0.124 S 
ATOM     68  O   UNL A   1      43.339  36.806  32.443  1.00  0.00    -0.237 OA
ATOM     69  O   UNL A   1      45.296  36.190  31.080  1.00  0.00    -0.237 OA
ATOM     70  O   UNL A   1      43.016  36.090  30.113  1.00  0.00    -0.744 OA
ENDBRANCH  66  67
ENDBRANCH  47  61
BRANCH  48  71
ATOM     71  C   UNL A   1      42.154  24.112  26.996  1.00  0.00    -0.014 A 
ATOM     72  C   UNL A   1      42.932  24.321  25.796  1.00  0.00     0.010 A 
ATOM     73  C   UNL A   1      42.052  22.758  27.361  1.00  0.00     0.010 A 
ATOM     74  C   UNL A   1      43.664  23.309  25.117  1.00  0.00     0.020 A 
ATOM     75  C   UNL A   1      42.757  21.718  26.658  1.00  0.00     0.020 A 
ATOM     76  C   UNL A   1      43.599  22.003  25.574  1.00  0.00     0.054 A 
BRANCH  76  77
ATOM     77  S   UNL A   1      44.716  20.741  24.838  1.00  0.00     0.124 S 
ATOM     78  O   UNL A   1      44.148  19.480  25.308  1.00  0.00    -0.237 OA
ATOM     79  O   UNL A   1      44.585  20.989  23.403  1.00  0.00    -0.237 OA
ATOM     80  O   UNL A   1      46.026  21.074  25.395  1.00  0.00    -0.744 OA
ENDBRANCH  76  77
ENDBRANCH  48  71
BRANCH  60  81
ATOM     81  C   UNL A   1      45.017  28.988  28.840  1.00  0.00    -0.014 A 
ATOM     82  C   UNL A   1      46.201  29.439  28.204  1.00  0.00     0.010 A 
ATOM     83  C   UNL A   1      43.841  29.705  28.569  1.00  0.00     0.010 A 
ATOM     84  C   UNL A   1      46.230  30.603  27.422  1.00  0.00     0.020 A 
ATOM     85  C   UNL A   1      43.849  30.843  27.744  1.00  0.00     0.020 A 
ATOM     86  C   UNL A   1      45.050  31.309  27.208  1.00  0.00     0.054 A 
BRANCH  86  87
ATOM     87  S   UNL A   1      45.117  32.853  26.257  1.00  0.00     0.124 S 
ATOM     88  O   UNL A   1      44.409  32.493  25.030  1.00  0.00    -0.237 OA
ATOM     89  O   UNL A   1      44.415  33.799  27.122  1.00  0.00    -0.237 OA
ATOM     90  O   UNL A   1      46.547  33.095  26.087  1.00  0.00    -0.744 OA
ENDBRANCH  86  87
ENDBRANCH  60  81
ENDBRANCH  34  35
ENDBRANCH  26  29
ENDBRANCH  24  25
ENDBRANCH   1  24
TORSDOF 15
ENDMDL
