MODEL 1
REMARK VINA RESULT:     -11.6      0.000      0.000
REMARK SMILES CC1(C)CCC[C@@H]1Nc1nc2c(cc1C(=O)NCCCCNC(=O)c1ccc(-c3c4nc(c(-c5ccc(S(=O)(=O)[O-])cc5)c5ccc([nH]5)c(-c5ccc(S(=O)(=O)[O-])cc5)c5nc(c(-c6ccc(S(=O)(=O)[O-])cc6)c6ccc3[nH]6)C=C5)C=C4)cc1)CCC2
REMARK SMILES IDX 20 1 19 2 18 3 17 4 15 5 16 6 14 8 9 9 10 10 11 11 13 12
REMARK SMILES IDX 12 13 87 14 85 15 86 16 8 17 7 19 1 20 2 21 3 22 4 23 5 24
REMARK SMILES IDX 6 25 21 26 22 27 23 28 24 30 25 31 26 32 84 33 27 34 83 35
REMARK SMILES IDX 28 36 29 37 30 38 77 39 31 40 82 41 76 42 78 43 32 44 81 45
REMARK SMILES IDX 75 46 74 47 33 49 63 50 44 51 62 52 45 53 48 54 61 55 79 56
REMARK SMILES IDX 46 57 47 58 60 60 80 61 49 62 34 63 35 64 43 65 36 66 42 67
REMARK SMILES IDX 37 68 38 69 39 70 40 71 41 72 64 73 65 74 73 75 66 76 72 77
REMARK SMILES IDX 67 78 68 79 69 80 70 81 71 82 50 83 51 84 59 85 52 86 58 87
REMARK SMILES IDX 53 88 54 89 55 90 56 91 57 92
REMARK H PARENT 17 7 8 18 22 29 78 48 48 59
REMARK Flexibility Score: inf
ROOT
ATOM      1  C   UNL A   1      33.337  28.045  26.556  1.00  0.00     0.023 C 
ENDROOT
BRANCH   1   2
ATOM      2  C   UNL A   1      33.171  26.834  25.616  1.00  0.00     0.023 C 
BRANCH   2   3
ATOM      3  C   UNL A   1      33.453  25.437  26.157  1.00  0.00     0.116 C 
BRANCH   3   4
ATOM      4  N   UNL A   1      32.684  24.340  25.633  1.00  0.00    -0.352 N 
ATOM      5  C   UNL A   1      33.001  22.997  25.568  1.00  0.00     0.255 C 
ATOM      6  O   UNL A   1      32.060  22.226  25.342  1.00  0.00    -0.269 OA
ATOM      7  H   UNL A   1      31.803  24.582  25.266  1.00  0.00     0.163 HD
BRANCH   5   8
ATOM      8  C   UNL A   1      34.380  22.408  25.589  1.00  0.00     0.082 A 
ATOM      9  C   UNL A   1      34.817  21.076  25.492  1.00  0.00     0.139 A 
ATOM     10  N   UNL A   1      36.138  20.734  25.566  1.00  0.00    -0.235 NA
ATOM     11  C   UNL A   1      37.039  21.712  25.647  1.00  0.00     0.046 A 
ATOM     12  C   UNL A   1      35.392  23.408  25.666  1.00  0.00     0.023 A 
ATOM     13  C   UNL A   1      36.726  23.048  25.683  1.00  0.00    -0.025 A 
ATOM     14  C   UNL A   1      38.520  21.484  25.602  1.00  0.00     0.057 C 
ATOM     15  C   UNL A   1      37.961  23.884  25.657  1.00  0.00     0.038 C 
ATOM     16  C   UNL A   1      39.034  22.854  26.059  1.00  0.00     0.011 C 
BRANCH   9  17
ATOM     17  N   UNL A   1      34.149  19.914  25.290  1.00  0.00    -0.366 N 
ATOM     18  H   UNL A   1      33.398  19.759  25.908  1.00  0.00     0.162 HD
BRANCH  17  19
ATOM     19  C   UNL A   1      34.357  18.880  24.327  1.00  0.00     0.086 C 
ATOM     20  C   UNL A   1      32.095  19.350  23.175  1.00  0.00     0.013 C 
ATOM     21  C   UNL A   1      32.996  18.307  23.839  1.00  0.00    -0.015 C 
ATOM     22  C   UNL A   1      32.114  17.660  24.933  1.00  0.00     0.013 C 
ATOM     23  C   UNL A   1      33.550  17.203  22.925  1.00  0.00     0.008 C 
ATOM     24  C   UNL A   1      34.695  16.579  23.756  1.00  0.00     0.003 C 
ATOM     25  C   UNL A   1      35.105  17.642  24.796  1.00  0.00     0.025 C 
ENDBRANCH  17  19
ENDBRANCH   9  17
ENDBRANCH   5   8
ENDBRANCH   3   4
ENDBRANCH   2   3
ENDBRANCH   1   2
BRANCH   1  26
ATOM     26  C   UNL A   1      33.872  29.378  26.019  1.00  0.00     0.116 C 
BRANCH  26  27
ATOM     27  N   UNL A   1      33.770  30.496  26.946  1.00  0.00    -0.352 N 
ATOM     28  C   UNL A   1      34.575  30.918  27.978  1.00  0.00     0.251 C 
ATOM     29  H   UNL A   1      32.972  31.056  26.809  1.00  0.00     0.163 HD
ATOM     30  O   UNL A   1      34.265  31.871  28.669  1.00  0.00    -0.269 OA
BRANCH  28  31
ATOM     31  C   UNL A   1      35.821  30.189  28.233  1.00  0.00     0.039 A 
ATOM     32  C   UNL A   1      36.822  30.194  27.259  1.00  0.00     0.014 A 
ATOM     33  C   UNL A   1      36.004  29.574  29.470  1.00  0.00     0.014 A 
ATOM     34  C   UNL A   1      38.070  29.670  27.578  1.00  0.00     0.010 A 
ATOM     35  C   UNL A   1      37.263  29.112  29.807  1.00  0.00     0.010 A 
ATOM     36  C   UNL A   1      38.306  29.179  28.871  1.00  0.00    -0.014 A 
BRANCH  36  37
ATOM     37  C   UNL A   1      39.654  28.759  29.300  1.00  0.00     0.031 A 
ATOM     38  C   UNL A   1      40.518  29.723  30.050  1.00  0.00     0.074 A 
ATOM     39  C   UNL A   1      40.120  27.563  28.895  1.00  0.00     0.049 A 
ATOM     40  N   UNL A   1      41.765  29.596  30.412  1.00  0.00    -0.248 NA
ATOM     41  C   UNL A   1      39.910  31.015  30.409  1.00  0.00     0.031 C 
ATOM     42  C   UNL A   1      39.368  26.585  28.102  1.00  0.00     0.029 A 
ATOM     43  N   UNL A   1      41.342  26.972  29.079  1.00  0.00    -0.354 N 
ATOM     44  C   UNL A   1      42.101  30.800  31.013  1.00  0.00     0.074 A 
ATOM     45  C   UNL A   1      40.941  31.659  30.936  1.00  0.00     0.031 C 
ATOM     46  C   UNL A   1      40.139  25.507  27.887  1.00  0.00     0.029 A 
ATOM     47  C   UNL A   1      41.445  25.730  28.500  1.00  0.00     0.049 A 
ATOM     48  H   UNL A   1      42.077  27.397  29.577  1.00  0.00     0.167 HD
ATOM     49  C   UNL A   1      43.273  31.147  31.593  1.00  0.00     0.031 A 
ATOM     50  C   UNL A   1      42.478  24.868  28.470  1.00  0.00     0.031 A 
ATOM     51  C   UNL A   1      44.404  30.267  31.679  1.00  0.00     0.049 A 
ATOM     52  C   UNL A   1      43.752  25.251  29.160  1.00  0.00     0.074 A 
ATOM     53  C   UNL A   1      45.616  30.482  32.307  1.00  0.00     0.029 A 
ATOM     54  N   UNL A   1      44.456  28.997  31.121  1.00  0.00    -0.354 N 
ATOM     55  N   UNL A   1      44.038  26.372  29.780  1.00  0.00    -0.248 NA
ATOM     56  C   UNL A   1      44.837  24.263  29.160  1.00  0.00     0.031 C 
ATOM     57  C   UNL A   1      46.413  29.350  32.104  1.00  0.00     0.029 A 
ATOM     58  C   UNL A   1      45.683  28.418  31.380  1.00  0.00     0.049 A 
ATOM     59  H   UNL A   1      43.725  28.571  30.616  1.00  0.00     0.167 HD
ATOM     60  C   UNL A   1      45.334  26.222  30.256  1.00  0.00     0.074 A 
ATOM     61  C   UNL A   1      45.773  24.898  29.857  1.00  0.00     0.031 C 
ATOM     62  C   UNL A   1      46.089  27.099  30.962  1.00  0.00     0.031 A 
BRANCH  49  63
ATOM     63  C   UNL A   1      43.372  32.530  32.171  1.00  0.00    -0.014 A 
ATOM     64  C   UNL A   1      43.117  32.762  33.535  1.00  0.00     0.010 A 
ATOM     65  C   UNL A   1      43.725  33.611  31.345  1.00  0.00     0.010 A 
ATOM     66  C   UNL A   1      43.171  34.057  34.053  1.00  0.00     0.020 A 
ATOM     67  C   UNL A   1      43.804  34.907  31.866  1.00  0.00     0.020 A 
ATOM     68  C   UNL A   1      43.513  35.122  33.215  1.00  0.00     0.054 A 
BRANCH  68  69
ATOM     69  S   UNL A   1      43.568  36.792  33.920  1.00  0.00     0.124 S 
ATOM     70  O   UNL A   1      44.683  36.689  34.859  1.00  0.00    -0.237 OA
ATOM     71  O   UNL A   1      43.812  37.623  32.744  1.00  0.00    -0.237 OA
ATOM     72  O   UNL A   1      42.254  36.955  34.536  1.00  0.00    -0.744 OA
ENDBRANCH  68  69
ENDBRANCH  49  63
BRANCH  50  73
ATOM     73  C   UNL A   1      42.298  23.551  27.805  1.00  0.00    -0.014 A 
ATOM     74  C   UNL A   1      42.770  23.357  26.495  1.00  0.00     0.010 A 
ATOM     75  C   UNL A   1      41.772  22.456  28.515  1.00  0.00     0.010 A 
ATOM     76  C   UNL A   1      42.743  22.086  25.915  1.00  0.00     0.020 A 
ATOM     77  C   UNL A   1      41.755  21.180  27.942  1.00  0.00     0.020 A 
ATOM     78  C   UNL A   1      42.252  21.002  26.650  1.00  0.00     0.054 A 
BRANCH  78  79
ATOM     79  S   UNL A   1      42.337  19.346  25.909  1.00  0.00     0.124 S 
ATOM     80  O   UNL A   1      40.936  19.073  25.602  1.00  0.00    -0.237 OA
ATOM     81  O   UNL A   1      43.206  19.570  24.756  1.00  0.00    -0.237 OA
ATOM     82  O   UNL A   1      42.917  18.524  26.969  1.00  0.00    -0.744 OA
ENDBRANCH  78  79
ENDBRANCH  50  73
BRANCH  62  83
ATOM     83  C   UNL A   1      47.468  26.661  31.357  1.00  0.00    -0.014 A 
ATOM     84  C   UNL A   1      47.662  25.844  32.483  1.00  0.00     0.010 A 
ATOM     85  C   UNL A   1      48.557  26.964  30.521  1.00  0.00     0.010 A 
ATOM     86  C   UNL A   1      48.929  25.331  32.765  1.00  0.00     0.020 A 
ATOM     87  C   UNL A   1      49.821  26.439  30.791  1.00  0.00     0.020 A 
ATOM     88  C   UNL A   1      49.998  25.623  31.911  1.00  0.00     0.054 A 
BRANCH  88  89
ATOM     89  S   UNL A   1      51.613  24.877  32.263  1.00  0.00     0.124 S 
ATOM     90  O   UNL A   1      51.906  25.397  33.596  1.00  0.00    -0.237 OA
ATOM     91  O   UNL A   1      51.320  23.448  32.195  1.00  0.00    -0.237 OA
ATOM     92  O   UNL A   1      52.472  25.386  31.196  1.00  0.00    -0.744 OA
ENDBRANCH  88  89
ENDBRANCH  62  83
ENDBRANCH  36  37
ENDBRANCH  28  31
ENDBRANCH  26  27
ENDBRANCH   1  26
TORSDOF 16
ENDMDL
MODEL 2
REMARK VINA RESULT:     -11.5      3.043     10.156
REMARK SMILES CC1(C)CCC[C@@H]1Nc1nc2c(cc1C(=O)NCCCCNC(=O)c1ccc(-c3c4nc(c(-c5ccc(S(=O)(=O)[O-])cc5)c5ccc([nH]5)c(-c5ccc(S(=O)(=O)[O-])cc5)c5nc(c(-c6ccc(S(=O)(=O)[O-])cc6)c6ccc3[nH]6)C=C5)C=C4)cc1)CCC2
REMARK SMILES IDX 20 1 19 2 18 3 17 4 15 5 16 6 14 8 9 9 10 10 11 11 13 12
REMARK SMILES IDX 12 13 87 14 85 15 86 16 8 17 7 19 1 20 2 21 3 22 4 23 5 24
REMARK SMILES IDX 6 25 21 26 22 27 23 28 24 30 25 31 26 32 84 33 27 34 83 35
REMARK SMILES IDX 28 36 29 37 30 38 77 39 31 40 82 41 76 42 78 43 32 44 81 45
REMARK SMILES IDX 75 46 74 47 33 49 63 50 44 51 62 52 45 53 48 54 61 55 79 56
REMARK SMILES IDX 46 57 47 58 60 60 80 61 49 62 34 63 35 64 43 65 36 66 42 67
REMARK SMILES IDX 37 68 38 69 39 70 40 71 41 72 64 73 65 74 73 75 66 76 72 77
REMARK SMILES IDX 67 78 68 79 69 80 70 81 71 82 50 83 51 84 59 85 52 86 58 87
REMARK SMILES IDX 53 88 54 89 55 90 56 91 57 92
REMARK H PARENT 17 7 8 18 22 29 78 48 48 59
REMARK Flexibility Score: inf
ROOT
ATOM      1  C   UNL A   1      35.971  23.416  25.352  1.00  0.00     0.023 C 
ENDROOT
BRANCH   1   2
ATOM      2  C   UNL A   1      34.730  23.758  24.502  1.00  0.00     0.023 C 
BRANCH   2   3
ATOM      3  C   UNL A   1      34.182  25.181  24.539  1.00  0.00     0.116 C 
BRANCH   3   4
ATOM      4  N   UNL A   1      33.209  25.557  23.548  1.00  0.00    -0.352 N 
ATOM      5  C   UNL A   1      32.681  26.801  23.264  1.00  0.00     0.255 C 
ATOM      6  O   UNL A   1      32.087  26.906  22.184  1.00  0.00    -0.269 OA
ATOM      7  H   UNL A   1      32.870  24.819  22.991  1.00  0.00     0.163 HD
BRANCH   5   8
ATOM      8  C   UNL A   1      32.624  27.975  24.195  1.00  0.00     0.082 A 
ATOM      9  C   UNL A   1      31.758  29.082  24.235  1.00  0.00     0.139 A 
ATOM     10  N   UNL A   1      31.892  30.079  25.158  1.00  0.00    -0.235 NA
ATOM     11  C   UNL A   1      32.824  29.947  26.101  1.00  0.00     0.046 A 
ATOM     12  C   UNL A   1      33.594  27.887  25.234  1.00  0.00     0.023 A 
ATOM     13  C   UNL A   1      33.679  28.877  26.194  1.00  0.00    -0.025 A 
ATOM     14  C   UNL A   1      32.989  30.899  27.247  1.00  0.00     0.057 C 
ATOM     15  C   UNL A   1      34.520  28.975  27.422  1.00  0.00     0.038 C 
ATOM     16  C   UNL A   1      34.357  30.464  27.785  1.00  0.00     0.011 C 
BRANCH   9  17
ATOM     17  N   UNL A   1      30.673  29.411  23.493  1.00  0.00    -0.366 N 
ATOM     18  H   UNL A   1      30.692  29.080  22.566  1.00  0.00     0.162 HD
BRANCH  17  19
ATOM     19  C   UNL A   1      29.506  30.160  23.838  1.00  0.00     0.086 C 
ATOM     20  C   UNL A   1      27.933  28.240  23.127  1.00  0.00     0.013 C 
ATOM     21  C   UNL A   1      28.297  29.718  22.967  1.00  0.00    -0.015 C 
ATOM     22  C   UNL A   1      28.463  29.923  21.442  1.00  0.00     0.013 C 
ATOM     23  C   UNL A   1      27.274  30.734  23.499  1.00  0.00     0.008 C 
ATOM     24  C   UNL A   1      28.071  32.057  23.565  1.00  0.00     0.003 C 
ATOM     25  C   UNL A   1      29.562  31.663  23.616  1.00  0.00     0.025 C 
ENDBRANCH  17  19
ENDBRANCH   9  17
ENDBRANCH   5   8
ENDBRANCH   3   4
ENDBRANCH   2   3
ENDBRANCH   1   2
BRANCH   1  26
ATOM     26  C   UNL A   1      37.353  23.301  24.698  1.00  0.00     0.116 C 
BRANCH  26  27
ATOM     27  N   UNL A   1      38.298  22.453  25.410  1.00  0.00    -0.352 N 
ATOM     28  C   UNL A   1      39.264  22.729  26.348  1.00  0.00     0.251 C 
ATOM     29  H   UNL A   1      38.234  21.499  25.174  1.00  0.00     0.163 HD
ATOM     30  O   UNL A   1      39.990  21.853  26.782  1.00  0.00    -0.269 OA
BRANCH  28  31
ATOM     31  C   UNL A   1      39.407  24.112  26.815  1.00  0.00     0.039 A 
ATOM     32  C   UNL A   1      38.958  24.445  28.094  1.00  0.00     0.014 A 
ATOM     33  C   UNL A   1      40.056  25.037  26.000  1.00  0.00     0.014 A 
ATOM     34  C   UNL A   1      39.268  25.701  28.608  1.00  0.00     0.010 A 
ATOM     35  C   UNL A   1      40.418  26.260  26.535  1.00  0.00     0.010 A 
ATOM     36  C   UNL A   1      40.045  26.588  27.848  1.00  0.00    -0.014 A 
BRANCH  36  37
ATOM     37  C   UNL A   1      40.528  27.863  28.411  1.00  0.00     0.031 A 
ATOM     38  C   UNL A   1      41.940  27.963  28.894  1.00  0.00     0.074 A 
ATOM     39  C   UNL A   1      39.649  28.867  28.591  1.00  0.00     0.049 A 
ATOM     40  N   UNL A   1      42.523  28.945  29.524  1.00  0.00    -0.248 NA
ATOM     41  C   UNL A   1      42.800  26.788  28.673  1.00  0.00     0.031 C 
ATOM     42  C   UNL A   1      38.233  28.831  28.209  1.00  0.00     0.029 A 
ATOM     43  N   UNL A   1      39.810  30.103  29.156  1.00  0.00    -0.354 N 
ATOM     44  C   UNL A   1      43.807  28.499  29.801  1.00  0.00     0.074 A 
ATOM     45  C   UNL A   1      43.908  27.145  29.305  1.00  0.00     0.031 C 
ATOM     46  C   UNL A   1      37.662  30.002  28.532  1.00  0.00     0.029 A 
ATOM     47  C   UNL A   1      38.660  30.856  29.167  1.00  0.00     0.049 A 
ATOM     48  H   UNL A   1      40.667  30.423  29.521  1.00  0.00     0.167 HD
ATOM     49  C   UNL A   1      44.815  29.171  30.403  1.00  0.00     0.031 A 
ATOM     50  C   UNL A   1      38.439  32.098  29.637  1.00  0.00     0.031 A 
ATOM     51  C   UNL A   1      44.698  30.525  30.866  1.00  0.00     0.049 A 
ATOM     52  C   UNL A   1      39.582  32.844  30.257  1.00  0.00     0.074 A 
ATOM     53  C   UNL A   1      45.672  31.332  31.423  1.00  0.00     0.029 A 
ATOM     54  N   UNL A   1      43.530  31.273  30.818  1.00  0.00    -0.354 N 
ATOM     55  N   UNL A   1      40.811  32.432  30.459  1.00  0.00    -0.248 NA
ATOM     56  C   UNL A   1      39.321  34.217  30.703  1.00  0.00     0.031 C 
ATOM     57  C   UNL A   1      45.084  32.560  31.738  1.00  0.00     0.029 A 
ATOM     58  C   UNL A   1      43.753  32.530  31.345  1.00  0.00     0.049 A 
ATOM     59  H   UNL A   1      42.669  30.955  30.461  1.00  0.00     0.167 HD
ATOM     60  C   UNL A   1      41.478  33.499  31.046  1.00  0.00     0.074 A 
ATOM     61  C   UNL A   1      40.515  34.578  31.160  1.00  0.00     0.031 C 
ATOM     62  C   UNL A   1      42.769  33.579  31.449  1.00  0.00     0.031 A 
BRANCH  49  63
ATOM     63  C   UNL A   1      46.117  28.442  30.584  1.00  0.00    -0.014 A 
ATOM     64  C   UNL A   1      47.148  28.561  29.636  1.00  0.00     0.010 A 
ATOM     65  C   UNL A   1      46.313  27.629  31.714  1.00  0.00     0.010 A 
ATOM     66  C   UNL A   1      48.338  27.847  29.792  1.00  0.00     0.020 A 
ATOM     67  C   UNL A   1      47.513  26.931  31.887  1.00  0.00     0.020 A 
ATOM     68  C   UNL A   1      48.512  27.035  30.917  1.00  0.00     0.054 A 
BRANCH  68  69
ATOM     69  S   UNL A   1      50.067  26.117  31.086  1.00  0.00     0.124 S 
ATOM     70  O   UNL A   1      50.002  25.662  32.473  1.00  0.00    -0.237 OA
ATOM     71  O   UNL A   1      49.927  25.072  30.075  1.00  0.00    -0.237 OA
ATOM     72  O   UNL A   1      51.095  27.117  30.810  1.00  0.00    -0.744 OA
ENDBRANCH  68  69
ENDBRANCH  49  63
BRANCH  50  73
ATOM     73  C   UNL A   1      37.091  32.700  29.474  1.00  0.00    -0.014 A 
ATOM     74  C   UNL A   1      36.198  32.728  30.559  1.00  0.00     0.010 A 
ATOM     75  C   UNL A   1      36.739  33.356  28.279  1.00  0.00     0.010 A 
ATOM     76  C   UNL A   1      34.990  33.423  30.464  1.00  0.00     0.020 A 
ATOM     77  C   UNL A   1      35.536  34.063  28.184  1.00  0.00     0.020 A 
ATOM     78  C   UNL A   1      34.675  34.101  29.282  1.00  0.00     0.054 A 
BRANCH  78  79
ATOM     79  S   UNL A   1      33.150  35.087  29.231  1.00  0.00     0.124 S 
ATOM     80  O   UNL A   1      32.707  35.043  30.621  1.00  0.00    -0.237 OA
ATOM     81  O   UNL A   1      33.639  36.382  28.763  1.00  0.00    -0.237 OA
ATOM     82  O   UNL A   1      32.305  34.366  28.282  1.00  0.00    -0.744 OA
ENDBRANCH  78  79
ENDBRANCH  50  73
BRANCH  62  83
ATOM     83  C   UNL A   1      43.226  34.875  32.050  1.00  0.00    -0.014 A 
ATOM     84  C   UNL A   1      43.823  35.862  31.247  1.00  0.00     0.010 A 
ATOM     85  C   UNL A   1      42.939  35.154  33.398  1.00  0.00     0.010 A 
ATOM     86  C   UNL A   1      44.121  37.114  31.785  1.00  0.00     0.020 A 
ATOM     87  C   UNL A   1      43.222  36.411  33.933  1.00  0.00     0.020 A 
ATOM     88  C   UNL A   1      43.809  37.385  33.122  1.00  0.00     0.054 A 
BRANCH  88  89
ATOM     89  S   UNL A   1      44.138  39.047  33.766  1.00  0.00     0.124 S 
ATOM     90  O   UNL A   1      45.167  39.532  32.851  1.00  0.00    -0.237 OA
ATOM     91  O   UNL A   1      42.834  39.693  33.648  1.00  0.00    -0.237 OA
ATOM     92  O   UNL A   1      44.589  38.807  35.136  1.00  0.00    -0.744 OA
ENDBRANCH  88  89
ENDBRANCH  62  83
ENDBRANCH  36  37
ENDBRANCH  28  31
ENDBRANCH  26  27
ENDBRANCH   1  26
TORSDOF 16
ENDMDL
MODEL 3
REMARK VINA RESULT:     -11.1      3.615      9.892
REMARK SMILES CC1(C)CCC[C@@H]1Nc1nc2c(cc1C(=O)NCCCCNC(=O)c1ccc(-c3c4nc(c(-c5ccc(S(=O)(=O)[O-])cc5)c5ccc([nH]5)c(-c5ccc(S(=O)(=O)[O-])cc5)c5nc(c(-c6ccc(S(=O)(=O)[O-])cc6)c6ccc3[nH]6)C=C5)C=C4)cc1)CCC2
REMARK SMILES IDX 20 1 19 2 18 3 17 4 15 5 16 6 14 8 9 9 10 10 11 11 13 12
REMARK SMILES IDX 12 13 87 14 85 15 86 16 8 17 7 19 1 20 2 21 3 22 4 23 5 24
REMARK SMILES IDX 6 25 21 26 22 27 23 28 24 30 25 31 26 32 84 33 27 34 83 35
REMARK SMILES IDX 28 36 29 37 30 38 77 39 31 40 82 41 76 42 78 43 32 44 81 45
REMARK SMILES IDX 75 46 74 47 33 49 63 50 44 51 62 52 45 53 48 54 61 55 79 56
REMARK SMILES IDX 46 57 47 58 60 60 80 61 49 62 34 63 35 64 43 65 36 66 42 67
REMARK SMILES IDX 37 68 38 69 39 70 40 71 41 72 64 73 65 74 73 75 66 76 72 77
REMARK SMILES IDX 67 78 68 79 69 80 70 81 71 82 50 83 51 84 59 85 52 86 58 87
REMARK SMILES IDX 53 88 54 89 55 90 56 91 57 92
REMARK H PARENT 17 7 8 18 22 29 78 48 48 59
REMARK Flexibility Score: inf
ROOT
ATOM      1  C   UNL A   1      39.149  22.151  26.212  1.00  0.00     0.023 C 
ENDROOT
BRANCH   1   2
ATOM      2  C   UNL A   1      38.047  23.175  25.874  1.00  0.00     0.023 C 
BRANCH   2   3
ATOM      3  C   UNL A   1      36.669  22.666  25.464  1.00  0.00     0.116 C 
BRANCH   3   4
ATOM      4  N   UNL A   1      35.613  22.712  26.441  1.00  0.00    -0.352 N 
ATOM      5  C   UNL A   1      34.503  21.901  26.573  1.00  0.00     0.255 C 
ATOM      6  O   UNL A   1      33.909  21.963  27.656  1.00  0.00    -0.269 OA
ATOM      7  H   UNL A   1      35.693  23.427  27.113  1.00  0.00     0.163 HD
BRANCH   5   8
ATOM      8  C   UNL A   1      33.869  21.081  25.489  1.00  0.00     0.082 A 
ATOM      9  C   UNL A   1      32.889  21.410  24.536  1.00  0.00     0.139 A 
ATOM     10  N   UNL A   1      32.411  20.498  23.638  1.00  0.00    -0.235 NA
ATOM     11  C   UNL A   1      32.959  19.284  23.617  1.00  0.00     0.046 A 
ATOM     12  C   UNL A   1      34.422  19.771  25.411  1.00  0.00     0.023 A 
ATOM     13  C   UNL A   1      33.966  18.878  24.458  1.00  0.00    -0.025 A 
ATOM     14  C   UNL A   1      32.622  18.236  22.600  1.00  0.00     0.057 C 
ATOM     15  C   UNL A   1      34.436  17.508  24.103  1.00  0.00     0.038 C 
ATOM     16  C   UNL A   1      33.265  17.000  23.240  1.00  0.00     0.011 C 
BRANCH   9  17
ATOM     17  N   UNL A   1      32.253  22.572  24.253  1.00  0.00    -0.366 N 
ATOM     18  H   UNL A   1      32.619  23.065  23.483  1.00  0.00     0.162 HD
BRANCH  17  19
ATOM     19  C   UNL A   1      31.136  23.197  24.888  1.00  0.00     0.086 C 
ATOM     20  C   UNL A   1      31.752  25.514  23.931  1.00  0.00     0.013 C 
ATOM     21  C   UNL A   1      31.443  24.692  25.184  1.00  0.00    -0.015 C 
ATOM     22  C   UNL A   1      32.637  24.952  26.134  1.00  0.00     0.013 C 
ATOM     23  C   UNL A   1      30.137  25.032  25.919  1.00  0.00     0.008 C 
ATOM     24  C   UNL A   1      29.914  23.819  26.851  1.00  0.00     0.003 C 
ATOM     25  C   UNL A   1      30.723  22.653  26.247  1.00  0.00     0.025 C 
ENDBRANCH  17  19
ENDBRANCH   9  17
ENDBRANCH   5   8
ENDBRANCH   3   4
ENDBRANCH   2   3
ENDBRANCH   1   2
BRANCH   1  26
ATOM     26  C   UNL A   1      40.439  22.600  26.910  1.00  0.00     0.116 C 
BRANCH  26  27
ATOM     27  N   UNL A   1      41.482  23.082  26.016  1.00  0.00    -0.352 N 
ATOM     28  C   UNL A   1      42.085  24.310  25.876  1.00  0.00     0.251 C 
ATOM     29  H   UNL A   1      41.819  22.400  25.392  1.00  0.00     0.163 HD
ATOM     30  O   UNL A   1      42.918  24.507  25.010  1.00  0.00    -0.269 OA
BRANCH  28  31
ATOM     31  C   UNL A   1      41.699  25.385  26.795  1.00  0.00     0.039 A 
ATOM     32  C   UNL A   1      40.708  25.141  27.747  1.00  0.00     0.014 A 
ATOM     33  C   UNL A   1      42.385  26.597  26.743  1.00  0.00     0.014 A 
ATOM     34  C   UNL A   1      40.480  26.091  28.738  1.00  0.00     0.010 A 
ATOM     35  C   UNL A   1      42.203  27.512  27.765  1.00  0.00     0.010 A 
ATOM     36  C   UNL A   1      41.267  27.252  28.778  1.00  0.00    -0.014 A 
BRANCH  36  37
ATOM     37  C   UNL A   1      41.169  28.209  29.896  1.00  0.00     0.031 A 
ATOM     38  C   UNL A   1      42.083  28.062  31.070  1.00  0.00     0.074 A 
ATOM     39  C   UNL A   1      40.173  29.116  29.888  1.00  0.00     0.049 A 
ATOM     40  N   UNL A   1      42.082  28.718  32.198  1.00  0.00    -0.248 NA
ATOM     41  C   UNL A   1      43.113  27.013  30.980  1.00  0.00     0.031 C 
ATOM     42  C   UNL A   1      39.192  29.287  28.811  1.00  0.00     0.029 A 
ATOM     43  N   UNL A   1      39.810  30.051  30.820  1.00  0.00    -0.354 N 
ATOM     44  C   UNL A   1      43.087  28.143  32.963  1.00  0.00     0.074 A 
ATOM     45  C   UNL A   1      43.653  27.062  32.188  1.00  0.00     0.031 C 
ATOM     46  C   UNL A   1      38.353  30.283  29.136  1.00  0.00     0.029 A 
ATOM     47  C   UNL A   1      38.717  30.799  30.451  1.00  0.00     0.049 A 
ATOM     48  H   UNL A   1      40.285  30.176  31.673  1.00  0.00     0.167 HD
ATOM     49  C   UNL A   1      43.507  28.502  34.197  1.00  0.00     0.031 A 
ATOM     50  C   UNL A   1      38.083  31.790  31.104  1.00  0.00     0.031 A 
ATOM     51  C   UNL A   1      42.945  29.596  34.938  1.00  0.00     0.049 A 
ATOM     52  C   UNL A   1      38.595  32.205  32.450  1.00  0.00     0.074 A 
ATOM     53  C   UNL A   1      43.339  30.098  36.164  1.00  0.00     0.029 A 
ATOM     54  N   UNL A   1      41.869  30.362  34.512  1.00  0.00    -0.354 N 
ATOM     55  N   UNL A   1      39.587  31.693  33.139  1.00  0.00    -0.248 NA
ATOM     56  C   UNL A   1      37.917  33.330  33.106  1.00  0.00     0.031 C 
ATOM     57  C   UNL A   1      42.479  31.151  36.493  1.00  0.00     0.029 A 
ATOM     58  C   UNL A   1      41.575  31.327  35.455  1.00  0.00     0.049 A 
ATOM     59  H   UNL A   1      41.386  30.235  33.663  1.00  0.00     0.167 HD
ATOM     60  C   UNL A   1      39.664  32.439  34.307  1.00  0.00     0.074 A 
ATOM     61  C   UNL A   1      38.620  33.444  34.227  1.00  0.00     0.031 C 
ATOM     62  C   UNL A   1      40.523  32.307  35.347  1.00  0.00     0.031 A 
BRANCH  49  63
ATOM     63  C   UNL A   1      44.624  27.699  34.804  1.00  0.00    -0.014 A 
ATOM     64  C   UNL A   1      45.968  28.043  34.573  1.00  0.00     0.010 A 
ATOM     65  C   UNL A   1      44.328  26.591  35.616  1.00  0.00     0.010 A 
ATOM     66  C   UNL A   1      46.997  27.266  35.108  1.00  0.00     0.020 A 
ATOM     67  C   UNL A   1      45.357  25.824  36.173  1.00  0.00     0.020 A 
ATOM     68  C   UNL A   1      46.685  26.160  35.904  1.00  0.00     0.054 A 
BRANCH  68  69
ATOM     69  S   UNL A   1      48.047  25.170  36.577  1.00  0.00     0.124 S 
ATOM     70  O   UNL A   1      47.372  24.391  37.614  1.00  0.00    -0.237 OA
ATOM     71  O   UNL A   1      48.491  24.411  35.411  1.00  0.00    -0.237 OA
ATOM     72  O   UNL A   1      48.994  26.167  37.070  1.00  0.00    -0.744 OA
ENDBRANCH  68  69
ENDBRANCH  49  63
BRANCH  50  73
ATOM     73  C   UNL A   1      36.939  32.471  30.443  1.00  0.00    -0.014 A 
ATOM     74  C   UNL A   1      35.631  32.000  30.646  1.00  0.00     0.010 A 
ATOM     75  C   UNL A   1      37.136  33.658  29.714  1.00  0.00     0.010 A 
ATOM     76  C   UNL A   1      34.536  32.718  30.155  1.00  0.00     0.020 A 
ATOM     77  C   UNL A   1      36.043  34.386  29.231  1.00  0.00     0.020 A 
ATOM     78  C   UNL A   1      34.750  33.916  29.466  1.00  0.00     0.054 A 
BRANCH  78  79
ATOM     79  S   UNL A   1      33.303  34.881  28.941  1.00  0.00     0.124 S 
ATOM     80  O   UNL A   1      32.650  33.972  28.005  1.00  0.00    -0.237 OA
ATOM     81  O   UNL A   1      32.605  35.099  30.205  1.00  0.00    -0.237 OA
ATOM     82  O   UNL A   1      33.888  36.080  28.344  1.00  0.00    -0.744 OA
ENDBRANCH  78  79
ENDBRANCH  50  73
BRANCH  62  83
ATOM     83  C   UNL A   1      40.380  33.272  36.487  1.00  0.00    -0.014 A 
ATOM     84  C   UNL A   1      41.113  34.470  36.504  1.00  0.00     0.010 A 
ATOM     85  C   UNL A   1      39.412  33.035  37.478  1.00  0.00     0.010 A 
ATOM     86  C   UNL A   1      40.875  35.421  37.497  1.00  0.00     0.020 A 
ATOM     87  C   UNL A   1      39.160  33.991  38.462  1.00  0.00     0.020 A 
ATOM     88  C   UNL A   1      39.893  35.181  38.463  1.00  0.00     0.054 A 
BRANCH  88  89
ATOM     89  S   UNL A   1      39.554  36.471  39.691  1.00  0.00     0.124 S 
ATOM     90  O   UNL A   1      38.602  35.808  40.577  1.00  0.00    -0.237 OA
ATOM     91  O   UNL A   1      40.877  36.718  40.260  1.00  0.00    -0.237 OA
ATOM     92  O   UNL A   1      39.005  37.570  38.899  1.00  0.00    -0.744 OA
ENDBRANCH  88  89
ENDBRANCH  62  83
ENDBRANCH  36  37
ENDBRANCH  28  31
ENDBRANCH  26  27
ENDBRANCH   1  26
TORSDOF 16
ENDMDL
