MODEL 1
REMARK VINA RESULT:     -12.6      0.000      0.000
REMARK SMILES O=C(NCCCCNC(=O)c1cc(Br)n(Cc2ccn(C3CCCC3)n2)c1)c1ccc(-c2c3nc(c(-c4ccc(S(=O)(=O)[O-])cc4)c4ccc([nH]4)c(-c4ccc(S(=O)(=O)[O-])cc4)c4nc(c(-c5ccc(S(=O)(=O)[O-])cc5)c5ccc2[nH]5)C=C4)C=C3)cc1
REMARK SMILES IDX 5 1 4 2 3 3 1 4 2 5 28 7 29 8 87 9 30 10 86 11 31 12 32 13
REMARK SMILES IDX 33 14 80 15 34 16 85 17 79 18 81 19 35 20 84 21 78 22 77 23
REMARK SMILES IDX 36 25 66 26 47 27 65 28 48 29 51 30 64 31 82 32 49 33 50 34
REMARK SMILES IDX 63 36 83 37 52 38 37 39 38 40 46 41 39 42 45 43 40 44 41 45
REMARK SMILES IDX 42 46 43 47 44 48 67 49 68 50 76 51 69 52 75 53 70 54 71 55
REMARK SMILES IDX 72 56 73 57 74 58 53 59 54 60 62 61 55 62 61 63 56 64 57 65
REMARK SMILES IDX 58 66 59 67 60 68 6 69 7 70 8 71 9 72 10 74 11 75 12 76
REMARK SMILES IDX 27 77 13 78 15 79 14 80 16 81 17 82 18 83 26 84 19 85 20 86
REMARK SMILES IDX 21 87 22 88 25 89 23 90 24 91
REMARK H PARENT 3 6 81 24 51 35 8 73
REMARK Flexibility Score: inf
ROOT
ATOM      1  C   UNL A   1      36.226  21.930  24.407  1.00  0.00     0.023 C 
ENDROOT
BRANCH   1   2
ATOM      2  C   UNL A   1      37.358  22.786  24.971  1.00  0.00     0.116 C 
BRANCH   2   3
ATOM      3  N   UNL A   1      38.544  22.050  25.358  1.00  0.00    -0.352 N 
ATOM      4  O   UNL A   1      40.363  21.345  26.394  1.00  0.00    -0.269 OA
ATOM      5  C   UNL A   1      39.565  22.274  26.241  1.00  0.00     0.251 C 
ATOM      6  H   UNL A   1      38.637  21.197  24.877  1.00  0.00     0.163 HD
BRANCH   5   7
ATOM      7  C   UNL A   1      39.805  23.553  26.965  1.00  0.00     0.039 A 
ATOM      8  C   UNL A   1      38.940  24.648  26.992  1.00  0.00     0.014 A 
ATOM      9  C   UNL A   1      41.014  23.635  27.681  1.00  0.00     0.014 A 
ATOM     10  C   UNL A   1      39.306  25.822  27.650  1.00  0.00     0.010 A 
ATOM     11  C   UNL A   1      41.374  24.798  28.357  1.00  0.00     0.010 A 
ATOM     12  C   UNL A   1      40.528  25.904  28.317  1.00  0.00    -0.014 A 
BRANCH  12  13
ATOM     13  C   UNL A   1      40.832  27.124  29.065  1.00  0.00     0.031 A 
ATOM     14  C   UNL A   1      42.024  27.893  28.602  1.00  0.00     0.074 A 
ATOM     15  C   UNL A   1      40.015  27.649  29.998  1.00  0.00     0.049 A 
ATOM     16  N   UNL A   1      43.089  28.208  29.267  1.00  0.00    -0.248 NA
ATOM     17  C   UNL A   1      42.054  28.314  27.193  1.00  0.00     0.031 C 
ATOM     18  C   UNL A   1      38.657  27.222  30.341  1.00  0.00     0.029 A 
ATOM     19  N   UNL A   1      40.189  28.775  30.750  1.00  0.00    -0.354 N 
ATOM     20  C   UNL A   1      43.856  29.007  28.418  1.00  0.00     0.074 A 
ATOM     21  C   UNL A   1      43.227  28.942  27.122  1.00  0.00     0.031 C 
ATOM     22  C   UNL A   1      38.051  28.205  31.045  1.00  0.00     0.029 A 
ATOM     23  C   UNL A   1      39.016  29.261  31.310  1.00  0.00     0.049 A 
ATOM     24  H   UNL A   1      41.065  29.203  30.882  1.00  0.00     0.167 HD
ATOM     25  C   UNL A   1      44.859  29.813  28.866  1.00  0.00     0.031 A 
ATOM     26  C   UNL A   1      38.828  30.478  31.879  1.00  0.00     0.031 A 
ATOM     27  C   UNL A   1      45.249  29.509  30.214  1.00  0.00     0.049 A 
ATOM     28  C   UNL A   1      40.159  31.024  32.237  1.00  0.00     0.074 A 
ATOM     29  C   UNL A   1      45.783  28.410  30.856  1.00  0.00     0.029 A 
ATOM     30  N   UNL A   1      44.797  30.346  31.205  1.00  0.00    -0.354 N 
ATOM     31  N   UNL A   1      40.922  30.525  33.167  1.00  0.00    -0.248 NA
ATOM     32  C   UNL A   1      40.826  31.909  31.295  1.00  0.00     0.031 C 
ATOM     33  C   UNL A   1      45.199  28.425  32.156  1.00  0.00     0.029 A 
ATOM     34  C   UNL A   1      44.374  29.549  32.237  1.00  0.00     0.049 A 
ATOM     35  H   UNL A   1      44.779  31.329  31.179  1.00  0.00     0.167 HD
ATOM     36  C   UNL A   1      42.216  30.688  32.695  1.00  0.00     0.074 A 
ATOM     37  C   UNL A   1      42.100  31.644  31.599  1.00  0.00     0.031 C 
ATOM     38  C   UNL A   1      43.214  29.830  33.058  1.00  0.00     0.031 A 
BRANCH  25  39
ATOM     39  C   UNL A   1      45.265  31.109  28.206  1.00  0.00    -0.014 A 
ATOM     40  C   UNL A   1      44.360  32.191  28.198  1.00  0.00     0.010 A 
ATOM     41  C   UNL A   1      46.383  31.203  27.352  1.00  0.00     0.010 A 
ATOM     42  C   UNL A   1      44.527  33.275  27.326  1.00  0.00     0.020 A 
ATOM     43  C   UNL A   1      46.582  32.300  26.511  1.00  0.00     0.020 A 
ATOM     44  C   UNL A   1      45.630  33.312  26.474  1.00  0.00     0.054 A 
BRANCH  44  45
ATOM     45  S   UNL A   1      45.767  34.646  25.258  1.00  0.00     0.124 S 
ATOM     46  O   UNL A   1      45.252  35.788  26.007  1.00  0.00    -0.237 OA
ATOM     47  O   UNL A   1      47.200  34.666  24.977  1.00  0.00    -0.237 OA
ATOM     48  O   UNL A   1      44.926  34.189  24.153  1.00  0.00    -0.744 OA
ENDBRANCH  44  45
ENDBRANCH  25  39
BRANCH  26  49
ATOM     49  C   UNL A   1      37.604  31.314  31.848  1.00  0.00    -0.014 A 
ATOM     50  C   UNL A   1      36.761  31.414  32.970  1.00  0.00     0.010 A 
ATOM     51  C   UNL A   1      37.409  32.236  30.797  1.00  0.00     0.010 A 
ATOM     52  C   UNL A   1      35.799  32.434  33.062  1.00  0.00     0.020 A 
ATOM     53  C   UNL A   1      36.445  33.247  30.877  1.00  0.00     0.020 A 
ATOM     54  C   UNL A   1      35.661  33.357  32.022  1.00  0.00     0.054 A 
BRANCH  54  55
ATOM     55  S   UNL A   1      34.548  34.778  32.226  1.00  0.00     0.124 S 
ATOM     56  O   UNL A   1      33.431  34.195  32.962  1.00  0.00    -0.237 OA
ATOM     57  O   UNL A   1      35.374  35.724  32.972  1.00  0.00    -0.237 OA
ATOM     58  O   UNL A   1      34.245  35.178  30.852  1.00  0.00    -0.744 OA
ENDBRANCH  54  55
ENDBRANCH  26  49
BRANCH  38  59
ATOM     59  C   UNL A   1      42.983  28.903  34.227  1.00  0.00    -0.014 A 
ATOM     60  C   UNL A   1      42.333  27.660  34.113  1.00  0.00     0.010 A 
ATOM     61  C   UNL A   1      43.587  29.235  35.453  1.00  0.00     0.010 A 
ATOM     62  C   UNL A   1      42.267  26.783  35.206  1.00  0.00     0.020 A 
ATOM     63  C   UNL A   1      43.542  28.358  36.539  1.00  0.00     0.020 A 
ATOM     64  C   UNL A   1      42.875  27.139  36.413  1.00  0.00     0.054 A 
BRANCH  64  65
ATOM     65  S   UNL A   1      42.842  25.972  37.802  1.00  0.00     0.124 S 
ATOM     66  O   UNL A   1      41.414  25.858  38.086  1.00  0.00    -0.237 OA
ATOM     67  O   UNL A   1      43.468  24.779  37.238  1.00  0.00    -0.237 OA
ATOM     68  O   UNL A   1      43.626  26.642  38.838  1.00  0.00    -0.744 OA
ENDBRANCH  64  65
ENDBRANCH  38  59
ENDBRANCH  12  13
ENDBRANCH   5   7
ENDBRANCH   2   3
ENDBRANCH   1   2
BRANCH   1  69
ATOM     69  C   UNL A   1      34.816  22.324  24.861  1.00  0.00     0.023 C 
BRANCH  69  70
ATOM     70  C   UNL A   1      34.728  23.052  26.202  1.00  0.00     0.116 C 
BRANCH  70  71
ATOM     71  N   UNL A   1      33.435  22.871  26.838  1.00  0.00    -0.352 N 
ATOM     72  C   UNL A   1      32.346  23.703  26.818  1.00  0.00     0.252 C 
ATOM     73  H   UNL A   1      33.327  22.039  27.353  1.00  0.00     0.163 HD
ATOM     74  O   UNL A   1      31.402  23.481  27.571  1.00  0.00    -0.269 OA
BRANCH  72  75
ATOM     75  C   UNL A   1      32.336  24.811  25.876  1.00  0.00     0.058 A 
ATOM     76  C   UNL A   1      33.039  26.046  25.956  1.00  0.00     0.049 A 
ATOM     77  C   UNL A   1      31.692  24.808  24.651  1.00  0.00     0.101 A 
ATOM     78  C   UNL A   1      32.832  26.721  24.775  1.00  0.00     0.086 A 
ATOM     79  N   UNL A   1      31.939  26.007  24.016  1.00  0.00    -0.335 N 
ATOM     80  Br  UNL A   1      33.718  28.311  24.345  1.00  0.00    -0.031 Br
BRANCH  79  81
ATOM     81  C   UNL A   1      31.444  26.342  22.682  1.00  0.00     0.180 C 
BRANCH  81  82
ATOM     82  C   UNL A   1      30.365  27.381  22.704  1.00  0.00     0.082 A 
ATOM     83  C   UNL A   1      29.122  27.341  23.383  1.00  0.00     0.047 A 
ATOM     84  N   UNL A   1      30.543  28.573  22.105  1.00  0.00    -0.176 NA
ATOM     85  C   UNL A   1      28.536  28.559  23.150  1.00  0.00     0.109 A 
ATOM     86  N   UNL A   1      29.413  29.260  22.376  1.00  0.00    -0.269 N 
BRANCH  86  87
ATOM     87  C   UNL A   1      29.229  30.625  21.937  1.00  0.00     0.107 C 
ATOM     88  C   UNL A   1      28.121  30.824  20.906  1.00  0.00     0.027 C 
ATOM     89  C   UNL A   1      28.853  31.620  23.031  1.00  0.00     0.027 C 
ATOM     90  C   UNL A   1      27.962  32.339  20.863  1.00  0.00     0.002 C 
ATOM     91  C   UNL A   1      28.329  32.835  22.265  1.00  0.00     0.002 C 
ENDBRANCH  86  87
ENDBRANCH  81  82
ENDBRANCH  79  81
ENDBRANCH  72  75
ENDBRANCH  70  71
ENDBRANCH  69  70
ENDBRANCH   1  69
TORSDOF 17
ENDMDL
MODEL 2
REMARK VINA RESULT:     -12.5      3.071     10.044
REMARK SMILES O=C(NCCCCNC(=O)c1cc(Br)n(Cc2ccn(C3CCCC3)n2)c1)c1ccc(-c2c3nc(c(-c4ccc(S(=O)(=O)[O-])cc4)c4ccc([nH]4)c(-c4ccc(S(=O)(=O)[O-])cc4)c4nc(c(-c5ccc(S(=O)(=O)[O-])cc5)c5ccc2[nH]5)C=C4)C=C3)cc1
REMARK SMILES IDX 5 1 4 2 3 3 1 4 2 5 28 7 29 8 87 9 30 10 86 11 31 12 32 13
REMARK SMILES IDX 33 14 80 15 34 16 85 17 79 18 81 19 35 20 84 21 78 22 77 23
REMARK SMILES IDX 36 25 66 26 47 27 65 28 48 29 51 30 64 31 82 32 49 33 50 34
REMARK SMILES IDX 63 36 83 37 52 38 37 39 38 40 46 41 39 42 45 43 40 44 41 45
REMARK SMILES IDX 42 46 43 47 44 48 67 49 68 50 76 51 69 52 75 53 70 54 71 55
REMARK SMILES IDX 72 56 73 57 74 58 53 59 54 60 62 61 55 62 61 63 56 64 57 65
REMARK SMILES IDX 58 66 59 67 60 68 6 69 7 70 8 71 9 72 10 74 11 75 12 76
REMARK SMILES IDX 27 77 13 78 15 79 14 80 16 81 17 82 18 83 26 84 19 85 20 86
REMARK SMILES IDX 21 87 22 88 25 89 23 90 24 91
REMARK H PARENT 3 6 81 24 51 35 8 73
REMARK Flexibility Score: inf
ROOT
ATOM      1  C   UNL A   1      33.640  28.685  25.925  1.00  0.00     0.023 C 
ENDROOT
BRANCH   1   2
ATOM      2  C   UNL A   1      33.184  29.130  27.313  1.00  0.00     0.116 C 
BRANCH   2   3
ATOM      3  N   UNL A   1      33.403  30.532  27.606  1.00  0.00    -0.352 N 
ATOM      4  O   UNL A   1      34.317  32.514  27.944  1.00  0.00    -0.269 OA
ATOM      5  C   UNL A   1      34.510  31.299  27.848  1.00  0.00     0.251 C 
ATOM      6  H   UNL A   1      32.566  31.049  27.640  1.00  0.00     0.163 HD
BRANCH   5   7
ATOM      7  C   UNL A   1      35.887  30.773  28.055  1.00  0.00     0.039 A 
ATOM      8  C   UNL A   1      36.319  29.479  27.755  1.00  0.00     0.014 A 
ATOM      9  C   UNL A   1      36.817  31.681  28.597  1.00  0.00     0.014 A 
ATOM     10  C   UNL A   1      37.619  29.078  28.060  1.00  0.00     0.010 A 
ATOM     11  C   UNL A   1      38.122  31.291  28.883  1.00  0.00     0.010 A 
ATOM     12  C   UNL A   1      38.515  29.978  28.639  1.00  0.00    -0.014 A 
BRANCH  12  13
ATOM     13  C   UNL A   1      39.892  29.539  28.862  1.00  0.00     0.031 A 
ATOM     14  C   UNL A   1      40.332  29.468  30.286  1.00  0.00     0.074 A 
ATOM     15  C   UNL A   1      40.687  29.052  27.889  1.00  0.00     0.049 A 
ATOM     16  N   UNL A   1      41.311  30.090  30.861  1.00  0.00    -0.248 NA
ATOM     17  C   UNL A   1      39.534  28.637  31.201  1.00  0.00     0.031 C 
ATOM     18  C   UNL A   1      40.318  28.734  26.508  1.00  0.00     0.029 A 
ATOM     19  N   UNL A   1      41.976  28.612  27.979  1.00  0.00    -0.354 N 
ATOM     20  C   UNL A   1      41.363  29.609  32.170  1.00  0.00     0.074 A 
ATOM     21  C   UNL A   1      40.178  28.807  32.355  1.00  0.00     0.031 C 
ATOM     22  C   UNL A   1      41.272  27.943  25.969  1.00  0.00     0.029 A 
ATOM     23  C   UNL A   1      42.369  27.811  26.915  1.00  0.00     0.049 A 
ATOM     24  H   UNL A   1      42.571  28.841  28.728  1.00  0.00     0.167 HD
ATOM     25  C   UNL A   1      42.457  29.753  32.969  1.00  0.00     0.031 A 
ATOM     26  C   UNL A   1      43.476  27.031  26.850  1.00  0.00     0.031 A 
ATOM     27  C   UNL A   1      43.394  30.710  32.452  1.00  0.00     0.049 A 
ATOM     28  C   UNL A   1      44.436  27.515  27.870  1.00  0.00     0.074 A 
ATOM     29  C   UNL A   1      43.361  32.062  32.175  1.00  0.00     0.029 A 
ATOM     30  N   UNL A   1      44.518  30.222  31.832  1.00  0.00    -0.354 N 
ATOM     31  N   UNL A   1      45.043  28.665  27.808  1.00  0.00    -0.248 NA
ATOM     32  C   UNL A   1      44.442  26.880  29.179  1.00  0.00     0.031 C 
ATOM     33  C   UNL A   1      44.188  32.221  31.026  1.00  0.00     0.029 A 
ATOM     34  C   UNL A   1      44.700  30.964  30.694  1.00  0.00     0.049 A 
ATOM     35  H   UNL A   1      45.084  29.481  32.145  1.00  0.00     0.167 HD
ATOM     36  C   UNL A   1      45.139  29.091  29.124  1.00  0.00     0.074 A 
ATOM     37  C   UNL A   1      44.858  27.905  29.926  1.00  0.00     0.031 C 
ATOM     38  C   UNL A   1      45.169  30.421  29.437  1.00  0.00     0.031 A 
BRANCH  25  39
ATOM     39  C   UNL A   1      42.851  28.778  34.053  1.00  0.00    -0.014 A 
ATOM     40  C   UNL A   1      43.063  27.424  33.717  1.00  0.00     0.010 A 
ATOM     41  C   UNL A   1      42.739  29.088  35.424  1.00  0.00     0.010 A 
ATOM     42  C   UNL A   1      43.087  26.424  34.699  1.00  0.00     0.020 A 
ATOM     43  C   UNL A   1      42.807  28.104  36.413  1.00  0.00     0.020 A 
ATOM     44  C   UNL A   1      42.940  26.772  36.041  1.00  0.00     0.054 A 
BRANCH  44  45
ATOM     45  S   UNL A   1      42.838  25.464  37.290  1.00  0.00     0.124 S 
ATOM     46  O   UNL A   1      43.922  24.576  36.881  1.00  0.00    -0.237 OA
ATOM     47  O   UNL A   1      43.055  26.201  38.531  1.00  0.00    -0.237 OA
ATOM     48  O   UNL A   1      41.488  24.930  37.115  1.00  0.00    -0.744 OA
ENDBRANCH  44  45
ENDBRANCH  25  39
BRANCH  26  49
ATOM     49  C   UNL A   1      43.622  25.717  26.176  1.00  0.00    -0.014 A 
ATOM     50  C   UNL A   1      44.731  25.438  25.357  1.00  0.00     0.010 A 
ATOM     51  C   UNL A   1      42.800  24.636  26.558  1.00  0.00     0.010 A 
ATOM     52  C   UNL A   1      45.039  24.118  24.985  1.00  0.00     0.020 A 
ATOM     53  C   UNL A   1      43.094  23.322  26.182  1.00  0.00     0.020 A 
ATOM     54  C   UNL A   1      44.229  23.065  25.417  1.00  0.00     0.054 A 
BRANCH  54  55
ATOM     55  S   UNL A   1      44.734  21.351  25.089  1.00  0.00     0.124 S 
ATOM     56  O   UNL A   1      46.089  21.317  25.628  1.00  0.00    -0.237 OA
ATOM     57  O   UNL A   1      43.738  20.580  25.828  1.00  0.00    -0.237 OA
ATOM     58  O   UNL A   1      44.642  21.238  23.634  1.00  0.00    -0.744 OA
ENDBRANCH  54  55
ENDBRANCH  26  49
BRANCH  38  59
ATOM     59  C   UNL A   1      45.427  31.418  28.333  1.00  0.00    -0.014 A 
ATOM     60  C   UNL A   1      44.419  31.915  27.485  1.00  0.00     0.010 A 
ATOM     61  C   UNL A   1      46.710  31.990  28.257  1.00  0.00     0.010 A 
ATOM     62  C   UNL A   1      44.694  32.939  26.568  1.00  0.00     0.020 A 
ATOM     63  C   UNL A   1      46.985  33.024  27.360  1.00  0.00     0.020 A 
ATOM     64  C   UNL A   1      45.978  33.488  26.513  1.00  0.00     0.054 A 
BRANCH  64  65
ATOM     65  S   UNL A   1      46.310  34.858  25.369  1.00  0.00     0.124 S 
ATOM     66  O   UNL A   1      47.739  34.714  25.108  1.00  0.00    -0.237 OA
ATOM     67  O   UNL A   1      45.430  34.559  24.241  1.00  0.00    -0.237 OA
ATOM     68  O   UNL A   1      45.938  36.048  26.135  1.00  0.00    -0.744 OA
ENDBRANCH  64  65
ENDBRANCH  38  59
ENDBRANCH  12  13
ENDBRANCH   5   7
ENDBRANCH   2   3
ENDBRANCH   1   2
BRANCH   1  69
ATOM     69  C   UNL A   1      32.948  29.386  24.751  1.00  0.00     0.023 C 
BRANCH  69  70
ATOM     70  C   UNL A   1      31.966  28.530  23.951  1.00  0.00     0.116 C 
BRANCH  70  71
ATOM     71  N   UNL A   1      32.598  27.901  22.804  1.00  0.00    -0.352 N 
ATOM     72  C   UNL A   1      33.173  26.660  22.716  1.00  0.00     0.252 C 
ATOM     73  H   UNL A   1      32.615  28.440  21.980  1.00  0.00     0.163 HD
ATOM     74  O   UNL A   1      33.831  26.369  21.721  1.00  0.00    -0.269 OA
BRANCH  72  75
ATOM     75  C   UNL A   1      32.957  25.716  23.800  1.00  0.00     0.058 A 
ATOM     76  C   UNL A   1      31.731  25.141  24.240  1.00  0.00     0.049 A 
ATOM     77  C   UNL A   1      33.957  25.122  24.551  1.00  0.00     0.101 A 
ATOM     78  C   UNL A   1      32.032  24.203  25.201  1.00  0.00     0.086 A 
ATOM     79  N   UNL A   1      33.380  24.254  25.454  1.00  0.00    -0.335 N 
ATOM     80  Br  UNL A   1      30.752  23.052  25.933  1.00  0.00    -0.031 Br
BRANCH  79  81
ATOM     81  C   UNL A   1      34.138  23.426  26.389  1.00  0.00     0.180 C 
BRANCH  81  82
ATOM     82  C   UNL A   1      34.588  22.130  25.788  1.00  0.00     0.082 A 
ATOM     83  C   UNL A   1      35.913  21.684  25.556  1.00  0.00     0.047 A 
ATOM     84  N   UNL A   1      33.700  21.168  25.478  1.00  0.00    -0.176 NA
ATOM     85  C   UNL A   1      35.792  20.409  25.065  1.00  0.00     0.109 A 
ATOM     86  N   UNL A   1      34.455  20.144  25.026  1.00  0.00    -0.269 N 
BRANCH  86  87
ATOM     87  C   UNL A   1      33.867  18.884  24.627  1.00  0.00     0.107 C 
ATOM     88  C   UNL A   1      32.934  18.964  23.422  1.00  0.00     0.027 C 
ATOM     89  C   UNL A   1      34.859  17.801  24.212  1.00  0.00     0.027 C 
ATOM     90  C   UNL A   1      32.716  17.500  23.060  1.00  0.00     0.002 C 
ATOM     91  C   UNL A   1      34.001  16.776  23.470  1.00  0.00     0.002 C 
ENDBRANCH  86  87
ENDBRANCH  81  82
ENDBRANCH  79  81
ENDBRANCH  72  75
ENDBRANCH  70  71
ENDBRANCH  69  70
ENDBRANCH   1  69
TORSDOF 17
ENDMDL
MODEL 3
REMARK VINA RESULT:     -12.0      3.421      5.340
REMARK SMILES O=C(NCCCCNC(=O)c1cc(Br)n(Cc2ccn(C3CCCC3)n2)c1)c1ccc(-c2c3nc(c(-c4ccc(S(=O)(=O)[O-])cc4)c4ccc([nH]4)c(-c4ccc(S(=O)(=O)[O-])cc4)c4nc(c(-c5ccc(S(=O)(=O)[O-])cc5)c5ccc2[nH]5)C=C4)C=C3)cc1
REMARK SMILES IDX 5 1 4 2 3 3 1 4 2 5 28 7 29 8 87 9 30 10 86 11 31 12 32 13
REMARK SMILES IDX 33 14 80 15 34 16 85 17 79 18 81 19 35 20 84 21 78 22 77 23
REMARK SMILES IDX 36 25 66 26 47 27 65 28 48 29 51 30 64 31 82 32 49 33 50 34
REMARK SMILES IDX 63 36 83 37 52 38 37 39 38 40 46 41 39 42 45 43 40 44 41 45
REMARK SMILES IDX 42 46 43 47 44 48 67 49 68 50 76 51 69 52 75 53 70 54 71 55
REMARK SMILES IDX 72 56 73 57 74 58 53 59 54 60 62 61 55 62 61 63 56 64 57 65
REMARK SMILES IDX 58 66 59 67 60 68 6 69 7 70 8 71 9 72 10 74 11 75 12 76
REMARK SMILES IDX 27 77 13 78 15 79 14 80 16 81 17 82 18 83 26 84 19 85 20 86
REMARK SMILES IDX 21 87 22 88 25 89 23 90 24 91
REMARK H PARENT 3 6 81 24 51 35 8 73
REMARK Flexibility Score: inf
ROOT
ATOM      1  C   UNL A   1      39.613  21.288  26.163  1.00  0.00     0.023 C 
ENDROOT
BRANCH   1   2
ATOM      2  C   UNL A   1      41.047  20.860  26.469  1.00  0.00     0.116 C 
BRANCH   2   3
ATOM      3  N   UNL A   1      42.029  21.269  25.486  1.00  0.00    -0.352 N 
ATOM      4  O   UNL A   1      43.662  22.302  24.416  1.00  0.00    -0.269 OA
ATOM      5  C   UNL A   1      42.853  22.352  25.347  1.00  0.00     0.251 C 
ATOM      6  H   UNL A   1      42.124  20.621  24.750  1.00  0.00     0.163 HD
BRANCH   5   7
ATOM      7  C   UNL A   1      42.800  23.581  26.186  1.00  0.00     0.039 A 
ATOM      8  C   UNL A   1      43.314  23.709  27.477  1.00  0.00     0.014 A 
ATOM      9  C   UNL A   1      42.175  24.698  25.599  1.00  0.00     0.014 A 
ATOM     10  C   UNL A   1      43.141  24.892  28.194  1.00  0.00     0.010 A 
ATOM     11  C   UNL A   1      42.019  25.888  26.304  1.00  0.00     0.010 A 
ATOM     12  C   UNL A   1      42.480  25.975  27.615  1.00  0.00    -0.014 A 
BRANCH  12  13
ATOM     13  C   UNL A   1      42.397  27.224  28.371  1.00  0.00     0.031 A 
ATOM     14  C   UNL A   1      43.493  28.208  28.129  1.00  0.00     0.074 A 
ATOM     15  C   UNL A   1      41.329  27.579  29.111  1.00  0.00     0.049 A 
ATOM     16  N   UNL A   1      44.328  28.712  28.980  1.00  0.00    -0.248 NA
ATOM     17  C   UNL A   1      43.722  28.639  26.741  1.00  0.00     0.031 C 
ATOM     18  C   UNL A   1      40.033  26.901  29.194  1.00  0.00     0.029 A 
ATOM     19  N   UNL A   1      41.138  28.711  29.850  1.00  0.00    -0.354 N 
ATOM     20  C   UNL A   1      45.085  29.648  28.275  1.00  0.00     0.074 A 
ATOM     21  C   UNL A   1      44.749  29.477  26.883  1.00  0.00     0.031 C 
ATOM     22  C   UNL A   1      39.128  27.746  29.737  1.00  0.00     0.029 A 
ATOM     23  C   UNL A   1      39.808  28.962  30.155  1.00  0.00     0.049 A 
ATOM     24  H   UNL A   1      41.876  29.295  30.138  1.00  0.00     0.167 HD
ATOM     25  C   UNL A   1      45.812  30.625  28.887  1.00  0.00     0.031 A 
ATOM     26  C   UNL A   1      39.289  30.118  30.640  1.00  0.00     0.031 A 
ATOM     27  C   UNL A   1      45.978  30.388  30.294  1.00  0.00     0.049 A 
ATOM     28  C   UNL A   1      40.397  30.902  31.236  1.00  0.00     0.074 A 
ATOM     29  C   UNL A   1      46.569  29.403  31.059  1.00  0.00     0.029 A 
ATOM     30  N   UNL A   1      45.191  31.116  31.152  1.00  0.00    -0.354 N 
ATOM     31  N   UNL A   1      41.041  30.547  32.312  1.00  0.00    -0.248 NA
ATOM     32  C   UNL A   1      41.061  31.904  30.418  1.00  0.00     0.031 C 
ATOM     33  C   UNL A   1      45.748  29.297  32.219  1.00  0.00     0.029 A 
ATOM     34  C   UNL A   1      44.729  30.246  32.104  1.00  0.00     0.049 A 
ATOM     35  H   UNL A   1      44.996  32.079  31.095  1.00  0.00     0.167 HD
ATOM     36  C   UNL A   1      42.349  30.954  32.097  1.00  0.00     0.074 A 
ATOM     37  C   UNL A   1      42.276  31.881  30.973  1.00  0.00     0.031 C 
ATOM     38  C   UNL A   1      43.398  30.296  32.674  1.00  0.00     0.031 A 
BRANCH  25  39
ATOM     39  C   UNL A   1      46.093  31.979  28.283  1.00  0.00    -0.014 A 
ATOM     40  C   UNL A   1      47.413  32.476  28.290  1.00  0.00     0.010 A 
ATOM     41  C   UNL A   1      45.066  32.893  27.970  1.00  0.00     0.010 A 
ATOM     42  C   UNL A   1      47.683  33.834  28.069  1.00  0.00     0.020 A 
ATOM     43  C   UNL A   1      45.329  34.240  27.704  1.00  0.00     0.020 A 
ATOM     44  C   UNL A   1      46.633  34.710  27.795  1.00  0.00     0.054 A 
BRANCH  44  45
ATOM     45  S   UNL A   1      46.974  36.482  27.644  1.00  0.00     0.124 S 
ATOM     46  O   UNL A   1      46.803  36.697  26.210  1.00  0.00    -0.237 OA
ATOM     47  O   UNL A   1      45.948  37.071  28.500  1.00  0.00    -0.237 OA
ATOM     48  O   UNL A   1      48.343  36.610  28.140  1.00  0.00    -0.744 OA
ENDBRANCH  44  45
ENDBRANCH  25  39
BRANCH  26  49
ATOM     49  C   UNL A   1      37.961  30.710  30.346  1.00  0.00    -0.014 A 
ATOM     50  C   UNL A   1      37.186  31.302  31.361  1.00  0.00     0.010 A 
ATOM     51  C   UNL A   1      37.573  30.935  29.009  1.00  0.00     0.010 A 
ATOM     52  C   UNL A   1      36.100  32.136  31.046  1.00  0.00     0.020 A 
ATOM     53  C   UNL A   1      36.486  31.754  28.688  1.00  0.00     0.020 A 
ATOM     54  C   UNL A   1      35.769  32.373  29.709  1.00  0.00     0.054 A 
BRANCH  54  55
ATOM     55  S   UNL A   1      34.485  33.594  29.305  1.00  0.00     0.124 S 
ATOM     56  O   UNL A   1      33.874  33.844  30.606  1.00  0.00    -0.237 OA
ATOM     57  O   UNL A   1      35.261  34.698  28.746  1.00  0.00    -0.237 OA
ATOM     58  O   UNL A   1      33.634  32.893  28.344  1.00  0.00    -0.744 OA
ENDBRANCH  54  55
ENDBRANCH  26  49
BRANCH  38  59
ATOM     59  C   UNL A   1      43.116  29.332  33.801  1.00  0.00    -0.014 A 
ATOM     60  C   UNL A   1      43.059  29.717  35.154  1.00  0.00     0.010 A 
ATOM     61  C   UNL A   1      42.741  28.020  33.460  1.00  0.00     0.010 A 
ATOM     62  C   UNL A   1      42.661  28.806  36.142  1.00  0.00     0.020 A 
ATOM     63  C   UNL A   1      42.324  27.113  34.437  1.00  0.00     0.020 A 
ATOM     64  C   UNL A   1      42.295  27.508  35.775  1.00  0.00     0.054 A 
BRANCH  64  65
ATOM     65  S   UNL A   1      41.718  26.353  37.052  1.00  0.00     0.124 S 
ATOM     66  O   UNL A   1      40.459  26.956  37.478  1.00  0.00    -0.237 OA
ATOM     67  O   UNL A   1      41.598  25.094  36.320  1.00  0.00    -0.237 OA
ATOM     68  O   UNL A   1      42.786  26.378  38.051  1.00  0.00    -0.744 OA
ENDBRANCH  64  65
ENDBRANCH  38  59
ENDBRANCH  12  13
ENDBRANCH   5   7
ENDBRANCH   2   3
ENDBRANCH   1   2
BRANCH   1  69
ATOM     69  C   UNL A   1      39.250  22.717  26.584  1.00  0.00     0.023 C 
BRANCH  69  70
ATOM     70  C   UNL A   1      37.865  23.204  26.159  1.00  0.00     0.116 C 
BRANCH  70  71
ATOM     71  N   UNL A   1      37.768  23.387  24.722  1.00  0.00    -0.352 N 
ATOM     72  C   UNL A   1      36.655  23.335  23.924  1.00  0.00     0.252 C 
ATOM     73  H   UNL A   1      38.617  23.573  24.258  1.00  0.00     0.163 HD
ATOM     74  O   UNL A   1      36.786  23.322  22.704  1.00  0.00    -0.269 OA
BRANCH  72  75
ATOM     75  C   UNL A   1      35.346  23.326  24.559  1.00  0.00     0.058 A 
ATOM     76  C   UNL A   1      34.658  24.407  25.180  1.00  0.00     0.049 A 
ATOM     77  C   UNL A   1      34.478  22.248  24.580  1.00  0.00     0.101 A 
ATOM     78  C   UNL A   1      33.399  23.962  25.515  1.00  0.00     0.086 A 
ATOM     79  N   UNL A   1      33.320  22.621  25.229  1.00  0.00    -0.335 N 
ATOM     80  Br  UNL A   1      32.066  25.091  26.182  1.00  0.00    -0.031 Br
BRANCH  79  81
ATOM     81  C   UNL A   1      32.165  21.744  25.409  1.00  0.00     0.180 C 
BRANCH  81  82
ATOM     82  C   UNL A   1      32.248  20.495  24.587  1.00  0.00     0.082 A 
ATOM     83  C   UNL A   1      32.072  20.351  23.188  1.00  0.00     0.047 A 
ATOM     84  N   UNL A   1      32.618  19.327  25.142  1.00  0.00    -0.176 NA
ATOM     85  C   UNL A   1      32.327  19.032  22.918  1.00  0.00     0.109 A 
ATOM     86  N   UNL A   1      32.640  18.454  24.112  1.00  0.00    -0.269 N 
BRANCH  86  87
ATOM     87  C   UNL A   1      33.039  17.076  24.292  1.00  0.00     0.107 C 
ATOM     88  C   UNL A   1      34.516  16.871  24.618  1.00  0.00     0.027 C 
ATOM     89  C   UNL A   1      32.338  16.335  25.428  1.00  0.00     0.027 C 
ATOM     90  C   UNL A   1      34.574  15.408  25.038  1.00  0.00     0.002 C 
ATOM     91  C   UNL A   1      33.208  15.098  25.658  1.00  0.00     0.002 C 
ENDBRANCH  86  87
ENDBRANCH  81  82
ENDBRANCH  79  81
ENDBRANCH  72  75
ENDBRANCH  70  71
ENDBRANCH  69  70
ENDBRANCH   1  69
TORSDOF 17
ENDMDL
