MODEL 1
REMARK VINA RESULT:     -12.9      0.000      0.000
REMARK SMILES COc1cc([C@@H]2CC(=O)Nc3c(C(=O)NCCCCNC(=O)c4ccc(-c5c6nc(c(-c7ccc(S(=O)(=O)[O-])cc7)c7ccc([nH]7)c(-c7ccc(S(=O)(=O)[O-])cc7)c7nc(c(-c8ccc(S(=O)(=O)[O-])cc8)c8ccc5[nH]8)C=C7)C=C6)cc4)cn(-c4ccccc4)c32)ccc1O
REMARK SMILES IDX 18 1 17 2 16 3 15 4 13 5 14 6 12 8 6 9 7 10 91 11 8 12 11 13
REMARK SMILES IDX 84 14 9 15 10 16 83 17 5 19 3 20 4 21 94 22 93 23 92 24 2 25
REMARK SMILES IDX 1 26 95 27 85 29 86 30 90 31 87 32 89 33 88 34 19 35 20 36
REMARK SMILES IDX 21 37 22 39 23 40 24 41 82 42 25 43 81 44 26 45 27 46 28 47
REMARK SMILES IDX 75 48 29 49 80 50 74 51 76 52 30 53 79 54 73 55 72 56 31 58
REMARK SMILES IDX 61 59 42 60 60 61 43 62 46 63 59 64 77 65 44 66 45 67 58 69
REMARK SMILES IDX 78 70 47 71 32 72 33 73 41 74 34 75 40 76 35 77 36 78 37 79
REMARK SMILES IDX 38 80 39 81 62 82 63 83 71 84 64 85 70 86 65 87 66 88 67 89
REMARK SMILES IDX 68 90 69 91 48 92 49 93 57 94 50 95 56 96 51 97 52 98 53 99
REMARK SMILES IDX 54 100 55 101
REMARK H PARENT 15 7 10 18 95 28 20 38 76 57 46 68
REMARK Flexibility Score: inf
ROOT
ATOM      1  C   UNL A   1      33.612  29.111  27.034  1.00  0.00     0.023 C 
ENDROOT
BRANCH   1   2
ATOM      2  C   UNL A   1      32.484  29.284  26.011  1.00  0.00     0.023 C 
BRANCH   2   3
ATOM      3  C   UNL A   1      31.374  28.221  26.060  1.00  0.00     0.116 C 
BRANCH   3   4
ATOM      4  N   UNL A   1      30.949  27.848  24.735  1.00  0.00    -0.352 N 
ATOM      5  C   UNL A   1      31.104  26.725  23.968  1.00  0.00     0.254 C 
ATOM      6  O   UNL A   1      30.600  26.804  22.842  1.00  0.00    -0.269 OA
ATOM      7  H   UNL A   1      30.436  28.555  24.282  1.00  0.00     0.163 HD
BRANCH   5   8
ATOM      8  C   UNL A   1      31.782  25.487  24.384  1.00  0.00     0.081 A 
ATOM      9  C   UNL A   1      32.640  22.090  25.691  1.00  0.00     0.078 C 
ATOM     10  C   UNL A   1      31.574  21.998  26.787  1.00  0.00     0.115 C 
ATOM     11  C   UNL A   1      32.588  23.455  25.069  1.00  0.00     0.055 A 
ATOM     12  C   UNL A   1      30.260  22.616  26.368  1.00  0.00     0.225 C 
ATOM     13  C   UNL A   1      31.461  24.254  25.033  1.00  0.00     0.076 A 
ATOM     14  N   UNL A   1      33.647  24.173  24.567  1.00  0.00    -0.317 N 
ATOM     15  O   UNL A   1      29.180  22.211  26.796  1.00  0.00    -0.275 OA
ATOM     16  N   UNL A   1      30.312  23.748  25.595  1.00  0.00    -0.324 N 
ATOM     17  C   UNL A   1      33.167  25.403  24.197  1.00  0.00     0.107 A 
ATOM     18  H   UNL A   1      29.469  24.231  25.431  1.00  0.00     0.170 HD
BRANCH   9  19
ATOM     19  C   UNL A   1      32.474  20.948  24.697  1.00  0.00    -0.034 A 
ATOM     20  C   UNL A   1      32.390  18.523  24.319  1.00  0.00     0.160 A 
ATOM     21  C   UNL A   1      32.510  19.626  25.172  1.00  0.00     0.054 A 
ATOM     22  C   UNL A   1      32.213  18.761  22.957  1.00  0.00     0.157 A 
ATOM     23  C   UNL A   1      32.123  20.064  22.467  1.00  0.00     0.050 A 
ATOM     24  C   UNL A   1      32.266  21.152  23.327  1.00  0.00     0.008 A 
BRANCH  20  25
ATOM     25  O   UNL A   1      32.498  17.339  24.986  1.00  0.00    -0.493 OA
ATOM     26  C   UNL A   1      33.382  16.333  24.526  1.00  0.00     0.278 C 
ENDBRANCH  20  25
BRANCH  22  27
ATOM     27  O   UNL A   1      32.169  17.778  22.011  1.00  0.00    -0.504 OA
ATOM     28  H   UNL A   1      32.526  17.931  21.159  1.00  0.00     0.293 HD
ENDBRANCH  22  27
ENDBRANCH   9  19
BRANCH  14  29
ATOM     29  C   UNL A   1      35.006  23.785  24.523  1.00  0.00     0.045 A 
ATOM     30  C   UNL A   1      35.500  23.086  23.420  1.00  0.00     0.026 A 
ATOM     31  C   UNL A   1      35.841  24.080  25.606  1.00  0.00     0.026 A 
ATOM     32  C   UNL A   1      36.817  22.628  23.423  1.00  0.00     0.002 A 
ATOM     33  C   UNL A   1      37.153  23.605  25.608  1.00  0.00     0.002 A 
ATOM     34  C   UNL A   1      37.637  22.871  24.522  1.00  0.00     0.000 A 
ENDBRANCH  14  29
ENDBRANCH   5   8
ENDBRANCH   3   4
ENDBRANCH   2   3
ENDBRANCH   1   2
BRANCH   1  35
ATOM     35  C   UNL A   1      34.730  30.142  26.913  1.00  0.00     0.116 C 
BRANCH  35  36
ATOM     36  N   UNL A   1      34.469  31.376  27.667  1.00  0.00    -0.352 N 
ATOM     37  C   UNL A   1      34.919  31.706  28.940  1.00  0.00     0.251 C 
ATOM     38  H   UNL A   1      33.910  32.049  27.216  1.00  0.00     0.163 HD
ATOM     39  O   UNL A   1      34.340  32.515  29.637  1.00  0.00    -0.269 OA
BRANCH  37  40
ATOM     40  C   UNL A   1      36.158  31.053  29.399  1.00  0.00     0.039 A 
ATOM     41  C   UNL A   1      36.249  29.679  29.638  1.00  0.00     0.014 A 
ATOM     42  C   UNL A   1      37.272  31.878  29.473  1.00  0.00     0.014 A 
ATOM     43  C   UNL A   1      37.510  29.131  29.873  1.00  0.00     0.010 A 
ATOM     44  C   UNL A   1      38.512  31.308  29.483  1.00  0.00     0.010 A 
ATOM     45  C   UNL A   1      38.641  29.956  29.776  1.00  0.00    -0.014 A 
BRANCH  45  46
ATOM     46  C   UNL A   1      39.998  29.445  29.904  1.00  0.00     0.031 A 
ATOM     47  C   UNL A   1      40.444  29.152  31.293  1.00  0.00     0.074 A 
ATOM     48  C   UNL A   1      40.692  29.008  28.830  1.00  0.00     0.049 A 
ATOM     49  N   UNL A   1      41.336  29.783  31.980  1.00  0.00    -0.248 NA
ATOM     50  C   UNL A   1      39.730  28.115  32.060  1.00  0.00     0.031 C 
ATOM     51  C   UNL A   1      40.260  28.907  27.426  1.00  0.00     0.029 A 
ATOM     52  N   UNL A   1      41.907  28.409  28.795  1.00  0.00    -0.354 N 
ATOM     53  C   UNL A   1      41.465  29.088  33.179  1.00  0.00     0.074 A 
ATOM     54  C   UNL A   1      40.328  28.205  33.251  1.00  0.00     0.031 C 
ATOM     55  C   UNL A   1      41.061  28.043  26.765  1.00  0.00     0.029 A 
ATOM     56  C   UNL A   1      42.168  27.693  27.633  1.00  0.00     0.049 A 
ATOM     57  H   UNL A   1      42.553  28.475  29.535  1.00  0.00     0.167 HD
ATOM     58  C   UNL A   1      42.624  29.109  33.898  1.00  0.00     0.031 A 
ATOM     59  C   UNL A   1      43.205  26.841  27.425  1.00  0.00     0.031 A 
ATOM     60  C   UNL A   1      43.536  30.113  33.408  1.00  0.00     0.049 A 
ATOM     61  C   UNL A   1      44.244  27.195  28.428  1.00  0.00     0.074 A 
ATOM     62  C   UNL A   1      43.464  31.481  33.225  1.00  0.00     0.029 A 
ATOM     63  N   UNL A   1      44.571  29.682  32.607  1.00  0.00    -0.354 N 
ATOM     64  N   UNL A   1      44.858  28.349  28.437  1.00  0.00    -0.248 NA
ATOM     65  C   UNL A   1      44.229  26.490  29.702  1.00  0.00     0.031 C 
ATOM     66  C   UNL A   1      44.077  31.704  31.956  1.00  0.00     0.029 A 
ATOM     67  C   UNL A   1      44.568  30.481  31.491  1.00  0.00     0.049 A 
ATOM     68  H   UNL A   1      45.193  28.943  32.798  1.00  0.00     0.167 HD
ATOM     69  C   UNL A   1      44.917  28.712  29.776  1.00  0.00     0.074 A 
ATOM     70  C   UNL A   1      44.591  27.490  30.513  1.00  0.00     0.031 C 
ATOM     71  C   UNL A   1      44.931  30.024  30.165  1.00  0.00     0.031 A 
BRANCH  58  72
ATOM     72  C   UNL A   1      43.102  27.975  34.771  1.00  0.00    -0.014 A 
ATOM     73  C   UNL A   1      43.428  28.244  36.116  1.00  0.00     0.010 A 
ATOM     74  C   UNL A   1      43.505  26.729  34.249  1.00  0.00     0.010 A 
ATOM     75  C   UNL A   1      44.183  27.341  36.875  1.00  0.00     0.020 A 
ATOM     76  C   UNL A   1      44.218  25.802  35.011  1.00  0.00     0.020 A 
ATOM     77  C   UNL A   1      44.585  26.131  36.310  1.00  0.00     0.054 A 
BRANCH  77  78
ATOM     78  S   UNL A   1      45.656  25.023  37.258  1.00  0.00     0.124 S 
ATOM     79  O   UNL A   1      45.214  23.711  36.794  1.00  0.00    -0.237 OA
ATOM     80  O   UNL A   1      46.988  25.435  36.823  1.00  0.00    -0.237 OA
ATOM     81  O   UNL A   1      45.333  25.340  38.647  1.00  0.00    -0.744 OA
ENDBRANCH  77  78
ENDBRANCH  58  72
BRANCH  59  82
ATOM     82  C   UNL A   1      43.184  25.552  26.685  1.00  0.00    -0.014 A 
ATOM     83  C   UNL A   1      43.720  25.450  25.386  1.00  0.00     0.010 A 
ATOM     84  C   UNL A   1      42.890  24.349  27.362  1.00  0.00     0.010 A 
ATOM     85  C   UNL A   1      44.019  24.196  24.821  1.00  0.00     0.020 A 
ATOM     86  C   UNL A   1      43.179  23.097  26.803  1.00  0.00     0.020 A 
ATOM     87  C   UNL A   1      43.769  23.027  25.545  1.00  0.00     0.054 A 
BRANCH  87  88
ATOM     88  S   UNL A   1      44.342  21.426  24.895  1.00  0.00     0.124 S 
ATOM     89  O   UNL A   1      45.607  21.238  25.600  1.00  0.00    -0.237 OA
ATOM     90  O   UNL A   1      43.262  20.523  25.280  1.00  0.00    -0.237 OA
ATOM     91  O   UNL A   1      44.463  21.663  23.458  1.00  0.00    -0.744 OA
ENDBRANCH  87  88
ENDBRANCH  59  82
BRANCH  71  92
ATOM     92  C   UNL A   1      45.103  31.102  29.115  1.00  0.00    -0.014 A 
ATOM     93  C   UNL A   1      46.327  31.399  28.483  1.00  0.00     0.010 A 
ATOM     94  C   UNL A   1      43.937  31.714  28.623  1.00  0.00     0.010 A 
ATOM     95  C   UNL A   1      46.383  32.301  27.406  1.00  0.00     0.020 A 
ATOM     96  C   UNL A   1      43.981  32.598  27.543  1.00  0.00     0.020 A 
ATOM     97  C   UNL A   1      45.205  32.897  26.945  1.00  0.00     0.054 A 
BRANCH  97  98
ATOM     98  S   UNL A   1      45.270  34.036  25.532  1.00  0.00     0.124 S 
ATOM     99  O   UNL A   1      44.464  35.161  25.995  1.00  0.00    -0.237 OA
ATOM    100  O   UNL A   1      46.701  34.301  25.392  1.00  0.00    -0.237 OA
ATOM    101  O   UNL A   1      44.683  33.266  24.436  1.00  0.00    -0.744 OA
ENDBRANCH  97  98
ENDBRANCH  71  92
ENDBRANCH  45  46
ENDBRANCH  37  40
ENDBRANCH  35  36
ENDBRANCH   1  35
TORSDOF 18
ENDMDL
MODEL 2
REMARK VINA RESULT:     -11.6      1.763      3.168
REMARK SMILES COc1cc([C@@H]2CC(=O)Nc3c(C(=O)NCCCCNC(=O)c4ccc(-c5c6nc(c(-c7ccc(S(=O)(=O)[O-])cc7)c7ccc([nH]7)c(-c7ccc(S(=O)(=O)[O-])cc7)c7nc(c(-c8ccc(S(=O)(=O)[O-])cc8)c8ccc5[nH]8)C=C7)C=C6)cc4)cn(-c4ccccc4)c32)ccc1O
REMARK SMILES IDX 18 1 17 2 16 3 15 4 13 5 14 6 12 8 6 9 7 10 91 11 8 12 11 13
REMARK SMILES IDX 84 14 9 15 10 16 83 17 5 19 3 20 4 21 94 22 93 23 92 24 2 25
REMARK SMILES IDX 1 26 95 27 85 29 86 30 90 31 87 32 89 33 88 34 19 35 20 36
REMARK SMILES IDX 21 37 22 39 23 40 24 41 82 42 25 43 81 44 26 45 27 46 28 47
REMARK SMILES IDX 75 48 29 49 80 50 74 51 76 52 30 53 79 54 73 55 72 56 31 58
REMARK SMILES IDX 61 59 42 60 60 61 43 62 46 63 59 64 77 65 44 66 45 67 58 69
REMARK SMILES IDX 78 70 47 71 32 72 33 73 41 74 34 75 40 76 35 77 36 78 37 79
REMARK SMILES IDX 38 80 39 81 62 82 63 83 71 84 64 85 70 86 65 87 66 88 67 89
REMARK SMILES IDX 68 90 69 91 48 92 49 93 57 94 50 95 56 96 51 97 52 98 53 99
REMARK SMILES IDX 54 100 55 101
REMARK H PARENT 15 7 10 18 95 28 20 38 76 57 46 68
REMARK Flexibility Score: inf
ROOT
ATOM      1  C   UNL A   1      34.620  30.856  27.912  1.00  0.00     0.023 C 
ENDROOT
BRANCH   1   2
ATOM      2  C   UNL A   1      33.406  30.868  26.977  1.00  0.00     0.023 C 
BRANCH   2   3
ATOM      3  C   UNL A   1      33.378  29.761  25.910  1.00  0.00     0.116 C 
BRANCH   3   4
ATOM      4  N   UNL A   1      32.329  29.989  24.949  1.00  0.00    -0.352 N 
ATOM      5  C   UNL A   1      31.575  29.172  24.152  1.00  0.00     0.254 C 
ATOM      6  O   UNL A   1      30.772  29.767  23.426  1.00  0.00    -0.269 OA
ATOM      7  H   UNL A   1      32.105  30.942  24.842  1.00  0.00     0.163 HD
BRANCH   5   8
ATOM      8  C   UNL A   1      31.644  27.701  24.119  1.00  0.00     0.081 A 
ATOM      9  C   UNL A   1      32.245  24.122  23.218  1.00  0.00     0.078 C 
ATOM     10  C   UNL A   1      32.139  24.256  21.696  1.00  0.00     0.115 C 
ATOM     11  C   UNL A   1      31.914  25.443  23.851  1.00  0.00     0.055 A 
ATOM     12  C   UNL A   1      32.747  25.541  21.185  1.00  0.00     0.225 C 
ATOM     13  C   UNL A   1      32.077  26.668  23.231  1.00  0.00     0.076 A 
ATOM     14  N   UNL A   1      31.290  25.644  25.059  1.00  0.00    -0.317 N 
ATOM     15  O   UNL A   1      33.256  25.626  20.068  1.00  0.00    -0.275 OA
ATOM     16  N   UNL A   1      32.591  26.665  21.955  1.00  0.00    -0.324 N 
ATOM     17  C   UNL A   1      31.093  26.995  25.194  1.00  0.00     0.107 A 
ATOM     18  H   UNL A   1      32.865  27.529  21.569  1.00  0.00     0.170 HD
BRANCH   9  19
ATOM     19  C   UNL A   1      33.612  23.574  23.605  1.00  0.00    -0.034 A 
ATOM     20  C   UNL A   1      34.913  21.703  24.522  1.00  0.00     0.160 A 
ATOM     21  C   UNL A   1      33.697  22.269  24.120  1.00  0.00     0.054 A 
ATOM     22  C   UNL A   1      36.071  22.466  24.386  1.00  0.00     0.157 A 
ATOM     23  C   UNL A   1      36.019  23.746  23.830  1.00  0.00     0.050 A 
ATOM     24  C   UNL A   1      34.798  24.303  23.455  1.00  0.00     0.008 A 
BRANCH  20  25
ATOM     25  O   UNL A   1      34.755  20.448  25.032  1.00  0.00    -0.493 OA
ATOM     26  C   UNL A   1      33.732  19.599  24.545  1.00  0.00     0.278 C 
ENDBRANCH  20  25
BRANCH  22  27
ATOM     27  O   UNL A   1      37.302  22.067  24.818  1.00  0.00    -0.504 OA
ATOM     28  H   UNL A   1      38.002  22.686  24.878  1.00  0.00     0.293 HD
ENDBRANCH  22  27
ENDBRANCH   9  19
BRANCH  14  29
ATOM     29  C   UNL A   1      30.830  24.661  25.964  1.00  0.00     0.045 A 
ATOM     30  C   UNL A   1      31.735  23.783  26.564  1.00  0.00     0.026 A 
ATOM     31  C   UNL A   1      29.461  24.558  26.230  1.00  0.00     0.026 A 
ATOM     32  C   UNL A   1      31.265  22.759  27.385  1.00  0.00     0.002 A 
ATOM     33  C   UNL A   1      28.997  23.521  27.041  1.00  0.00     0.002 A 
ATOM     34  C   UNL A   1      29.897  22.617  27.609  1.00  0.00     0.000 A 
ENDBRANCH  14  29
ENDBRANCH   5   8
ENDBRANCH   3   4
ENDBRANCH   2   3
ENDBRANCH   1   2
BRANCH   1  35
ATOM     35  C   UNL A   1      35.231  32.231  28.163  1.00  0.00     0.116 C 
BRANCH  35  36
ATOM     36  N   UNL A   1      34.790  32.844  29.423  1.00  0.00    -0.352 N 
ATOM     37  C   UNL A   1      35.028  32.395  30.716  1.00  0.00     0.251 C 
ATOM     38  H   UNL A   1      34.263  33.672  29.341  1.00  0.00     0.163 HD
ATOM     39  O   UNL A   1      34.307  32.698  31.646  1.00  0.00    -0.269 OA
BRANCH  37  40
ATOM     40  C   UNL A   1      36.223  31.558  30.922  1.00  0.00     0.039 A 
ATOM     41  C   UNL A   1      36.161  30.172  31.090  1.00  0.00     0.014 A 
ATOM     42  C   UNL A   1      37.439  32.222  30.824  1.00  0.00     0.014 A 
ATOM     43  C   UNL A   1      37.353  29.449  31.076  1.00  0.00     0.010 A 
ATOM     44  C   UNL A   1      38.569  31.495  30.591  1.00  0.00     0.010 A 
ATOM     45  C   UNL A   1      38.555  30.122  30.807  1.00  0.00    -0.014 A 
BRANCH  45  46
ATOM     46  C   UNL A   1      39.828  29.429  30.671  1.00  0.00     0.031 A 
ATOM     47  C   UNL A   1      40.538  29.135  31.946  1.00  0.00     0.074 A 
ATOM     48  C   UNL A   1      40.198  28.854  29.505  1.00  0.00     0.049 A 
ATOM     49  N   UNL A   1      41.636  29.661  32.372  1.00  0.00    -0.248 NA
ATOM     50  C   UNL A   1      39.889  28.243  32.924  1.00  0.00     0.031 C 
ATOM     51  C   UNL A   1      39.448  28.756  28.242  1.00  0.00     0.029 A 
ATOM     52  N   UNL A   1      41.285  28.087  29.248  1.00  0.00    -0.354 N 
ATOM     53  C   UNL A   1      41.944  29.006  33.561  1.00  0.00     0.074 A 
ATOM     54  C   UNL A   1      40.749  28.297  33.946  1.00  0.00     0.031 C 
ATOM     55  C   UNL A   1      39.960  27.760  27.486  1.00  0.00     0.029 A 
ATOM     56  C   UNL A   1      41.181  27.293  28.113  1.00  0.00     0.049 A 
ATOM     57  H   UNL A   1      42.085  28.092  29.822  1.00  0.00     0.167 HD
ATOM     58  C   UNL A   1      43.229  28.893  34.004  1.00  0.00     0.031 A 
ATOM     59  C   UNL A   1      42.024  26.295  27.745  1.00  0.00     0.031 A 
ATOM     60  C   UNL A   1      44.126  29.735  33.254  1.00  0.00     0.049 A 
ATOM     61  C   UNL A   1      43.301  26.540  28.467  1.00  0.00     0.074 A 
ATOM     62  C   UNL A   1      44.192  31.091  32.992  1.00  0.00     0.029 A 
ATOM     63  N   UNL A   1      44.887  29.129  32.279  1.00  0.00    -0.354 N 
ATOM     64  N   UNL A   1      44.044  27.594  28.256  1.00  0.00    -0.248 NA
ATOM     65  C   UNL A   1      43.486  25.898  29.760  1.00  0.00     0.031 C 
ATOM     66  C   UNL A   1      44.523  31.171  31.607  1.00  0.00     0.029 A 
ATOM     67  C   UNL A   1      44.734  29.872  31.136  1.00  0.00     0.049 A 
ATOM     68  H   UNL A   1      45.436  28.318  32.382  1.00  0.00     0.167 HD
ATOM     69  C   UNL A   1      44.452  28.001  29.520  1.00  0.00     0.074 A 
ATOM     70  C   UNL A   1      44.148  26.870  30.398  1.00  0.00     0.031 C 
ATOM     71  C   UNL A   1      44.724  29.313  29.799  1.00  0.00     0.031 A 
BRANCH  58  72
ATOM     72  C   UNL A   1      43.742  27.741  34.831  1.00  0.00    -0.014 A 
ATOM     73  C   UNL A   1      44.987  27.872  35.480  1.00  0.00     0.010 A 
ATOM     74  C   UNL A   1      43.186  26.447  34.766  1.00  0.00     0.010 A 
ATOM     75  C   UNL A   1      45.672  26.753  35.970  1.00  0.00     0.020 A 
ATOM     76  C   UNL A   1      43.838  25.331  35.292  1.00  0.00     0.020 A 
ATOM     77  C   UNL A   1      45.097  25.487  35.859  1.00  0.00     0.054 A 
BRANCH  77  78
ATOM     78  S   UNL A   1      46.037  24.036  36.392  1.00  0.00     0.124 S 
ATOM     79  O   UNL A   1      47.225  24.123  35.548  1.00  0.00    -0.237 OA
ATOM     80  O   UNL A   1      46.246  24.309  37.812  1.00  0.00    -0.237 OA
ATOM     81  O   UNL A   1      45.140  22.921  36.102  1.00  0.00    -0.744 OA
ENDBRANCH  77  78
ENDBRANCH  58  72
BRANCH  59  82
ATOM     82  C   UNL A   1      41.670  24.991  27.123  1.00  0.00    -0.014 A 
ATOM     83  C   UNL A   1      42.650  24.187  26.510  1.00  0.00     0.010 A 
ATOM     84  C   UNL A   1      40.412  24.403  27.378  1.00  0.00     0.010 A 
ATOM     85  C   UNL A   1      42.405  22.829  26.233  1.00  0.00     0.020 A 
ATOM     86  C   UNL A   1      40.159  23.053  27.099  1.00  0.00     0.020 A 
ATOM     87  C   UNL A   1      41.168  22.264  26.554  1.00  0.00     0.054 A 
BRANCH  87  88
ATOM     88  S   UNL A   1      40.927  20.468  26.381  1.00  0.00     0.124 S 
ATOM     89  O   UNL A   1      42.078  20.076  25.572  1.00  0.00    -0.237 OA
ATOM     90  O   UNL A   1      40.942  20.011  27.767  1.00  0.00    -0.237 OA
ATOM     91  O   UNL A   1      39.633  20.358  25.710  1.00  0.00    -0.744 OA
ENDBRANCH  87  88
ENDBRANCH  59  82
BRANCH  71  92
ATOM     92  C   UNL A   1      44.789  30.311  28.662  1.00  0.00    -0.014 A 
ATOM     93  C   UNL A   1      43.680  30.684  27.875  1.00  0.00     0.010 A 
ATOM     94  C   UNL A   1      45.985  31.033  28.505  1.00  0.00     0.010 A 
ATOM     95  C   UNL A   1      43.777  31.731  26.942  1.00  0.00     0.020 A 
ATOM     96  C   UNL A   1      46.085  32.085  27.593  1.00  0.00     0.020 A 
ATOM     97  C   UNL A   1      44.984  32.424  26.807  1.00  0.00     0.054 A 
BRANCH  97  98
ATOM     98  S   UNL A   1      45.101  33.800  25.627  1.00  0.00     0.124 S 
ATOM     99  O   UNL A   1      46.543  33.948  25.455  1.00  0.00    -0.237 OA
ATOM    100  O   UNL A   1      44.375  33.294  24.464  1.00  0.00    -0.237 OA
ATOM    101  O   UNL A   1      44.445  34.909  26.320  1.00  0.00    -0.744 OA
ENDBRANCH  97  98
ENDBRANCH  71  92
ENDBRANCH  45  46
ENDBRANCH  37  40
ENDBRANCH  35  36
ENDBRANCH   1  35
TORSDOF 18
ENDMDL
MODEL 3
REMARK VINA RESULT:     -11.2      5.329      8.045
REMARK SMILES COc1cc([C@@H]2CC(=O)Nc3c(C(=O)NCCCCNC(=O)c4ccc(-c5c6nc(c(-c7ccc(S(=O)(=O)[O-])cc7)c7ccc([nH]7)c(-c7ccc(S(=O)(=O)[O-])cc7)c7nc(c(-c8ccc(S(=O)(=O)[O-])cc8)c8ccc5[nH]8)C=C7)C=C6)cc4)cn(-c4ccccc4)c32)ccc1O
REMARK SMILES IDX 18 1 17 2 16 3 15 4 13 5 14 6 12 8 6 9 7 10 91 11 8 12 11 13
REMARK SMILES IDX 84 14 9 15 10 16 83 17 5 19 3 20 4 21 94 22 93 23 92 24 2 25
REMARK SMILES IDX 1 26 95 27 85 29 86 30 90 31 87 32 89 33 88 34 19 35 20 36
REMARK SMILES IDX 21 37 22 39 23 40 24 41 82 42 25 43 81 44 26 45 27 46 28 47
REMARK SMILES IDX 75 48 29 49 80 50 74 51 76 52 30 53 79 54 73 55 72 56 31 58
REMARK SMILES IDX 61 59 42 60 60 61 43 62 46 63 59 64 77 65 44 66 45 67 58 69
REMARK SMILES IDX 78 70 47 71 32 72 33 73 41 74 34 75 40 76 35 77 36 78 37 79
REMARK SMILES IDX 38 80 39 81 62 82 63 83 71 84 64 85 70 86 65 87 66 88 67 89
REMARK SMILES IDX 68 90 69 91 48 92 49 93 57 94 50 95 56 96 51 97 52 98 53 99
REMARK SMILES IDX 54 100 55 101
REMARK H PARENT 15 7 10 18 95 28 20 38 76 57 46 68
REMARK Flexibility Score: inf
ROOT
ATOM      1  C   UNL A   1      34.436  33.784  32.814  1.00  0.00     0.023 C 
ENDROOT
BRANCH   1   2
ATOM      2  C   UNL A   1      33.443  34.950  32.756  1.00  0.00     0.023 C 
BRANCH   2   3
ATOM      3  C   UNL A   1      33.897  36.169  31.937  1.00  0.00     0.116 C 
BRANCH   3   4
ATOM      4  N   UNL A   1      33.117  36.310  30.733  1.00  0.00    -0.352 N 
ATOM      5  C   UNL A   1      33.078  35.639  29.542  1.00  0.00     0.254 C 
ATOM      6  O   UNL A   1      32.265  36.091  28.729  1.00  0.00    -0.269 OA
ATOM      7  H   UNL A   1      32.470  37.050  30.779  1.00  0.00     0.163 HD
BRANCH   5   8
ATOM      8  C   UNL A   1      33.889  34.461  29.191  1.00  0.00     0.081 A 
ATOM      9  C   UNL A   1      36.629  31.961  28.715  1.00  0.00     0.078 C 
ATOM     10  C   UNL A   1      37.801  32.939  28.582  1.00  0.00     0.115 C 
ATOM     11  C   UNL A   1      35.348  32.740  28.800  1.00  0.00     0.055 A 
ATOM     12  C   UNL A   1      37.668  34.129  29.506  1.00  0.00     0.225 C 
ATOM     13  C   UNL A   1      35.251  34.035  29.274  1.00  0.00     0.076 A 
ATOM     14  N   UNL A   1      34.120  32.360  28.314  1.00  0.00    -0.317 N 
ATOM     15  O   UNL A   1      38.649  34.712  29.966  1.00  0.00    -0.275 OA
ATOM     16  N   UNL A   1      36.410  34.635  29.708  1.00  0.00    -0.324 N 
ATOM     17  C   UNL A   1      33.261  33.411  28.513  1.00  0.00     0.107 A 
ATOM     18  H   UNL A   1      36.331  35.487  30.197  1.00  0.00     0.170 HD
BRANCH   9  19
ATOM     19  C   UNL A   1      36.860  31.018  29.888  1.00  0.00    -0.034 A 
ATOM     20  C   UNL A   1      37.803  28.895  30.687  1.00  0.00     0.160 A 
ATOM     21  C   UNL A   1      37.571  29.826  29.667  1.00  0.00     0.054 A 
ATOM     22  C   UNL A   1      37.321  29.183  31.963  1.00  0.00     0.157 A 
ATOM     23  C   UNL A   1      36.656  30.384  32.219  1.00  0.00     0.050 A 
ATOM     24  C   UNL A   1      36.415  31.290  31.187  1.00  0.00     0.008 A 
BRANCH  20  25
ATOM     25  O   UNL A   1      38.470  27.794  30.240  1.00  0.00    -0.493 OA
ATOM     26  C   UNL A   1      39.885  27.784  30.184  1.00  0.00     0.278 C 
ENDBRANCH  20  25
BRANCH  22  27
ATOM     27  O   UNL A   1      37.403  28.325  33.020  1.00  0.00    -0.504 OA
ATOM     28  H   UNL A   1      37.159  28.612  33.878  1.00  0.00     0.293 HD
ENDBRANCH  22  27
ENDBRANCH   9  19
BRANCH  14  29
ATOM     29  C   UNL A   1      33.795  31.163  27.636  1.00  0.00     0.045 A 
ATOM     30  C   UNL A   1      32.499  30.957  27.159  1.00  0.00     0.026 A 
ATOM     31  C   UNL A   1      34.774  30.177  27.473  1.00  0.00     0.026 A 
ATOM     32  C   UNL A   1      32.162  29.739  26.572  1.00  0.00     0.002 A 
ATOM     33  C   UNL A   1      34.425  28.953  26.899  1.00  0.00     0.002 A 
ATOM     34  C   UNL A   1      33.118  28.732  26.458  1.00  0.00     0.000 A 
ENDBRANCH  14  29
ENDBRANCH   5   8
ENDBRANCH   3   4
ENDBRANCH   2   3
ENDBRANCH   1   2
BRANCH   1  35
ATOM     35  C   UNL A   1      35.795  34.148  33.404  1.00  0.00     0.116 C 
BRANCH  35  36
ATOM     36  N   UNL A   1      35.788  34.246  34.869  1.00  0.00    -0.352 N 
ATOM     37  C   UNL A   1      36.644  33.622  35.768  1.00  0.00     0.251 C 
ATOM     38  H   UNL A   1      35.093  34.824  35.261  1.00  0.00     0.163 HD
ATOM     39  O   UNL A   1      36.328  33.418  36.923  1.00  0.00    -0.269 OA
BRANCH  37  40
ATOM     40  C   UNL A   1      37.978  33.248  35.267  1.00  0.00     0.039 A 
ATOM     41  C   UNL A   1      38.307  31.946  34.881  1.00  0.00     0.014 A 
ATOM     42  C   UNL A   1      38.865  34.302  35.092  1.00  0.00     0.014 A 
ATOM     43  C   UNL A   1      39.525  31.734  34.234  1.00  0.00     0.010 A 
ATOM     44  C   UNL A   1      39.941  34.126  34.271  1.00  0.00     0.010 A 
ATOM     45  C   UNL A   1      40.329  32.840  33.918  1.00  0.00    -0.014 A 
BRANCH  45  46
ATOM     46  C   UNL A   1      41.562  32.719  33.154  1.00  0.00     0.031 A 
ATOM     47  C   UNL A   1      42.813  32.666  33.959  1.00  0.00     0.074 A 
ATOM     48  C   UNL A   1      41.551  32.399  31.841  1.00  0.00     0.049 A 
ATOM     49  N   UNL A   1      43.738  33.564  34.032  1.00  0.00    -0.248 NA
ATOM     50  C   UNL A   1      43.004  31.542  34.892  1.00  0.00     0.031 C 
ATOM     51  C   UNL A   1      40.404  32.076  30.976  1.00  0.00     0.029 A 
ATOM     52  N   UNL A   1      42.602  32.143  31.024  1.00  0.00    -0.354 N 
ATOM     53  C   UNL A   1      44.737  33.026  34.836  1.00  0.00     0.074 A 
ATOM     54  C   UNL A   1      44.151  31.881  35.488  1.00  0.00     0.031 C 
ATOM     55  C   UNL A   1      40.833  31.406  29.884  1.00  0.00     0.029 A 
ATOM     56  C   UNL A   1      42.283  31.432  29.873  1.00  0.00     0.049 A 
ATOM     57  H   UNL A   1      43.518  32.437  31.231  1.00  0.00     0.167 HD
ATOM     58  C   UNL A   1      46.040  33.411  34.714  1.00  0.00     0.031 A 
ATOM     59  C   UNL A   1      43.159  30.872  29.001  1.00  0.00     0.031 A 
ATOM     60  C   UNL A   1      46.173  34.579  33.878  1.00  0.00     0.049 A 
ATOM     61  C   UNL A   1      44.458  31.568  29.209  1.00  0.00     0.074 A 
ATOM     62  C   UNL A   1      45.656  35.860  33.913  1.00  0.00     0.029 A 
ATOM     63  N   UNL A   1      46.582  34.376  32.578  1.00  0.00    -0.354 N 
ATOM     64  N   UNL A   1      44.628  32.840  28.963  1.00  0.00    -0.248 NA
ATOM     65  C   UNL A   1      45.397  30.988  30.157  1.00  0.00     0.031 C 
ATOM     66  C   UNL A   1      45.294  36.136  32.561  1.00  0.00     0.029 A 
ATOM     67  C   UNL A   1      45.701  35.055  31.774  1.00  0.00     0.049 A 
ATOM     68  H   UNL A   1      47.358  33.846  32.282  1.00  0.00     0.167 HD
ATOM     69  C   UNL A   1      45.386  33.312  30.027  1.00  0.00     0.074 A 
ATOM     70  C   UNL A   1      45.901  32.109  30.685  1.00  0.00     0.031 C 
ATOM     71  C   UNL A   1      45.293  34.606  30.458  1.00  0.00     0.031 A 
BRANCH  58  72
ATOM     72  C   UNL A   1      47.220  32.518  35.006  1.00  0.00    -0.014 A 
ATOM     73  C   UNL A   1      47.397  31.353  34.232  1.00  0.00     0.010 A 
ATOM     74  C   UNL A   1      47.991  32.632  36.180  1.00  0.00     0.010 A 
ATOM     75  C   UNL A   1      48.248  30.323  34.654  1.00  0.00     0.020 A 
ATOM     76  C   UNL A   1      48.877  31.633  36.586  1.00  0.00     0.020 A 
ATOM     77  C   UNL A   1      48.972  30.466  35.838  1.00  0.00     0.054 A 
BRANCH  77  78
ATOM     78  S   UNL A   1      49.980  29.086  36.433  1.00  0.00     0.124 S 
ATOM     79  O   UNL A   1      49.331  28.766  37.700  1.00  0.00    -0.237 OA
ATOM     80  O   UNL A   1      49.812  28.101  35.367  1.00  0.00    -0.237 OA
ATOM     81  O   UNL A   1      51.318  29.661  36.539  1.00  0.00    -0.744 OA
ENDBRANCH  77  78
ENDBRANCH  58  72
BRANCH  59  82
ATOM     82  C   UNL A   1      43.030  29.569  28.296  1.00  0.00    -0.014 A 
ATOM     83  C   UNL A   1      43.285  28.354  28.961  1.00  0.00     0.010 A 
ATOM     84  C   UNL A   1      42.383  29.502  27.044  1.00  0.00     0.010 A 
ATOM     85  C   UNL A   1      42.843  27.128  28.428  1.00  0.00     0.020 A 
ATOM     86  C   UNL A   1      41.945  28.285  26.504  1.00  0.00     0.020 A 
ATOM     87  C   UNL A   1      42.152  27.106  27.214  1.00  0.00     0.054 A 
BRANCH  87  88
ATOM     88  S   UNL A   1      41.408  25.550  26.631  1.00  0.00     0.124 S 
ATOM     89  O   UNL A   1      41.314  25.769  25.191  1.00  0.00    -0.237 OA
ATOM     90  O   UNL A   1      42.385  24.552  27.057  1.00  0.00    -0.237 OA
ATOM     91  O   UNL A   1      40.128  25.497  27.334  1.00  0.00    -0.744 OA
ENDBRANCH  87  88
ENDBRANCH  59  82
BRANCH  71  92
ATOM     92  C   UNL A   1      44.510  35.605  29.631  1.00  0.00    -0.014 A 
ATOM     93  C   UNL A   1      43.106  35.730  29.666  1.00  0.00     0.010 A 
ATOM     94  C   UNL A   1      45.244  36.575  28.927  1.00  0.00     0.010 A 
ATOM     95  C   UNL A   1      42.459  36.781  28.994  1.00  0.00     0.020 A 
ATOM     96  C   UNL A   1      44.610  37.633  28.271  1.00  0.00     0.020 A 
ATOM     97  C   UNL A   1      43.219  37.726  28.298  1.00  0.00     0.054 A 
BRANCH  97  98
ATOM     98  S   UNL A   1      42.386  39.105  27.458  1.00  0.00     0.124 S 
ATOM     99  O   UNL A   1      41.525  38.418  26.501  1.00  0.00    -0.237 OA
ATOM    100  O   UNL A   1      41.697  39.785  28.553  1.00  0.00    -0.237 OA
ATOM    101  O   UNL A   1      43.486  39.865  26.864  1.00  0.00    -0.744 OA
ENDBRANCH  97  98
ENDBRANCH  71  92
ENDBRANCH  45  46
ENDBRANCH  37  40
ENDBRANCH  35  36
ENDBRANCH   1  35
TORSDOF 18
ENDMDL
