MODEL 1
REMARK VINA RESULT:     -11.3      0.000      0.000
REMARK SMILES O=C(C[NH+]1CCN(c2nccc(N3CCCCC3)n2)CC1)NCCCCNC(=O)c1ccc(-c2c3nc(c(-c4ccc(S(=O)(=O)[O-])cc4)c4ccc([nH]4)c(-c4ccc(S(=O)(=O)[O-])cc4)c4nc(c(-c5ccc(S(=O)(=O)[O-])cc5)c5ccc2[nH]5)C=C4)C=C3)cc1
REMARK SMILES IDX 24 1 23 2 22 3 1 4 2 5 3 7 4 8 5 9 21 10 6 12 20 13 7 14
REMARK SMILES IDX 8 15 9 16 19 17 10 18 12 19 11 20 13 21 14 22 18 23 15 24
REMARK SMILES IDX 17 25 16 26 25 27 26 28 27 29 28 30 29 32 30 33 31 34 89 35
REMARK SMILES IDX 32 36 88 37 33 38 34 39 35 40 82 41 36 42 87 43 81 44 83 45
REMARK SMILES IDX 37 46 86 47 80 48 79 49 38 51 68 52 49 53 67 54 50 55 53 56
REMARK SMILES IDX 66 57 84 58 51 59 52 60 65 62 85 63 54 64 39 65 40 66 48 67
REMARK SMILES IDX 41 68 47 69 42 70 43 71 44 72 45 73 46 74 69 75 70 76 78 77
REMARK SMILES IDX 71 78 77 79 72 80 73 81 74 82 75 83 76 84 55 85 56 86 64 87
REMARK SMILES IDX 57 88 63 89 58 90 59 91 60 92 61 93 62 94
REMARK H PARENT 22 6 4 11 27 31 83 50 53 61
REMARK Flexibility Score: inf
ROOT
ATOM      1  C   UNL A   1      40.231  22.436  27.176  1.00  0.00     0.023 C 
ENDROOT
BRANCH   1   2
ATOM      2  C   UNL A   1      39.726  21.450  26.123  1.00  0.00     0.116 C 
BRANCH   2   3
ATOM      3  N   UNL A   1      38.475  21.863  25.522  1.00  0.00    -0.351 N 
ATOM      4  O   UNL A   1      37.765  19.744  24.984  1.00  0.00    -0.269 OA
ATOM      5  C   UNL A   1      37.573  20.959  25.005  1.00  0.00     0.275 C 
ATOM      6  H   UNL A   1      38.261  22.824  25.481  1.00  0.00     0.163 HD
BRANCH   5   7
ATOM      7  C   UNL A   1      36.319  21.577  24.382  1.00  0.00     0.363 C 
BRANCH   7   8
ATOM      8  N   UNL A   1      35.084  21.297  25.151  1.00  0.00    -0.324 N 
ATOM      9  C   UNL A   1      35.030  22.204  26.338  1.00  0.00     0.284 C 
ATOM     10  C   UNL A   1      33.841  21.513  24.355  1.00  0.00     0.284 C 
ATOM     11  H   UNL A   1      35.122  20.314  25.421  1.00  0.00     0.348 HD
ATOM     12  C   UNL A   1      34.760  23.705  26.030  1.00  0.00     0.181 C 
ATOM     13  C   UNL A   1      33.486  22.978  24.013  1.00  0.00     0.181 C 
ATOM     14  N   UNL A   1      33.576  23.802  25.204  1.00  0.00    -0.329 N 
BRANCH  14  15
ATOM     15  C   UNL A   1      32.656  24.783  25.426  1.00  0.00     0.227 A 
ATOM     16  N   UNL A   1      31.356  24.459  25.434  1.00  0.00    -0.221 NA
ATOM     17  N   UNL A   1      33.111  26.036  25.575  1.00  0.00    -0.196 NA
ATOM     18  C   UNL A   1      30.494  25.459  25.672  1.00  0.00     0.119 A 
ATOM     19  C   UNL A   1      32.225  27.028  25.756  1.00  0.00     0.134 A 
ATOM     20  C   UNL A   1      30.876  26.764  25.853  1.00  0.00     0.067 A 
BRANCH  19  21
ATOM     21  N   UNL A   1      32.678  28.328  25.774  1.00  0.00    -0.356 N 
ATOM     22  C   UNL A   1      34.088  28.577  26.049  1.00  0.00     0.118 C 
ATOM     23  C   UNL A   1      31.765  29.454  25.712  1.00  0.00     0.118 C 
ATOM     24  C   UNL A   1      34.253  29.445  27.292  1.00  0.00     0.022 C 
ATOM     25  C   UNL A   1      31.912  30.306  26.974  1.00  0.00     0.022 C 
ATOM     26  C   UNL A   1      33.371  30.690  27.221  1.00  0.00     0.004 C 
ENDBRANCH  19  21
ENDBRANCH  14  15
ENDBRANCH   7   8
ENDBRANCH   5   7
ENDBRANCH   2   3
ENDBRANCH   1   2
BRANCH   1  27
ATOM     27  C   UNL A   1      41.694  22.256  27.585  1.00  0.00     0.023 C 
BRANCH  27  28
ATOM     28  C   UNL A   1      42.628  23.406  27.214  1.00  0.00     0.116 C 
BRANCH  28  29
ATOM     29  N   UNL A   1      42.155  24.187  26.081  1.00  0.00    -0.352 N 
ATOM     30  C   UNL A   1      41.596  25.443  26.060  1.00  0.00     0.251 C 
ATOM     31  H   UNL A   1      42.250  23.753  25.202  1.00  0.00     0.163 HD
ATOM     32  O   UNL A   1      41.141  25.889  25.009  1.00  0.00    -0.269 OA
BRANCH  30  33
ATOM     33  C   UNL A   1      41.507  26.244  27.301  1.00  0.00     0.039 A 
ATOM     34  C   UNL A   1      42.404  27.299  27.491  1.00  0.00     0.014 A 
ATOM     35  C   UNL A   1      40.544  25.967  28.276  1.00  0.00     0.014 A 
ATOM     36  C   UNL A   1      42.286  28.121  28.615  1.00  0.00     0.010 A 
ATOM     37  C   UNL A   1      40.379  26.833  29.356  1.00  0.00     0.010 A 
ATOM     38  C   UNL A   1      41.246  27.921  29.537  1.00  0.00    -0.014 A 
BRANCH  38  39
ATOM     39  C   UNL A   1      41.040  28.848  30.683  1.00  0.00     0.031 A 
ATOM     40  C   UNL A   1      41.878  28.721  31.928  1.00  0.00     0.074 A 
ATOM     41  C   UNL A   1      40.052  29.765  30.630  1.00  0.00     0.049 A 
ATOM     42  N   UNL A   1      41.801  29.396  33.046  1.00  0.00    -0.248 NA
ATOM     43  C   UNL A   1      42.924  27.685  31.923  1.00  0.00     0.031 C 
ATOM     44  C   UNL A   1      39.141  29.965  29.502  1.00  0.00     0.029 A 
ATOM     45  N   UNL A   1      39.642  30.695  31.555  1.00  0.00    -0.354 N 
ATOM     46  C   UNL A   1      42.776  28.862  33.880  1.00  0.00     0.074 A 
ATOM     47  C   UNL A   1      43.395  27.771  33.159  1.00  0.00     0.031 C 
ATOM     48  C   UNL A   1      38.297  30.970  29.788  1.00  0.00     0.029 A 
ATOM     49  C   UNL A   1      38.574  31.455  31.137  1.00  0.00     0.049 A 
ATOM     50  H   UNL A   1      40.072  30.808  32.432  1.00  0.00     0.167 HD
ATOM     51  C   UNL A   1      43.139  29.254  35.125  1.00  0.00     0.031 A 
ATOM     52  C   UNL A   1      37.885  32.427  31.768  1.00  0.00     0.031 A 
ATOM     53  C   UNL A   1      42.523  30.340  35.843  1.00  0.00     0.049 A 
ATOM     54  C   UNL A   1      38.292  32.832  33.159  1.00  0.00     0.074 A 
ATOM     55  C   UNL A   1      42.851  30.843  37.091  1.00  0.00     0.029 A 
ATOM     56  N   UNL A   1      41.450  31.089  35.381  1.00  0.00    -0.354 N 
ATOM     57  N   UNL A   1      39.259  32.355  33.905  1.00  0.00    -0.248 NA
ATOM     58  C   UNL A   1      37.522  33.915  33.787  1.00  0.00     0.031 C 
ATOM     59  C   UNL A   1      41.940  31.857  37.407  1.00  0.00     0.029 A 
ATOM     60  C   UNL A   1      41.087  32.032  36.329  1.00  0.00     0.049 A 
ATOM     61  H   UNL A   1      41.011  30.967  34.508  1.00  0.00     0.167 HD
ATOM     62  C   UNL A   1      39.231  33.098  35.082  1.00  0.00     0.074 A 
ATOM     63  C   UNL A   1      38.162  34.066  34.938  1.00  0.00     0.031 C 
ATOM     64  C   UNL A   1      40.020  32.989  36.178  1.00  0.00     0.031 A 
BRANCH  51  65
ATOM     65  C   UNL A   1      44.256  28.496  35.797  1.00  0.00    -0.014 A 
ATOM     66  C   UNL A   1      45.598  28.896  35.649  1.00  0.00     0.010 A 
ATOM     67  C   UNL A   1      43.961  27.391  36.617  1.00  0.00     0.010 A 
ATOM     68  C   UNL A   1      46.624  28.179  36.269  1.00  0.00     0.020 A 
ATOM     69  C   UNL A   1      44.982  26.690  37.264  1.00  0.00     0.020 A 
ATOM     70  C   UNL A   1      46.309  27.078  37.071  1.00  0.00     0.054 A 
BRANCH  70  71
ATOM     71  S   UNL A   1      47.661  26.175  37.876  1.00  0.00     0.124 S 
ATOM     72  O   UNL A   1      48.824  26.646  37.126  1.00  0.00    -0.237 OA
ATOM     73  O   UNL A   1      47.576  26.638  39.258  1.00  0.00    -0.237 OA
ATOM     74  O   UNL A   1      47.315  24.771  37.669  1.00  0.00    -0.744 OA
ENDBRANCH  70  71
ENDBRANCH  51  65
BRANCH  52  75
ATOM     75  C   UNL A   1      36.740  33.088  31.083  1.00  0.00    -0.014 A 
ATOM     76  C   UNL A   1      36.930  33.783  29.875  1.00  0.00     0.010 A 
ATOM     77  C   UNL A   1      35.445  33.012  31.628  1.00  0.00     0.010 A 
ATOM     78  C   UNL A   1      35.852  34.403  29.236  1.00  0.00     0.020 A 
ATOM     79  C   UNL A   1      34.359  33.603  30.977  1.00  0.00     0.020 A 
ATOM     80  C   UNL A   1      34.572  34.305  29.789  1.00  0.00     0.054 A 
BRANCH  80  81
ATOM     81  S   UNL A   1      33.179  35.070  28.913  1.00  0.00     0.124 S 
ATOM     82  O   UNL A   1      32.768  34.003  28.006  1.00  0.00    -0.237 OA
ATOM     83  O   UNL A   1      32.250  35.370  30.001  1.00  0.00    -0.237 OA
ATOM     84  O   UNL A   1      33.777  36.240  28.275  1.00  0.00    -0.744 OA
ENDBRANCH  80  81
ENDBRANCH  52  75
BRANCH  64  85
ATOM     85  C   UNL A   1      39.787  33.964  37.303  1.00  0.00    -0.014 A 
ATOM     86  C   UNL A   1      39.000  33.622  38.417  1.00  0.00     0.010 A 
ATOM     87  C   UNL A   1      40.414  35.224  37.269  1.00  0.00     0.010 A 
ATOM     88  C   UNL A   1      38.818  34.535  39.461  1.00  0.00     0.020 A 
ATOM     89  C   UNL A   1      40.260  36.127  38.324  1.00  0.00     0.020 A 
ATOM     90  C   UNL A   1      39.451  35.781  39.408  1.00  0.00     0.054 A 
BRANCH  90  91
ATOM     91  S   UNL A   1      39.236  36.929  40.796  1.00  0.00     0.124 S 
ATOM     92  O   UNL A   1      40.618  37.252  41.140  1.00  0.00    -0.237 OA
ATOM     93  O   UNL A   1      38.467  38.016  40.196  1.00  0.00    -0.237 OA
ATOM     94  O   UNL A   1      38.514  36.139  41.791  1.00  0.00    -0.744 OA
ENDBRANCH  90  91
ENDBRANCH  64  85
ENDBRANCH  38  39
ENDBRANCH  30  33
ENDBRANCH  28  29
ENDBRANCH  27  28
ENDBRANCH   1  27
TORSDOF 17
ENDMDL
MODEL 2
REMARK VINA RESULT:     -10.9      1.370      2.180
REMARK SMILES O=C(C[NH+]1CCN(c2nccc(N3CCCCC3)n2)CC1)NCCCCNC(=O)c1ccc(-c2c3nc(c(-c4ccc(S(=O)(=O)[O-])cc4)c4ccc([nH]4)c(-c4ccc(S(=O)(=O)[O-])cc4)c4nc(c(-c5ccc(S(=O)(=O)[O-])cc5)c5ccc2[nH]5)C=C4)C=C3)cc1
REMARK SMILES IDX 24 1 23 2 22 3 1 4 2 5 3 7 4 8 5 9 21 10 6 12 20 13 7 14
REMARK SMILES IDX 8 15 9 16 19 17 10 18 12 19 11 20 13 21 14 22 18 23 15 24
REMARK SMILES IDX 17 25 16 26 25 27 26 28 27 29 28 30 29 32 30 33 31 34 89 35
REMARK SMILES IDX 32 36 88 37 33 38 34 39 35 40 82 41 36 42 87 43 81 44 83 45
REMARK SMILES IDX 37 46 86 47 80 48 79 49 38 51 68 52 49 53 67 54 50 55 53 56
REMARK SMILES IDX 66 57 84 58 51 59 52 60 65 62 85 63 54 64 39 65 40 66 48 67
REMARK SMILES IDX 41 68 47 69 42 70 43 71 44 72 45 73 46 74 69 75 70 76 78 77
REMARK SMILES IDX 71 78 77 79 72 80 73 81 74 82 75 83 76 84 55 85 56 86 64 87
REMARK SMILES IDX 57 88 63 89 58 90 59 91 60 92 61 93 62 94
REMARK H PARENT 22 6 4 11 27 31 83 50 53 61
REMARK Flexibility Score: inf
ROOT
ATOM      1  C   UNL A   1      40.660  21.383  27.556  1.00  0.00     0.023 C 
ENDROOT
BRANCH   1   2
ATOM      2  C   UNL A   1      40.064  21.683  26.182  1.00  0.00     0.116 C 
BRANCH   2   3
ATOM      3  N   UNL A   1      38.637  21.931  26.231  1.00  0.00    -0.351 N 
ATOM      4  O   UNL A   1      38.040  20.101  24.975  1.00  0.00    -0.269 OA
ATOM      5  C   UNL A   1      37.725  21.096  25.624  1.00  0.00     0.275 C 
ATOM      6  H   UNL A   1      38.309  22.723  26.715  1.00  0.00     0.163 HD
BRANCH   5   7
ATOM      7  C   UNL A   1      36.262  21.531  25.754  1.00  0.00     0.363 C 
BRANCH   7   8
ATOM      8  N   UNL A   1      36.101  22.991  25.950  1.00  0.00    -0.324 N 
ATOM      9  C   UNL A   1      36.511  23.700  24.700  1.00  0.00     0.284 C 
ATOM     10  C   UNL A   1      34.695  23.385  26.257  1.00  0.00     0.284 C 
ATOM     11  H   UNL A   1      36.684  23.248  26.746  1.00  0.00     0.348 HD
ATOM     12  C   UNL A   1      35.556  23.535  23.484  1.00  0.00     0.181 C 
ATOM     13  C   UNL A   1      33.676  23.266  25.100  1.00  0.00     0.181 C 
ATOM     14  N   UNL A   1      34.213  23.878  23.900  1.00  0.00    -0.329 N 
BRANCH  14  15
ATOM     15  C   UNL A   1      33.400  24.605  23.082  1.00  0.00     0.227 A 
ATOM     16  N   UNL A   1      33.639  24.601  21.764  1.00  0.00    -0.221 NA
ATOM     17  N   UNL A   1      32.430  25.329  23.660  1.00  0.00    -0.196 NA
ATOM     18  C   UNL A   1      32.800  25.320  21.003  1.00  0.00     0.119 A 
ATOM     19  C   UNL A   1      31.638  26.085  22.882  1.00  0.00     0.134 A 
ATOM     20  C   UNL A   1      31.771  26.073  21.511  1.00  0.00     0.067 A 
BRANCH  19  21
ATOM     21  N   UNL A   1      30.731  26.930  23.482  1.00  0.00    -0.356 N 
ATOM     22  C   UNL A   1      29.696  26.360  24.336  1.00  0.00     0.118 C 
ATOM     23  C   UNL A   1      30.663  28.339  23.141  1.00  0.00     0.118 C 
ATOM     24  C   UNL A   1      28.307  26.696  23.805  1.00  0.00     0.022 C 
ATOM     25  C   UNL A   1      29.277  28.666  22.580  1.00  0.00     0.022 C 
ATOM     26  C   UNL A   1      28.168  28.190  23.519  1.00  0.00     0.004 C 
ENDBRANCH  19  21
ENDBRANCH  14  15
ENDBRANCH   7   8
ENDBRANCH   5   7
ENDBRANCH   2   3
ENDBRANCH   1   2
BRANCH   1  27
ATOM     27  C   UNL A   1      42.168  21.612  27.673  1.00  0.00     0.023 C 
BRANCH  27  28
ATOM     28  C   UNL A   1      42.606  23.070  27.796  1.00  0.00     0.116 C 
BRANCH  28  29
ATOM     29  N   UNL A   1      42.770  23.730  26.509  1.00  0.00    -0.352 N 
ATOM     30  C   UNL A   1      42.539  25.042  26.166  1.00  0.00     0.251 C 
ATOM     31  H   UNL A   1      43.092  23.154  25.779  1.00  0.00     0.163 HD
ATOM     32  O   UNL A   1      42.616  25.386  24.989  1.00  0.00    -0.269 OA
BRANCH  30  33
ATOM     33  C   UNL A   1      42.164  26.032  27.201  1.00  0.00     0.039 A 
ATOM     34  C   UNL A   1      41.076  25.758  28.035  1.00  0.00     0.014 A 
ATOM     35  C   UNL A   1      42.879  27.222  27.360  1.00  0.00     0.014 A 
ATOM     36  C   UNL A   1      40.754  26.637  29.072  1.00  0.00     0.010 A 
ATOM     37  C   UNL A   1      42.605  28.059  28.441  1.00  0.00     0.010 A 
ATOM     38  C   UNL A   1      41.542  27.775  29.312  1.00  0.00    -0.014 A 
BRANCH  38  39
ATOM     39  C   UNL A   1      41.281  28.666  30.474  1.00  0.00     0.031 A 
ATOM     40  C   UNL A   1      42.093  28.533  31.736  1.00  0.00     0.074 A 
ATOM     41  C   UNL A   1      40.267  29.554  30.420  1.00  0.00     0.049 A 
ATOM     42  N   UNL A   1      41.969  29.176  32.868  1.00  0.00    -0.248 NA
ATOM     43  C   UNL A   1      43.169  27.529  31.731  1.00  0.00     0.031 C 
ATOM     44  C   UNL A   1      39.377  29.756  29.275  1.00  0.00     0.029 A 
ATOM     45  N   UNL A   1      39.808  30.449  31.357  1.00  0.00    -0.354 N 
ATOM     46  C   UNL A   1      42.941  28.651  33.712  1.00  0.00     0.074 A 
ATOM     47  C   UNL A   1      43.609  27.597  32.979  1.00  0.00     0.031 C 
ATOM     48  C   UNL A   1      38.497  30.727  29.566  1.00  0.00     0.029 A 
ATOM     49  C   UNL A   1      38.728  31.187  30.932  1.00  0.00     0.049 A 
ATOM     50  H   UNL A   1      40.213  30.551  32.247  1.00  0.00     0.167 HD
ATOM     51  C   UNL A   1      43.262  29.022  34.975  1.00  0.00     0.031 A 
ATOM     52  C   UNL A   1      37.995  32.122  31.570  1.00  0.00     0.031 A 
ATOM     53  C   UNL A   1      42.597  30.071  35.703  1.00  0.00     0.049 A 
ATOM     54  C   UNL A   1      38.357  32.503  32.980  1.00  0.00     0.074 A 
ATOM     55  C   UNL A   1      42.881  30.551  36.971  1.00  0.00     0.029 A 
ATOM     56  N   UNL A   1      41.513  30.799  35.235  1.00  0.00    -0.354 N 
ATOM     57  N   UNL A   1      39.320  32.036  33.738  1.00  0.00    -0.248 NA
ATOM     58  C   UNL A   1      37.540  33.546  33.616  1.00  0.00     0.031 C 
ATOM     59  C   UNL A   1      41.932  31.529  37.290  1.00  0.00     0.029 A 
ATOM     60  C   UNL A   1      41.100  31.707  36.196  1.00  0.00     0.049 A 
ATOM     61  H   UNL A   1      41.098  30.686  34.349  1.00  0.00     0.167 HD
ATOM     62  C   UNL A   1      39.242  32.748  34.931  1.00  0.00     0.074 A 
ATOM     63  C   UNL A   1      38.148  33.688  34.786  1.00  0.00     0.031 C 
ATOM     64  C   UNL A   1      40.009  32.635  36.043  1.00  0.00     0.031 A 
BRANCH  51  65
ATOM     65  C   UNL A   1      44.386  28.281  35.654  1.00  0.00    -0.014 A 
ATOM     66  C   UNL A   1      45.718  28.726  35.551  1.00  0.00     0.010 A 
ATOM     67  C   UNL A   1      44.106  27.145  36.436  1.00  0.00     0.010 A 
ATOM     68  C   UNL A   1      46.750  28.024  36.178  1.00  0.00     0.020 A 
ATOM     69  C   UNL A   1      45.132  26.458  37.091  1.00  0.00     0.020 A 
ATOM     70  C   UNL A   1      46.451  26.892  36.942  1.00  0.00     0.054 A 
BRANCH  70  71
ATOM     71  S   UNL A   1      47.810  26.010  37.756  1.00  0.00     0.124 S 
ATOM     72  O   UNL A   1      47.236  25.719  39.068  1.00  0.00    -0.237 OA
ATOM     73  O   UNL A   1      48.007  24.853  36.888  1.00  0.00    -0.237 OA
ATOM     74  O   UNL A   1      48.903  26.979  37.758  1.00  0.00    -0.744 OA
ENDBRANCH  70  71
ENDBRANCH  51  65
BRANCH  52  75
ATOM     75  C   UNL A   1      36.846  32.765  30.874  1.00  0.00    -0.014 A 
ATOM     76  C   UNL A   1      35.525  32.375  31.160  1.00  0.00     0.010 A 
ATOM     77  C   UNL A   1      37.067  33.785  29.930  1.00  0.00     0.010 A 
ATOM     78  C   UNL A   1      34.450  32.980  30.503  1.00  0.00     0.020 A 
ATOM     79  C   UNL A   1      35.993  34.414  29.294  1.00  0.00     0.020 A 
ATOM     80  C   UNL A   1      34.691  34.000  29.577  1.00  0.00     0.054 A 
BRANCH  80  81
ATOM     81  S   UNL A   1      33.277  34.809  28.778  1.00  0.00     0.124 S 
ATOM     82  O   UNL A   1      32.430  35.139  29.920  1.00  0.00    -0.237 OA
ATOM     83  O   UNL A   1      33.904  35.945  28.105  1.00  0.00    -0.237 OA
ATOM     84  O   UNL A   1      32.752  33.778  27.886  1.00  0.00    -0.744 OA
ENDBRANCH  80  81
ENDBRANCH  52  75
BRANCH  64  85
ATOM     85  C   UNL A   1      39.720  33.574  37.186  1.00  0.00    -0.014 A 
ATOM     86  C   UNL A   1      38.803  33.236  38.197  1.00  0.00     0.010 A 
ATOM     87  C   UNL A   1      40.421  34.791  37.277  1.00  0.00     0.010 A 
ATOM     88  C   UNL A   1      38.570  34.113  39.261  1.00  0.00     0.020 A 
ATOM     89  C   UNL A   1      40.214  35.656  38.354  1.00  0.00     0.020 A 
ATOM     90  C   UNL A   1      39.278  35.317  39.333  1.00  0.00     0.054 A 
BRANCH  90  91
ATOM     91  S   UNL A   1      38.991  36.415  40.748  1.00  0.00     0.124 S 
ATOM     92  O   UNL A   1      37.983  35.678  41.506  1.00  0.00    -0.237 OA
ATOM     93  O   UNL A   1      40.311  36.492  41.367  1.00  0.00    -0.237 OA
ATOM     94  O   UNL A   1      38.524  37.657  40.134  1.00  0.00    -0.744 OA
ENDBRANCH  90  91
ENDBRANCH  64  85
ENDBRANCH  38  39
ENDBRANCH  30  33
ENDBRANCH  28  29
ENDBRANCH  27  28
ENDBRANCH   1  27
TORSDOF 17
ENDMDL
MODEL 3
REMARK VINA RESULT:     -10.9      6.386     11.947
REMARK SMILES O=C(C[NH+]1CCN(c2nccc(N3CCCCC3)n2)CC1)NCCCCNC(=O)c1ccc(-c2c3nc(c(-c4ccc(S(=O)(=O)[O-])cc4)c4ccc([nH]4)c(-c4ccc(S(=O)(=O)[O-])cc4)c4nc(c(-c5ccc(S(=O)(=O)[O-])cc5)c5ccc2[nH]5)C=C4)C=C3)cc1
REMARK SMILES IDX 24 1 23 2 22 3 1 4 2 5 3 7 4 8 5 9 21 10 6 12 20 13 7 14
REMARK SMILES IDX 8 15 9 16 19 17 10 18 12 19 11 20 13 21 14 22 18 23 15 24
REMARK SMILES IDX 17 25 16 26 25 27 26 28 27 29 28 30 29 32 30 33 31 34 89 35
REMARK SMILES IDX 32 36 88 37 33 38 34 39 35 40 82 41 36 42 87 43 81 44 83 45
REMARK SMILES IDX 37 46 86 47 80 48 79 49 38 51 68 52 49 53 67 54 50 55 53 56
REMARK SMILES IDX 66 57 84 58 51 59 52 60 65 62 85 63 54 64 39 65 40 66 48 67
REMARK SMILES IDX 41 68 47 69 42 70 43 71 44 72 45 73 46 74 69 75 70 76 78 77
REMARK SMILES IDX 71 78 77 79 72 80 73 81 74 82 75 83 76 84 55 85 56 86 64 87
REMARK SMILES IDX 57 88 63 89 58 90 59 91 60 92 61 93 62 94
REMARK H PARENT 22 6 4 11 27 31 83 50 53 61
REMARK Flexibility Score: inf
ROOT
ATOM      1  C   UNL A   1      33.313  28.974  27.564  1.00  0.00     0.023 C 
ENDROOT
BRANCH   1   2
ATOM      2  C   UNL A   1      31.883  29.029  27.029  1.00  0.00     0.116 C 
BRANCH   2   3
ATOM      3  N   UNL A   1      31.506  27.828  26.312  1.00  0.00    -0.351 N 
ATOM      4  O   UNL A   1      31.547  28.783  24.221  1.00  0.00    -0.269 OA
ATOM      5  C   UNL A   1      31.380  27.799  24.940  1.00  0.00     0.275 C 
ATOM      6  H   UNL A   1      31.333  27.004  26.823  1.00  0.00     0.163 HD
BRANCH   5   7
ATOM      7  C   UNL A   1      30.944  26.452  24.358  1.00  0.00     0.363 C 
BRANCH   7   8
ATOM      8  N   UNL A   1      31.864  25.940  23.315  1.00  0.00    -0.324 N 
ATOM      9  C   UNL A   1      33.245  25.857  23.878  1.00  0.00     0.284 C 
ATOM     10  C   UNL A   1      31.489  24.582  22.824  1.00  0.00     0.284 C 
ATOM     11  H   UNL A   1      31.808  26.589  22.529  1.00  0.00     0.348 HD
ATOM     12  C   UNL A   1      33.477  24.744  24.940  1.00  0.00     0.181 C 
ATOM     13  C   UNL A   1      31.698  23.410  23.810  1.00  0.00     0.181 C 
ATOM     14  N   UNL A   1      33.025  23.483  24.393  1.00  0.00    -0.329 N 
BRANCH  14  15
ATOM     15  C   UNL A   1      33.744  22.343  24.597  1.00  0.00     0.227 A 
ATOM     16  N   UNL A   1      35.070  22.437  24.766  1.00  0.00    -0.221 NA
ATOM     17  N   UNL A   1      33.079  21.178  24.565  1.00  0.00    -0.196 NA
ATOM     18  C   UNL A   1      35.727  21.287  24.977  1.00  0.00     0.119 A 
ATOM     19  C   UNL A   1      33.768  20.036  24.723  1.00  0.00     0.134 A 
ATOM     20  C   UNL A   1      35.122  20.055  24.979  1.00  0.00     0.067 A 
BRANCH  19  21
ATOM     21  N   UNL A   1      33.112  18.837  24.557  1.00  0.00    -0.356 N 
ATOM     22  C   UNL A   1      32.743  18.068  25.739  1.00  0.00     0.118 C 
ATOM     23  C   UNL A   1      32.947  18.235  23.247  1.00  0.00     0.118 C 
ATOM     24  C   UNL A   1      33.397  16.691  25.717  1.00  0.00     0.022 C 
ATOM     25  C   UNL A   1      33.632  16.866  23.220  1.00  0.00     0.022 C 
ATOM     26  C   UNL A   1      33.168  15.987  24.380  1.00  0.00     0.004 C 
ENDBRANCH  19  21
ENDBRANCH  14  15
ENDBRANCH   7   8
ENDBRANCH   5   7
ENDBRANCH   2   3
ENDBRANCH   1   2
BRANCH   1  27
ATOM     27  C   UNL A   1      34.147  30.233  27.317  1.00  0.00     0.023 C 
BRANCH  27  28
ATOM     28  C   UNL A   1      35.544  30.231  27.934  1.00  0.00     0.116 C 
BRANCH  28  29
ATOM     29  N   UNL A   1      35.528  30.241  29.390  1.00  0.00    -0.352 N 
ATOM     30  C   UNL A   1      36.498  29.833  30.275  1.00  0.00     0.251 C 
ATOM     31  H   UNL A   1      34.703  30.589  29.799  1.00  0.00     0.163 HD
ATOM     32  O   UNL A   1      36.249  29.802  31.478  1.00  0.00    -0.269 OA
BRANCH  30  33
ATOM     33  C   UNL A   1      37.825  29.399  29.784  1.00  0.00     0.039 A 
ATOM     34  C   UNL A   1      38.144  29.594  28.438  1.00  0.00     0.014 A 
ATOM     35  C   UNL A   1      38.758  28.808  30.641  1.00  0.00     0.014 A 
ATOM     36  C   UNL A   1      39.421  29.268  27.970  1.00  0.00     0.010 A 
ATOM     37  C   UNL A   1      40.053  28.555  30.192  1.00  0.00     0.010 A 
ATOM     38  C   UNL A   1      40.401  28.785  28.852  1.00  0.00    -0.014 A 
BRANCH  38  39
ATOM     39  C   UNL A   1      41.795  28.533  28.396  1.00  0.00     0.031 A 
ATOM     40  C   UNL A   1      42.221  27.152  27.972  1.00  0.00     0.074 A 
ATOM     41  C   UNL A   1      42.698  29.534  28.426  1.00  0.00     0.049 A 
ATOM     42  N   UNL A   1      43.404  26.731  27.605  1.00  0.00    -0.248 NA
ATOM     43  C   UNL A   1      41.187  26.104  27.984  1.00  0.00     0.031 C 
ATOM     44  C   UNL A   1      42.427  30.907  28.855  1.00  0.00     0.029 A 
ATOM     45  N   UNL A   1      44.032  29.547  28.097  1.00  0.00    -0.354 N 
ATOM     46  C   UNL A   1      43.261  25.371  27.353  1.00  0.00     0.074 A 
ATOM     47  C   UNL A   1      41.890  25.027  27.662  1.00  0.00     0.031 C 
ATOM     48  C   UNL A   1      43.550  31.635  28.740  1.00  0.00     0.029 A 
ATOM     49  C   UNL A   1      44.632  30.773  28.275  1.00  0.00     0.049 A 
ATOM     50  H   UNL A   1      44.513  28.756  27.766  1.00  0.00     0.167 HD
ATOM     51  C   UNL A   1      44.181  24.491  26.889  1.00  0.00     0.031 A 
ATOM     52  C   UNL A   1      45.910  31.161  28.094  1.00  0.00     0.031 A 
ATOM     53  C   UNL A   1      45.545  24.833  26.581  1.00  0.00     0.049 A 
ATOM     54  C   UNL A   1      46.919  30.161  27.599  1.00  0.00     0.074 A 
ATOM     55  C   UNL A   1      46.540  24.022  26.062  1.00  0.00     0.029 A 
ATOM     56  N   UNL A   1      46.111  26.087  26.767  1.00  0.00    -0.354 N 
ATOM     57  N   UNL A   1      46.748  28.894  27.307  1.00  0.00    -0.248 NA
ATOM     58  C   UNL A   1      48.291  30.648  27.396  1.00  0.00     0.031 C 
ATOM     59  C   UNL A   1      47.720  24.769  25.989  1.00  0.00     0.029 A 
ATOM     60  C   UNL A   1      47.445  26.064  26.398  1.00  0.00     0.049 A 
ATOM     61  H   UNL A   1      45.633  26.875  27.112  1.00  0.00     0.167 HD
ATOM     62  C   UNL A   1      47.985  28.438  26.860  1.00  0.00     0.074 A 
ATOM     63  C   UNL A   1      48.888  29.570  26.905  1.00  0.00     0.031 C 
ATOM     64  C   UNL A   1      48.337  27.196  26.449  1.00  0.00     0.031 A 
BRANCH  51  65
ATOM     65  C   UNL A   1      43.740  23.063  26.690  1.00  0.00    -0.014 A 
ATOM     66  C   UNL A   1      43.972  22.393  25.473  1.00  0.00     0.010 A 
ATOM     67  C   UNL A   1      43.117  22.367  27.743  1.00  0.00     0.010 A 
ATOM     68  C   UNL A   1      43.549  21.073  25.299  1.00  0.00     0.020 A 
ATOM     69  C   UNL A   1      42.722  21.036  27.583  1.00  0.00     0.020 A 
ATOM     70  C   UNL A   1      42.923  20.403  26.355  1.00  0.00     0.054 A 
BRANCH  70  71
ATOM     71  S   UNL A   1      42.400  18.685  26.105  1.00  0.00     0.124 S 
ATOM     72  O   UNL A   1      43.340  18.230  25.084  1.00  0.00    -0.237 OA
ATOM     73  O   UNL A   1      42.581  18.099  27.430  1.00  0.00    -0.237 OA
ATOM     74  O   UNL A   1      41.012  18.804  25.663  1.00  0.00    -0.744 OA
ENDBRANCH  70  71
ENDBRANCH  51  65
BRANCH  52  75
ATOM     75  C   UNL A   1      46.305  32.568  28.382  1.00  0.00    -0.014 A 
ATOM     76  C   UNL A   1      46.757  32.939  29.661  1.00  0.00     0.010 A 
ATOM     77  C   UNL A   1      46.245  33.545  27.371  1.00  0.00     0.010 A 
ATOM     78  C   UNL A   1      47.125  34.261  29.928  1.00  0.00     0.020 A 
ATOM     79  C   UNL A   1      46.641  34.861  27.625  1.00  0.00     0.020 A 
ATOM     80  C   UNL A   1      47.069  35.213  28.906  1.00  0.00     0.054 A 
BRANCH  80  81
ATOM     81  S   UNL A   1      47.604  36.910  29.261  1.00  0.00     0.124 S 
ATOM     82  O   UNL A   1      46.495  37.696  28.729  1.00  0.00    -0.237 OA
ATOM     83  O   UNL A   1      47.733  36.902  30.717  1.00  0.00    -0.237 OA
ATOM     84  O   UNL A   1      48.865  37.031  28.532  1.00  0.00    -0.744 OA
ENDBRANCH  80  81
ENDBRANCH  52  75
BRANCH  64  85
ATOM     85  C   UNL A   1      49.753  26.995  25.976  1.00  0.00    -0.014 A 
ATOM     86  C   UNL A   1      50.743  26.475  26.829  1.00  0.00     0.010 A 
ATOM     87  C   UNL A   1      50.085  27.279  24.638  1.00  0.00     0.010 A 
ATOM     88  C   UNL A   1      52.045  26.274  26.361  1.00  0.00     0.020 A 
ATOM     89  C   UNL A   1      51.377  27.051  24.158  1.00  0.00     0.020 A 
ATOM     90  C   UNL A   1      52.353  26.562  25.027  1.00  0.00     0.054 A 
BRANCH  90  91
ATOM     91  S   UNL A   1      54.038  26.250  24.433  1.00  0.00     0.124 S 
ATOM     92  O   UNL A   1      54.792  27.323  25.075  1.00  0.00    -0.237 OA
ATOM     93  O   UNL A   1      54.310  24.905  24.934  1.00  0.00    -0.237 OA
ATOM     94  O   UNL A   1      53.919  26.355  22.981  1.00  0.00    -0.744 OA
ENDBRANCH  90  91
ENDBRANCH  64  85
ENDBRANCH  38  39
ENDBRANCH  30  33
ENDBRANCH  28  29
ENDBRANCH  27  28
ENDBRANCH   1  27
TORSDOF 17
ENDMDL
