MODEL 1
REMARK VINA RESULT:     -12.4      0.000      0.000
REMARK SMILES O=C(/C=C\c1ccc(OCc2ccc(Br)cc2)cc1)NCCCCNC(=O)c1ccc(-c2c3nc(c(-c4ccc(S(=O)(=O)[O-])cc4)c4ccc([nH]4)c(-c4ccc(S(=O)(=O)[O-])cc4)c4nc(c(-c5ccc(S(=O)(=O)[O-])cc5)c5ccc2[nH]5)C=C4)C=C3)cc1
REMARK SMILES IDX 22 1 21 2 20 3 1 4 2 5 3 7 4 8 5 9 6 10 19 11 7 12 18 13
REMARK SMILES IDX 8 14 9 15 10 16 11 17 12 18 17 19 13 20 16 21 14 22 15 23
REMARK SMILES IDX 23 24 24 25 25 26 26 27 27 29 28 30 29 31 87 32 30 33 86 34
REMARK SMILES IDX 31 35 32 36 33 37 80 38 34 39 85 40 79 41 81 42 35 43 84 44
REMARK SMILES IDX 78 45 77 46 36 48 66 49 47 50 65 51 48 52 51 53 64 54 82 55
REMARK SMILES IDX 49 56 50 57 63 59 83 60 52 61 37 62 38 63 46 64 39 65 45 66
REMARK SMILES IDX 40 67 41 68 42 69 43 70 44 71 67 72 68 73 76 74 69 75 75 76
REMARK SMILES IDX 70 77 71 78 72 79 73 80 74 81 53 82 54 83 62 84 55 85 61 86
REMARK SMILES IDX 56 87 57 88 58 89 59 90 60 91
REMARK H PARENT 20 6 25 28 81 47 51 58
REMARK Flexibility Score: inf
ROOT
ATOM      1  C   UNL A   1      35.206  29.940  27.307  1.00  0.00     0.023 C 
ENDROOT
BRANCH   1   2
ATOM      2  C   UNL A   1      34.408  28.714  26.833  1.00  0.00     0.116 C 
BRANCH   2   3
ATOM      3  N   UNL A   1      33.441  28.955  25.772  1.00  0.00    -0.353 N 
ATOM      4  O   UNL A   1      31.710  29.336  27.215  1.00  0.00    -0.270 OA
ATOM      5  C   UNL A   1      32.146  29.287  26.066  1.00  0.00     0.243 C 
ATOM      6  H   UNL A   1      33.721  28.877  24.830  1.00  0.00     0.163 HD
BRANCH   5   7
ATOM      7  C   UNL A   1      31.220  29.676  24.962  1.00  0.00     0.072 C 
ATOM      8  C   UNL A   1      30.622  29.039  23.943  1.00  0.00     0.014 C 
BRANCH   8   9
ATOM      9  C   UNL A   1      30.702  27.631  23.571  1.00  0.00    -0.025 A 
ATOM     10  C   UNL A   1      31.408  27.270  22.417  1.00  0.00     0.012 A 
ATOM     11  C   UNL A   1      30.083  26.645  24.340  1.00  0.00     0.012 A 
ATOM     12  C   UNL A   1      31.621  25.925  22.126  1.00  0.00     0.047 A 
ATOM     13  C   UNL A   1      30.303  25.300  24.054  1.00  0.00     0.047 A 
ATOM     14  C   UNL A   1      31.153  24.950  23.006  1.00  0.00     0.119 A 
BRANCH  14  15
ATOM     15  O   UNL A   1      31.706  23.711  22.837  1.00  0.00    -0.489 OA
BRANCH  15  16
ATOM     16  C   UNL A   1      32.968  23.495  23.476  1.00  0.00     0.265 C 
BRANCH  16  17
ATOM     17  C   UNL A   1      33.315  22.057  23.839  1.00  0.00    -0.011 A 
ATOM     18  C   UNL A   1      34.845  21.578  24.689  1.00  0.00     0.008 A 
ATOM     19  C   UNL A   1      32.199  20.769  23.242  1.00  0.00     0.008 A 
ATOM     20  C   UNL A   1      35.208  19.836  25.016  1.00  0.00     0.016 A 
ATOM     21  C   UNL A   1      32.543  19.027  23.589  1.00  0.00     0.016 A 
ATOM     22  C   UNL A   1      34.067  18.566  24.443  1.00  0.00     0.017 A 
ATOM     23  Br  UNL A   1      34.547  16.742  24.589  1.00  0.00    -0.051 Br
ENDBRANCH  16  17
ENDBRANCH  15  16
ENDBRANCH  14  15
ENDBRANCH   8   9
ENDBRANCH   5   7
ENDBRANCH   2   3
ENDBRANCH   1   2
BRANCH   1  24
ATOM     24  C   UNL A   1      34.472  31.325  28.010  1.00  0.00     0.023 C 
BRANCH  24  25
ATOM     25  C   UNL A   1      33.030  32.860  27.422  1.00  0.00     0.116 C 
BRANCH  25  26
ATOM     26  N   UNL A   1      32.713  34.336  27.930  1.00  0.00    -0.352 N 
ATOM     27  C   UNL A   1      33.361  35.065  28.910  1.00  0.00     0.251 C 
ATOM     28  H   UNL A   1      31.958  34.788  27.489  1.00  0.00     0.163 HD
ATOM     29  O   UNL A   1      32.968  36.187  29.214  1.00  0.00    -0.269 OA
BRANCH  27  30
ATOM     30  C   UNL A   1      34.515  34.468  29.623  1.00  0.00     0.039 A 
ATOM     31  C   UNL A   1      35.793  34.611  29.083  1.00  0.00     0.014 A 
ATOM     32  C   UNL A   1      34.335  33.805  30.843  1.00  0.00     0.014 A 
ATOM     33  C   UNL A   1      36.892  34.092  29.770  1.00  0.00     0.010 A 
ATOM     34  C   UNL A   1      35.440  33.392  31.579  1.00  0.00     0.010 A 
ATOM     35  C   UNL A   1      36.725  33.476  31.022  1.00  0.00    -0.014 A 
BRANCH  35  36
ATOM     36  C   UNL A   1      37.855  32.771  31.679  1.00  0.00     0.031 A 
ATOM     37  C   UNL A   1      38.313  33.255  33.035  1.00  0.00     0.074 A 
ATOM     38  C   UNL A   1      38.447  31.712  31.093  1.00  0.00     0.049 A 
ATOM     39  N   UNL A   1      39.268  32.794  33.800  1.00  0.00    -0.248 NA
ATOM     40  C   UNL A   1      37.621  34.431  33.594  1.00  0.00     0.031 C 
ATOM     41  C   UNL A   1      38.100  31.166  29.778  1.00  0.00     0.029 A 
ATOM     42  N   UNL A   1      39.457  30.893  31.533  1.00  0.00    -0.354 N 
ATOM     43  C   UNL A   1      39.299  33.636  34.908  1.00  0.00     0.074 A 
ATOM     44  C   UNL A   1      38.324  34.675  34.687  1.00  0.00     0.031 C 
ATOM     45  C   UNL A   1      38.855  30.080  29.538  1.00  0.00     0.029 A 
ATOM     46  C   UNL A   1      39.763  29.871  30.663  1.00  0.00     0.049 A 
ATOM     47  H   UNL A   1      39.919  31.024  32.392  1.00  0.00     0.167 HD
ATOM     48  C   UNL A   1      40.048  33.536  36.031  1.00  0.00     0.031 A 
ATOM     49  C   UNL A   1      40.670  28.878  30.768  1.00  0.00     0.031 A 
ATOM     50  C   UNL A   1      40.993  32.479  36.256  1.00  0.00     0.049 A 
ATOM     51  C   UNL A   1      41.502  28.793  32.022  1.00  0.00     0.074 A 
ATOM     52  C   UNL A   1      41.776  32.247  37.372  1.00  0.00     0.029 A 
ATOM     53  N   UNL A   1      41.277  31.472  35.346  1.00  0.00    -0.354 N 
ATOM     54  N   UNL A   1      41.477  29.567  33.083  1.00  0.00    -0.248 NA
ATOM     55  C   UNL A   1      42.473  27.693  32.102  1.00  0.00     0.031 C 
ATOM     56  C   UNL A   1      42.579  31.134  37.111  1.00  0.00     0.029 A 
ATOM     57  C   UNL A   1      42.244  30.630  35.863  1.00  0.00     0.049 A 
ATOM     58  H   UNL A   1      40.854  31.372  34.463  1.00  0.00     0.167 HD
ATOM     59  C   UNL A   1      42.407  29.030  33.967  1.00  0.00     0.074 A 
ATOM     60  C   UNL A   1      42.961  27.855  33.324  1.00  0.00     0.031 C 
ATOM     61  C   UNL A   1      42.772  29.466  35.199  1.00  0.00     0.031 A 
BRANCH  48  62
ATOM     62  C   UNL A   1      39.876  34.600  37.085  1.00  0.00    -0.014 A 
ATOM     63  C   UNL A   1      40.554  35.831  37.002  1.00  0.00     0.010 A 
ATOM     64  C   UNL A   1      39.006  34.374  38.166  1.00  0.00     0.010 A 
ATOM     65  C   UNL A   1      40.399  36.796  38.001  1.00  0.00     0.020 A 
ATOM     66  C   UNL A   1      38.820  35.350  39.150  1.00  0.00     0.020 A 
ATOM     67  C   UNL A   1      39.531  36.549  39.069  1.00  0.00     0.054 A 
BRANCH  67  68
ATOM     68  S   UNL A   1      39.324  37.832  40.334  1.00  0.00     0.124 S 
ATOM     69  O   UNL A   1      38.246  38.642  39.770  1.00  0.00    -0.237 OA
ATOM     70  O   UNL A   1      38.971  37.055  41.520  1.00  0.00    -0.237 OA
ATOM     71  O   UNL A   1      40.630  38.483  40.385  1.00  0.00    -0.744 OA
ENDBRANCH  67  68
ENDBRANCH  48  62
BRANCH  49  72
ATOM     72  C   UNL A   1      40.828  27.881  29.669  1.00  0.00    -0.014 A 
ATOM     73  C   UNL A   1      39.912  26.825  29.513  1.00  0.00     0.010 A 
ATOM     74  C   UNL A   1      41.905  27.982  28.769  1.00  0.00     0.010 A 
ATOM     75  C   UNL A   1      40.082  25.879  28.495  1.00  0.00     0.020 A 
ATOM     76  C   UNL A   1      42.060  27.057  27.731  1.00  0.00     0.020 A 
ATOM     77  C   UNL A   1      41.153  26.004  27.608  1.00  0.00     0.054 A 
BRANCH  77  78
ATOM     78  S   UNL A   1      41.329  24.791  26.268  1.00  0.00     0.124 S 
ATOM     79  O   UNL A   1      41.474  25.650  25.096  1.00  0.00    -0.237 OA
ATOM     80  O   UNL A   1      42.526  24.055  26.666  1.00  0.00    -0.237 OA
ATOM     81  O   UNL A   1      40.086  24.026  26.334  1.00  0.00    -0.744 OA
ENDBRANCH  77  78
ENDBRANCH  49  72
BRANCH  61  82
ATOM     82  C   UNL A   1      43.791  28.650  35.948  1.00  0.00    -0.014 A 
ATOM     83  C   UNL A   1      43.407  27.569  36.759  1.00  0.00     0.010 A 
ATOM     84  C   UNL A   1      45.160  28.931  35.777  1.00  0.00     0.010 A 
ATOM     85  C   UNL A   1      44.373  26.801  37.412  1.00  0.00     0.020 A 
ATOM     86  C   UNL A   1      46.129  28.146  36.401  1.00  0.00     0.020 A 
ATOM     87  C   UNL A   1      45.729  27.093  37.227  1.00  0.00     0.054 A 
BRANCH  87  88
ATOM     88  S   UNL A   1      46.964  26.052  38.049  1.00  0.00     0.124 S 
ATOM     89  O   UNL A   1      46.595  26.196  39.454  1.00  0.00    -0.237 OA
ATOM     90  O   UNL A   1      46.712  24.737  37.464  1.00  0.00    -0.237 OA
ATOM     91  O   UNL A   1      48.238  26.661  37.673  1.00  0.00    -0.744 OA
ENDBRANCH  87  88
ENDBRANCH  61  82
ENDBRANCH  35  36
ENDBRANCH  27  30
ENDBRANCH  25  26
ENDBRANCH  24  25
ENDBRANCH   1  24
TORSDOF 18
ENDMDL
MODEL 2
REMARK VINA RESULT:     -12.0      2.299      3.098
REMARK SMILES O=C(/C=C\c1ccc(OCc2ccc(Br)cc2)cc1)NCCCCNC(=O)c1ccc(-c2c3nc(c(-c4ccc(S(=O)(=O)[O-])cc4)c4ccc([nH]4)c(-c4ccc(S(=O)(=O)[O-])cc4)c4nc(c(-c5ccc(S(=O)(=O)[O-])cc5)c5ccc2[nH]5)C=C4)C=C3)cc1
REMARK SMILES IDX 22 1 21 2 20 3 1 4 2 5 3 7 4 8 5 9 6 10 19 11 7 12 18 13
REMARK SMILES IDX 8 14 9 15 10 16 11 17 12 18 17 19 13 20 16 21 14 22 15 23
REMARK SMILES IDX 23 24 24 25 25 26 26 27 27 29 28 30 29 31 87 32 30 33 86 34
REMARK SMILES IDX 31 35 32 36 33 37 80 38 34 39 85 40 79 41 81 42 35 43 84 44
REMARK SMILES IDX 78 45 77 46 36 48 66 49 47 50 65 51 48 52 51 53 64 54 82 55
REMARK SMILES IDX 49 56 50 57 63 59 83 60 52 61 37 62 38 63 46 64 39 65 45 66
REMARK SMILES IDX 40 67 41 68 42 69 43 70 44 71 67 72 68 73 76 74 69 75 75 76
REMARK SMILES IDX 70 77 71 78 72 79 73 80 74 81 53 82 54 83 62 84 55 85 61 86
REMARK SMILES IDX 56 87 57 88 58 89 59 90 60 91
REMARK H PARENT 20 6 25 28 81 47 51 58
REMARK Flexibility Score: inf
ROOT
ATOM      1  C   UNL A   1      35.273  31.788  28.752  1.00  0.00     0.023 C 
ENDROOT
BRANCH   1   2
ATOM      2  C   UNL A   1      35.015  30.664  27.735  1.00  0.00     0.116 C 
BRANCH   2   3
ATOM      3  N   UNL A   1      33.834  29.848  27.973  1.00  0.00    -0.353 N 
ATOM      4  O   UNL A   1      32.946  30.241  25.903  1.00  0.00    -0.270 OA
ATOM      5  C   UNL A   1      32.891  29.677  26.995  1.00  0.00     0.243 C 
ATOM      6  H   UNL A   1      33.710  29.415  28.849  1.00  0.00     0.163 HD
BRANCH   5   7
ATOM      7  C   UNL A   1      31.772  28.714  27.216  1.00  0.00     0.072 C 
ATOM      8  C   UNL A   1      31.527  27.437  26.882  1.00  0.00     0.014 C 
BRANCH   8   9
ATOM      9  C   UNL A   1      32.366  26.510  26.131  1.00  0.00    -0.025 A 
ATOM     10  C   UNL A   1      32.929  26.928  24.919  1.00  0.00     0.012 A 
ATOM     11  C   UNL A   1      32.609  25.216  26.596  1.00  0.00     0.012 A 
ATOM     12  C   UNL A   1      33.849  26.114  24.263  1.00  0.00     0.047 A 
ATOM     13  C   UNL A   1      33.535  24.405  25.944  1.00  0.00     0.047 A 
ATOM     14  C   UNL A   1      34.222  24.899  24.838  1.00  0.00     0.119 A 
BRANCH  14  15
ATOM     15  O   UNL A   1      35.365  24.350  24.327  1.00  0.00    -0.489 OA
BRANCH  15  16
ATOM     16  C   UNL A   1      35.717  23.056  24.827  1.00  0.00     0.265 C 
BRANCH  16  17
ATOM     17  C   UNL A   1      37.100  22.913  25.448  1.00  0.00    -0.011 A 
ATOM     18  C   UNL A   1      38.101  21.404  25.332  1.00  0.00     0.008 A 
ATOM     19  C   UNL A   1      37.679  24.278  26.480  1.00  0.00     0.008 A 
ATOM     20  C   UNL A   1      39.705  21.299  26.163  1.00  0.00     0.016 A 
ATOM     21  C   UNL A   1      39.293  24.189  27.292  1.00  0.00     0.016 A 
ATOM     22  C   UNL A   1      40.283  22.683  27.161  1.00  0.00     0.017 A 
ATOM     23  Br  UNL A   1      41.850  22.494  28.205  1.00  0.00    -0.051 Br
ENDBRANCH  16  17
ENDBRANCH  15  16
ENDBRANCH  14  15
ENDBRANCH   8   9
ENDBRANCH   5   7
ENDBRANCH   2   3
ENDBRANCH   1   2
BRANCH   1  24
ATOM     24  C   UNL A   1      34.958  33.445  28.421  1.00  0.00     0.023 C 
BRANCH  24  25
ATOM     25  C   UNL A   1      33.467  34.946  28.974  1.00  0.00     0.116 C 
BRANCH  25  26
ATOM     26  N   UNL A   1      32.627  35.241  30.294  1.00  0.00    -0.352 N 
ATOM     27  C   UNL A   1      32.979  34.995  31.608  1.00  0.00     0.251 C 
ATOM     28  H   UNL A   1      31.743  35.651  30.157  1.00  0.00     0.163 HD
ATOM     29  O   UNL A   1      32.198  35.249  32.520  1.00  0.00    -0.269 OA
BRANCH  27  30
ATOM     30  C   UNL A   1      34.296  34.386  31.912  1.00  0.00     0.039 A 
ATOM     31  C   UNL A   1      34.359  33.026  32.219  1.00  0.00     0.014 A 
ATOM     32  C   UNL A   1      35.467  35.150  31.852  1.00  0.00     0.014 A 
ATOM     33  C   UNL A   1      35.599  32.433  32.462  1.00  0.00     0.010 A 
ATOM     34  C   UNL A   1      36.707  34.533  31.980  1.00  0.00     0.010 A 
ATOM     35  C   UNL A   1      36.783  33.181  32.346  1.00  0.00    -0.014 A 
BRANCH  35  36
ATOM     36  C   UNL A   1      38.087  32.610  32.768  1.00  0.00     0.031 A 
ATOM     37  C   UNL A   1      38.562  32.872  34.179  1.00  0.00     0.074 A 
ATOM     38  C   UNL A   1      38.822  31.861  31.924  1.00  0.00     0.049 A 
ATOM     39  N   UNL A   1      39.658  32.472  34.771  1.00  0.00    -0.248 NA
ATOM     40  C   UNL A   1      37.704  33.717  35.028  1.00  0.00     0.031 C 
ATOM     41  C   UNL A   1      38.472  31.555  30.535  1.00  0.00     0.029 A 
ATOM     42  N   UNL A   1      40.013  31.203  32.115  1.00  0.00    -0.354 N 
ATOM     43  C   UNL A   1      39.622  33.036  36.044  1.00  0.00     0.074 A 
ATOM     44  C   UNL A   1      38.442  33.861  36.115  1.00  0.00     0.031 C 
ATOM     45  C   UNL A   1      39.405  30.739  30.014  1.00  0.00     0.029 A 
ATOM     46  C   UNL A   1      40.436  30.489  31.017  1.00  0.00     0.049 A 
ATOM     47  H   UNL A   1      40.517  31.240  32.960  1.00  0.00     0.167 HD
ATOM     48  C   UNL A   1      40.477  32.855  37.077  1.00  0.00     0.031 A 
ATOM     49  C   UNL A   1      41.529  29.719  30.846  1.00  0.00     0.031 A 
ATOM     50  C   UNL A   1      41.632  32.005  37.006  1.00  0.00     0.049 A 
ATOM     51  C   UNL A   1      42.475  29.542  32.007  1.00  0.00     0.074 A 
ATOM     52  C   UNL A   1      42.545  31.709  38.001  1.00  0.00     0.029 A 
ATOM     53  N   UNL A   1      42.026  31.310  35.873  1.00  0.00    -0.354 N 
ATOM     54  N   UNL A   1      42.393  30.039  33.220  1.00  0.00    -0.248 NA
ATOM     55  C   UNL A   1      43.649  28.688  31.783  1.00  0.00     0.031 C 
ATOM     56  C   UNL A   1      43.527  30.881  37.451  1.00  0.00     0.029 A 
ATOM     57  C   UNL A   1      43.186  30.605  36.135  1.00  0.00     0.049 A 
ATOM     58  H   UNL A   1      41.551  31.317  35.011  1.00  0.00     0.167 HD
ATOM     59  C   UNL A   1      43.490  29.535  33.910  1.00  0.00     0.074 A 
ATOM     60  C   UNL A   1      44.206  28.679  32.986  1.00  0.00     0.031 C 
ATOM     61  C   UNL A   1      43.873  29.758  35.193  1.00  0.00     0.031 A 
BRANCH  48  62
ATOM     62  C   UNL A   1      40.193  33.598  38.358  1.00  0.00    -0.014 A 
ATOM     63  C   UNL A   1      39.417  33.025  39.383  1.00  0.00     0.010 A 
ATOM     64  C   UNL A   1      40.730  34.884  38.549  1.00  0.00     0.010 A 
ATOM     65  C   UNL A   1      39.146  33.739  40.553  1.00  0.00     0.020 A 
ATOM     66  C   UNL A   1      40.491  35.589  39.733  1.00  0.00     0.020 A 
ATOM     67  C   UNL A   1      39.687  35.017  40.721  1.00  0.00     0.054 A 
BRANCH  67  68
ATOM     68  S   UNL A   1      39.346  35.909  42.263  1.00  0.00     0.124 S 
ATOM     69  O   UNL A   1      37.953  35.549  42.519  1.00  0.00    -0.237 OA
ATOM     70  O   UNL A   1      40.322  35.335  43.185  1.00  0.00    -0.237 OA
ATOM     71  O   UNL A   1      39.572  37.309  41.912  1.00  0.00    -0.744 OA
ENDBRANCH  67  68
ENDBRANCH  48  62
BRANCH  49  72
ATOM     72  C   UNL A   1      41.782  29.047  29.538  1.00  0.00    -0.014 A 
ATOM     73  C   UNL A   1      42.466  29.710  28.503  1.00  0.00     0.010 A 
ATOM     74  C   UNL A   1      41.334  27.731  29.317  1.00  0.00     0.010 A 
ATOM     75  C   UNL A   1      42.677  29.082  27.270  1.00  0.00     0.020 A 
ATOM     76  C   UNL A   1      41.570  27.088  28.098  1.00  0.00     0.020 A 
ATOM     77  C   UNL A   1      42.230  27.773  27.077  1.00  0.00     0.054 A 
BRANCH  77  78
ATOM     78  S   UNL A   1      42.553  26.961  25.485  1.00  0.00     0.124 S 
ATOM     79  O   UNL A   1      43.820  26.282  25.740  1.00  0.00    -0.237 OA
ATOM     80  O   UNL A   1      41.388  26.094  25.333  1.00  0.00    -0.237 OA
ATOM     81  O   UNL A   1      42.619  28.075  24.541  1.00  0.00    -0.744 OA
ENDBRANCH  77  78
ENDBRANCH  49  72
BRANCH  61  82
ATOM     82  C   UNL A   1      45.100  29.038  35.684  1.00  0.00    -0.014 A 
ATOM     83  C   UNL A   1      46.370  29.635  35.626  1.00  0.00     0.010 A 
ATOM     84  C   UNL A   1      44.963  27.769  36.279  1.00  0.00     0.010 A 
ATOM     85  C   UNL A   1      47.488  28.964  36.125  1.00  0.00     0.020 A 
ATOM     86  C   UNL A   1      46.071  27.110  36.810  1.00  0.00     0.020 A 
ATOM     87  C   UNL A   1      47.330  27.705  36.717  1.00  0.00     0.054 A 
BRANCH  87  88
ATOM     88  S   UNL A   1      48.790  26.877  37.400  1.00  0.00     0.124 S 
ATOM     89  O   UNL A   1      48.199  26.009  38.415  1.00  0.00    -0.237 OA
ATOM     90  O   UNL A   1      49.344  26.193  36.233  1.00  0.00    -0.237 OA
ATOM     91  O   UNL A   1      49.604  27.975  37.916  1.00  0.00    -0.744 OA
ENDBRANCH  87  88
ENDBRANCH  61  82
ENDBRANCH  35  36
ENDBRANCH  27  30
ENDBRANCH  25  26
ENDBRANCH  24  25
ENDBRANCH   1  24
TORSDOF 18
ENDMDL
MODEL 3
REMARK VINA RESULT:     -12.0      5.622      9.173
REMARK SMILES O=C(/C=C\c1ccc(OCc2ccc(Br)cc2)cc1)NCCCCNC(=O)c1ccc(-c2c3nc(c(-c4ccc(S(=O)(=O)[O-])cc4)c4ccc([nH]4)c(-c4ccc(S(=O)(=O)[O-])cc4)c4nc(c(-c5ccc(S(=O)(=O)[O-])cc5)c5ccc2[nH]5)C=C4)C=C3)cc1
REMARK SMILES IDX 22 1 21 2 20 3 1 4 2 5 3 7 4 8 5 9 6 10 19 11 7 12 18 13
REMARK SMILES IDX 8 14 9 15 10 16 11 17 12 18 17 19 13 20 16 21 14 22 15 23
REMARK SMILES IDX 23 24 24 25 25 26 26 27 27 29 28 30 29 31 87 32 30 33 86 34
REMARK SMILES IDX 31 35 32 36 33 37 80 38 34 39 85 40 79 41 81 42 35 43 84 44
REMARK SMILES IDX 78 45 77 46 36 48 66 49 47 50 65 51 48 52 51 53 64 54 82 55
REMARK SMILES IDX 49 56 50 57 63 59 83 60 52 61 37 62 38 63 46 64 39 65 45 66
REMARK SMILES IDX 40 67 41 68 42 69 43 70 44 71 67 72 68 73 76 74 69 75 75 76
REMARK SMILES IDX 70 77 71 78 72 79 73 80 74 81 53 82 54 83 62 84 55 85 61 86
REMARK SMILES IDX 56 87 57 88 58 89 59 90 60 91
REMARK H PARENT 20 6 25 28 81 47 51 58
REMARK Flexibility Score: inf
ROOT
ATOM      1  C   UNL A   1      38.306  33.477  29.225  1.00  0.00     0.023 C 
ENDROOT
BRANCH   1   2
ATOM      2  C   UNL A   1      39.251  34.626  29.616  1.00  0.00     0.116 C 
BRANCH   2   3
ATOM      3  N   UNL A   1      39.940  35.286  28.516  1.00  0.00    -0.353 N 
ATOM      4  O   UNL A   1      41.946  35.367  29.610  1.00  0.00    -0.270 OA
ATOM      5  C   UNL A   1      41.275  35.577  28.601  1.00  0.00     0.243 C 
ATOM      6  H   UNL A   1      39.440  35.527  27.703  1.00  0.00     0.163 HD
BRANCH   5   7
ATOM      7  C   UNL A   1      41.986  36.113  27.403  1.00  0.00     0.072 C 
ATOM      8  C   UNL A   1      43.129  35.827  26.760  1.00  0.00     0.014 C 
BRANCH   8   9
ATOM      9  C   UNL A   1      44.120  34.802  27.066  1.00  0.00    -0.025 A 
ATOM     10  C   UNL A   1      43.734  33.456  27.057  1.00  0.00     0.012 A 
ATOM     11  C   UNL A   1      45.439  35.142  27.373  1.00  0.00     0.012 A 
ATOM     12  C   UNL A   1      44.695  32.458  27.200  1.00  0.00     0.047 A 
ATOM     13  C   UNL A   1      46.400  34.143  27.508  1.00  0.00     0.047 A 
ATOM     14  C   UNL A   1      46.038  32.810  27.322  1.00  0.00     0.119 A 
BRANCH  14  15
ATOM     15  O   UNL A   1      46.922  31.792  27.098  1.00  0.00    -0.489 OA
BRANCH  15  16
ATOM     16  C   UNL A   1      46.774  30.638  27.931  1.00  0.00     0.265 C 
BRANCH  16  17
ATOM     17  C   UNL A   1      46.542  29.308  27.227  1.00  0.00    -0.011 A 
ATOM     18  C   UNL A   1      44.901  28.697  26.751  1.00  0.00     0.008 A 
ATOM     19  C   UNL A   1      47.980  28.236  27.007  1.00  0.00     0.008 A 
ATOM     20  C   UNL A   1      44.714  27.070  25.981  1.00  0.00     0.016 A 
ATOM     21  C   UNL A   1      47.802  26.620  26.214  1.00  0.00     0.016 A 
ATOM     22  C   UNL A   1      46.163  26.028  25.738  1.00  0.00     0.017 A 
ATOM     23  Br  UNL A   1      45.944  24.247  25.138  1.00  0.00    -0.051 Br
ENDBRANCH  16  17
ENDBRANCH  15  16
ENDBRANCH  14  15
ENDBRANCH   8   9
ENDBRANCH   5   7
ENDBRANCH   2   3
ENDBRANCH   1   2
BRANCH   1  24
ATOM     24  C   UNL A   1      36.605  33.669  29.074  1.00  0.00     0.023 C 
BRANCH  24  25
ATOM     25  C   UNL A   1      34.812  32.451  29.363  1.00  0.00     0.116 C 
BRANCH  25  26
ATOM     26  N   UNL A   1      34.100  31.308  28.515  1.00  0.00    -0.352 N 
ATOM     27  C   UNL A   1      34.646  30.138  28.021  1.00  0.00     0.251 C 
ATOM     28  H   UNL A   1      33.147  31.452  28.316  1.00  0.00     0.163 HD
ATOM     29  O   UNL A   1      33.968  29.369  27.347  1.00  0.00    -0.269 OA
BRANCH  27  30
ATOM     30  C   UNL A   1      36.074  29.831  28.278  1.00  0.00     0.039 A 
ATOM     31  C   UNL A   1      37.010  30.067  27.270  1.00  0.00     0.014 A 
ATOM     32  C   UNL A   1      36.488  29.352  29.526  1.00  0.00     0.014 A 
ATOM     33  C   UNL A   1      38.362  29.825  27.518  1.00  0.00     0.010 A 
ATOM     34  C   UNL A   1      37.844  29.222  29.806  1.00  0.00     0.010 A 
ATOM     35  C   UNL A   1      38.791  29.398  28.786  1.00  0.00    -0.014 A 
BRANCH  35  36
ATOM     36  C   UNL A   1      40.196  28.973  29.011  1.00  0.00     0.031 A 
ATOM     37  C   UNL A   1      41.142  29.946  29.675  1.00  0.00     0.074 A 
ATOM     38  C   UNL A   1      40.615  27.745  28.650  1.00  0.00     0.049 A 
ATOM     39  N   UNL A   1      42.405  29.796  29.979  1.00  0.00    -0.248 NA
ATOM     40  C   UNL A   1      40.603  31.274  30.019  1.00  0.00     0.031 C 
ATOM     41  C   UNL A   1      39.795  26.728  27.987  1.00  0.00     0.029 A 
ATOM     42  N   UNL A   1      41.835  27.134  28.805  1.00  0.00    -0.354 N 
ATOM     43  C   UNL A   1      42.806  31.012  30.526  1.00  0.00     0.074 A 
ATOM     44  C   UNL A   1      41.681  31.911  30.445  1.00  0.00     0.031 C 
ATOM     45  C   UNL A   1      40.522  25.608  27.829  1.00  0.00     0.029 A 
ATOM     46  C   UNL A   1      41.868  25.836  28.348  1.00  0.00     0.049 A 
ATOM     47  H   UNL A   1      42.613  27.583  29.206  1.00  0.00     0.167 HD
ATOM     48  C   UNL A   1      43.995  31.344  31.080  1.00  0.00     0.031 A 
ATOM     49  C   UNL A   1      42.872  24.934  28.353  1.00  0.00     0.031 A 
ATOM     50  C   UNL A   1      45.098  30.431  31.185  1.00  0.00     0.049 A 
ATOM     51  C   UNL A   1      44.192  25.330  28.964  1.00  0.00     0.074 A 
ATOM     52  C   UNL A   1      46.335  30.639  31.766  1.00  0.00     0.029 A 
ATOM     53  N   UNL A   1      45.091  29.131  30.701  1.00  0.00    -0.354 N 
ATOM     54  N   UNL A   1      44.532  26.467  29.526  1.00  0.00    -0.248 NA
ATOM     55  C   UNL A   1      45.256  24.318  28.958  1.00  0.00     0.031 C 
ATOM     56  C   UNL A   1      47.098  29.483  31.579  1.00  0.00     0.029 A 
ATOM     57  C   UNL A   1      46.312  28.532  30.946  1.00  0.00     0.049 A 
ATOM     58  H   UNL A   1      44.329  28.700  30.250  1.00  0.00     0.167 HD
ATOM     59  C   UNL A   1      45.841  26.296  29.965  1.00  0.00     0.074 A 
ATOM     60  C   UNL A   1      46.221  24.941  29.622  1.00  0.00     0.031 C 
ATOM     61  C   UNL A   1      46.658  27.178  30.595  1.00  0.00     0.031 A 
BRANCH  48  62
ATOM     62  C   UNL A   1      44.157  32.749  31.601  1.00  0.00    -0.014 A 
ATOM     63  C   UNL A   1      43.767  33.097  32.908  1.00  0.00     0.010 A 
ATOM     64  C   UNL A   1      44.727  33.735  30.776  1.00  0.00     0.010 A 
ATOM     65  C   UNL A   1      43.904  34.411  33.364  1.00  0.00     0.020 A 
ATOM     66  C   UNL A   1      44.898  35.043  31.239  1.00  0.00     0.020 A 
ATOM     67  C   UNL A   1      44.470  35.376  32.525  1.00  0.00     0.054 A 
BRANCH  67  68
ATOM     68  S   UNL A   1      44.666  37.066  33.154  1.00  0.00     0.124 S 
ATOM     69  O   UNL A   1      43.528  37.750  32.541  1.00  0.00    -0.237 OA
ATOM     70  O   UNL A   1      44.580  36.880  34.600  1.00  0.00    -0.237 OA
ATOM     71  O   UNL A   1      45.977  37.473  32.657  1.00  0.00    -0.744 OA
ENDBRANCH  67  68
ENDBRANCH  48  62
BRANCH  49  72
ATOM     72  C   UNL A   1      42.666  23.573  27.779  1.00  0.00    -0.014 A 
ATOM     73  C   UNL A   1      42.528  23.386  26.391  1.00  0.00     0.010 A 
ATOM     74  C   UNL A   1      42.604  22.448  28.622  1.00  0.00     0.010 A 
ATOM     75  C   UNL A   1      42.310  22.108  25.862  1.00  0.00     0.020 A 
ATOM     76  C   UNL A   1      42.418  21.166  28.095  1.00  0.00     0.020 A 
ATOM     77  C   UNL A   1      42.260  21.006  26.719  1.00  0.00     0.054 A 
BRANCH  77  78
ATOM     78  S   UNL A   1      42.021  19.352  26.007  1.00  0.00     0.124 S 
ATOM     79  O   UNL A   1      42.395  18.484  27.119  1.00  0.00    -0.237 OA
ATOM     80  O   UNL A   1      40.602  19.362  25.661  1.00  0.00    -0.237 OA
ATOM     81  O   UNL A   1      42.933  19.336  24.865  1.00  0.00    -0.744 OA
ENDBRANCH  77  78
ENDBRANCH  49  72
BRANCH  61  82
ATOM     82  C   UNL A   1      48.027  26.695  30.988  1.00  0.00    -0.014 A 
ATOM     83  C   UNL A   1      49.137  26.881  30.146  1.00  0.00     0.010 A 
ATOM     84  C   UNL A   1      48.215  26.108  32.253  1.00  0.00     0.010 A 
ATOM     85  C   UNL A   1      50.405  26.460  30.550  1.00  0.00     0.020 A 
ATOM     86  C   UNL A   1      49.486  25.717  32.675  1.00  0.00     0.020 A 
ATOM     87  C   UNL A   1      50.572  25.883  31.814  1.00  0.00     0.054 A 
BRANCH  87  88
ATOM     88  S   UNL A   1      52.237  25.389  32.332  1.00  0.00     0.124 S 
ATOM     89  O   UNL A   1      52.274  25.854  33.716  1.00  0.00    -0.237 OA
ATOM     90  O   UNL A   1      52.209  23.939  32.157  1.00  0.00    -0.237 OA
ATOM     91  O   UNL A   1      53.115  26.106  31.409  1.00  0.00    -0.744 OA
ENDBRANCH  87  88
ENDBRANCH  61  82
ENDBRANCH  35  36
ENDBRANCH  27  30
ENDBRANCH  25  26
ENDBRANCH  24  25
ENDBRANCH   1  24
TORSDOF 18
ENDMDL
