MODEL 1
REMARK VINA RESULT:     -12.1      0.000      0.000
REMARK SMILES Cc1ccc2c(c1)C=C(C(=O)NCCCCNC(=O)c1ccc(-c3c4nc(c(-c5ccc(S(=O)(=O)[O-])cc5)c5ccc([nH]5)c(-c5ccc(S(=O)(=O)[O-])cc5)c5nc(c(-c6ccc(S(=O)(=O)[O-])cc6)c6ccc3[nH]6)C=C5)C=C4)cc1)[C@@H](C(F)(F)F)O2
REMARK SMILES IDX 15 1 14 2 13 3 12 4 10 5 11 6 9 8 1 9 2 10 3 11 7 12 4 13
REMARK SMILES IDX 6 14 5 15 8 16 85 17 80 18 81 19 82 20 83 21 84 22 16 23
REMARK SMILES IDX 17 24 18 25 19 27 20 28 21 29 79 30 22 31 78 32 23 33 24 34
REMARK SMILES IDX 25 35 72 36 26 37 77 38 71 39 73 40 27 41 76 42 70 43 69 44
REMARK SMILES IDX 28 46 58 47 39 48 57 49 40 50 43 51 56 52 74 53 41 54 42 55
REMARK SMILES IDX 55 57 75 58 44 59 29 60 30 61 38 62 31 63 37 64 32 65 33 66
REMARK SMILES IDX 34 67 35 68 36 69 59 70 60 71 68 72 61 73 67 74 62 75 63 76
REMARK SMILES IDX 64 77 65 78 66 79 45 80 46 81 54 82 47 83 53 84 48 85 49 86
REMARK SMILES IDX 50 87 51 88 52 89
REMARK H PARENT 12 7 17 26 73 45 43 56
REMARK Flexibility Score: inf
ROOT
ATOM      1  C   UNL A   1      33.099  29.254  25.365  1.00  0.00     0.023 C 
ENDROOT
BRANCH   1   2
ATOM      2  C   UNL A   1      33.999  28.377  24.490  1.00  0.00     0.023 C 
BRANCH   2   3
ATOM      3  C   UNL A   1      33.902  26.883  24.782  1.00  0.00     0.116 C 
BRANCH   3   4
ATOM      4  N   UNL A   1      33.546  26.113  23.603  1.00  0.00    -0.352 N 
ATOM      5  C   UNL A   1      32.444  25.927  22.839  1.00  0.00     0.251 C 
ATOM      6  O   UNL A   1      32.592  25.157  21.884  1.00  0.00    -0.270 OA
ATOM      7  H   UNL A   1      34.309  25.586  23.273  1.00  0.00     0.163 HD
BRANCH   5   8
ATOM      8  C   UNL A   1      31.114  26.568  23.063  1.00  0.00     0.067 C 
ATOM      9  C   UNL A   1      28.182  31.932  22.091  1.00  0.00     0.044 C 
ATOM     10  C   UNL A   1      28.334  30.502  22.517  1.00  0.00    -0.050 A 
ATOM     11  C   UNL A   1      27.241  29.789  23.024  1.00  0.00     0.007 A 
ATOM     12  C   UNL A   1      29.563  29.844  22.351  1.00  0.00     0.015 A 
ATOM     13  C   UNL A   1      27.379  28.449  23.385  1.00  0.00     0.047 A 
ATOM     14  C   UNL A   1      29.705  28.501  22.717  1.00  0.00     0.017 A 
ATOM     15  C   UNL A   1      28.612  27.816  23.241  1.00  0.00     0.128 A 
ATOM     16  C   UNL A   1      30.962  27.791  22.521  1.00  0.00     0.025 C 
ATOM     17  O   UNL A   1      28.670  26.496  23.589  1.00  0.00    -0.475 OA
ATOM     18  C   UNL A   1      29.997  25.964  23.870  1.00  0.00     0.314 C 
BRANCH  18  19
ATOM     19  C   UNL A   1      30.256  26.036  25.386  1.00  0.00     0.429 C 
ATOM     20  F   UNL A   1      29.134  25.706  26.074  1.00  0.00    -0.167 F 
ATOM     21  F   UNL A   1      31.220  25.177  25.792  1.00  0.00    -0.167 F 
ATOM     22  F   UNL A   1      30.631  27.269  25.795  1.00  0.00    -0.167 F 
ENDBRANCH  18  19
ENDBRANCH   5   8
ENDBRANCH   3   4
ENDBRANCH   2   3
ENDBRANCH   1   2
BRANCH   1  23
ATOM     23  C   UNL A   1      33.375  29.198  26.866  1.00  0.00     0.116 C 
BRANCH  23  24
ATOM     24  N   UNL A   1      33.434  30.500  27.520  1.00  0.00    -0.352 N 
ATOM     25  C   UNL A   1      34.483  31.036  28.236  1.00  0.00     0.251 C 
ATOM     26  H   UNL A   1      32.630  31.062  27.441  1.00  0.00     0.163 HD
ATOM     27  O   UNL A   1      34.375  32.127  28.785  1.00  0.00    -0.269 OA
BRANCH  25  28
ATOM     28  C   UNL A   1      35.716  30.236  28.380  1.00  0.00     0.039 A 
ATOM     29  C   UNL A   1      35.988  29.584  29.584  1.00  0.00     0.014 A 
ATOM     30  C   UNL A   1      36.659  30.254  27.349  1.00  0.00     0.014 A 
ATOM     31  C   UNL A   1      37.274  29.115  29.826  1.00  0.00     0.010 A 
ATOM     32  C   UNL A   1      37.928  29.714  27.570  1.00  0.00     0.010 A 
ATOM     33  C   UNL A   1      38.266  29.207  28.834  1.00  0.00    -0.014 A 
BRANCH  33  34
ATOM     34  C   UNL A   1      39.662  28.826  29.171  1.00  0.00     0.031 A 
ATOM     35  C   UNL A   1      40.489  29.691  30.085  1.00  0.00     0.074 A 
ATOM     36  C   UNL A   1      40.149  27.649  28.733  1.00  0.00     0.049 A 
ATOM     37  N   UNL A   1      41.699  29.482  30.541  1.00  0.00    -0.248 NA
ATOM     38  C   UNL A   1      39.887  30.952  30.553  1.00  0.00     0.031 C 
ATOM     39  C   UNL A   1      39.428  26.710  27.873  1.00  0.00     0.029 A 
ATOM     40  N   UNL A   1      41.342  27.021  28.989  1.00  0.00    -0.354 N 
ATOM     41  C   UNL A   1      42.006  30.584  31.331  1.00  0.00     0.074 A 
ATOM     42  C   UNL A   1      40.868  31.474  31.276  1.00  0.00     0.031 C 
ATOM     43  C   UNL A   1      40.161  25.596  27.732  1.00  0.00     0.029 A 
ATOM     44  C   UNL A   1      41.427  25.763  28.441  1.00  0.00     0.049 A 
ATOM     45  H   UNL A   1      42.067  27.432  29.512  1.00  0.00     0.167 HD
ATOM     46  C   UNL A   1      43.130  30.825  32.046  1.00  0.00     0.031 A 
ATOM     47  C   UNL A   1      42.407  24.840  28.502  1.00  0.00     0.031 A 
ATOM     48  C   UNL A   1      44.253  29.930  32.116  1.00  0.00     0.049 A 
ATOM     49  C   UNL A   1      43.655  25.143  29.278  1.00  0.00     0.074 A 
ATOM     50  C   UNL A   1      45.440  30.097  32.809  1.00  0.00     0.029 A 
ATOM     51  N   UNL A   1      44.326  28.698  31.485  1.00  0.00    -0.354 N 
ATOM     52  N   UNL A   1      43.938  26.206  29.992  1.00  0.00    -0.248 NA
ATOM     53  C   UNL A   1      44.718  24.129  29.255  1.00  0.00     0.031 C 
ATOM     54  C   UNL A   1      46.247  28.983  32.565  1.00  0.00     0.029 A 
ATOM     55  C   UNL A   1      45.543  28.100  31.762  1.00  0.00     0.049 A 
ATOM     56  H   UNL A   1      43.619  28.307  30.923  1.00  0.00     0.167 HD
ATOM     57  C   UNL A   1      45.211  25.990  30.502  1.00  0.00     0.074 A 
ATOM     58  C   UNL A   1      45.637  24.687  30.035  1.00  0.00     0.031 C 
ATOM     59  C   UNL A   1      45.959  26.805  31.285  1.00  0.00     0.031 A 
BRANCH  46  60
ATOM     60  C   UNL A   1      43.218  32.116  32.815  1.00  0.00    -0.014 A 
ATOM     61  C   UNL A   1      42.659  32.202  34.103  1.00  0.00     0.010 A 
ATOM     62  C   UNL A   1      43.763  33.272  32.226  1.00  0.00     0.010 A 
ATOM     63  C   UNL A   1      42.627  33.422  34.783  1.00  0.00     0.020 A 
ATOM     64  C   UNL A   1      43.752  34.489  32.913  1.00  0.00     0.020 A 
ATOM     65  C   UNL A   1      43.167  34.560  34.180  1.00  0.00     0.054 A 
BRANCH  65  66
ATOM     66  S   UNL A   1      43.122  36.139  35.075  1.00  0.00     0.124 S 
ATOM     67  O   UNL A   1      44.461  36.204  35.652  1.00  0.00    -0.237 OA
ATOM     68  O   UNL A   1      42.843  37.104  34.015  1.00  0.00    -0.237 OA
ATOM     69  O   UNL A   1      42.034  35.952  36.034  1.00  0.00    -0.744 OA
ENDBRANCH  65  66
ENDBRANCH  46  60
BRANCH  47  70
ATOM     70  C   UNL A   1      42.209  23.536  27.818  1.00  0.00    -0.014 A 
ATOM     71  C   UNL A   1      41.501  22.501  28.458  1.00  0.00     0.010 A 
ATOM     72  C   UNL A   1      42.815  23.288  26.575  1.00  0.00     0.010 A 
ATOM     73  C   UNL A   1      41.453  21.224  27.894  1.00  0.00     0.020 A 
ATOM     74  C   UNL A   1      42.748  22.016  25.997  1.00  0.00     0.020 A 
ATOM     75  C   UNL A   1      42.094  20.985  26.676  1.00  0.00     0.054 A 
BRANCH  75  76
ATOM     76  S   UNL A   1      42.076  19.306  25.989  1.00  0.00     0.124 S 
ATOM     77  O   UNL A   1      42.910  19.463  24.800  1.00  0.00    -0.237 OA
ATOM     78  O   UNL A   1      42.657  18.509  27.065  1.00  0.00    -0.237 OA
ATOM     79  O   UNL A   1      40.658  19.062  25.733  1.00  0.00    -0.744 OA
ENDBRANCH  75  76
ENDBRANCH  47  70
BRANCH  59  80
ATOM     80  C   UNL A   1      47.328  26.334  31.692  1.00  0.00    -0.014 A 
ATOM     81  C   UNL A   1      48.402  26.453  30.793  1.00  0.00     0.010 A 
ATOM     82  C   UNL A   1      47.517  25.655  32.908  1.00  0.00     0.010 A 
ATOM     83  C   UNL A   1      49.637  25.872  31.088  1.00  0.00     0.020 A 
ATOM     84  C   UNL A   1      48.757  25.090  33.215  1.00  0.00     0.020 A 
ATOM     85  C   UNL A   1      49.803  25.182  32.291  1.00  0.00     0.054 A 
BRANCH  85  86
ATOM     86  S   UNL A   1      51.402  24.404  32.647  1.00  0.00     0.124 S 
ATOM     87  O   UNL A   1      51.210  23.055  32.125  1.00  0.00    -0.237 OA
ATOM     88  O   UNL A   1      52.343  25.238  31.902  1.00  0.00    -0.237 OA
ATOM     89  O   UNL A   1      51.513  24.503  34.101  1.00  0.00    -0.744 OA
ENDBRANCH  85  86
ENDBRANCH  59  80
ENDBRANCH  33  34
ENDBRANCH  25  28
ENDBRANCH  23  24
ENDBRANCH   1  23
TORSDOF 15
ENDMDL
MODEL 2
REMARK VINA RESULT:     -12.0      3.214      9.437
REMARK SMILES Cc1ccc2c(c1)C=C(C(=O)NCCCCNC(=O)c1ccc(-c3c4nc(c(-c5ccc(S(=O)(=O)[O-])cc5)c5ccc([nH]5)c(-c5ccc(S(=O)(=O)[O-])cc5)c5nc(c(-c6ccc(S(=O)(=O)[O-])cc6)c6ccc3[nH]6)C=C5)C=C4)cc1)[C@@H](C(F)(F)F)O2
REMARK SMILES IDX 15 1 14 2 13 3 12 4 10 5 11 6 9 8 1 9 2 10 3 11 7 12 4 13
REMARK SMILES IDX 6 14 5 15 8 16 85 17 80 18 81 19 82 20 83 21 84 22 16 23
REMARK SMILES IDX 17 24 18 25 19 27 20 28 21 29 79 30 22 31 78 32 23 33 24 34
REMARK SMILES IDX 25 35 72 36 26 37 77 38 71 39 73 40 27 41 76 42 70 43 69 44
REMARK SMILES IDX 28 46 58 47 39 48 57 49 40 50 43 51 56 52 74 53 41 54 42 55
REMARK SMILES IDX 55 57 75 58 44 59 29 60 30 61 38 62 31 63 37 64 32 65 33 66
REMARK SMILES IDX 34 67 35 68 36 69 59 70 60 71 68 72 61 73 67 74 62 75 63 76
REMARK SMILES IDX 64 77 65 78 66 79 45 80 46 81 54 82 47 83 53 84 48 85 49 86
REMARK SMILES IDX 50 87 51 88 52 89
REMARK H PARENT 12 7 17 26 73 45 43 56
REMARK Flexibility Score: inf
ROOT
ATOM      1  C   UNL A   1      36.041  22.894  25.807  1.00  0.00     0.023 C 
ENDROOT
BRANCH   1   2
ATOM      2  C   UNL A   1      35.542  21.446  25.812  1.00  0.00     0.023 C 
BRANCH   2   3
ATOM      3  C   UNL A   1      34.042  21.293  25.574  1.00  0.00     0.116 C 
BRANCH   3   4
ATOM      4  N   UNL A   1      33.639  21.783  24.268  1.00  0.00    -0.352 N 
ATOM      5  C   UNL A   1      33.002  22.871  23.774  1.00  0.00     0.251 C 
ATOM      6  O   UNL A   1      32.869  22.887  22.545  1.00  0.00    -0.270 OA
ATOM      7  H   UNL A   1      33.896  21.159  23.553  1.00  0.00     0.163 HD
BRANCH   5   8
ATOM      8  C   UNL A   1      32.471  24.009  24.583  1.00  0.00     0.067 C 
ATOM      9  C   UNL A   1      34.406  29.177  27.385  1.00  0.00     0.044 C 
ATOM     10  C   UNL A   1      33.416  28.160  26.900  1.00  0.00    -0.050 A 
ATOM     11  C   UNL A   1      32.046  28.331  27.136  1.00  0.00     0.007 A 
ATOM     12  C   UNL A   1      33.850  27.056  26.150  1.00  0.00     0.015 A 
ATOM     13  C   UNL A   1      31.127  27.400  26.651  1.00  0.00     0.047 A 
ATOM     14  C   UNL A   1      32.929  26.119  25.667  1.00  0.00     0.017 A 
ATOM     15  C   UNL A   1      31.573  26.295  25.931  1.00  0.00     0.128 A 
ATOM     16  C   UNL A   1      33.356  24.985  24.858  1.00  0.00     0.025 C 
ATOM     17  O   UNL A   1      30.617  25.437  25.465  1.00  0.00    -0.475 OA
ATOM     18  C   UNL A   1      31.069  24.095  25.124  1.00  0.00     0.314 C 
BRANCH  18  19
ATOM     19  C   UNL A   1      30.844  23.167  26.332  1.00  0.00     0.429 C 
ATOM     20  F   UNL A   1      30.710  21.880  25.921  1.00  0.00    -0.167 F 
ATOM     21  F   UNL A   1      31.878  23.185  27.204  1.00  0.00    -0.167 F 
ATOM     22  F   UNL A   1      29.732  23.483  27.034  1.00  0.00    -0.167 F 
ENDBRANCH  18  19
ENDBRANCH   5   8
ENDBRANCH   3   4
ENDBRANCH   2   3
ENDBRANCH   1   2
BRANCH   1  23
ATOM     23  C   UNL A   1      37.337  23.145  25.039  1.00  0.00     0.116 C 
BRANCH  23  24
ATOM     24  N   UNL A   1      38.468  22.337  25.479  1.00  0.00    -0.352 N 
ATOM     25  C   UNL A   1      39.513  22.722  26.291  1.00  0.00     0.251 C 
ATOM     26  H   UNL A   1      38.487  21.407  25.158  1.00  0.00     0.163 HD
ATOM     27  O   UNL A   1      40.435  21.950  26.536  1.00  0.00    -0.269 OA
BRANCH  25  28
ATOM     28  C   UNL A   1      39.530  24.106  26.806  1.00  0.00     0.039 A 
ATOM     29  C   UNL A   1      40.145  25.118  26.068  1.00  0.00     0.014 A 
ATOM     30  C   UNL A   1      39.042  24.356  28.091  1.00  0.00     0.014 A 
ATOM     31  C   UNL A   1      40.443  26.325  26.688  1.00  0.00     0.010 A 
ATOM     32  C   UNL A   1      39.279  25.598  28.686  1.00  0.00     0.010 A 
ATOM     33  C   UNL A   1      40.044  26.564  28.014  1.00  0.00    -0.014 A 
BRANCH  33  34
ATOM     34  C   UNL A   1      40.497  27.805  28.694  1.00  0.00     0.031 A 
ATOM     35  C   UNL A   1      41.951  27.998  29.037  1.00  0.00     0.074 A 
ATOM     36  C   UNL A   1      39.616  28.800  28.910  1.00  0.00     0.049 A 
ATOM     37  N   UNL A   1      42.538  29.041  29.569  1.00  0.00    -0.248 NA
ATOM     38  C   UNL A   1      42.870  26.883  28.749  1.00  0.00     0.031 C 
ATOM     39  C   UNL A   1      38.190  28.744  28.585  1.00  0.00     0.029 A 
ATOM     40  N   UNL A   1      39.796  30.066  29.407  1.00  0.00    -0.354 N 
ATOM     41  C   UNL A   1      43.881  28.705  29.691  1.00  0.00     0.074 A 
ATOM     42  C   UNL A   1      44.024  27.351  29.203  1.00  0.00     0.031 C 
ATOM     43  C   UNL A   1      37.640  29.943  28.822  1.00  0.00     0.029 A 
ATOM     44  C   UNL A   1      38.657  30.836  29.370  1.00  0.00     0.049 A 
ATOM     45  H   UNL A   1      40.656  30.391  29.757  1.00  0.00     0.167 HD
ATOM     46  C   UNL A   1      44.904  29.460  30.157  1.00  0.00     0.031 A 
ATOM     47  C   UNL A   1      38.450  32.118  29.729  1.00  0.00     0.031 A 
ATOM     48  C   UNL A   1      44.764  30.813  30.625  1.00  0.00     0.049 A 
ATOM     49  C   UNL A   1      39.593  32.925  30.269  1.00  0.00     0.074 A 
ATOM     50  C   UNL A   1      45.744  31.652  31.125  1.00  0.00     0.029 A 
ATOM     51  N   UNL A   1      43.577  31.529  30.638  1.00  0.00    -0.354 N 
ATOM     52  N   UNL A   1      40.849  32.576  30.407  1.00  0.00    -0.248 NA
ATOM     53  C   UNL A   1      39.294  34.295  30.708  1.00  0.00     0.031 C 
ATOM     54  C   UNL A   1      45.143  32.863  31.477  1.00  0.00     0.029 A 
ATOM     55  C   UNL A   1      43.798  32.795  31.149  1.00  0.00     0.049 A 
ATOM     56  H   UNL A   1      42.706  31.188  30.330  1.00  0.00     0.167 HD
ATOM     57  C   UNL A   1      41.491  33.682  30.949  1.00  0.00     0.074 A 
ATOM     58  C   UNL A   1      40.492  34.719  31.096  1.00  0.00     0.031 C 
ATOM     59  C   UNL A   1      42.794  33.817  31.297  1.00  0.00     0.031 A 
BRANCH  46  60
ATOM     60  C   UNL A   1      46.277  28.846  30.198  1.00  0.00    -0.014 A 
ATOM     61  C   UNL A   1      47.121  28.948  29.078  1.00  0.00     0.010 A 
ATOM     62  C   UNL A   1      46.695  28.084  31.304  1.00  0.00     0.010 A 
ATOM     63  C   UNL A   1      48.352  28.287  29.053  1.00  0.00     0.020 A 
ATOM     64  C   UNL A   1      47.934  27.437  31.291  1.00  0.00     0.020 A 
ATOM     65  C   UNL A   1      48.747  27.528  30.157  1.00  0.00     0.054 A 
BRANCH  65  66
ATOM     66  S   UNL A   1      50.349  26.675  30.115  1.00  0.00     0.124 S 
ATOM     67  O   UNL A   1      50.607  26.576  28.682  1.00  0.00    -0.237 OA
ATOM     68  O   UNL A   1      51.220  27.587  30.852  1.00  0.00    -0.237 OA
ATOM     69  O   UNL A   1      50.074  25.409  30.793  1.00  0.00    -0.744 OA
ENDBRANCH  65  66
ENDBRANCH  46  60
BRANCH  47  70
ATOM     70  C   UNL A   1      37.094  32.702  29.553  1.00  0.00    -0.014 A 
ATOM     71  C   UNL A   1      36.663  33.120  28.280  1.00  0.00     0.010 A 
ATOM     72  C   UNL A   1      36.274  32.940  30.669  1.00  0.00     0.010 A 
ATOM     73  C   UNL A   1      35.462  33.818  28.135  1.00  0.00     0.020 A 
ATOM     74  C   UNL A   1      35.060  33.617  30.523  1.00  0.00     0.020 A 
ATOM     75  C   UNL A   1      34.678  34.080  29.261  1.00  0.00     0.054 A 
BRANCH  75  76
ATOM     76  S   UNL A   1      33.152  35.042  29.064  1.00  0.00     0.124 S 
ATOM     77  O   UNL A   1      32.583  34.974  30.408  1.00  0.00    -0.237 OA
ATOM     78  O   UNL A   1      33.647  36.354  28.656  1.00  0.00    -0.237 OA
ATOM     79  O   UNL A   1      32.421  34.308  28.034  1.00  0.00    -0.744 OA
ENDBRANCH  75  76
ENDBRANCH  47  70
BRANCH  59  80
ATOM     80  C   UNL A   1      43.236  35.130  31.884  1.00  0.00    -0.014 A 
ATOM     81  C   UNL A   1      42.991  35.405  33.242  1.00  0.00     0.010 A 
ATOM     82  C   UNL A   1      43.768  36.138  31.061  1.00  0.00     0.010 A 
ATOM     83  C   UNL A   1      43.242  36.676  33.761  1.00  0.00     0.020 A 
ATOM     84  C   UNL A   1      44.039  37.404  31.583  1.00  0.00     0.020 A 
ATOM     85  C   UNL A   1      43.751  37.673  32.924  1.00  0.00     0.054 A 
BRANCH  85  86
ATOM     86  S   UNL A   1      44.041  39.329  33.603  1.00  0.00     0.124 S 
ATOM     87  O   UNL A   1      44.966  39.902  32.630  1.00  0.00    -0.237 OA
ATOM     88  O   UNL A   1      42.702  39.914  33.619  1.00  0.00    -0.237 OA
ATOM     89  O   UNL A   1      44.608  39.062  34.923  1.00  0.00    -0.744 OA
ENDBRANCH  85  86
ENDBRANCH  59  80
ENDBRANCH  33  34
ENDBRANCH  25  28
ENDBRANCH  23  24
ENDBRANCH   1  23
TORSDOF 15
ENDMDL
MODEL 3
REMARK VINA RESULT:     -12.0      2.023      3.675
REMARK SMILES Cc1ccc2c(c1)C=C(C(=O)NCCCCNC(=O)c1ccc(-c3c4nc(c(-c5ccc(S(=O)(=O)[O-])cc5)c5ccc([nH]5)c(-c5ccc(S(=O)(=O)[O-])cc5)c5nc(c(-c6ccc(S(=O)(=O)[O-])cc6)c6ccc3[nH]6)C=C5)C=C4)cc1)[C@@H](C(F)(F)F)O2
REMARK SMILES IDX 15 1 14 2 13 3 12 4 10 5 11 6 9 8 1 9 2 10 3 11 7 12 4 13
REMARK SMILES IDX 6 14 5 15 8 16 85 17 80 18 81 19 82 20 83 21 84 22 16 23
REMARK SMILES IDX 17 24 18 25 19 27 20 28 21 29 79 30 22 31 78 32 23 33 24 34
REMARK SMILES IDX 25 35 72 36 26 37 77 38 71 39 73 40 27 41 76 42 70 43 69 44
REMARK SMILES IDX 28 46 58 47 39 48 57 49 40 50 43 51 56 52 74 53 41 54 42 55
REMARK SMILES IDX 55 57 75 58 44 59 29 60 30 61 38 62 31 63 37 64 32 65 33 66
REMARK SMILES IDX 34 67 35 68 36 69 59 70 60 71 68 72 61 73 67 74 62 75 63 76
REMARK SMILES IDX 64 77 65 78 66 79 45 80 46 81 54 82 47 83 53 84 48 85 49 86
REMARK SMILES IDX 50 87 51 88 52 89
REMARK H PARENT 12 7 17 26 73 45 43 56
REMARK Flexibility Score: inf
ROOT
ATOM      1  C   UNL A   1      31.969  28.972  26.489  1.00  0.00     0.023 C 
ENDROOT
BRANCH   1   2
ATOM      2  C   UNL A   1      31.403  27.673  27.071  1.00  0.00     0.023 C 
BRANCH   2   3
ATOM      3  C   UNL A   1      31.157  26.574  26.042  1.00  0.00     0.116 C 
BRANCH   3   4
ATOM      4  N   UNL A   1      30.613  25.369  26.644  1.00  0.00    -0.352 N 
ATOM      5  C   UNL A   1      30.925  24.052  26.676  1.00  0.00     0.251 C 
ATOM      6  O   UNL A   1      30.160  23.348  27.344  1.00  0.00    -0.270 OA
ATOM      7  H   UNL A   1      29.801  25.561  27.165  1.00  0.00     0.163 HD
BRANCH   5   8
ATOM      8  C   UNL A   1      32.089  23.418  25.986  1.00  0.00     0.067 C 
ATOM      9  C   UNL A   1      38.277  23.440  26.083  1.00  0.00     0.044 C 
ATOM     10  C   UNL A   1      36.907  23.005  25.654  1.00  0.00    -0.050 A 
ATOM     11  C   UNL A   1      36.746  21.988  24.706  1.00  0.00     0.007 A 
ATOM     12  C   UNL A   1      35.769  23.573  26.249  1.00  0.00     0.015 A 
ATOM     13  C   UNL A   1      35.469  21.563  24.338  1.00  0.00     0.047 A 
ATOM     14  C   UNL A   1      34.488  23.152  25.878  1.00  0.00     0.017 A 
ATOM     15  C   UNL A   1      34.348  22.154  24.916  1.00  0.00     0.128 A 
ATOM     16  C   UNL A   1      33.296  23.705  26.507  1.00  0.00     0.025 C 
ATOM     17  O   UNL A   1      33.130  21.673  24.528  1.00  0.00    -0.475 OA
ATOM     18  C   UNL A   1      31.989  22.549  24.762  1.00  0.00     0.314 C 
BRANCH  18  19
ATOM     19  C   UNL A   1      31.707  23.359  23.483  1.00  0.00     0.429 C 
ATOM     20  F   UNL A   1      32.273  24.589  23.569  1.00  0.00    -0.167 F 
ATOM     21  F   UNL A   1      32.221  22.777  22.374  1.00  0.00    -0.167 F 
ATOM     22  F   UNL A   1      30.386  23.538  23.257  1.00  0.00    -0.167 F 
ENDBRANCH  18  19
ENDBRANCH   5   8
ENDBRANCH   3   4
ENDBRANCH   2   3
ENDBRANCH   1   2
BRANCH   1  23
ATOM     23  C   UNL A   1      33.368  29.358  26.966  1.00  0.00     0.116 C 
BRANCH  23  24
ATOM     24  N   UNL A   1      33.446  30.658  27.622  1.00  0.00    -0.352 N 
ATOM     25  C   UNL A   1      34.509  31.185  28.321  1.00  0.00     0.251 C 
ATOM     26  H   UNL A   1      32.643  31.225  27.558  1.00  0.00     0.163 HD
ATOM     27  O   UNL A   1      34.417  32.276  28.876  1.00  0.00    -0.269 OA
BRANCH  25  28
ATOM     28  C   UNL A   1      35.740  30.379  28.443  1.00  0.00     0.039 A 
ATOM     29  C   UNL A   1      35.998  29.673  29.619  1.00  0.00     0.014 A 
ATOM     30  C   UNL A   1      36.694  30.441  27.424  1.00  0.00     0.014 A 
ATOM     31  C   UNL A   1      37.280  29.191  29.854  1.00  0.00     0.010 A 
ATOM     32  C   UNL A   1      37.960  29.891  27.635  1.00  0.00     0.010 A 
ATOM     33  C   UNL A   1      38.284  29.326  28.878  1.00  0.00    -0.014 A 
BRANCH  33  34
ATOM     34  C   UNL A   1      39.675  28.928  29.212  1.00  0.00     0.031 A 
ATOM     35  C   UNL A   1      40.514  29.783  30.127  1.00  0.00     0.074 A 
ATOM     36  C   UNL A   1      40.148  27.746  28.772  1.00  0.00     0.049 A 
ATOM     37  N   UNL A   1      41.721  29.559  30.581  1.00  0.00    -0.248 NA
ATOM     38  C   UNL A   1      39.927  31.049  30.598  1.00  0.00     0.031 C 
ATOM     39  C   UNL A   1      39.415  26.817  27.912  1.00  0.00     0.029 A 
ATOM     40  N   UNL A   1      41.334  27.104  29.026  1.00  0.00    -0.354 N 
ATOM     41  C   UNL A   1      42.043  30.655  31.373  1.00  0.00     0.074 A 
ATOM     42  C   UNL A   1      40.915  31.559  31.320  1.00  0.00     0.031 C 
ATOM     43  C   UNL A   1      40.135  25.695  27.768  1.00  0.00     0.029 A 
ATOM     44  C   UNL A   1      41.404  25.846  28.476  1.00  0.00     0.049 A 
ATOM     45  H   UNL A   1      42.064  27.506  29.549  1.00  0.00     0.167 HD
ATOM     46  C   UNL A   1      43.170  30.883  32.087  1.00  0.00     0.031 A 
ATOM     47  C   UNL A   1      42.373  24.912  28.535  1.00  0.00     0.031 A 
ATOM     48  C   UNL A   1      44.283  29.974  32.154  1.00  0.00     0.049 A 
ATOM     49  C   UNL A   1      43.625  25.199  29.310  1.00  0.00     0.074 A 
ATOM     50  C   UNL A   1      45.472  30.126  32.846  1.00  0.00     0.029 A 
ATOM     51  N   UNL A   1      44.341  28.742  31.521  1.00  0.00    -0.354 N 
ATOM     52  N   UNL A   1      43.921  26.258  30.024  1.00  0.00    -0.248 NA
ATOM     53  C   UNL A   1      44.676  24.172  29.284  1.00  0.00     0.031 C 
ATOM     54  C   UNL A   1      46.266  29.003  32.599  1.00  0.00     0.029 A 
ATOM     55  C   UNL A   1      45.550  28.129  31.795  1.00  0.00     0.049 A 
ATOM     56  H   UNL A   1      43.628  28.360  30.960  1.00  0.00     0.167 HD
ATOM     57  C   UNL A   1      45.193  26.026  30.533  1.00  0.00     0.074 A 
ATOM     58  C   UNL A   1      45.603  24.719  30.063  1.00  0.00     0.031 C 
ATOM     59  C   UNL A   1      45.951  26.831  31.316  1.00  0.00     0.031 A 
BRANCH  46  60
ATOM     60  C   UNL A   1      43.274  32.171  32.857  1.00  0.00    -0.014 A 
ATOM     61  C   UNL A   1      42.786  32.239  34.175  1.00  0.00     0.010 A 
ATOM     62  C   UNL A   1      43.762  33.341  32.246  1.00  0.00     0.010 A 
ATOM     63  C   UNL A   1      42.767  33.454  34.864  1.00  0.00     0.020 A 
ATOM     64  C   UNL A   1      43.764  34.554  32.940  1.00  0.00     0.020 A 
ATOM     65  C   UNL A   1      43.249  34.607  34.238  1.00  0.00     0.054 A 
BRANCH  65  66
ATOM     66  S   UNL A   1      43.222  36.180  35.144  1.00  0.00     0.124 S 
ATOM     67  O   UNL A   1      44.573  36.244  35.691  1.00  0.00    -0.237 OA
ATOM     68  O   UNL A   1      42.916  37.151  34.097  1.00  0.00    -0.237 OA
ATOM     69  O   UNL A   1      42.156  35.984  36.126  1.00  0.00    -0.744 OA
ENDBRANCH  65  66
ENDBRANCH  46  60
BRANCH  47  70
ATOM     70  C   UNL A   1      42.158  23.611  27.849  1.00  0.00    -0.014 A 
ATOM     71  C   UNL A   1      41.427  22.589  28.482  1.00  0.00     0.010 A 
ATOM     72  C   UNL A   1      42.772  23.352  26.611  1.00  0.00     0.010 A 
ATOM     73  C   UNL A   1      41.362  21.312  27.918  1.00  0.00     0.020 A 
ATOM     74  C   UNL A   1      42.688  22.082  26.033  1.00  0.00     0.020 A 
ATOM     75  C   UNL A   1      42.011  21.062  26.706  1.00  0.00     0.054 A 
BRANCH  75  76
ATOM     76  S   UNL A   1      41.969  19.384  26.018  1.00  0.00     0.124 S 
ATOM     77  O   UNL A   1      42.463  18.591  27.141  1.00  0.00    -0.237 OA
ATOM     78  O   UNL A   1      40.557  19.202  25.693  1.00  0.00    -0.237 OA
ATOM     79  O   UNL A   1      42.865  19.468  24.867  1.00  0.00    -0.744 OA
ENDBRANCH  75  76
ENDBRANCH  47  70
BRANCH  59  80
ATOM     80  C   UNL A   1      47.314  26.343  31.721  1.00  0.00    -0.014 A 
ATOM     81  C   UNL A   1      48.392  26.462  30.825  1.00  0.00     0.010 A 
ATOM     82  C   UNL A   1      47.495  25.649  32.930  1.00  0.00     0.010 A 
ATOM     83  C   UNL A   1      49.621  25.867  31.116  1.00  0.00     0.020 A 
ATOM     84  C   UNL A   1      48.730  25.070  33.232  1.00  0.00     0.020 A 
ATOM     85  C   UNL A   1      49.778  25.162  32.312  1.00  0.00     0.054 A 
BRANCH  85  86
ATOM     86  S   UNL A   1      51.369  24.366  32.663  1.00  0.00     0.124 S 
ATOM     87  O   UNL A   1      52.302  25.200  31.912  1.00  0.00    -0.237 OA
ATOM     88  O   UNL A   1      51.469  24.465  34.118  1.00  0.00    -0.237 OA
ATOM     89  O   UNL A   1      51.191  23.009  32.152  1.00  0.00    -0.744 OA
ENDBRANCH  85  86
ENDBRANCH  59  80
ENDBRANCH  33  34
ENDBRANCH  25  28
ENDBRANCH  23  24
ENDBRANCH   1  23
TORSDOF 15
ENDMDL
