MODEL 1
REMARK VINA RESULT:     -11.2      0.000      0.000
REMARK SMILES Cc1cc(Br)c(C)c([C@@H]2[NH2+][C@H](C(=O)NCCCCNC(=O)c3ccc(-c4c5nc(c(-c6ccc(S(=O)(=O)[O-])cc6)c6ccc([nH]6)c(-c6ccc(S(=O)(=O)[O-])cc6)c6nc(c(-c7ccc(S(=O)(=O)[O-])cc7)c7ccc4[nH]7)C=C6)C=C5)cc3)CS2)c1O
REMARK SMILES IDX 17 1 16 2 15 3 14 4 12 5 13 6 11 8 9 9 10 10 83 11 82 14
REMARK SMILES IDX 8 15 1 16 2 17 3 18 84 19 4 20 5 21 6 22 7 23 85 24 18 26
REMARK SMILES IDX 19 27 20 28 21 30 22 31 23 32 81 33 24 34 80 35 25 36 26 37
REMARK SMILES IDX 27 38 74 39 28 40 79 41 73 42 75 43 29 44 78 45 72 46 71 47
REMARK SMILES IDX 30 49 60 50 41 51 59 52 42 53 45 54 58 55 76 56 43 57 44 58
REMARK SMILES IDX 57 60 77 61 46 62 31 63 32 64 40 65 33 66 39 67 34 68 35 69
REMARK SMILES IDX 36 70 37 71 38 72 61 73 62 74 70 75 63 76 69 77 64 78 65 79
REMARK SMILES IDX 66 80 67 81 68 82 47 83 48 84 56 85 49 86 55 87 50 88 51 89
REMARK SMILES IDX 52 90 53 91 54 92
REMARK H PARENT 14 7 10 12 10 13 85 25 19 29 75 48 45 59
REMARK Flexibility Score: inf
ROOT
ATOM      1  C   UNL A   1      31.923  28.956  26.358  1.00  0.00     0.023 C 
ENDROOT
BRANCH   1   2
ATOM      2  C   UNL A   1      31.406  29.264  24.953  1.00  0.00     0.023 C 
BRANCH   2   3
ATOM      3  C   UNL A   1      31.165  28.037  24.069  1.00  0.00     0.116 C 
BRANCH   3   4
ATOM      4  N   UNL A   1      32.386  27.517  23.482  1.00  0.00    -0.351 N 
ATOM      5  C   UNL A   1      32.824  26.227  23.381  1.00  0.00     0.279 C 
ATOM      6  O   UNL A   1      33.882  26.035  22.771  1.00  0.00    -0.268 OA
ATOM      7  H   UNL A   1      32.989  28.195  23.100  1.00  0.00     0.163 HD
BRANCH   5   8
ATOM      8  C   UNL A   1      32.028  25.023  23.923  1.00  0.00     0.283 C 
ATOM      9  C   UNL A   1      32.303  22.681  24.463  1.00  0.00     0.278 C 
ATOM     10  N   UNL A   1      32.586  23.732  23.483  1.00  0.00    -0.320 N 
ATOM     11  S   UNL A   1      31.430  23.403  25.874  1.00  0.00    -0.087 SA
ATOM     12  H   UNL A   1      32.171  23.476  22.587  1.00  0.00     0.348 HD
ATOM     13  H   UNL A   1      33.598  23.828  23.391  1.00  0.00     0.348 HD
ATOM     14  C   UNL A   1      31.930  25.081  25.438  1.00  0.00     0.151 C 
BRANCH   9  15
ATOM     15  C   UNL A   1      33.578  21.865  24.714  1.00  0.00     0.066 A 
ATOM     16  C   UNL A   1      37.387  22.400  25.104  1.00  0.00     0.048 C 
ATOM     17  C   UNL A   1      36.039  21.739  25.010  1.00  0.00    -0.008 A 
ATOM     18  C   UNL A   1      35.975  20.351  24.913  1.00  0.00     0.023 A 
ATOM     19  C   UNL A   1      34.843  22.474  24.941  1.00  0.00     0.128 A 
ATOM     20  C   UNL A   1      34.756  19.709  24.701  1.00  0.00     0.021 A 
ATOM     21  Br  UNL A   1      34.823  17.810  24.558  1.00  0.00    -0.051 Br
ATOM     22  C   UNL A   1      33.553  20.441  24.560  1.00  0.00    -0.023 A 
ATOM     23  C   UNL A   1      32.291  19.679  24.221  1.00  0.00     0.046 C 
BRANCH  19  24
ATOM     24  O   UNL A   1      34.926  23.839  25.018  1.00  0.00    -0.507 OA
ATOM     25  H   UNL A   1      34.146  24.351  25.098  1.00  0.00     0.293 HD
ENDBRANCH  19  24
ENDBRANCH   9  15
ENDBRANCH   5   8
ENDBRANCH   3   4
ENDBRANCH   2   3
ENDBRANCH   1   2
BRANCH   1  26
ATOM     26  C   UNL A   1      33.341  29.434  26.652  1.00  0.00     0.116 C 
BRANCH  26  27
ATOM     27  N   UNL A   1      33.429  30.729  27.314  1.00  0.00    -0.352 N 
ATOM     28  C   UNL A   1      34.492  31.224  28.045  1.00  0.00     0.251 C 
ATOM     29  H   UNL A   1      32.643  31.316  27.233  1.00  0.00     0.163 HD
ATOM     30  O   UNL A   1      34.441  32.323  28.581  1.00  0.00    -0.269 OA
BRANCH  28  31
ATOM     31  C   UNL A   1      35.680  30.358  28.212  1.00  0.00     0.039 A 
ATOM     32  C   UNL A   1      35.874  29.664  29.407  1.00  0.00     0.014 A 
ATOM     33  C   UNL A   1      36.670  30.374  27.226  1.00  0.00     0.014 A 
ATOM     34  C   UNL A   1      37.135  29.159  29.701  1.00  0.00     0.010 A 
ATOM     35  C   UNL A   1      37.914  29.797  27.497  1.00  0.00     0.010 A 
ATOM     36  C   UNL A   1      38.177  29.253  28.764  1.00  0.00    -0.014 A 
BRANCH  36  37
ATOM     37  C   UNL A   1      39.552  28.848  29.158  1.00  0.00     0.031 A 
ATOM     38  C   UNL A   1      40.382  29.741  30.045  1.00  0.00     0.074 A 
ATOM     39  C   UNL A   1      40.020  27.641  28.787  1.00  0.00     0.049 A 
ATOM     40  N   UNL A   1      41.597  29.551  30.493  1.00  0.00    -0.248 NA
ATOM     41  C   UNL A   1      39.774  31.005  30.495  1.00  0.00     0.031 C 
ATOM     42  C   UNL A   1      39.291  26.674  27.967  1.00  0.00     0.029 A 
ATOM     43  N   UNL A   1      41.204  27.012  29.075  1.00  0.00    -0.354 N 
ATOM     44  C   UNL A   1      41.901  30.668  31.262  1.00  0.00     0.074 A 
ATOM     45  C   UNL A   1      40.756  31.549  31.202  1.00  0.00     0.031 C 
ATOM     46  C   UNL A   1      40.023  25.555  27.855  1.00  0.00     0.029 A 
ATOM     47  C   UNL A   1      41.297  25.748  28.542  1.00  0.00     0.049 A 
ATOM     48  H   UNL A   1      41.918  27.423  29.613  1.00  0.00     0.167 HD
ATOM     49  C   UNL A   1      43.029  30.930  31.963  1.00  0.00     0.031 A 
ATOM     50  C   UNL A   1      42.298  24.846  28.582  1.00  0.00     0.031 A 
ATOM     51  C   UNL A   1      44.160  30.044  32.033  1.00  0.00     0.049 A 
ATOM     52  C   UNL A   1      43.558  25.181  29.323  1.00  0.00     0.074 A 
ATOM     53  C   UNL A   1      45.352  30.232  32.711  1.00  0.00     0.029 A 
ATOM     54  N   UNL A   1      44.238  28.804  31.421  1.00  0.00    -0.354 N 
ATOM     55  N   UNL A   1      43.840  26.262  30.011  1.00  0.00    -0.248 NA
ATOM     56  C   UNL A   1      44.638  24.185  29.292  1.00  0.00     0.031 C 
ATOM     57  C   UNL A   1      46.169  29.124  32.472  1.00  0.00     0.029 A 
ATOM     58  C   UNL A   1      45.464  28.222  31.692  1.00  0.00     0.049 A 
ATOM     59  H   UNL A   1      43.526  28.397  30.876  1.00  0.00     0.167 HD
ATOM     60  C   UNL A   1      45.133  26.080  30.486  1.00  0.00     0.074 A 
ATOM     61  C   UNL A   1      45.568  24.775  30.034  1.00  0.00     0.031 C 
ATOM     62  C   UNL A   1      45.890  26.928  31.223  1.00  0.00     0.031 A 
BRANCH  49  63
ATOM     63  C   UNL A   1      43.115  32.225  32.726  1.00  0.00    -0.014 A 
ATOM     64  C   UNL A   1      42.570  32.311  34.021  1.00  0.00     0.010 A 
ATOM     65  C   UNL A   1      43.610  33.390  32.113  1.00  0.00     0.010 A 
ATOM     66  C   UNL A   1      42.488  33.543  34.676  1.00  0.00     0.020 A 
ATOM     67  C   UNL A   1      43.549  34.620  32.774  1.00  0.00     0.020 A 
ATOM     68  C   UNL A   1      42.965  34.692  34.041  1.00  0.00     0.054 A 
BRANCH  68  69
ATOM     69  S   UNL A   1      42.817  36.290  34.890  1.00  0.00     0.124 S 
ATOM     70  O   UNL A   1      43.885  36.213  35.881  1.00  0.00    -0.237 OA
ATOM     71  O   UNL A   1      43.027  37.249  33.808  1.00  0.00    -0.237 OA
ATOM     72  O   UNL A   1      41.458  36.263  35.429  1.00  0.00    -0.744 OA
ENDBRANCH  68  69
ENDBRANCH  49  63
BRANCH  50  73
ATOM     73  C   UNL A   1      42.125  23.551  27.872  1.00  0.00    -0.014 A 
ATOM     74  C   UNL A   1      41.484  22.477  28.518  1.00  0.00     0.010 A 
ATOM     75  C   UNL A   1      42.685  23.352  26.600  1.00  0.00     0.010 A 
ATOM     76  C   UNL A   1      41.461  21.210  27.933  1.00  0.00     0.020 A 
ATOM     77  C   UNL A   1      42.641  22.089  25.999  1.00  0.00     0.020 A 
ATOM     78  C   UNL A   1      42.058  21.020  26.685  1.00  0.00     0.054 A 
BRANCH  78  79
ATOM     79  S   UNL A   1      42.076  19.355  25.966  1.00  0.00     0.124 S 
ATOM     80  O   UNL A   1      40.661  19.145  25.669  1.00  0.00    -0.237 OA
ATOM     81  O   UNL A   1      42.946  19.513  24.803  1.00  0.00    -0.237 OA
ATOM     82  O   UNL A   1      42.621  18.528  27.039  1.00  0.00    -0.744 OA
ENDBRANCH  78  79
ENDBRANCH  50  73
BRANCH  62  83
ATOM     83  C   UNL A   1      47.286  26.499  31.581  1.00  0.00    -0.014 A 
ATOM     84  C   UNL A   1      48.347  26.748  30.690  1.00  0.00     0.010 A 
ATOM     85  C   UNL A   1      47.520  25.729  32.733  1.00  0.00     0.010 A 
ATOM     86  C   UNL A   1      49.611  26.204  30.928  1.00  0.00     0.020 A 
ATOM     87  C   UNL A   1      48.789  25.202  32.985  1.00  0.00     0.020 A 
ATOM     88  C   UNL A   1      49.820  25.423  32.067  1.00  0.00     0.054 A 
BRANCH  88  89
ATOM     89  S   UNL A   1      51.458  24.694  32.345  1.00  0.00     0.124 S 
ATOM     90  O   UNL A   1      51.721  25.052  33.736  1.00  0.00    -0.237 OA
ATOM     91  O   UNL A   1      51.227  23.274  32.093  1.00  0.00    -0.237 OA
ATOM     92  O   UNL A   1      52.301  25.364  31.357  1.00  0.00    -0.744 OA
ENDBRANCH  88  89
ENDBRANCH  62  83
ENDBRANCH  36  37
ENDBRANCH  28  31
ENDBRANCH  26  27
ENDBRANCH   1  26
TORSDOF 16
ENDMDL
MODEL 2
REMARK VINA RESULT:     -11.2      1.313      8.356
REMARK SMILES Cc1cc(Br)c(C)c([C@@H]2[NH2+][C@H](C(=O)NCCCCNC(=O)c3ccc(-c4c5nc(c(-c6ccc(S(=O)(=O)[O-])cc6)c6ccc([nH]6)c(-c6ccc(S(=O)(=O)[O-])cc6)c6nc(c(-c7ccc(S(=O)(=O)[O-])cc7)c7ccc4[nH]7)C=C6)C=C5)cc3)CS2)c1O
REMARK SMILES IDX 17 1 16 2 15 3 14 4 12 5 13 6 11 8 9 9 10 10 83 11 82 14
REMARK SMILES IDX 8 15 1 16 2 17 3 18 84 19 4 20 5 21 6 22 7 23 85 24 18 26
REMARK SMILES IDX 19 27 20 28 21 30 22 31 23 32 81 33 24 34 80 35 25 36 26 37
REMARK SMILES IDX 27 38 74 39 28 40 79 41 73 42 75 43 29 44 78 45 72 46 71 47
REMARK SMILES IDX 30 49 60 50 41 51 59 52 42 53 45 54 58 55 76 56 43 57 44 58
REMARK SMILES IDX 57 60 77 61 46 62 31 63 32 64 40 65 33 66 39 67 34 68 35 69
REMARK SMILES IDX 36 70 37 71 38 72 61 73 62 74 70 75 63 76 69 77 64 78 65 79
REMARK SMILES IDX 66 80 67 81 68 82 47 83 48 84 56 85 49 86 55 87 50 88 51 89
REMARK SMILES IDX 52 90 53 91 54 92
REMARK H PARENT 14 7 10 12 10 13 85 25 19 29 75 48 45 59
REMARK Flexibility Score: inf
ROOT
ATOM      1  C   UNL A   1      33.375  28.204  27.235  1.00  0.00     0.023 C 
ENDROOT
BRANCH   1   2
ATOM      2  C   UNL A   1      31.893  28.045  27.573  1.00  0.00     0.023 C 
BRANCH   2   3
ATOM      3  C   UNL A   1      30.994  27.682  26.386  1.00  0.00     0.116 C 
BRANCH   3   4
ATOM      4  N   UNL A   1      30.505  26.317  26.448  1.00  0.00    -0.351 N 
ATOM      5  C   UNL A   1      30.920  25.211  25.762  1.00  0.00     0.279 C 
ATOM      6  O   UNL A   1      30.381  24.135  26.044  1.00  0.00    -0.268 OA
ATOM      7  H   UNL A   1      29.763  26.166  27.077  1.00  0.00     0.163 HD
BRANCH   5   8
ATOM      8  C   UNL A   1      32.064  25.242  24.729  1.00  0.00     0.283 C 
ATOM      9  C   UNL A   1      33.973  23.945  24.004  1.00  0.00     0.278 C 
ATOM     10  N   UNL A   1      33.237  24.460  25.160  1.00  0.00    -0.320 N 
ATOM     11  S   UNL A   1      33.106  24.416  22.487  1.00  0.00    -0.087 SA
ATOM     12  H   UNL A   1      33.853  25.058  25.710  1.00  0.00     0.348 HD
ATOM     13  H   UNL A   1      32.915  23.671  25.720  1.00  0.00     0.348 HD
ATOM     14  C   UNL A   1      31.572  24.772  23.369  1.00  0.00     0.151 C 
BRANCH   9  15
ATOM     15  C   UNL A   1      34.313  22.466  24.238  1.00  0.00     0.066 A 
ATOM     16  C   UNL A   1      32.576  19.174  25.279  1.00  0.00     0.048 C 
ATOM     17  C   UNL A   1      33.629  20.165  24.868  1.00  0.00    -0.008 A 
ATOM     18  C   UNL A   1      34.970  19.789  24.931  1.00  0.00     0.023 A 
ATOM     19  C   UNL A   1      33.318  21.484  24.494  1.00  0.00     0.128 A 
ATOM     20  C   UNL A   1      35.980  20.716  24.679  1.00  0.00     0.021 A 
ATOM     21  Br  UNL A   1      37.766  20.070  24.831  1.00  0.00    -0.051 Br
ATOM     22  C   UNL A   1      35.682  22.064  24.368  1.00  0.00    -0.023 A 
ATOM     23  C   UNL A   1      36.835  23.031  24.217  1.00  0.00     0.046 C 
BRANCH  19  24
ATOM     24  O   UNL A   1      31.996  21.842  24.457  1.00  0.00    -0.507 OA
ATOM     25  H   UNL A   1      31.695  22.567  24.967  1.00  0.00     0.293 HD
ENDBRANCH  19  24
ENDBRANCH   9  15
ENDBRANCH   5   8
ENDBRANCH   3   4
ENDBRANCH   2   3
ENDBRANCH   1   2
BRANCH   1  26
ATOM     26  C   UNL A   1      33.743  29.488  26.499  1.00  0.00     0.116 C 
BRANCH  26  27
ATOM     27  N   UNL A   1      33.714  30.694  27.316  1.00  0.00    -0.352 N 
ATOM     28  C   UNL A   1      34.691  31.139  28.187  1.00  0.00     0.251 C 
ATOM     29  H   UNL A   1      32.908  31.255  27.241  1.00  0.00     0.163 HD
ATOM     30  O   UNL A   1      34.544  32.160  28.844  1.00  0.00    -0.269 OA
BRANCH  28  31
ATOM     31  C   UNL A   1      35.905  30.307  28.347  1.00  0.00     0.039 A 
ATOM     32  C   UNL A   1      36.154  29.663  29.560  1.00  0.00     0.014 A 
ATOM     33  C   UNL A   1      36.862  30.308  27.330  1.00  0.00     0.014 A 
ATOM     34  C   UNL A   1      37.434  29.199  29.832  1.00  0.00     0.010 A 
ATOM     35  C   UNL A   1      38.128  29.771  27.581  1.00  0.00     0.010 A 
ATOM     36  C   UNL A   1      38.444  29.282  28.858  1.00  0.00    -0.014 A 
BRANCH  36  37
ATOM     37  C   UNL A   1      39.840  28.924  29.222  1.00  0.00     0.031 A 
ATOM     38  C   UNL A   1      40.405  27.580  28.835  1.00  0.00     0.074 A 
ATOM     39  C   UNL A   1      40.624  29.838  29.823  1.00  0.00     0.049 A 
ATOM     40  N   UNL A   1      41.599  27.097  29.064  1.00  0.00    -0.248 NA
ATOM     41  C   UNL A   1      39.524  26.662  28.093  1.00  0.00     0.031 C 
ATOM     42  C   UNL A   1      40.201  31.186  30.205  1.00  0.00     0.029 A 
ATOM     43  N   UNL A   1      41.944  29.784  30.192  1.00  0.00    -0.354 N 
ATOM     44  C   UNL A   1      41.610  25.823  28.508  1.00  0.00     0.074 A 
ATOM     45  C   UNL A   1      40.296  25.592  27.952  1.00  0.00     0.031 C 
ATOM     46  C   UNL A   1      41.253  31.847  30.712  1.00  0.00     0.029 A 
ATOM     47  C   UNL A   1      42.406  30.953  30.749  1.00  0.00     0.049 A 
ATOM     48  H   UNL A   1      42.507  28.986  30.069  1.00  0.00     0.167 HD
ATOM     49  C   UNL A   1      42.627  24.931  28.457  1.00  0.00     0.031 A 
ATOM     50  C   UNL A   1      43.616  31.271  31.251  1.00  0.00     0.031 A 
ATOM     51  C   UNL A   1      43.939  25.171  28.997  1.00  0.00     0.049 A 
ATOM     52  C   UNL A   1      44.713  30.249  31.228  1.00  0.00     0.074 A 
ATOM     53  C   UNL A   1      45.031  24.320  29.002  1.00  0.00     0.029 A 
ATOM     54  N   UNL A   1      44.343  26.345  29.614  1.00  0.00    -0.354 N 
ATOM     55  N   UNL A   1      44.689  29.034  30.733  1.00  0.00    -0.248 NA
ATOM     56  C   UNL A   1      45.997  30.629  31.834  1.00  0.00     0.031 C 
ATOM     57  C   UNL A   1      46.082  24.962  29.660  1.00  0.00     0.029 A 
ATOM     58  C   UNL A   1      45.662  26.234  30.017  1.00  0.00     0.049 A 
ATOM     59  H   UNL A   1      43.776  27.138  29.744  1.00  0.00     0.167 HD
ATOM     60  C   UNL A   1      45.949  28.502  30.976  1.00  0.00     0.074 A 
ATOM     61  C   UNL A   1      46.722  29.534  31.636  1.00  0.00     0.031 C 
ATOM     62  C   UNL A   1      46.415  27.263  30.685  1.00  0.00     0.031 A 
BRANCH  49  63
ATOM     63  C   UNL A   1      42.385  23.603  27.790  1.00  0.00    -0.014 A 
ATOM     64  C   UNL A   1      41.891  22.523  28.544  1.00  0.00     0.010 A 
ATOM     65  C   UNL A   1      42.776  23.387  26.457  1.00  0.00     0.010 A 
ATOM     66  C   UNL A   1      41.822  21.243  27.988  1.00  0.00     0.020 A 
ATOM     67  C   UNL A   1      42.687  22.112  25.890  1.00  0.00     0.020 A 
ATOM     68  C   UNL A   1      42.234  21.043  26.668  1.00  0.00     0.054 A 
BRANCH  68  69
ATOM     69  S   UNL A   1      42.173  19.368  25.972  1.00  0.00     0.124 S 
ATOM     70  O   UNL A   1      42.740  18.565  27.050  1.00  0.00    -0.237 OA
ATOM     71  O   UNL A   1      40.746  19.175  25.725  1.00  0.00    -0.237 OA
ATOM     72  O   UNL A   1      42.994  19.470  24.767  1.00  0.00    -0.744 OA
ENDBRANCH  68  69
ENDBRANCH  49  63
BRANCH  50  73
ATOM     73  C   UNL A   1      43.818  32.627  31.828  1.00  0.00    -0.014 A 
ATOM     74  C   UNL A   1      43.408  32.897  33.147  1.00  0.00     0.010 A 
ATOM     75  C   UNL A   1      44.319  33.673  31.037  1.00  0.00     0.010 A 
ATOM     76  C   UNL A   1      43.436  34.201  33.646  1.00  0.00     0.020 A 
ATOM     77  C   UNL A   1      44.374  34.977  31.542  1.00  0.00     0.020 A 
ATOM     78  C   UNL A   1      43.901  35.236  32.831  1.00  0.00     0.054 A 
BRANCH  78  79
ATOM     79  S   UNL A   1      43.873  36.934  33.469  1.00  0.00     0.124 S 
ATOM     80  O   UNL A   1      43.767  37.712  32.237  1.00  0.00    -0.237 OA
ATOM     81  O   UNL A   1      42.686  36.942  34.321  1.00  0.00    -0.237 OA
ATOM     82  O   UNL A   1      45.144  37.051  34.177  1.00  0.00    -0.744 OA
ENDBRANCH  78  79
ENDBRANCH  50  73
BRANCH  62  83
ATOM     83  C   UNL A   1      47.822  26.925  31.092  1.00  0.00    -0.014 A 
ATOM     84  C   UNL A   1      48.880  27.114  30.183  1.00  0.00     0.010 A 
ATOM     85  C   UNL A   1      48.074  26.291  32.321  1.00  0.00     0.010 A 
ATOM     86  C   UNL A   1      50.161  26.645  30.482  1.00  0.00     0.020 A 
ATOM     87  C   UNL A   1      49.359  25.840  32.632  1.00  0.00     0.020 A 
ATOM     88  C   UNL A   1      50.389  25.998  31.699  1.00  0.00     0.054 A 
BRANCH  88  89
ATOM     89  S   UNL A   1      52.049  25.362  32.059  1.00  0.00     0.124 S 
ATOM     90  O   UNL A   1      52.403  26.097  33.271  1.00  0.00    -0.237 OA
ATOM     91  O   UNL A   1      51.816  23.931  32.236  1.00  0.00    -0.237 OA
ATOM     92  O   UNL A   1      52.815  25.716  30.867  1.00  0.00    -0.744 OA
ENDBRANCH  88  89
ENDBRANCH  62  83
ENDBRANCH  36  37
ENDBRANCH  28  31
ENDBRANCH  26  27
ENDBRANCH   1  26
TORSDOF 16
ENDMDL
MODEL 3
REMARK VINA RESULT:     -11.1      2.894      9.555
REMARK SMILES Cc1cc(Br)c(C)c([C@@H]2[NH2+][C@H](C(=O)NCCCCNC(=O)c3ccc(-c4c5nc(c(-c6ccc(S(=O)(=O)[O-])cc6)c6ccc([nH]6)c(-c6ccc(S(=O)(=O)[O-])cc6)c6nc(c(-c7ccc(S(=O)(=O)[O-])cc7)c7ccc4[nH]7)C=C6)C=C5)cc3)CS2)c1O
REMARK SMILES IDX 17 1 16 2 15 3 14 4 12 5 13 6 11 8 9 9 10 10 83 11 82 14
REMARK SMILES IDX 8 15 1 16 2 17 3 18 84 19 4 20 5 21 6 22 7 23 85 24 18 26
REMARK SMILES IDX 19 27 20 28 21 30 22 31 23 32 81 33 24 34 80 35 25 36 26 37
REMARK SMILES IDX 27 38 74 39 28 40 79 41 73 42 75 43 29 44 78 45 72 46 71 47
REMARK SMILES IDX 30 49 60 50 41 51 59 52 42 53 45 54 58 55 76 56 43 57 44 58
REMARK SMILES IDX 57 60 77 61 46 62 31 63 32 64 40 65 33 66 39 67 34 68 35 69
REMARK SMILES IDX 36 70 37 71 38 72 61 73 62 74 70 75 63 76 69 77 64 78 65 79
REMARK SMILES IDX 66 80 67 81 68 82 47 83 48 84 56 85 49 86 55 87 50 88 51 89
REMARK SMILES IDX 52 90 53 91 54 92
REMARK H PARENT 14 7 10 12 10 13 85 25 19 29 75 48 45 59
REMARK Flexibility Score: inf
ROOT
ATOM      1  C   UNL A   1      36.218  22.279  25.950  1.00  0.00     0.023 C 
ENDROOT
BRANCH   1   2
ATOM      2  C   UNL A   1      35.866  20.921  25.344  1.00  0.00     0.023 C 
BRANCH   2   3
ATOM      3  C   UNL A   1      34.383  20.724  25.017  1.00  0.00     0.116 C 
BRANCH   3   4
ATOM      4  N   UNL A   1      33.963  21.464  23.841  1.00  0.00    -0.351 N 
ATOM      5  C   UNL A   1      33.150  22.559  23.744  1.00  0.00     0.279 C 
ATOM      6  O   UNL A   1      32.996  23.051  22.620  1.00  0.00    -0.268 OA
ATOM      7  H   UNL A   1      34.315  21.127  22.986  1.00  0.00     0.163 HD
BRANCH   5   8
ATOM      8  C   UNL A   1      32.495  23.231  24.967  1.00  0.00     0.283 C 
ATOM      9  C   UNL A   1      32.238  25.404  25.998  1.00  0.00     0.278 C 
ATOM     10  N   UNL A   1      33.175  24.481  25.355  1.00  0.00    -0.320 N 
ATOM     11  S   UNL A   1      30.583  24.670  26.000  1.00  0.00    -0.087 SA
ATOM     12  H   UNL A   1      33.929  24.262  26.006  1.00  0.00     0.348 HD
ATOM     13  H   UNL A   1      33.547  24.924  24.516  1.00  0.00     0.348 HD
ATOM     14  C   UNL A   1      31.016  23.476  24.717  1.00  0.00     0.151 C 
BRANCH   9  15
ATOM     15  C   UNL A   1      32.428  26.809  25.410  1.00  0.00     0.066 A 
ATOM     16  C   UNL A   1      34.136  28.536  22.402  1.00  0.00     0.048 C 
ATOM     17  C   UNL A   1      33.362  28.316  23.673  1.00  0.00    -0.008 A 
ATOM     18  C   UNL A   1      33.016  29.419  24.451  1.00  0.00     0.023 A 
ATOM     19  C   UNL A   1      33.037  27.032  24.145  1.00  0.00     0.128 A 
ATOM     20  C   UNL A   1      32.409  29.249  25.694  1.00  0.00     0.021 A 
ATOM     21  Br  UNL A   1      32.021  30.845  26.661  1.00  0.00    -0.051 Br
ATOM     22  C   UNL A   1      32.139  27.961  26.212  1.00  0.00    -0.023 A 
ATOM     23  C   UNL A   1      31.580  27.859  27.614  1.00  0.00     0.046 C 
BRANCH  19  24
ATOM     24  O   UNL A   1      33.402  25.958  23.377  1.00  0.00    -0.507 OA
ATOM     25  H   UNL A   1      32.796  25.260  23.232  1.00  0.00     0.293 HD
ENDBRANCH  19  24
ENDBRANCH   9  15
ENDBRANCH   5   8
ENDBRANCH   3   4
ENDBRANCH   2   3
ENDBRANCH   1   2
BRANCH   1  26
ATOM     26  C   UNL A   1      37.429  22.974  25.335  1.00  0.00     0.116 C 
BRANCH  26  27
ATOM     27  N   UNL A   1      38.703  22.305  25.564  1.00  0.00    -0.352 N 
ATOM     28  C   UNL A   1      39.799  22.802  26.244  1.00  0.00     0.251 C 
ATOM     29  H   UNL A   1      38.794  21.398  25.193  1.00  0.00     0.163 HD
ATOM     30  O   UNL A   1      40.831  22.155  26.352  1.00  0.00    -0.269 OA
BRANCH  28  31
ATOM     31  C   UNL A   1      39.708  24.174  26.793  1.00  0.00     0.039 A 
ATOM     32  C   UNL A   1      40.299  25.238  26.110  1.00  0.00     0.014 A 
ATOM     33  C   UNL A   1      39.166  24.356  28.067  1.00  0.00     0.014 A 
ATOM     34  C   UNL A   1      40.532  26.431  26.783  1.00  0.00     0.010 A 
ATOM     35  C   UNL A   1      39.335  25.584  28.713  1.00  0.00     0.010 A 
ATOM     36  C   UNL A   1      40.085  26.602  28.104  1.00  0.00    -0.014 A 
BRANCH  36  37
ATOM     37  C   UNL A   1      40.479  27.823  28.856  1.00  0.00     0.031 A 
ATOM     38  C   UNL A   1      41.882  27.966  29.389  1.00  0.00     0.074 A 
ATOM     39  C   UNL A   1      39.602  28.836  28.983  1.00  0.00     0.049 A 
ATOM     40  N   UNL A   1      42.405  28.958  30.063  1.00  0.00    -0.248 NA
ATOM     41  C   UNL A   1      42.822  26.861  29.132  1.00  0.00     0.031 C 
ATOM     42  C   UNL A   1      38.231  28.830  28.469  1.00  0.00     0.029 A 
ATOM     43  N   UNL A   1      39.739  30.075  29.556  1.00  0.00    -0.354 N 
ATOM     44  C   UNL A   1      43.723  28.596  30.319  1.00  0.00     0.074 A 
ATOM     45  C   UNL A   1      43.918  27.280  29.752  1.00  0.00     0.031 C 
ATOM     46  C   UNL A   1      37.669  30.024  28.710  1.00  0.00     0.029 A 
ATOM     47  C   UNL A   1      38.614  30.857  29.447  1.00  0.00     0.049 A 
ATOM     48  H   UNL A   1      40.564  30.375  30.002  1.00  0.00     0.167 HD
ATOM     49  C   UNL A   1      44.685  29.301  30.958  1.00  0.00     0.031 A 
ATOM     50  C   UNL A   1      38.358  32.100  29.902  1.00  0.00     0.031 A 
ATOM     51  C   UNL A   1      44.491  30.617  31.506  1.00  0.00     0.049 A 
ATOM     52  C   UNL A   1      39.424  32.842  30.652  1.00  0.00     0.074 A 
ATOM     53  C   UNL A   1      45.408  31.404  32.182  1.00  0.00     0.029 A 
ATOM     54  N   UNL A   1      43.315  31.344  31.432  1.00  0.00    -0.354 N 
ATOM     55  N   UNL A   1      40.652  32.462  30.917  1.00  0.00    -0.248 NA
ATOM     56  C   UNL A   1      39.077  34.172  31.171  1.00  0.00     0.031 C 
ATOM     57  C   UNL A   1      44.771  32.590  32.556  1.00  0.00     0.029 A 
ATOM     58  C   UNL A   1      43.476  32.565  32.065  1.00  0.00     0.049 A 
ATOM     59  H   UNL A   1      42.488  31.039  30.995  1.00  0.00     0.167 HD
ATOM     60  C   UNL A   1      41.220  33.503  31.642  1.00  0.00     0.074 A 
ATOM     61  C   UNL A   1      40.215  34.539  31.749  1.00  0.00     0.031 C 
ATOM     62  C   UNL A   1      42.462  33.582  32.177  1.00  0.00     0.031 A 
BRANCH  49  63
ATOM     63  C   UNL A   1      46.050  28.683  31.107  1.00  0.00    -0.014 A 
ATOM     64  C   UNL A   1      47.054  28.971  30.164  1.00  0.00     0.010 A 
ATOM     65  C   UNL A   1      46.296  27.713  32.095  1.00  0.00     0.010 A 
ATOM     66  C   UNL A   1      48.267  28.279  30.185  1.00  0.00     0.020 A 
ATOM     67  C   UNL A   1      47.518  27.034  32.132  1.00  0.00     0.020 A 
ATOM     68  C   UNL A   1      48.486  27.304  31.162  1.00  0.00     0.054 A 
BRANCH  68  69
ATOM     69  S   UNL A   1      50.053  26.388  31.154  1.00  0.00     0.124 S 
ATOM     70  O   UNL A   1      50.930  27.270  31.916  1.00  0.00    -0.237 OA
ATOM     71  O   UNL A   1      49.694  25.133  31.810  1.00  0.00    -0.237 OA
ATOM     72  O   UNL A   1      50.368  26.267  29.732  1.00  0.00    -0.744 OA
ENDBRANCH  68  69
ENDBRANCH  49  63
BRANCH  50  73
ATOM     73  C   UNL A   1      37.015  32.690  29.658  1.00  0.00    -0.014 A 
ATOM     74  C   UNL A   1      36.763  33.393  28.465  1.00  0.00     0.010 A 
ATOM     75  C   UNL A   1      36.022  32.643  30.650  1.00  0.00     0.010 A 
ATOM     76  C   UNL A   1      35.567  34.092  28.293  1.00  0.00     0.020 A 
ATOM     77  C   UNL A   1      34.811  33.321  30.470  1.00  0.00     0.020 A 
ATOM     78  C   UNL A   1      34.607  34.068  29.307  1.00  0.00     0.054 A 
BRANCH  78  79
ATOM     79  S   UNL A   1      33.085  35.033  29.097  1.00  0.00     0.124 S 
ATOM     80  O   UNL A   1      32.516  34.984  30.441  1.00  0.00    -0.237 OA
ATOM     81  O   UNL A   1      33.584  36.338  28.672  1.00  0.00    -0.237 OA
ATOM     82  O   UNL A   1      32.351  34.289  28.078  1.00  0.00    -0.744 OA
ENDBRANCH  78  79
ENDBRANCH  50  73
BRANCH  62  83
ATOM     83  C   UNL A   1      42.819  34.818  32.954  1.00  0.00    -0.014 A 
ATOM     84  C   UNL A   1      43.493  35.877  32.318  1.00  0.00     0.010 A 
ATOM     85  C   UNL A   1      42.611  34.869  34.344  1.00  0.00     0.010 A 
ATOM     86  C   UNL A   1      43.982  36.952  33.063  1.00  0.00     0.020 A 
ATOM     87  C   UNL A   1      43.080  35.954  35.088  1.00  0.00     0.020 A 
ATOM     88  C   UNL A   1      43.785  36.976  34.446  1.00  0.00     0.054 A 
BRANCH  88  89
ATOM     89  S   UNL A   1      44.457  38.361  35.405  1.00  0.00     0.124 S 
ATOM     90  O   UNL A   1      43.872  39.516  34.729  1.00  0.00    -0.237 OA
ATOM     91  O   UNL A   1      43.952  38.098  36.751  1.00  0.00    -0.237 OA
ATOM     92  O   UNL A   1      45.902  38.213  35.252  1.00  0.00    -0.744 OA
ENDBRANCH  88  89
ENDBRANCH  62  83
ENDBRANCH  36  37
ENDBRANCH  28  31
ENDBRANCH  26  27
ENDBRANCH   1  26
TORSDOF 16
ENDMDL
