MODEL 1
REMARK VINA RESULT:     -12.0      0.000      0.000
REMARK SMILES Cc1c(NC(=S)NC(=O)CSc2ccc(Cl)cc2)cccc1C(=O)NCCCCNC(=O)c1ccc(-c2c3nc(c(-c4ccc(S(=O)(=O)[O-])cc4)c4ccc([nH]4)c(-c4ccc(S(=O)(=O)[O-])cc4)c4nc(c(-c5ccc(S(=O)(=O)[O-])cc5)c5ccc2[nH]5)C=C4)C=C3)cc1
REMARK SMILES IDX 26 1 25 2 23 3 24 4 22 6 1 7 2 8 3 9 19 10 21 11 20 12 4 13
REMARK SMILES IDX 5 15 6 16 7 17 8 18 9 20 10 21 11 22 12 23 13 24 18 25 14 26
REMARK SMILES IDX 17 27 15 28 16 29 27 30 28 31 29 32 30 33 31 34 32 36 33 37
REMARK SMILES IDX 34 38 92 39 35 40 91 41 36 42 37 43 38 44 85 45 39 46 90 47
REMARK SMILES IDX 84 48 86 49 40 50 89 51 83 52 82 53 41 55 71 56 52 57 70 58
REMARK SMILES IDX 53 59 56 60 69 61 87 62 54 63 55 64 68 66 88 67 57 68 42 69
REMARK SMILES IDX 43 70 51 71 44 72 50 73 45 74 46 75 47 76 48 77 49 78 72 79
REMARK SMILES IDX 73 80 81 81 74 82 80 83 75 84 76 85 77 86 78 87 79 88 58 89
REMARK SMILES IDX 59 90 67 91 60 92 66 93 61 94 62 95 63 96 64 97 65 98
REMARK H PARENT 25 5 4 14 7 19 30 35 86 54 56 65
REMARK Flexibility Score: inf
ROOT
ATOM      1  C   UNL A   1      33.530  29.055  24.406  1.00  0.00     0.116 C 
ENDROOT
BRANCH   1   2
ATOM      2  N   UNL A   1      33.131  28.094  23.398  1.00  0.00    -0.352 N 
ATOM      3  C   UNL A   1      33.192  26.749  23.174  1.00  0.00     0.251 C 
ATOM      4  O   UNL A   1      32.632  26.422  22.114  1.00  0.00    -0.269 OA
ATOM      5  H   UNL A   1      32.682  28.547  22.647  1.00  0.00     0.163 HD
BRANCH   3   6
ATOM      6  C   UNL A   1      33.823  25.630  23.981  1.00  0.00     0.044 A 
ATOM      7  C   UNL A   1      34.273  23.815  22.226  1.00  0.00     0.047 C 
ATOM      8  C   UNL A   1      34.426  24.406  23.592  1.00  0.00    -0.015 A 
ATOM      9  C   UNL A   1      35.231  23.694  24.538  1.00  0.00     0.044 A 
ATOM     10  C   UNL A   1      35.183  24.018  25.892  1.00  0.00     0.026 A 
ATOM     11  C   UNL A   1      33.894  25.965  25.359  1.00  0.00     0.014 A 
ATOM     12  C   UNL A   1      34.513  25.156  26.307  1.00  0.00     0.003 A 
BRANCH   9  13
ATOM     13  N   UNL A   1      36.075  22.659  24.083  1.00  0.00    -0.332 N 
ATOM     14  H   UNL A   1      36.314  22.753  23.133  1.00  0.00     0.169 HD
BRANCH  13  15
ATOM     15  C   UNL A   1      36.623  21.580  24.652  1.00  0.00     0.177 C 
ATOM     16  S   UNL A   1      38.080  21.793  25.458  1.00  0.00    -0.040 S 
BRANCH  15  17
ATOM     17  N   UNL A   1      36.085  20.328  24.685  1.00  0.00    -0.302 N 
ATOM     18  C   UNL A   1      34.887  19.649  24.832  1.00  0.00     0.236 C 
ATOM     19  H   UNL A   1      36.807  19.670  24.557  1.00  0.00     0.172 HD
ATOM     20  O   UNL A   1      34.930  18.432  24.597  1.00  0.00    -0.274 OA
BRANCH  18  21
ATOM     21  C   UNL A   1      33.569  20.280  25.228  1.00  0.00     0.175 C 
BRANCH  21  22
ATOM     22  S   UNL A   1      32.464  20.668  23.847  1.00  0.00    -0.116 SA
BRANCH  22  23
ATOM     23  C   UNL A   1      31.732  22.151  24.484  1.00  0.00     0.008 A 
ATOM     24  C   UNL A   1      31.761  22.448  25.850  1.00  0.00     0.016 A 
ATOM     25  C   UNL A   1      31.134  23.040  23.588  1.00  0.00     0.016 A 
ATOM     26  C   UNL A   1      31.207  23.643  26.314  1.00  0.00     0.021 A 
ATOM     27  C   UNL A   1      30.583  24.233  24.050  1.00  0.00     0.021 A 
ATOM     28  C   UNL A   1      30.625  24.533  25.411  1.00  0.00     0.041 A 
ATOM     29  Cl  UNL A   1      29.958  26.015  25.972  1.00  0.00    -0.084 Cl
ENDBRANCH  22  23
ENDBRANCH  21  22
ENDBRANCH  18  21
ENDBRANCH  15  17
ENDBRANCH  13  15
ENDBRANCH   9  13
ENDBRANCH   3   6
ENDBRANCH   1   2
BRANCH   1  30
ATOM     30  C   UNL A   1      32.542  29.161  25.580  1.00  0.00     0.023 C 
BRANCH  30  31
ATOM     31  C   UNL A   1      33.060  29.910  26.801  1.00  0.00     0.023 C 
BRANCH  31  32
ATOM     32  C   UNL A   1      34.519  29.613  27.098  1.00  0.00     0.116 C 
BRANCH  32  33
ATOM     33  N   UNL A   1      35.396  30.764  27.237  1.00  0.00    -0.352 N 
ATOM     34  C   UNL A   1      36.513  30.825  28.061  1.00  0.00     0.251 C 
ATOM     35  H   UNL A   1      35.181  31.564  26.704  1.00  0.00     0.163 HD
ATOM     36  O   UNL A   1      36.919  31.869  28.556  1.00  0.00    -0.269 OA
BRANCH  34  37
ATOM     37  C   UNL A   1      37.310  29.580  28.170  1.00  0.00     0.039 A 
ATOM     38  C   UNL A   1      37.407  28.988  29.436  1.00  0.00     0.014 A 
ATOM     39  C   UNL A   1      38.202  29.246  27.158  1.00  0.00     0.014 A 
ATOM     40  C   UNL A   1      38.526  28.218  29.746  1.00  0.00     0.010 A 
ATOM     41  C   UNL A   1      39.375  28.617  27.514  1.00  0.00     0.010 A 
ATOM     42  C   UNL A   1      39.557  28.131  28.816  1.00  0.00    -0.014 A 
BRANCH  42  43
ATOM     43  C   UNL A   1      40.884  27.592  29.095  1.00  0.00     0.031 A 
ATOM     44  C   UNL A   1      41.177  26.184  28.727  1.00  0.00     0.074 A 
ATOM     45  C   UNL A   1      41.876  28.400  29.534  1.00  0.00     0.049 A 
ATOM     46  N   UNL A   1      42.177  25.497  29.168  1.00  0.00    -0.248 NA
ATOM     47  C   UNL A   1      40.300  25.406  27.855  1.00  0.00     0.031 C 
ATOM     48  C   UNL A   1      43.310  28.117  29.509  1.00  0.00     0.029 A 
ATOM     49  N   UNL A   1      41.785  29.569  30.293  1.00  0.00    -0.354 N 
ATOM     50  C   UNL A   1      42.264  24.357  28.398  1.00  0.00     0.074 A 
ATOM     51  C   UNL A   1      41.014  24.293  27.684  1.00  0.00     0.031 C 
ATOM     52  C   UNL A   1      43.913  28.867  30.444  1.00  0.00     0.029 A 
ATOM     53  C   UNL A   1      42.865  29.537  31.193  1.00  0.00     0.049 A 
ATOM     54  H   UNL A   1      41.102  30.274  30.214  1.00  0.00     0.167 HD
ATOM     55  C   UNL A   1      43.448  23.684  28.330  1.00  0.00     0.031 A 
ATOM     56  C   UNL A   1      42.724  29.492  32.551  1.00  0.00     0.031 A 
ATOM     57  C   UNL A   1      44.398  24.185  29.323  1.00  0.00     0.049 A 
ATOM     58  C   UNL A   1      43.351  28.257  33.169  1.00  0.00     0.074 A 
ATOM     59  C   UNL A   1      45.512  25.004  29.246  1.00  0.00     0.029 A 
ATOM     60  N   UNL A   1      44.075  24.089  30.674  1.00  0.00    -0.354 N 
ATOM     61  N   UNL A   1      43.738  27.218  32.480  1.00  0.00    -0.248 NA
ATOM     62  C   UNL A   1      43.553  28.072  34.604  1.00  0.00     0.031 C 
ATOM     63  C   UNL A   1      45.785  25.494  30.551  1.00  0.00     0.029 A 
ATOM     64  C   UNL A   1      44.864  24.941  31.423  1.00  0.00     0.049 A 
ATOM     65  H   UNL A   1      43.381  23.496  31.043  1.00  0.00     0.167 HD
ATOM     66  C   UNL A   1      44.214  26.251  33.323  1.00  0.00     0.074 A 
ATOM     67  C   UNL A   1      44.088  26.838  34.646  1.00  0.00     0.031 C 
ATOM     68  C   UNL A   1      44.662  25.045  32.864  1.00  0.00     0.031 A 
BRANCH  55  69
ATOM     69  C   UNL A   1      43.839  22.781  27.171  1.00  0.00    -0.014 A 
ATOM     70  C   UNL A   1      42.941  21.785  26.731  1.00  0.00     0.010 A 
ATOM     71  C   UNL A   1      45.097  22.782  26.538  1.00  0.00     0.010 A 
ATOM     72  C   UNL A   1      43.310  20.802  25.796  1.00  0.00     0.020 A 
ATOM     73  C   UNL A   1      45.488  21.800  25.616  1.00  0.00     0.020 A 
ATOM     74  C   UNL A   1      44.595  20.800  25.262  1.00  0.00     0.054 A 
BRANCH  74  75
ATOM     75  S   UNL A   1      45.093  19.486  24.121  1.00  0.00     0.124 S 
ATOM     76  O   UNL A   1      44.500  18.299  24.732  1.00  0.00    -0.237 OA
ATOM     77  O   UNL A   1      44.493  19.917  22.863  1.00  0.00    -0.237 OA
ATOM     78  O   UNL A   1      46.555  19.529  24.157  1.00  0.00    -0.744 OA
ENDBRANCH  74  75
ENDBRANCH  55  69
BRANCH  56  79
ATOM     79  C   UNL A   1      41.513  30.194  33.061  1.00  0.00    -0.014 A 
ATOM     80  C   UNL A   1      41.580  31.602  33.140  1.00  0.00     0.010 A 
ATOM     81  C   UNL A   1      40.252  29.575  32.988  1.00  0.00     0.010 A 
ATOM     82  C   UNL A   1      40.439  32.378  32.927  1.00  0.00     0.020 A 
ATOM     83  C   UNL A   1      39.103  30.356  32.783  1.00  0.00     0.020 A 
ATOM     84  C   UNL A   1      39.226  31.744  32.667  1.00  0.00     0.054 A 
BRANCH  84  85
ATOM     85  S   UNL A   1      37.880  32.741  31.954  1.00  0.00     0.124 S 
ATOM     86  O   UNL A   1      37.514  33.616  33.062  1.00  0.00    -0.237 OA
ATOM     87  O   UNL A   1      38.557  33.393  30.832  1.00  0.00    -0.237 OA
ATOM     88  O   UNL A   1      36.884  31.739  31.586  1.00  0.00    -0.744 OA
ENDBRANCH  84  85
ENDBRANCH  56  79
BRANCH  68  89
ATOM     89  C   UNL A   1      45.022  23.856  33.721  1.00  0.00    -0.014 A 
ATOM     90  C   UNL A   1      44.104  22.880  34.140  1.00  0.00     0.010 A 
ATOM     91  C   UNL A   1      46.388  23.622  34.014  1.00  0.00     0.010 A 
ATOM     92  C   UNL A   1      44.521  21.758  34.871  1.00  0.00     0.020 A 
ATOM     93  C   UNL A   1      46.819  22.486  34.701  1.00  0.00     0.020 A 
ATOM     94  C   UNL A   1      45.875  21.569  35.150  1.00  0.00     0.054 A 
BRANCH  94  95
ATOM     95  S   UNL A   1      46.415  20.086  36.039  1.00  0.00     0.124 S 
ATOM     96  O   UNL A   1      47.853  20.313  36.156  1.00  0.00    -0.237 OA
ATOM     97  O   UNL A   1      45.665  20.161  37.291  1.00  0.00    -0.237 OA
ATOM     98  O   UNL A   1      46.022  18.995  35.150  1.00  0.00    -0.744 OA
ENDBRANCH  94  95
ENDBRANCH  68  89
ENDBRANCH  42  43
ENDBRANCH  34  37
ENDBRANCH  32  33
ENDBRANCH  31  32
ENDBRANCH  30  31
ENDBRANCH   1  30
TORSDOF 20
ENDMDL
MODEL 2
REMARK VINA RESULT:     -11.5      1.901      2.619
REMARK SMILES Cc1c(NC(=S)NC(=O)CSc2ccc(Cl)cc2)cccc1C(=O)NCCCCNC(=O)c1ccc(-c2c3nc(c(-c4ccc(S(=O)(=O)[O-])cc4)c4ccc([nH]4)c(-c4ccc(S(=O)(=O)[O-])cc4)c4nc(c(-c5ccc(S(=O)(=O)[O-])cc5)c5ccc2[nH]5)C=C4)C=C3)cc1
REMARK SMILES IDX 26 1 25 2 23 3 24 4 22 6 1 7 2 8 3 9 19 10 21 11 20 12 4 13
REMARK SMILES IDX 5 15 6 16 7 17 8 18 9 20 10 21 11 22 12 23 13 24 18 25 14 26
REMARK SMILES IDX 17 27 15 28 16 29 27 30 28 31 29 32 30 33 31 34 32 36 33 37
REMARK SMILES IDX 34 38 92 39 35 40 91 41 36 42 37 43 38 44 85 45 39 46 90 47
REMARK SMILES IDX 84 48 86 49 40 50 89 51 83 52 82 53 41 55 71 56 52 57 70 58
REMARK SMILES IDX 53 59 56 60 69 61 87 62 54 63 55 64 68 66 88 67 57 68 42 69
REMARK SMILES IDX 43 70 51 71 44 72 50 73 45 74 46 75 47 76 48 77 49 78 72 79
REMARK SMILES IDX 73 80 81 81 74 82 80 83 75 84 76 85 77 86 78 87 79 88 58 89
REMARK SMILES IDX 59 90 67 91 60 92 66 93 61 94 62 95 63 96 64 97 65 98
REMARK H PARENT 25 5 4 14 7 19 30 35 86 54 56 65
REMARK Flexibility Score: inf
ROOT
ATOM      1  C   UNL A   1      33.114  29.252  23.550  1.00  0.00     0.116 C 
ENDROOT
BRANCH   1   2
ATOM      2  N   UNL A   1      33.158  28.243  22.510  1.00  0.00    -0.352 N 
ATOM      3  C   UNL A   1      33.397  26.907  22.381  1.00  0.00     0.251 C 
ATOM      4  O   UNL A   1      33.257  26.514  21.211  1.00  0.00    -0.269 OA
ATOM      5  H   UNL A   1      32.955  28.642  21.633  1.00  0.00     0.163 HD
BRANCH   3   6
ATOM      6  C   UNL A   1      33.803  25.861  23.402  1.00  0.00     0.044 A 
ATOM      7  C   UNL A   1      33.910  23.699  22.027  1.00  0.00     0.047 C 
ATOM      8  C   UNL A   1      34.167  24.497  23.267  1.00  0.00    -0.015 A 
ATOM      9  C   UNL A   1      34.821  23.838  24.357  1.00  0.00     0.044 A 
ATOM     10  C   UNL A   1      34.831  24.412  25.627  1.00  0.00     0.026 A 
ATOM     11  C   UNL A   1      33.933  26.429  24.697  1.00  0.00     0.014 A 
ATOM     12  C   UNL A   1      34.386  25.711  25.800  1.00  0.00     0.003 A 
BRANCH   9  13
ATOM     13  N   UNL A   1      35.457  22.599  24.132  1.00  0.00    -0.332 N 
ATOM     14  H   UNL A   1      36.172  22.655  23.457  1.00  0.00     0.169 HD
BRANCH  13  15
ATOM     15  C   UNL A   1      35.308  21.366  24.626  1.00  0.00     0.177 C 
ATOM     16  S   UNL A   1      36.705  20.510  24.990  1.00  0.00    -0.040 S 
BRANCH  15  17
ATOM     17  N   UNL A   1      34.125  20.753  24.914  1.00  0.00    -0.302 N 
ATOM     18  C   UNL A   1      32.891  20.966  25.505  1.00  0.00     0.236 C 
ATOM     19  H   UNL A   1      34.160  19.826  24.583  1.00  0.00     0.172 HD
ATOM     20  O   UNL A   1      32.056  20.064  25.339  1.00  0.00    -0.274 OA
BRANCH  18  21
ATOM     21  C   UNL A   1      32.502  22.198  26.295  1.00  0.00     0.175 C 
BRANCH  21  22
ATOM     22  S   UNL A   1      30.719  22.452  26.482  1.00  0.00    -0.116 SA
BRANCH  22  23
ATOM     23  C   UNL A   1      30.519  23.839  25.396  1.00  0.00     0.008 A 
ATOM     24  C   UNL A   1      30.615  23.695  24.009  1.00  0.00     0.016 A 
ATOM     25  C   UNL A   1      30.243  25.089  25.952  1.00  0.00     0.016 A 
ATOM     26  C   UNL A   1      30.415  24.802  23.179  1.00  0.00     0.021 A 
ATOM     27  C   UNL A   1      30.043  26.193  25.126  1.00  0.00     0.021 A 
ATOM     28  C   UNL A   1      30.125  26.044  23.742  1.00  0.00     0.041 A 
ATOM     29  Cl  UNL A   1      29.859  27.408  22.728  1.00  0.00    -0.084 Cl
ENDBRANCH  22  23
ENDBRANCH  21  22
ENDBRANCH  18  21
ENDBRANCH  15  17
ENDBRANCH  13  15
ENDBRANCH   9  13
ENDBRANCH   3   6
ENDBRANCH   1   2
BRANCH   1  30
ATOM     30  C   UNL A   1      31.747  29.361  24.245  1.00  0.00     0.023 C 
BRANCH  30  31
ATOM     31  C   UNL A   1      31.792  29.780  25.709  1.00  0.00     0.023 C 
BRANCH  31  32
ATOM     32  C   UNL A   1      33.203  29.816  26.268  1.00  0.00     0.116 C 
BRANCH  32  33
ATOM     33  N   UNL A   1      33.650  31.088  26.808  1.00  0.00    -0.352 N 
ATOM     34  C   UNL A   1      34.404  31.247  27.965  1.00  0.00     0.251 C 
ATOM     35  H   UNL A   1      33.399  31.903  26.315  1.00  0.00     0.163 HD
ATOM     36  O   UNL A   1      34.342  32.248  28.668  1.00  0.00    -0.269 OA
BRANCH  34  37
ATOM     37  C   UNL A   1      35.436  30.213  28.216  1.00  0.00     0.039 A 
ATOM     38  C   UNL A   1      35.665  29.843  29.548  1.00  0.00     0.014 A 
ATOM     39  C   UNL A   1      36.364  29.916  27.225  1.00  0.00     0.014 A 
ATOM     40  C   UNL A   1      36.919  29.362  29.918  1.00  0.00     0.010 A 
ATOM     41  C   UNL A   1      37.644  29.589  27.618  1.00  0.00     0.010 A 
ATOM     42  C   UNL A   1      37.936  29.345  28.968  1.00  0.00    -0.014 A 
BRANCH  42  43
ATOM     43  C   UNL A   1      39.347  29.124  29.265  1.00  0.00     0.031 A 
ATOM     44  C   UNL A   1      39.955  27.815  28.921  1.00  0.00     0.074 A 
ATOM     45  C   UNL A   1      40.125  30.141  29.701  1.00  0.00     0.049 A 
ATOM     46  N   UNL A   1      41.080  27.377  29.380  1.00  0.00    -0.248 NA
ATOM     47  C   UNL A   1      39.287  26.847  28.053  1.00  0.00     0.031 C 
ATOM     48  C   UNL A   1      41.586  30.190  29.691  1.00  0.00     0.029 A 
ATOM     49  N   UNL A   1      39.763  31.269  30.442  1.00  0.00    -0.354 N 
ATOM     50  C   UNL A   1      41.431  26.277  28.628  1.00  0.00     0.074 A 
ATOM     51  C   UNL A   1      40.236  25.923  27.904  1.00  0.00     0.031 C 
ATOM     52  C   UNL A   1      41.993  31.069  30.620  1.00  0.00     0.029 A 
ATOM     53  C   UNL A   1      40.811  31.493  31.351  1.00  0.00     0.049 A 
ATOM     54  H   UNL A   1      38.939  31.800  30.346  1.00  0.00     0.167 HD
ATOM     55  C   UNL A   1      42.737  25.890  28.579  1.00  0.00     0.031 A 
ATOM     56  C   UNL A   1      40.669  31.434  32.708  1.00  0.00     0.031 A 
ATOM     57  C   UNL A   1      43.538  26.605  29.573  1.00  0.00     0.049 A 
ATOM     58  C   UNL A   1      41.553  30.382  33.349  1.00  0.00     0.074 A 
ATOM     59  C   UNL A   1      44.438  27.655  29.492  1.00  0.00     0.029 A 
ATOM     60  N   UNL A   1      43.230  26.456  30.922  1.00  0.00    -0.354 N 
ATOM     61  N   UNL A   1      42.173  29.449  32.679  1.00  0.00    -0.248 NA
ATOM     62  C   UNL A   1      41.775  30.265  34.788  1.00  0.00     0.031 C 
ATOM     63  C   UNL A   1      44.578  28.210  30.793  1.00  0.00     0.029 A 
ATOM     64  C   UNL A   1      43.797  27.473  31.665  1.00  0.00     0.049 A 
ATOM     65  H   UNL A   1      42.685  25.725  31.294  1.00  0.00     0.167 HD
ATOM     66  C   UNL A   1      42.846  28.625  33.540  1.00  0.00     0.074 A 
ATOM     67  C   UNL A   1      42.575  29.185  34.853  1.00  0.00     0.031 C 
ATOM     68  C   UNL A   1      43.560  27.547  33.103  1.00  0.00     0.031 A 
BRANCH  55  69
ATOM     69  C   UNL A   1      43.337  25.084  27.437  1.00  0.00    -0.014 A 
ATOM     70  C   UNL A   1      43.618  23.714  27.625  1.00  0.00     0.010 A 
ATOM     71  C   UNL A   1      43.741  25.620  26.199  1.00  0.00     0.010 A 
ATOM     72  C   UNL A   1      44.338  22.959  26.682  1.00  0.00     0.020 A 
ATOM     73  C   UNL A   1      44.474  24.887  25.254  1.00  0.00     0.020 A 
ATOM     74  C   UNL A   1      44.786  23.561  25.509  1.00  0.00     0.054 A 
BRANCH  74  75
ATOM     75  S   UNL A   1      45.783  22.609  24.335  1.00  0.00     0.124 S 
ATOM     76  O   UNL A   1      46.726  23.610  23.842  1.00  0.00    -0.237 OA
ATOM     77  O   UNL A   1      46.354  21.565  25.181  1.00  0.00    -0.237 OA
ATOM     78  O   UNL A   1      44.809  22.143  23.349  1.00  0.00    -0.744 OA
ENDBRANCH  74  75
ENDBRANCH  55  69
BRANCH  56  79
ATOM     79  C   UNL A   1      39.325  31.850  33.198  1.00  0.00    -0.014 A 
ATOM     80  C   UNL A   1      39.145  33.223  33.473  1.00  0.00     0.010 A 
ATOM     81  C   UNL A   1      38.196  31.056  32.927  1.00  0.00     0.010 A 
ATOM     82  C   UNL A   1      37.905  33.830  33.266  1.00  0.00     0.020 A 
ATOM     83  C   UNL A   1      36.947  31.665  32.729  1.00  0.00     0.020 A 
ATOM     84  C   UNL A   1      36.838  33.056  32.814  1.00  0.00     0.054 A 
BRANCH  84  85
ATOM     85  S   UNL A   1      35.391  33.921  32.125  1.00  0.00     0.124 S 
ATOM     86  O   UNL A   1      35.363  35.156  32.900  1.00  0.00    -0.237 OA
ATOM     87  O   UNL A   1      35.775  34.066  30.720  1.00  0.00    -0.237 OA
ATOM     88  O   UNL A   1      34.296  32.991  32.381  1.00  0.00    -0.744 OA
ENDBRANCH  84  85
ENDBRANCH  56  79
BRANCH  68  89
ATOM     89  C   UNL A   1      44.171  26.481  33.980  1.00  0.00    -0.014 A 
ATOM     90  C   UNL A   1      45.547  26.219  34.060  1.00  0.00     0.010 A 
ATOM     91  C   UNL A   1      43.330  25.786  34.883  1.00  0.00     0.010 A 
ATOM     92  C   UNL A   1      46.053  25.265  34.955  1.00  0.00     0.020 A 
ATOM     93  C   UNL A   1      43.827  24.867  35.809  1.00  0.00     0.020 A 
ATOM     94  C   UNL A   1      45.190  24.592  35.821  1.00  0.00     0.054 A 
BRANCH  94  95
ATOM     95  S   UNL A   1      45.857  23.407  37.018  1.00  0.00     0.124 S 
ATOM     96  O   UNL A   1      47.295  23.621  36.882  1.00  0.00    -0.237 OA
ATOM     97  O   UNL A   1      45.274  23.853  38.282  1.00  0.00    -0.237 OA
ATOM     98  O   UNL A   1      45.364  22.120  36.534  1.00  0.00    -0.744 OA
ENDBRANCH  94  95
ENDBRANCH  68  89
ENDBRANCH  42  43
ENDBRANCH  34  37
ENDBRANCH  32  33
ENDBRANCH  31  32
ENDBRANCH  30  31
ENDBRANCH   1  30
TORSDOF 20
ENDMDL
MODEL 3
REMARK VINA RESULT:     -11.1      2.172      3.147
REMARK SMILES Cc1c(NC(=S)NC(=O)CSc2ccc(Cl)cc2)cccc1C(=O)NCCCCNC(=O)c1ccc(-c2c3nc(c(-c4ccc(S(=O)(=O)[O-])cc4)c4ccc([nH]4)c(-c4ccc(S(=O)(=O)[O-])cc4)c4nc(c(-c5ccc(S(=O)(=O)[O-])cc5)c5ccc2[nH]5)C=C4)C=C3)cc1
REMARK SMILES IDX 26 1 25 2 23 3 24 4 22 6 1 7 2 8 3 9 19 10 21 11 20 12 4 13
REMARK SMILES IDX 5 15 6 16 7 17 8 18 9 20 10 21 11 22 12 23 13 24 18 25 14 26
REMARK SMILES IDX 17 27 15 28 16 29 27 30 28 31 29 32 30 33 31 34 32 36 33 37
REMARK SMILES IDX 34 38 92 39 35 40 91 41 36 42 37 43 38 44 85 45 39 46 90 47
REMARK SMILES IDX 84 48 86 49 40 50 89 51 83 52 82 53 41 55 71 56 52 57 70 58
REMARK SMILES IDX 53 59 56 60 69 61 87 62 54 63 55 64 68 66 88 67 57 68 42 69
REMARK SMILES IDX 43 70 51 71 44 72 50 73 45 74 46 75 47 76 48 77 49 78 72 79
REMARK SMILES IDX 73 80 81 81 74 82 80 83 75 84 76 85 77 86 78 87 79 88 58 89
REMARK SMILES IDX 59 90 67 91 60 92 66 93 61 94 62 95 63 96 64 97 65 98
REMARK H PARENT 25 5 4 14 7 19 30 35 86 54 56 65
REMARK Flexibility Score: inf
ROOT
ATOM      1  C   UNL A   1      32.146  29.402  24.581  1.00  0.00     0.116 C 
ENDROOT
BRANCH   1   2
ATOM      2  N   UNL A   1      31.125  28.744  23.789  1.00  0.00    -0.352 N 
ATOM      3  C   UNL A   1      30.460  27.553  23.750  1.00  0.00     0.251 C 
ATOM      4  O   UNL A   1      29.610  27.519  22.844  1.00  0.00    -0.269 OA
ATOM      5  H   UNL A   1      30.821  29.332  23.060  1.00  0.00     0.163 HD
BRANCH   3   6
ATOM      6  C   UNL A   1      30.595  26.305  24.600  1.00  0.00     0.044 A 
ATOM      7  C   UNL A   1      29.937  24.419  22.992  1.00  0.00     0.047 C 
ATOM      8  C   UNL A   1      30.511  24.926  24.277  1.00  0.00    -0.015 A 
ATOM      9  C   UNL A   1      31.005  23.960  25.211  1.00  0.00     0.044 A 
ATOM     10  C   UNL A   1      31.278  24.325  26.528  1.00  0.00     0.026 A 
ATOM     11  C   UNL A   1      30.981  26.625  25.928  1.00  0.00     0.014 A 
ATOM     12  C   UNL A   1      31.267  25.660  26.890  1.00  0.00     0.003 A 
BRANCH   9  13
ATOM     13  N   UNL A   1      31.213  22.631  24.784  1.00  0.00    -0.332 N 
ATOM     14  H   UNL A   1      30.553  22.339  24.114  1.00  0.00     0.169 HD
BRANCH  13  15
ATOM     15  C   UNL A   1      32.103  21.679  25.084  1.00  0.00     0.177 C 
ATOM     16  S   UNL A   1      32.484  20.576  23.878  1.00  0.00    -0.040 S 
BRANCH  15  17
ATOM     17  N   UNL A   1      32.773  21.548  26.263  1.00  0.00    -0.302 N 
ATOM     18  C   UNL A   1      34.045  21.551  26.812  1.00  0.00     0.236 C 
ATOM     19  H   UNL A   1      32.119  21.399  26.984  1.00  0.00     0.172 HD
ATOM     20  O   UNL A   1      34.092  21.557  28.052  1.00  0.00    -0.274 OA
BRANCH  18  21
ATOM     21  C   UNL A   1      35.336  21.570  26.023  1.00  0.00     0.175 C 
BRANCH  21  22
ATOM     22  S   UNL A   1      36.186  23.169  25.986  1.00  0.00    -0.116 SA
BRANCH  22  23
ATOM     23  C   UNL A   1      35.196  23.982  24.761  1.00  0.00     0.008 A 
ATOM     24  C   UNL A   1      34.702  25.274  24.966  1.00  0.00     0.016 A 
ATOM     25  C   UNL A   1      34.929  23.313  23.565  1.00  0.00     0.016 A 
ATOM     26  C   UNL A   1      33.956  25.900  23.964  1.00  0.00     0.021 A 
ATOM     27  C   UNL A   1      34.187  23.937  22.565  1.00  0.00     0.021 A 
ATOM     28  C   UNL A   1      33.706  25.231  22.767  1.00  0.00     0.041 A 
ATOM     29  Cl  UNL A   1      32.805  26.002  21.521  1.00  0.00    -0.084 Cl
ENDBRANCH  22  23
ENDBRANCH  21  22
ENDBRANCH  18  21
ENDBRANCH  15  17
ENDBRANCH  13  15
ENDBRANCH   9  13
ENDBRANCH   3   6
ENDBRANCH   1   2
BRANCH   1  30
ATOM     30  C   UNL A   1      31.579  30.347  25.652  1.00  0.00     0.023 C 
BRANCH  30  31
ATOM     31  C   UNL A   1      32.012  30.045  27.082  1.00  0.00     0.023 C 
BRANCH  31  32
ATOM     32  C   UNL A   1      33.520  30.030  27.249  1.00  0.00     0.116 C 
BRANCH  32  33
ATOM     33  N   UNL A   1      34.144  31.298  27.587  1.00  0.00    -0.352 N 
ATOM     34  C   UNL A   1      35.126  31.475  28.556  1.00  0.00     0.251 C 
ATOM     35  H   UNL A   1      33.849  32.095  27.090  1.00  0.00     0.163 HD
ATOM     36  O   UNL A   1      35.268  32.522  29.175  1.00  0.00    -0.269 OA
BRANCH  34  37
ATOM     37  C   UNL A   1      36.122  30.385  28.679  1.00  0.00     0.039 A 
ATOM     38  C   UNL A   1      36.340  29.856  29.958  1.00  0.00     0.014 A 
ATOM     39  C   UNL A   1      37.038  30.174  27.656  1.00  0.00     0.014 A 
ATOM     40  C   UNL A   1      37.578  29.293  30.263  1.00  0.00     0.010 A 
ATOM     41  C   UNL A   1      38.307  29.760  28.001  1.00  0.00     0.010 A 
ATOM     42  C   UNL A   1      38.592  29.351  29.312  1.00  0.00    -0.014 A 
BRANCH  42  43
ATOM     43  C   UNL A   1      39.995  29.050  29.573  1.00  0.00     0.031 A 
ATOM     44  C   UNL A   1      40.506  27.692  29.264  1.00  0.00     0.074 A 
ATOM     45  C   UNL A   1      40.852  30.031  29.942  1.00  0.00     0.049 A 
ATOM     46  N   UNL A   1      41.615  27.199  29.705  1.00  0.00    -0.248 NA
ATOM     47  C   UNL A   1      39.748  26.737  28.458  1.00  0.00     0.031 C 
ATOM     48  C   UNL A   1      42.312  29.983  29.885  1.00  0.00     0.029 A 
ATOM     49  N   UNL A   1      40.588  31.208  30.647  1.00  0.00    -0.354 N 
ATOM     50  C   UNL A   1      41.869  26.050  28.988  1.00  0.00     0.074 A 
ATOM     51  C   UNL A   1      40.630  25.748  28.318  1.00  0.00     0.031 C 
ATOM     52  C   UNL A   1      42.805  30.869  30.764  1.00  0.00     0.029 A 
ATOM     53  C   UNL A   1      41.679  31.398  31.514  1.00  0.00     0.049 A 
ATOM     54  H   UNL A   1      39.797  31.787  30.556  1.00  0.00     0.167 HD
ATOM     55  C   UNL A   1      43.146  25.576  28.915  1.00  0.00     0.031 A 
ATOM     56  C   UNL A   1      41.579  31.401  32.876  1.00  0.00     0.031 A 
ATOM     57  C   UNL A   1      44.024  26.276  29.853  1.00  0.00     0.049 A 
ATOM     58  C   UNL A   1      42.414  30.319  33.531  1.00  0.00     0.074 A 
ATOM     59  C   UNL A   1      44.986  27.260  29.701  1.00  0.00     0.029 A 
ATOM     60  N   UNL A   1      43.753  26.199  31.216  1.00  0.00    -0.354 N 
ATOM     61  N   UNL A   1      42.950  29.322  32.881  1.00  0.00    -0.248 NA
ATOM     62  C   UNL A   1      42.678  30.244  34.966  1.00  0.00     0.031 C 
ATOM     63  C   UNL A   1      45.206  27.855  30.973  1.00  0.00     0.029 A 
ATOM     64  C   UNL A   1      44.408  27.205  31.899  1.00  0.00     0.049 A 
ATOM     65  H   UNL A   1      43.174  25.521  31.635  1.00  0.00     0.167 HD
ATOM     66  C   UNL A   1      43.598  28.490  33.754  1.00  0.00     0.074 A 
ATOM     67  C   UNL A   1      43.408  29.117  35.050  1.00  0.00     0.031 C 
ATOM     68  C   UNL A   1      44.226  27.351  33.339  1.00  0.00     0.031 A 
BRANCH  55  69
ATOM     69  C   UNL A   1      43.653  24.689  27.788  1.00  0.00    -0.014 A 
ATOM     70  C   UNL A   1      44.812  23.909  27.986  1.00  0.00     0.010 A 
ATOM     71  C   UNL A   1      43.110  24.647  26.490  1.00  0.00     0.010 A 
ATOM     72  C   UNL A   1      45.438  23.214  26.935  1.00  0.00     0.020 A 
ATOM     73  C   UNL A   1      43.729  23.975  25.427  1.00  0.00     0.020 A 
ATOM     74  C   UNL A   1      44.904  23.274  25.651  1.00  0.00     0.054 A 
BRANCH  74  75
ATOM     75  S   UNL A   1      45.757  22.447  24.284  1.00  0.00     0.124 S 
ATOM     76  O   UNL A   1      46.429  21.340  24.959  1.00  0.00    -0.237 OA
ATOM     77  O   UNL A   1      44.654  22.076  23.404  1.00  0.00    -0.237 OA
ATOM     78  O   UNL A   1      46.650  23.479  23.757  1.00  0.00    -0.744 OA
ENDBRANCH  74  75
ENDBRANCH  55  69
BRANCH  56  79
ATOM     79  C   UNL A   1      40.282  31.923  33.390  1.00  0.00    -0.014 A 
ATOM     80  C   UNL A   1      39.380  30.974  33.921  1.00  0.00     0.010 A 
ATOM     81  C   UNL A   1      40.166  33.268  33.785  1.00  0.00     0.010 A 
ATOM     82  C   UNL A   1      38.536  31.315  34.979  1.00  0.00     0.020 A 
ATOM     83  C   UNL A   1      39.309  33.612  34.842  1.00  0.00     0.020 A 
ATOM     84  C   UNL A   1      38.571  32.613  35.484  1.00  0.00     0.054 A 
BRANCH  84  85
ATOM     85  S   UNL A   1      37.822  32.912  37.116  1.00  0.00     0.124 S 
ATOM     86  O   UNL A   1      38.572  34.064  37.602  1.00  0.00    -0.237 OA
ATOM     87  O   UNL A   1      36.427  33.173  36.758  1.00  0.00    -0.237 OA
ATOM     88  O   UNL A   1      38.061  31.659  37.824  1.00  0.00    -0.744 OA
ENDBRANCH  84  85
ENDBRANCH  56  79
BRANCH  68  89
ATOM     89  C   UNL A   1      44.796  26.282  34.239  1.00  0.00    -0.014 A 
ATOM     90  C   UNL A   1      44.027  25.487  35.103  1.00  0.00     0.010 A 
ATOM     91  C   UNL A   1      46.169  25.956  34.117  1.00  0.00     0.010 A 
ATOM     92  C   UNL A   1      44.611  24.458  35.856  1.00  0.00     0.020 A 
ATOM     93  C   UNL A   1      46.752  24.905  34.828  1.00  0.00     0.020 A 
ATOM     94  C   UNL A   1      45.971  24.175  35.717  1.00  0.00     0.054 A 
BRANCH  94  95
ATOM     95  S   UNL A   1      46.707  22.804  36.643  1.00  0.00     0.124 S 
ATOM     96  O   UNL A   1      46.664  21.723  35.663  1.00  0.00    -0.237 OA
ATOM     97  O   UNL A   1      48.042  23.304  36.966  1.00  0.00    -0.237 OA
ATOM     98  O   UNL A   1      45.814  22.649  37.789  1.00  0.00    -0.744 OA
ENDBRANCH  94  95
ENDBRANCH  68  89
ENDBRANCH  42  43
ENDBRANCH  34  37
ENDBRANCH  32  33
ENDBRANCH  31  32
ENDBRANCH  30  31
ENDBRANCH   1  30
TORSDOF 20
ENDMDL
