MODEL 1
REMARK VINA RESULT:     -11.1      0.000      0.000
REMARK SMILES Cc1ccsc1CNS(=O)(=O)c1ccc(C(=O)NCCCCNC(=O)c2ccc(-c3c4nc(c(-c5ccc(S(=O)(=O)[O-])cc5)c5ccc([nH]5)c(-c5ccc(S(=O)(=O)[O-])cc5)c5nc(c(-c6ccc(S(=O)(=O)[O-])cc6)c6ccc3[nH]6)C=C5)C=C4)cc2)s1
REMARK SMILES IDX 20 1 19 2 18 3 16 4 17 5 15 7 12 8 13 9 86 10 14 11 9 12
REMARK SMILES IDX 10 13 11 14 8 15 7 17 6 18 1 19 2 20 3 21 4 22 5 23 21 24
REMARK SMILES IDX 22 25 23 26 24 27 25 29 26 30 27 31 85 32 28 33 84 34 29 35
REMARK SMILES IDX 30 36 31 37 78 38 32 39 83 40 77 41 79 42 33 43 82 44 76 45
REMARK SMILES IDX 75 46 34 48 64 49 45 50 63 51 46 52 49 53 62 54 80 55 47 56
REMARK SMILES IDX 48 57 61 59 81 60 50 61 35 62 36 63 44 64 37 65 43 66 38 67
REMARK SMILES IDX 39 68 40 69 41 70 42 71 65 72 66 73 74 74 67 75 73 76 68 77
REMARK SMILES IDX 69 78 70 79 71 80 72 81 51 82 52 83 60 84 53 85 59 86 54 87
REMARK SMILES IDX 55 88 56 89 57 90 58 91
REMARK H PARENT 18 6 8 16 23 28 79 47 49 58
REMARK Flexibility Score: inf
ROOT
ATOM      1  C   UNL A   1      39.592  21.809  26.114  1.00  0.00     0.023 C 
ENDROOT
BRANCH   1   2
ATOM      2  C   UNL A   1      38.085  21.810  25.866  1.00  0.00     0.116 C 
BRANCH   2   3
ATOM      3  N   UNL A   1      37.780  22.386  24.575  1.00  0.00    -0.351 N 
ATOM      4  C   UNL A   1      36.586  22.591  23.928  1.00  0.00     0.261 C 
ATOM      5  O   UNL A   1      36.681  23.130  22.821  1.00  0.00    -0.268 OA
ATOM      6  H   UNL A   1      38.569  22.684  24.069  1.00  0.00     0.163 HD
BRANCH   4   7
ATOM      7  C   UNL A   1      35.305  22.239  24.535  1.00  0.00     0.093 A 
ATOM      8  C   UNL A   1      33.143  22.539  25.742  1.00  0.00     0.135 A 
ATOM      9  C   UNL A   1      33.468  21.211  25.566  1.00  0.00     0.034 A 
ATOM     10  S   UNL A   1      34.263  23.546  24.954  1.00  0.00    -0.117 S 
ATOM     11  C   UNL A   1      34.688  21.039  24.843  1.00  0.00     0.027 A 
BRANCH   8  12
ATOM     12  S   UNL A   1      31.798  23.309  26.605  1.00  0.00     0.250 S 
ATOM     13  O   UNL A   1      31.889  22.799  27.957  1.00  0.00    -0.206 OA
ATOM     14  O   UNL A   1      30.637  23.038  25.787  1.00  0.00    -0.206 OA
BRANCH  12  15
ATOM     15  N   UNL A   1      31.950  24.979  26.675  1.00  0.00    -0.205 NA
ATOM     16  H   UNL A   1      31.695  25.270  27.619  1.00  0.00     0.141 HD
BRANCH  15  17
ATOM     17  C   UNL A   1      31.138  25.763  25.735  1.00  0.00     0.145 C 
BRANCH  17  18
ATOM     18  C   UNL A   1      31.899  27.000  25.333  1.00  0.00     0.022 A 
ATOM     19  C   UNL A   1      31.673  28.440  27.460  1.00  0.00     0.045 C 
ATOM     20  C   UNL A   1      32.135  28.157  26.066  1.00  0.00    -0.036 A 
ATOM     21  C   UNL A   1      32.926  29.090  25.314  1.00  0.00     0.015 A 
ATOM     22  C   UNL A   1      33.274  28.620  24.071  1.00  0.00     0.065 A 
ATOM     23  S   UNL A   1      32.671  27.051  23.795  1.00  0.00    -0.147 S 
ENDBRANCH  17  18
ENDBRANCH  15  17
ENDBRANCH  12  15
ENDBRANCH   8  12
ENDBRANCH   4   7
ENDBRANCH   2   3
ENDBRANCH   1   2
BRANCH   1  24
ATOM     24  C   UNL A   1      40.031  22.695  27.286  1.00  0.00     0.023 C 
BRANCH  24  25
ATOM     25  C   UNL A   1      41.458  23.230  27.192  1.00  0.00     0.116 C 
BRANCH  25  26
ATOM     26  N   UNL A   1      41.677  24.088  26.036  1.00  0.00    -0.352 N 
ATOM     27  C   UNL A   1      41.709  25.460  25.984  1.00  0.00     0.251 C 
ATOM     28  H   UNL A   1      41.821  23.623  25.180  1.00  0.00     0.163 HD
ATOM     29  O   UNL A   1      41.803  26.035  24.905  1.00  0.00    -0.269 OA
BRANCH  27  30
ATOM     30  C   UNL A   1      41.586  26.231  27.238  1.00  0.00     0.039 A 
ATOM     31  C   UNL A   1      42.589  27.147  27.565  1.00  0.00     0.014 A 
ATOM     32  C   UNL A   1      40.466  26.081  28.059  1.00  0.00     0.014 A 
ATOM     33  C   UNL A   1      42.435  27.963  28.687  1.00  0.00     0.010 A 
ATOM     34  C   UNL A   1      40.285  26.939  29.140  1.00  0.00     0.010 A 
ATOM     35  C   UNL A   1      41.265  27.892  29.461  1.00  0.00    -0.014 A 
BRANCH  35  36
ATOM     36  C   UNL A   1      41.040  28.813  30.602  1.00  0.00     0.031 A 
ATOM     37  C   UNL A   1      41.862  28.680  31.854  1.00  0.00     0.074 A 
ATOM     38  C   UNL A   1      40.047  29.722  30.537  1.00  0.00     0.049 A 
ATOM     39  N   UNL A   1      41.770  29.347  32.975  1.00  0.00    -0.248 NA
ATOM     40  C   UNL A   1      42.909  27.645  31.855  1.00  0.00     0.031 C 
ATOM     41  C   UNL A   1      39.150  29.918  29.396  1.00  0.00     0.029 A 
ATOM     42  N   UNL A   1      39.619  30.646  31.456  1.00  0.00    -0.354 N 
ATOM     43  C   UNL A   1      42.730  28.803  33.819  1.00  0.00     0.074 A 
ATOM     44  C   UNL A   1      43.362  27.720  33.097  1.00  0.00     0.031 C 
ATOM     45  C   UNL A   1      38.296  30.917  29.673  1.00  0.00     0.029 A 
ATOM     46  C   UNL A   1      38.558  31.407  31.023  1.00  0.00     0.049 A 
ATOM     47  H   UNL A   1      40.034  30.757  32.342  1.00  0.00     0.167 HD
ATOM     48  C   UNL A   1      43.068  29.181  35.075  1.00  0.00     0.031 A 
ATOM     49  C   UNL A   1      37.869  32.384  31.643  1.00  0.00     0.031 A 
ATOM     50  C   UNL A   1      42.447  30.268  35.784  1.00  0.00     0.049 A 
ATOM     51  C   UNL A   1      38.265  32.789  33.036  1.00  0.00     0.074 A 
ATOM     52  C   UNL A   1      42.757  30.766  37.037  1.00  0.00     0.029 A 
ATOM     53  N   UNL A   1      41.388  31.025  35.303  1.00  0.00    -0.354 N 
ATOM     54  N   UNL A   1      39.220  32.304  33.793  1.00  0.00    -0.248 NA
ATOM     55  C   UNL A   1      37.499  33.881  33.652  1.00  0.00     0.031 C 
ATOM     56  C   UNL A   1      41.857  31.797  37.332  1.00  0.00     0.029 A 
ATOM     57  C   UNL A   1      41.021  31.975  36.241  1.00  0.00     0.049 A 
ATOM     58  H   UNL A   1      40.962  30.905  34.424  1.00  0.00     0.167 HD
ATOM     59  C   UNL A   1      39.186  33.050  34.966  1.00  0.00     0.074 A 
ATOM     60  C   UNL A   1      38.126  34.026  34.812  1.00  0.00     0.031 C 
ATOM     61  C   UNL A   1      39.964  32.938  36.071  1.00  0.00     0.031 A 
BRANCH  48  62
ATOM     62  C   UNL A   1      44.162  28.408  35.762  1.00  0.00    -0.014 A 
ATOM     63  C   UNL A   1      43.868  27.276  36.545  1.00  0.00     0.010 A 
ATOM     64  C   UNL A   1      45.503  28.799  35.600  1.00  0.00     0.010 A 
ATOM     65  C   UNL A   1      44.891  26.577  37.189  1.00  0.00     0.020 A 
ATOM     66  C   UNL A   1      46.532  28.084  36.221  1.00  0.00     0.020 A 
ATOM     67  C   UNL A   1      46.217  26.988  37.028  1.00  0.00     0.054 A 
BRANCH  67  68
ATOM     68  S   UNL A   1      47.526  26.054  37.865  1.00  0.00     0.124 S 
ATOM     69  O   UNL A   1      47.406  26.533  39.239  1.00  0.00    -0.237 OA
ATOM     70  O   UNL A   1      47.122  24.668  37.646  1.00  0.00    -0.237 OA
ATOM     71  O   UNL A   1      48.744  26.462  37.168  1.00  0.00    -0.744 OA
ENDBRANCH  67  68
ENDBRANCH  48  62
BRANCH  49  72
ATOM     72  C   UNL A   1      36.746  33.061  30.940  1.00  0.00    -0.014 A 
ATOM     73  C   UNL A   1      35.418  32.850  31.352  1.00  0.00     0.010 A 
ATOM     74  C   UNL A   1      36.999  33.934  29.865  1.00  0.00     0.010 A 
ATOM     75  C   UNL A   1      34.363  33.484  30.691  1.00  0.00     0.020 A 
ATOM     76  C   UNL A   1      35.948  34.589  29.219  1.00  0.00     0.020 A 
ATOM     77  C   UNL A   1      34.634  34.352  29.630  1.00  0.00     0.054 A 
BRANCH  77  78
ATOM     78  S   UNL A   1      33.253  35.206  28.821  1.00  0.00     0.124 S 
ATOM     79  O   UNL A   1      33.941  36.235  28.050  1.00  0.00    -0.237 OA
ATOM     80  O   UNL A   1      32.634  34.137  28.041  1.00  0.00    -0.237 OA
ATOM     81  O   UNL A   1      32.450  35.692  29.941  1.00  0.00    -0.744 OA
ENDBRANCH  77  78
ENDBRANCH  49  72
BRANCH  61  82
ATOM     82  C   UNL A   1      39.722  33.915  37.190  1.00  0.00    -0.014 A 
ATOM     83  C   UNL A   1      38.947  33.564  38.309  1.00  0.00     0.010 A 
ATOM     84  C   UNL A   1      40.329  35.183  37.145  1.00  0.00     0.010 A 
ATOM     85  C   UNL A   1      38.760  34.475  39.352  1.00  0.00     0.020 A 
ATOM     86  C   UNL A   1      40.165  36.088  38.198  1.00  0.00     0.020 A 
ATOM     87  C   UNL A   1      39.371  35.731  39.289  1.00  0.00     0.054 A 
BRANCH  87  88
ATOM     88  S   UNL A   1      39.152  36.879  40.676  1.00  0.00     0.124 S 
ATOM     89  O   UNL A   1      38.328  37.925  40.078  1.00  0.00    -0.237 OA
ATOM     90  O   UNL A   1      38.487  36.050  41.678  1.00  0.00    -0.237 OA
ATOM     91  O   UNL A   1      40.517  37.278  41.014  1.00  0.00    -0.744 OA
ENDBRANCH  87  88
ENDBRANCH  61  82
ENDBRANCH  35  36
ENDBRANCH  27  30
ENDBRANCH  25  26
ENDBRANCH  24  25
ENDBRANCH   1  24
TORSDOF 18
ENDMDL
MODEL 2
REMARK VINA RESULT:     -11.0      4.456     10.425
REMARK SMILES Cc1ccsc1CNS(=O)(=O)c1ccc(C(=O)NCCCCNC(=O)c2ccc(-c3c4nc(c(-c5ccc(S(=O)(=O)[O-])cc5)c5ccc([nH]5)c(-c5ccc(S(=O)(=O)[O-])cc5)c5nc(c(-c6ccc(S(=O)(=O)[O-])cc6)c6ccc3[nH]6)C=C5)C=C4)cc2)s1
REMARK SMILES IDX 20 1 19 2 18 3 16 4 17 5 15 7 12 8 13 9 86 10 14 11 9 12
REMARK SMILES IDX 10 13 11 14 8 15 7 17 6 18 1 19 2 20 3 21 4 22 5 23 21 24
REMARK SMILES IDX 22 25 23 26 24 27 25 29 26 30 27 31 85 32 28 33 84 34 29 35
REMARK SMILES IDX 30 36 31 37 78 38 32 39 83 40 77 41 79 42 33 43 82 44 76 45
REMARK SMILES IDX 75 46 34 48 64 49 45 50 63 51 46 52 49 53 62 54 80 55 47 56
REMARK SMILES IDX 48 57 61 59 81 60 50 61 35 62 36 63 44 64 37 65 43 66 38 67
REMARK SMILES IDX 39 68 40 69 41 70 42 71 65 72 66 73 74 74 67 75 73 76 68 77
REMARK SMILES IDX 69 78 70 79 71 80 72 81 51 82 52 83 60 84 53 85 59 86 54 87
REMARK SMILES IDX 55 88 56 89 57 90 58 91
REMARK H PARENT 18 6 8 16 23 28 79 47 49 58
REMARK Flexibility Score: inf
ROOT
ATOM      1  C   UNL A   1      32.907  29.595  25.076  1.00  0.00     0.023 C 
ENDROOT
BRANCH   1   2
ATOM      2  C   UNL A   1      31.387  29.437  25.071  1.00  0.00     0.116 C 
BRANCH   2   3
ATOM      3  N   UNL A   1      30.857  29.638  23.742  1.00  0.00    -0.351 N 
ATOM      4  C   UNL A   1      31.010  28.920  22.581  1.00  0.00     0.261 C 
ATOM      5  O   UNL A   1      30.394  29.367  21.608  1.00  0.00    -0.268 OA
ATOM      6  H   UNL A   1      30.282  30.432  23.651  1.00  0.00     0.163 HD
BRANCH   4   7
ATOM      7  C   UNL A   1      31.803  27.694  22.527  1.00  0.00     0.093 A 
ATOM      8  C   UNL A   1      32.386  25.287  22.819  1.00  0.00     0.135 A 
ATOM      9  C   UNL A   1      33.476  26.053  22.462  1.00  0.00     0.034 A 
ATOM     10  S   UNL A   1      30.963  26.217  22.812  1.00  0.00    -0.117 S 
ATOM     11  C   UNL A   1      33.134  27.425  22.259  1.00  0.00     0.027 A 
BRANCH   8  12
ATOM     12  S   UNL A   1      32.253  23.570  23.244  1.00  0.00     0.250 S 
ATOM     13  O   UNL A   1      33.045  22.883  22.245  1.00  0.00    -0.206 OA
ATOM     14  O   UNL A   1      30.832  23.330  23.357  1.00  0.00    -0.206 OA
BRANCH  12  15
ATOM     15  N   UNL A   1      32.914  23.226  24.747  1.00  0.00    -0.205 NA
ATOM     16  H   UNL A   1      32.281  23.601  25.454  1.00  0.00     0.141 HD
BRANCH  15  17
ATOM     17  C   UNL A   1      34.255  23.759  25.026  1.00  0.00     0.145 C 
BRANCH  17  18
ATOM     18  C   UNL A   1      35.241  22.621  25.077  1.00  0.00     0.022 A 
ATOM     19  C   UNL A   1      37.410  23.866  25.704  1.00  0.00     0.045 C 
ATOM     20  C   UNL A   1      36.600  22.655  25.367  1.00  0.00    -0.036 A 
ATOM     21  C   UNL A   1      37.168  21.337  25.326  1.00  0.00     0.015 A 
ATOM     22  C   UNL A   1      36.244  20.363  25.032  1.00  0.00     0.065 A 
ATOM     23  S   UNL A   1      34.685  21.012  24.815  1.00  0.00    -0.147 S 
ENDBRANCH  17  18
ENDBRANCH  15  17
ENDBRANCH  12  15
ENDBRANCH   8  12
ENDBRANCH   4   7
ENDBRANCH   2   3
ENDBRANCH   1   2
BRANCH   1  24
ATOM     24  C   UNL A   1      33.649  28.453  25.781  1.00  0.00     0.023 C 
BRANCH  24  25
ATOM     25  C   UNL A   1      33.807  28.621  27.290  1.00  0.00     0.116 C 
BRANCH  25  26
ATOM     26  N   UNL A   1      33.712  30.006  27.729  1.00  0.00    -0.352 N 
ATOM     27  C   UNL A   1      34.659  30.767  28.369  1.00  0.00     0.251 C 
ATOM     28  H   UNL A   1      32.855  30.455  27.544  1.00  0.00     0.163 HD
ATOM     29  O   UNL A   1      34.382  31.893  28.767  1.00  0.00    -0.269 OA
BRANCH  27  30
ATOM     30  C   UNL A   1      36.000  30.195  28.609  1.00  0.00     0.039 A 
ATOM     31  C   UNL A   1      36.950  30.258  27.587  1.00  0.00     0.014 A 
ATOM     32  C   UNL A   1      36.326  29.640  29.849  1.00  0.00     0.014 A 
ATOM     33  C   UNL A   1      38.254  29.824  27.834  1.00  0.00     0.010 A 
ATOM     34  C   UNL A   1      37.641  29.268  30.112  1.00  0.00     0.010 A 
ATOM     35  C   UNL A   1      38.619  29.361  29.109  1.00  0.00    -0.014 A 
BRANCH  35  36
ATOM     36  C   UNL A   1      40.020  28.981  29.418  1.00  0.00     0.031 A 
ATOM     37  C   UNL A   1      40.941  29.967  30.078  1.00  0.00     0.074 A 
ATOM     38  C   UNL A   1      40.480  27.773  29.036  1.00  0.00     0.049 A 
ATOM     39  N   UNL A   1      42.211  29.842  30.367  1.00  0.00    -0.248 NA
ATOM     40  C   UNL A   1      40.369  31.275  30.439  1.00  0.00     0.031 C 
ATOM     41  C   UNL A   1      39.696  26.746  28.346  1.00  0.00     0.029 A 
ATOM     42  N   UNL A   1      41.723  27.208  29.167  1.00  0.00    -0.354 N 
ATOM     43  C   UNL A   1      42.593  31.056  30.925  1.00  0.00     0.074 A 
ATOM     44  C   UNL A   1      41.433  31.921  30.891  1.00  0.00     0.031 C 
ATOM     45  C   UNL A   1      40.470  25.667  28.137  1.00  0.00     0.029 A 
ATOM     46  C   UNL A   1      41.812  25.940  28.643  1.00  0.00     0.049 A 
ATOM     47  H   UNL A   1      42.481  27.666  29.597  1.00  0.00     0.167 HD
ATOM     48  C   UNL A   1      43.795  31.414  31.436  1.00  0.00     0.031 A 
ATOM     49  C   UNL A   1      42.856  25.091  28.572  1.00  0.00     0.031 A 
ATOM     50  C   UNL A   1      44.942  30.547  31.481  1.00  0.00     0.049 A 
ATOM     51  C   UNL A   1      44.180  25.510  29.149  1.00  0.00     0.074 A 
ATOM     52  C   UNL A   1      46.188  30.796  32.031  1.00  0.00     0.029 A 
ATOM     53  N   UNL A   1      44.985  29.263  30.957  1.00  0.00    -0.354 N 
ATOM     54  N   UNL A   1      44.503  26.640  29.732  1.00  0.00    -0.248 NA
ATOM     55  C   UNL A   1      45.276  24.534  29.072  1.00  0.00     0.031 C 
ATOM     56  C   UNL A   1      46.998  29.679  31.800  1.00  0.00     0.029 A 
ATOM     57  C   UNL A   1      46.240  28.714  31.154  1.00  0.00     0.049 A 
ATOM     58  H   UNL A   1      44.233  28.809  30.512  1.00  0.00     0.167 HD
ATOM     59  C   UNL A   1      45.833  26.501  30.113  1.00  0.00     0.074 A 
ATOM     60  C   UNL A   1      46.249  25.173  29.708  1.00  0.00     0.031 C 
ATOM     61  C   UNL A   1      46.638  27.391  30.743  1.00  0.00     0.031 A 
BRANCH  48  62
ATOM     62  C   UNL A   1      43.928  32.809  31.987  1.00  0.00    -0.014 A 
ATOM     63  C   UNL A   1      43.690  33.077  33.347  1.00  0.00     0.010 A 
ATOM     64  C   UNL A   1      44.324  33.861  31.141  1.00  0.00     0.010 A 
ATOM     65  C   UNL A   1      43.802  34.379  33.842  1.00  0.00     0.020 A 
ATOM     66  C   UNL A   1      44.464  35.160  31.638  1.00  0.00     0.020 A 
ATOM     67  C   UNL A   1      44.182  35.414  32.983  1.00  0.00     0.054 A 
BRANCH  67  68
ATOM     68  S   UNL A   1      44.333  37.091  33.654  1.00  0.00     0.124 S 
ATOM     69  O   UNL A   1      45.644  37.497  33.156  1.00  0.00    -0.237 OA
ATOM     70  O   UNL A   1      43.194  37.781  33.054  1.00  0.00    -0.237 OA
ATOM     71  O   UNL A   1      44.248  36.897  35.099  1.00  0.00    -0.744 OA
ENDBRANCH  67  68
ENDBRANCH  48  62
BRANCH  49  72
ATOM     72  C   UNL A   1      42.683  23.752  27.947  1.00  0.00    -0.014 A 
ATOM     73  C   UNL A   1      42.951  23.567  26.578  1.00  0.00     0.010 A 
ATOM     74  C   UNL A   1      42.267  22.652  28.718  1.00  0.00     0.010 A 
ATOM     75  C   UNL A   1      42.787  22.310  25.989  1.00  0.00     0.020 A 
ATOM     76  C   UNL A   1      42.127  21.389  28.138  1.00  0.00     0.020 A 
ATOM     77  C   UNL A   1      42.378  21.228  26.773  1.00  0.00     0.054 A 
BRANCH  77  78
ATOM     78  S   UNL A   1      42.224  19.594  26.000  1.00  0.00     0.124 S 
ATOM     79  O   UNL A   1      42.648  18.706  27.078  1.00  0.00    -0.237 OA
ATOM     80  O   UNL A   1      40.805  19.539  25.656  1.00  0.00    -0.237 OA
ATOM     81  O   UNL A   1      43.131  19.672  24.856  1.00  0.00    -0.744 OA
ENDBRANCH  77  78
ENDBRANCH  49  72
BRANCH  61  82
ATOM     82  C   UNL A   1      48.040  26.951  31.066  1.00  0.00    -0.014 A 
ATOM     83  C   UNL A   1      48.303  26.097  32.152  1.00  0.00     0.010 A 
ATOM     84  C   UNL A   1      49.101  27.352  30.234  1.00  0.00     0.010 A 
ATOM     85  C   UNL A   1      49.608  25.674  32.416  1.00  0.00     0.020 A 
ATOM     86  C   UNL A   1      50.404  26.911  30.480  1.00  0.00     0.020 A 
ATOM     87  C   UNL A   1      50.650  26.085  31.578  1.00  0.00     0.054 A 
BRANCH  87  88
ATOM     88  S   UNL A   1      52.329  25.486  31.913  1.00  0.00     0.124 S 
ATOM     89  O   UNL A   1      52.996  25.719  30.636  1.00  0.00    -0.237 OA
ATOM     90  O   UNL A   1      52.762  26.343  33.015  1.00  0.00    -0.237 OA
ATOM     91  O   UNL A   1      52.131  24.081  32.267  1.00  0.00    -0.744 OA
ENDBRANCH  87  88
ENDBRANCH  61  82
ENDBRANCH  35  36
ENDBRANCH  27  30
ENDBRANCH  25  26
ENDBRANCH  24  25
ENDBRANCH   1  24
TORSDOF 18
ENDMDL
MODEL 3
REMARK VINA RESULT:     -11.0      2.806      8.476
REMARK SMILES Cc1ccsc1CNS(=O)(=O)c1ccc(C(=O)NCCCCNC(=O)c2ccc(-c3c4nc(c(-c5ccc(S(=O)(=O)[O-])cc5)c5ccc([nH]5)c(-c5ccc(S(=O)(=O)[O-])cc5)c5nc(c(-c6ccc(S(=O)(=O)[O-])cc6)c6ccc3[nH]6)C=C5)C=C4)cc2)s1
REMARK SMILES IDX 20 1 19 2 18 3 16 4 17 5 15 7 12 8 13 9 86 10 14 11 9 12
REMARK SMILES IDX 10 13 11 14 8 15 7 17 6 18 1 19 2 20 3 21 4 22 5 23 21 24
REMARK SMILES IDX 22 25 23 26 24 27 25 29 26 30 27 31 85 32 28 33 84 34 29 35
REMARK SMILES IDX 30 36 31 37 78 38 32 39 83 40 77 41 79 42 33 43 82 44 76 45
REMARK SMILES IDX 75 46 34 48 64 49 45 50 63 51 46 52 49 53 62 54 80 55 47 56
REMARK SMILES IDX 48 57 61 59 81 60 50 61 35 62 36 63 44 64 37 65 43 66 38 67
REMARK SMILES IDX 39 68 40 69 41 70 42 71 65 72 66 73 74 74 67 75 73 76 68 77
REMARK SMILES IDX 69 78 70 79 71 80 72 81 51 82 52 83 60 84 53 85 59 86 54 87
REMARK SMILES IDX 55 88 56 89 57 90 58 91
REMARK H PARENT 18 6 8 16 23 28 79 47 49 58
REMARK Flexibility Score: inf
ROOT
ATOM      1  C   UNL A   1      33.927  27.801  23.948  1.00  0.00     0.023 C 
ENDROOT
BRANCH   1   2
ATOM      2  C   UNL A   1      32.673  27.778  23.075  1.00  0.00     0.116 C 
BRANCH   2   3
ATOM      3  N   UNL A   1      32.934  27.101  21.825  1.00  0.00    -0.351 N 
ATOM      4  C   UNL A   1      32.803  25.784  21.457  1.00  0.00     0.261 C 
ATOM      5  O   UNL A   1      33.103  25.540  20.284  1.00  0.00    -0.268 OA
ATOM      6  H   UNL A   1      33.264  27.688  21.108  1.00  0.00     0.163 HD
BRANCH   4   7
ATOM      7  C   UNL A   1      32.300  24.768  22.378  1.00  0.00     0.093 A 
ATOM      8  C   UNL A   1      32.102  22.563  23.525  1.00  0.00     0.135 A 
ATOM      9  C   UNL A   1      31.053  23.406  23.823  1.00  0.00     0.034 A 
ATOM     10  S   UNL A   1      33.266  23.355  22.574  1.00  0.00    -0.117 S 
ATOM     11  C   UNL A   1      31.185  24.683  23.194  1.00  0.00     0.027 A 
BRANCH   8  12
ATOM     12  S   UNL A   1      32.407  20.874  23.976  1.00  0.00     0.250 S 
ATOM     13  O   UNL A   1      32.084  20.113  22.787  1.00  0.00    -0.206 OA
ATOM     14  O   UNL A   1      31.665  20.684  25.202  1.00  0.00    -0.206 OA
BRANCH  12  15
ATOM     15  N   UNL A   1      34.018  20.588  24.347  1.00  0.00    -0.205 NA
ATOM     16  H   UNL A   1      34.196  19.595  24.196  1.00  0.00     0.141 HD
BRANCH  15  17
ATOM     17  C   UNL A   1      34.458  20.916  25.710  1.00  0.00     0.145 C 
BRANCH  17  18
ATOM     18  C   UNL A   1      35.448  22.050  25.654  1.00  0.00     0.022 A 
ATOM     19  C   UNL A   1      33.957  24.049  26.310  1.00  0.00     0.045 C 
ATOM     20  C   UNL A   1      35.244  23.401  25.909  1.00  0.00    -0.036 A 
ATOM     21  C   UNL A   1      36.465  24.143  25.761  1.00  0.00     0.015 A 
ATOM     22  C   UNL A   1      37.536  23.351  25.422  1.00  0.00     0.065 A 
ATOM     23  S   UNL A   1      37.098  21.711  25.294  1.00  0.00    -0.147 S 
ENDBRANCH  17  18
ENDBRANCH  15  17
ENDBRANCH  12  15
ENDBRANCH   8  12
ENDBRANCH   4   7
ENDBRANCH   2   3
ENDBRANCH   1   2
BRANCH   1  24
ATOM     24  C   UNL A   1      33.644  27.660  25.448  1.00  0.00     0.023 C 
BRANCH  24  25
ATOM     25  C   UNL A   1      34.444  28.600  26.347  1.00  0.00     0.116 C 
BRANCH  25  26
ATOM     26  N   UNL A   1      33.820  29.904  26.519  1.00  0.00    -0.352 N 
ATOM     27  C   UNL A   1      34.174  30.914  27.379  1.00  0.00     0.251 C 
ATOM     28  H   UNL A   1      33.042  30.085  25.942  1.00  0.00     0.163 HD
ATOM     29  O   UNL A   1      33.477  31.918  27.474  1.00  0.00    -0.269 OA
BRANCH  27  30
ATOM     30  C   UNL A   1      35.380  30.756  28.218  1.00  0.00     0.039 A 
ATOM     31  C   UNL A   1      35.405  29.737  29.173  1.00  0.00     0.014 A 
ATOM     32  C   UNL A   1      36.491  31.582  28.032  1.00  0.00     0.014 A 
ATOM     33  C   UNL A   1      36.576  29.502  29.896  1.00  0.00     0.010 A 
ATOM     34  C   UNL A   1      37.675  31.306  28.708  1.00  0.00     0.010 A 
ATOM     35  C   UNL A   1      37.731  30.260  29.643  1.00  0.00    -0.014 A 
BRANCH  35  36
ATOM     36  C   UNL A   1      39.010  29.967  30.335  1.00  0.00     0.031 A 
ATOM     37  C   UNL A   1      39.910  28.875  29.829  1.00  0.00     0.074 A 
ATOM     38  C   UNL A   1      39.324  30.637  31.462  1.00  0.00     0.049 A 
ATOM     39  N   UNL A   1      41.032  28.431  30.335  1.00  0.00    -0.248 NA
ATOM     40  C   UNL A   1      39.482  28.173  28.607  1.00  0.00     0.031 C 
ATOM     41  C   UNL A   1      38.510  31.687  32.080  1.00  0.00     0.029 A 
ATOM     42  N   UNL A   1      40.409  30.527  32.294  1.00  0.00    -0.354 N 
ATOM     43  C   UNL A   1      41.433  27.390  29.508  1.00  0.00     0.074 A 
ATOM     44  C   UNL A   1      40.412  27.237  28.494  1.00  0.00     0.031 C 
ATOM     45  C   UNL A   1      39.137  32.141  33.178  1.00  0.00     0.029 A 
ATOM     46  C   UNL A   1      40.376  31.391  33.364  1.00  0.00     0.049 A 
ATOM     47  H   UNL A   1      41.144  29.891  32.140  1.00  0.00     0.167 HD
ATOM     48  C   UNL A   1      42.559  26.639  29.575  1.00  0.00     0.031 A 
ATOM     49  C   UNL A   1      41.241  31.559  34.383  1.00  0.00     0.031 A 
ATOM     50  C   UNL A   1      43.578  26.803  30.576  1.00  0.00     0.049 A 
ATOM     51  C   UNL A   1      42.485  30.716  34.434  1.00  0.00     0.074 A 
ATOM     52  C   UNL A   1      44.783  26.132  30.695  1.00  0.00     0.029 A 
ATOM     53  N   UNL A   1      43.515  27.702  31.630  1.00  0.00    -0.354 N 
ATOM     54  N   UNL A   1      42.878  29.779  33.604  1.00  0.00    -0.248 NA
ATOM     55  C   UNL A   1      43.408  30.962  35.550  1.00  0.00     0.031 C 
ATOM     56  C   UNL A   1      45.429  26.594  31.847  1.00  0.00     0.029 A 
ATOM     57  C   UNL A   1      44.650  27.591  32.415  1.00  0.00     0.049 A 
ATOM     58  H   UNL A   1      42.774  28.328  31.795  1.00  0.00     0.167 HD
ATOM     59  C   UNL A   1      44.107  29.342  34.085  1.00  0.00     0.074 A 
ATOM     60  C   UNL A   1      44.398  30.126  35.268  1.00  0.00     0.031 C 
ATOM     61  C   UNL A   1      44.923  28.379  33.590  1.00  0.00     0.031 A 
BRANCH  48  62
ATOM     62  C   UNL A   1      42.742  25.568  28.532  1.00  0.00    -0.014 A 
ATOM     63  C   UNL A   1      43.333  25.860  27.289  1.00  0.00     0.010 A 
ATOM     64  C   UNL A   1      42.345  24.247  28.808  1.00  0.00     0.010 A 
ATOM     65  C   UNL A   1      43.482  24.860  26.326  1.00  0.00     0.020 A 
ATOM     66  C   UNL A   1      42.519  23.238  27.857  1.00  0.00     0.020 A 
ATOM     67  C   UNL A   1      43.069  23.556  26.613  1.00  0.00     0.054 A 
BRANCH  67  68
ATOM     68  S   UNL A   1      43.288  22.275  25.348  1.00  0.00     0.124 S 
ATOM     69  O   UNL A   1      44.555  21.671  25.749  1.00  0.00    -0.237 OA
ATOM     70  O   UNL A   1      42.107  21.436  25.534  1.00  0.00    -0.237 OA
ATOM     71  O   UNL A   1      43.324  23.025  24.096  1.00  0.00    -0.744 OA
ENDBRANCH  67  68
ENDBRANCH  48  62
BRANCH  49  72
ATOM     72  C   UNL A   1      40.968  32.583  35.427  1.00  0.00    -0.014 A 
ATOM     73  C   UNL A   1      40.296  32.230  36.611  1.00  0.00     0.010 A 
ATOM     74  C   UNL A   1      41.391  33.913  35.251  1.00  0.00     0.010 A 
ATOM     75  C   UNL A   1      40.037  33.191  37.592  1.00  0.00     0.020 A 
ATOM     76  C   UNL A   1      41.157  34.871  36.241  1.00  0.00     0.020 A 
ATOM     77  C   UNL A   1      40.471  34.506  37.402  1.00  0.00     0.054 A 
BRANCH  77  78
ATOM     78  S   UNL A   1      40.172  35.725  38.712  1.00  0.00     0.124 S 
ATOM     79  O   UNL A   1      41.372  35.591  39.532  1.00  0.00    -0.237 OA
ATOM     80  O   UNL A   1      40.054  36.973  37.961  1.00  0.00    -0.237 OA
ATOM     81  O   UNL A   1      38.932  35.262  39.332  1.00  0.00    -0.744 OA
ENDBRANCH  77  78
ENDBRANCH  49  72
BRANCH  61  82
ATOM     82  C   UNL A   1      46.225  28.139  34.306  1.00  0.00    -0.014 A 
ATOM     83  C   UNL A   1      46.327  27.180  35.329  1.00  0.00     0.010 A 
ATOM     84  C   UNL A   1      47.375  28.845  33.908  1.00  0.00     0.010 A 
ATOM     85  C   UNL A   1      47.553  26.950  35.959  1.00  0.00     0.020 A 
ATOM     86  C   UNL A   1      48.607  28.600  34.520  1.00  0.00     0.020 A 
ATOM     87  C   UNL A   1      48.684  27.662  35.551  1.00  0.00     0.054 A 
BRANCH  87  88
ATOM     88  S   UNL A   1      50.273  27.314  36.353  1.00  0.00     0.124 S 
ATOM     89  O   UNL A   1      51.224  27.609  35.286  1.00  0.00    -0.237 OA
ATOM     90  O   UNL A   1      50.278  28.248  37.476  1.00  0.00    -0.237 OA
ATOM     91  O   UNL A   1      50.171  25.904  36.726  1.00  0.00    -0.744 OA
ENDBRANCH  87  88
ENDBRANCH  61  82
ENDBRANCH  35  36
ENDBRANCH  27  30
ENDBRANCH  25  26
ENDBRANCH  24  25
ENDBRANCH   1  24
TORSDOF 18
ENDMDL
