MODEL 1
REMARK VINA RESULT:     -13.4      0.000      0.000
REMARK SMILES Cc1cccc(-n2c(C)cc(/C=N\c3ccc(O)c(C(=O)NCCCCNC(=O)c4ccc(-c5c6nc(c(-c7ccc(S(=O)(=O)[O-])cc7)c7ccc([nH]7)c(-c7ccc(S(=O)(=O)[O-])cc7)c7nc(c(-c8ccc(S(=O)(=O)[O-])cc8)c8ccc5[nH]8)C=C7)C=C6)cc4)c3)c2C)c1
REMARK SMILES IDX 24 1 23 2 22 3 20 4 21 5 19 7 14 8 15 9 90 10 16 11 17 12
REMARK SMILES IDX 13 13 12 14 11 15 7 16 8 17 91 18 9 19 10 20 92 21 6 22 1 23
REMARK SMILES IDX 2 24 3 25 93 26 4 27 5 28 18 29 25 31 26 32 27 33 28 34
REMARK SMILES IDX 29 36 30 37 31 38 89 39 32 40 88 41 33 42 34 43 35 44 82 45
REMARK SMILES IDX 36 46 87 47 81 48 83 49 37 50 86 51 80 52 79 53 38 55 68 56
REMARK SMILES IDX 49 57 67 58 50 59 53 60 66 61 84 62 51 63 52 64 65 66 85 67
REMARK SMILES IDX 54 68 39 69 40 70 48 71 41 72 47 73 42 74 43 75 44 76 45 77
REMARK SMILES IDX 46 78 69 79 70 80 78 81 71 82 77 83 72 84 73 85 74 86 75 87
REMARK SMILES IDX 76 88 55 89 56 90 64 91 57 92 63 93 58 94 59 95 60 96 61 97
REMARK SMILES IDX 62 98
REMARK H PARENT 22 6 18 30 27 35 83 54 53 65
REMARK Flexibility Score: inf
ROOT
ATOM      1  C   UNL A   1      33.168  32.278  27.719  1.00  0.00     0.023 C 
ENDROOT
BRANCH   1   2
ATOM      2  C   UNL A   1      32.712  31.171  26.772  1.00  0.00     0.116 C 
BRANCH   2   3
ATOM      3  N   UNL A   1      32.272  29.925  27.389  1.00  0.00    -0.352 N 
ATOM      4  C   UNL A   1      31.973  28.683  26.869  1.00  0.00     0.255 C 
ATOM      5  O   UNL A   1      31.671  27.796  27.670  1.00  0.00    -0.269 OA
ATOM      6  H   UNL A   1      32.167  29.981  28.366  1.00  0.00     0.163 HD
BRANCH   4   7
ATOM      7  C   UNL A   1      31.953  28.359  25.409  1.00  0.00     0.083 A 
ATOM      8  C   UNL A   1      30.856  27.105  23.613  1.00  0.00     0.064 A 
ATOM      9  C   UNL A   1      31.666  27.735  22.672  1.00  0.00     0.032 A 
ATOM     10  C   UNL A   1      30.915  27.523  24.952  1.00  0.00     0.046 A 
ATOM     11  C   UNL A   1      32.724  28.523  23.107  1.00  0.00     0.049 A 
ATOM     12  C   UNL A   1      32.931  28.706  24.475  1.00  0.00     0.128 A 
BRANCH   8  13
ATOM     13  N   UNL A   1      30.024  26.037  23.262  1.00  0.00    -0.256 NA
ATOM     14  C   UNL A   1      30.263  24.809  23.631  1.00  0.00     0.121 C 
BRANCH  14  15
ATOM     15  C   UNL A   1      31.358  24.232  24.421  1.00  0.00     0.014 A 
ATOM     16  N   UNL A   1      33.301  23.340  25.173  1.00  0.00    -0.318 N 
ATOM     17  C   UNL A   1      32.397  23.288  26.224  1.00  0.00     0.021 A 
ATOM     18  C   UNL A   1      32.720  24.093  24.145  1.00  0.00     0.029 A 
ATOM     19  C   UNL A   1      32.758  22.836  27.598  1.00  0.00     0.065 C 
ATOM     20  C   UNL A   1      31.196  23.791  25.767  1.00  0.00     0.033 A 
ATOM     21  C   UNL A   1      33.507  24.543  22.964  1.00  0.00     0.065 C 
BRANCH  16  22
ATOM     22  C   UNL A   1      34.563  22.672  25.128  1.00  0.00     0.046 A 
ATOM     23  C   UNL A   1      38.195  23.427  26.032  1.00  0.00     0.044 C 
ATOM     24  C   UNL A   1      36.952  22.710  25.593  1.00  0.00    -0.049 A 
ATOM     25  C   UNL A   1      37.006  21.331  25.351  1.00  0.00     0.003 A 
ATOM     26  C   UNL A   1      35.724  23.381  25.475  1.00  0.00     0.030 A 
ATOM     27  C   UNL A   1      35.862  20.637  24.962  1.00  0.00     0.002 A 
ATOM     28  C   UNL A   1      34.645  21.308  24.839  1.00  0.00     0.026 A 
ENDBRANCH  16  22
ENDBRANCH  14  15
ENDBRANCH   8  13
BRANCH  12  29
ATOM     29  O   UNL A   1      34.211  29.058  24.803  1.00  0.00    -0.507 OA
ATOM     30  H   UNL A   1      34.365  29.725  25.443  1.00  0.00     0.293 HD
ENDBRANCH  12  29
ENDBRANCH   4   7
ENDBRANCH   2   3
ENDBRANCH   1   2
BRANCH   1  31
ATOM     31  C   UNL A   1      34.648  32.616  27.763  1.00  0.00     0.023 C 
BRANCH  31  32
ATOM     32  C   UNL A   1      35.495  31.818  28.735  1.00  0.00     0.116 C 
BRANCH  32  33
ATOM     33  N   UNL A   1      35.159  30.413  28.909  1.00  0.00    -0.352 N 
ATOM     34  C   UNL A   1      35.840  29.443  28.171  1.00  0.00     0.251 C 
ATOM     35  H   UNL A   1      34.456  30.148  29.544  1.00  0.00     0.163 HD
ATOM     36  O   UNL A   1      35.325  28.741  27.311  1.00  0.00    -0.269 OA
BRANCH  34  37
ATOM     37  C   UNL A   1      37.290  29.353  28.462  1.00  0.00     0.039 A 
ATOM     38  C   UNL A   1      38.246  29.574  27.468  1.00  0.00     0.014 A 
ATOM     39  C   UNL A   1      37.669  28.867  29.712  1.00  0.00     0.014 A 
ATOM     40  C   UNL A   1      39.566  29.166  27.689  1.00  0.00     0.010 A 
ATOM     41  C   UNL A   1      38.930  28.351  29.881  1.00  0.00     0.010 A 
ATOM     42  C   UNL A   1      39.880  28.486  28.867  1.00  0.00    -0.014 A 
BRANCH  42  43
ATOM     43  C   UNL A   1      41.146  27.830  29.161  1.00  0.00     0.031 A 
ATOM     44  C   UNL A   1      41.378  26.433  28.725  1.00  0.00     0.074 A 
ATOM     45  C   UNL A   1      42.179  28.567  29.625  1.00  0.00     0.049 A 
ATOM     46  N   UNL A   1      42.282  25.658  29.223  1.00  0.00    -0.248 NA
ATOM     47  C   UNL A   1      40.585  25.791  27.680  1.00  0.00     0.031 C 
ATOM     48  C   UNL A   1      43.592  28.200  29.623  1.00  0.00     0.029 A 
ATOM     49  N   UNL A   1      42.137  29.730  30.393  1.00  0.00    -0.354 N 
ATOM     50  C   UNL A   1      42.412  24.586  28.368  1.00  0.00     0.074 A 
ATOM     51  C   UNL A   1      41.281  24.668  27.475  1.00  0.00     0.031 C 
ATOM     52  C   UNL A   1      44.213  28.896  30.590  1.00  0.00     0.029 A 
ATOM     53  C   UNL A   1      43.184  29.615  31.322  1.00  0.00     0.049 A 
ATOM     54  H   UNL A   1      41.503  30.478  30.304  1.00  0.00     0.167 HD
ATOM     55  C   UNL A   1      43.546  23.831  28.389  1.00  0.00     0.031 A 
ATOM     56  C   UNL A   1      42.990  29.560  32.673  1.00  0.00     0.031 A 
ATOM     57  C   UNL A   1      44.479  24.276  29.420  1.00  0.00     0.049 A 
ATOM     58  C   UNL A   1      43.536  28.289  33.293  1.00  0.00     0.074 A 
ATOM     59  C   UNL A   1      45.647  25.021  29.381  1.00  0.00     0.029 A 
ATOM     60  N   UNL A   1      44.101  24.212  30.755  1.00  0.00    -0.354 N 
ATOM     61  N   UNL A   1      43.892  27.237  32.608  1.00  0.00    -0.248 NA
ATOM     62  C   UNL A   1      43.699  28.086  34.729  1.00  0.00     0.031 C 
ATOM     63  C   UNL A   1      45.934  25.460  30.699  1.00  0.00     0.029 A 
ATOM     64  C   UNL A   1      44.953  24.964  31.539  1.00  0.00     0.049 A 
ATOM     65  H   UNL A   1      43.331  23.701  31.095  1.00  0.00     0.167 HD
ATOM     66  C   UNL A   1      44.324  26.248  33.453  1.00  0.00     0.074 A 
ATOM     67  C   UNL A   1      44.190  26.835  34.774  1.00  0.00     0.031 C 
ATOM     68  C   UNL A   1      44.751  25.037  32.982  1.00  0.00     0.031 A 
BRANCH  55  69
ATOM     69  C   UNL A   1      43.916  22.889  27.264  1.00  0.00    -0.014 A 
ATOM     70  C   UNL A   1      42.990  21.921  26.827  1.00  0.00     0.010 A 
ATOM     71  C   UNL A   1      45.173  22.880  26.628  1.00  0.00     0.010 A 
ATOM     72  C   UNL A   1      43.329  20.933  25.893  1.00  0.00     0.020 A 
ATOM     73  C   UNL A   1      45.540  21.876  25.719  1.00  0.00     0.020 A 
ATOM     74  C   UNL A   1      44.616  20.898  25.364  1.00  0.00     0.054 A 
BRANCH  74  75
ATOM     75  S   UNL A   1      45.061  19.562  24.223  1.00  0.00     0.124 S 
ATOM     76  O   UNL A   1      46.522  19.601  24.245  1.00  0.00    -0.237 OA
ATOM     77  O   UNL A   1      44.453  18.396  24.856  1.00  0.00    -0.237 OA
ATOM     78  O   UNL A   1      44.454  19.971  22.958  1.00  0.00    -0.744 OA
ENDBRANCH  74  75
ENDBRANCH  55  69
BRANCH  56  79
ATOM     79  C   UNL A   1      41.788  30.314  33.138  1.00  0.00    -0.014 A 
ATOM     80  C   UNL A   1      41.886  31.724  33.140  1.00  0.00     0.010 A 
ATOM     81  C   UNL A   1      40.513  29.723  33.080  1.00  0.00     0.010 A 
ATOM     82  C   UNL A   1      40.764  32.515  32.875  1.00  0.00     0.020 A 
ATOM     83  C   UNL A   1      39.384  30.520  32.829  1.00  0.00     0.020 A 
ATOM     84  C   UNL A   1      39.537  31.898  32.639  1.00  0.00     0.054 A 
BRANCH  84  85
ATOM     85  S   UNL A   1      38.201  32.892  31.901  1.00  0.00     0.124 S 
ATOM     86  O   UNL A   1      38.846  34.186  31.699  1.00  0.00    -0.237 OA
ATOM     87  O   UNL A   1      37.894  32.141  30.681  1.00  0.00    -0.237 OA
ATOM     88  O   UNL A   1      37.160  32.862  32.923  1.00  0.00    -0.744 OA
ENDBRANCH  84  85
ENDBRANCH  56  79
BRANCH  68  89
ATOM     89  C   UNL A   1      45.105  23.807  33.795  1.00  0.00    -0.014 A 
ATOM     90  C   UNL A   1      44.218  22.770  34.111  1.00  0.00     0.010 A 
ATOM     91  C   UNL A   1      46.459  23.619  34.184  1.00  0.00     0.010 A 
ATOM     92  C   UNL A   1      44.642  21.632  34.819  1.00  0.00     0.020 A 
ATOM     93  C   UNL A   1      46.903  22.474  34.850  1.00  0.00     0.020 A 
ATOM     94  C   UNL A   1      45.982  21.493  35.185  1.00  0.00     0.054 A 
BRANCH  94  95
ATOM     95  S   UNL A   1      46.532  19.991  36.032  1.00  0.00     0.124 S 
ATOM     96  O   UNL A   1      46.276  18.967  35.024  1.00  0.00    -0.237 OA
ATOM     97  O   UNL A   1      47.942  20.266  36.302  1.00  0.00    -0.237 OA
ATOM     98  O   UNL A   1      45.679  19.933  37.217  1.00  0.00    -0.744 OA
ENDBRANCH  94  95
ENDBRANCH  68  89
ENDBRANCH  42  43
ENDBRANCH  34  37
ENDBRANCH  32  33
ENDBRANCH  31  32
ENDBRANCH   1  31
TORSDOF 18
ENDMDL
MODEL 2
REMARK VINA RESULT:     -11.9      4.145     10.951
REMARK SMILES Cc1cccc(-n2c(C)cc(/C=N\c3ccc(O)c(C(=O)NCCCCNC(=O)c4ccc(-c5c6nc(c(-c7ccc(S(=O)(=O)[O-])cc7)c7ccc([nH]7)c(-c7ccc(S(=O)(=O)[O-])cc7)c7nc(c(-c8ccc(S(=O)(=O)[O-])cc8)c8ccc5[nH]8)C=C7)C=C6)cc4)c3)c2C)c1
REMARK SMILES IDX 24 1 23 2 22 3 20 4 21 5 19 7 14 8 15 9 90 10 16 11 17 12
REMARK SMILES IDX 13 13 12 14 11 15 7 16 8 17 91 18 9 19 10 20 92 21 6 22 1 23
REMARK SMILES IDX 2 24 3 25 93 26 4 27 5 28 18 29 25 31 26 32 27 33 28 34
REMARK SMILES IDX 29 36 30 37 31 38 89 39 32 40 88 41 33 42 34 43 35 44 82 45
REMARK SMILES IDX 36 46 87 47 81 48 83 49 37 50 86 51 80 52 79 53 38 55 68 56
REMARK SMILES IDX 49 57 67 58 50 59 53 60 66 61 84 62 51 63 52 64 65 66 85 67
REMARK SMILES IDX 54 68 39 69 40 70 48 71 41 72 47 73 42 74 43 75 44 76 45 77
REMARK SMILES IDX 46 78 69 79 70 80 78 81 71 82 77 83 72 84 73 85 74 86 75 87
REMARK SMILES IDX 76 88 55 89 56 90 64 91 57 92 63 93 58 94 59 95 60 96 61 97
REMARK SMILES IDX 62 98
REMARK H PARENT 22 6 18 30 27 35 83 54 53 65
REMARK Flexibility Score: inf
ROOT
ATOM      1  C   UNL A   1      38.565  21.857  26.123  1.00  0.00     0.023 C 
ENDROOT
BRANCH   1   2
ATOM      2  C   UNL A   1      37.670  21.316  25.011  1.00  0.00     0.116 C 
BRANCH   2   3
ATOM      3  N   UNL A   1      37.273  22.262  23.973  1.00  0.00    -0.352 N 
ATOM      4  C   UNL A   1      36.077  22.887  23.690  1.00  0.00     0.255 C 
ATOM      5  O   UNL A   1      36.069  23.691  22.755  1.00  0.00    -0.269 OA
ATOM      6  H   UNL A   1      38.001  22.501  23.355  1.00  0.00     0.163 HD
BRANCH   4   7
ATOM      7  C   UNL A   1      34.793  22.623  24.411  1.00  0.00     0.083 A 
ATOM      8  C   UNL A   1      32.351  22.499  24.250  1.00  0.00     0.064 A 
ATOM      9  C   UNL A   1      32.284  22.026  25.557  1.00  0.00     0.032 A 
ATOM     10  C   UNL A   1      33.609  22.661  23.648  1.00  0.00     0.046 A 
ATOM     11  C   UNL A   1      33.433  22.027  26.339  1.00  0.00     0.049 A 
ATOM     12  C   UNL A   1      34.641  22.460  25.789  1.00  0.00     0.128 A 
BRANCH   8  13
ATOM     13  N   UNL A   1      31.199  22.859  23.544  1.00  0.00    -0.256 NA
ATOM     14  C   UNL A   1      30.911  24.098  23.253  1.00  0.00     0.121 C 
BRANCH  14  15
ATOM     15  C   UNL A   1      31.614  25.351  23.556  1.00  0.00     0.014 A 
ATOM     16  N   UNL A   1      32.462  27.230  24.496  1.00  0.00    -0.318 N 
ATOM     17  C   UNL A   1      32.825  27.248  23.157  1.00  0.00     0.021 A 
ATOM     18  C   UNL A   1      31.895  25.980  24.771  1.00  0.00     0.029 A 
ATOM     19  C   UNL A   1      33.719  28.279  22.560  1.00  0.00     0.065 C 
ATOM     20  C   UNL A   1      32.279  26.128  22.562  1.00  0.00     0.033 A 
ATOM     21  C   UNL A   1      31.611  25.538  26.164  1.00  0.00     0.065 C 
BRANCH  16  22
ATOM     22  C   UNL A   1      32.578  28.328  25.403  1.00  0.00     0.046 A 
ATOM     23  C   UNL A   1      35.243  29.850  27.675  1.00  0.00     0.044 C 
ATOM     24  C   UNL A   1      33.962  29.630  26.925  1.00  0.00    -0.049 A 
ATOM     25  C   UNL A   1      32.972  30.621  26.954  1.00  0.00     0.003 A 
ATOM     26  C   UNL A   1      33.758  28.478  26.149  1.00  0.00     0.030 A 
ATOM     27  C   UNL A   1      31.782  30.451  26.249  1.00  0.00     0.002 A 
ATOM     28  C   UNL A   1      31.580  29.302  25.484  1.00  0.00     0.026 A 
ENDBRANCH  16  22
ENDBRANCH  14  15
ENDBRANCH   8  13
BRANCH  12  29
ATOM     29  O   UNL A   1      35.555  22.881  26.715  1.00  0.00    -0.507 OA
ATOM     30  H   UNL A   1      36.395  23.190  26.437  1.00  0.00     0.293 HD
ENDBRANCH  12  29
ENDBRANCH   4   7
ENDBRANCH   2   3
ENDBRANCH   1   2
BRANCH   1  31
ATOM     31  C   UNL A   1      39.997  21.357  26.195  1.00  0.00     0.023 C 
BRANCH  31  32
ATOM     32  C   UNL A   1      40.857  21.928  27.305  1.00  0.00     0.116 C 
BRANCH  32  33
ATOM     33  N   UNL A   1      42.209  22.335  26.955  1.00  0.00    -0.352 N 
ATOM     34  C   UNL A   1      42.405  23.453  26.142  1.00  0.00     0.251 C 
ATOM     35  H   UNL A   1      42.981  21.826  27.289  1.00  0.00     0.163 HD
ATOM     36  O   UNL A   1      42.871  23.414  25.011  1.00  0.00    -0.269 OA
BRANCH  34  37
ATOM     37  C   UNL A   1      41.943  24.732  26.732  1.00  0.00     0.039 A 
ATOM     38  C   UNL A   1      41.625  25.830  25.929  1.00  0.00     0.014 A 
ATOM     39  C   UNL A   1      42.007  24.863  28.118  1.00  0.00     0.014 A 
ATOM     40  C   UNL A   1      41.513  27.095  26.518  1.00  0.00     0.010 A 
ATOM     41  C   UNL A   1      42.024  26.117  28.677  1.00  0.00     0.010 A 
ATOM     42  C   UNL A   1      41.792  27.239  27.878  1.00  0.00    -0.014 A 
BRANCH  42  43
ATOM     43  C   UNL A   1      41.911  28.502  28.594  1.00  0.00     0.031 A 
ATOM     44  C   UNL A   1      40.716  29.355  28.799  1.00  0.00     0.074 A 
ATOM     45  C   UNL A   1      43.053  28.778  29.260  1.00  0.00     0.049 A 
ATOM     46  N   UNL A   1      40.764  30.612  29.088  1.00  0.00    -0.248 NA
ATOM     47  C   UNL A   1      39.353  28.844  28.682  1.00  0.00     0.031 C 
ATOM     48  C   UNL A   1      43.239  29.770  30.314  1.00  0.00     0.029 A 
ATOM     49  N   UNL A   1      44.349  28.353  28.969  1.00  0.00    -0.354 N 
ATOM     50  C   UNL A   1      39.506  30.977  29.515  1.00  0.00     0.074 A 
ATOM     51  C   UNL A   1      38.646  29.871  29.163  1.00  0.00     0.031 C 
ATOM     52  C   UNL A   1      44.537  30.113  30.351  1.00  0.00     0.029 A 
ATOM     53  C   UNL A   1      45.182  29.454  29.227  1.00  0.00     0.049 A 
ATOM     54  H   UNL A   1      44.625  27.465  28.647  1.00  0.00     0.167 HD
ATOM     55  C   UNL A   1      39.341  32.098  30.270  1.00  0.00     0.031 A 
ATOM     56  C   UNL A   1      45.928  30.077  28.267  1.00  0.00     0.031 A 
ATOM     57  C   UNL A   1      40.600  32.809  30.474  1.00  0.00     0.049 A 
ATOM     58  C   UNL A   1      45.585  31.546  28.119  1.00  0.00     0.074 A 
ATOM     59  C   UNL A   1      41.476  32.895  31.544  1.00  0.00     0.029 A 
ATOM     60  N   UNL A   1      41.271  33.333  29.376  1.00  0.00    -0.354 N 
ATOM     61  N   UNL A   1      44.520  32.102  28.627  1.00  0.00    -0.248 NA
ATOM     62  C   UNL A   1      46.392  32.500  27.365  1.00  0.00     0.031 C 
ATOM     63  C   UNL A   1      42.706  33.417  31.066  1.00  0.00     0.029 A 
ATOM     64  C   UNL A   1      42.568  33.666  29.713  1.00  0.00     0.049 A 
ATOM     65  H   UNL A   1      40.877  33.449  28.481  1.00  0.00     0.167 HD
ATOM     66  C   UNL A   1      44.482  33.434  28.303  1.00  0.00     0.074 A 
ATOM     67  C   UNL A   1      45.686  33.635  27.516  1.00  0.00     0.031 C 
ATOM     68  C   UNL A   1      43.461  34.245  28.713  1.00  0.00     0.031 A 
BRANCH  55  69
ATOM     69  C   UNL A   1      38.083  32.363  31.068  1.00  0.00    -0.014 A 
ATOM     70  C   UNL A   1      37.121  33.271  30.580  1.00  0.00     0.010 A 
ATOM     71  C   UNL A   1      37.811  31.782  32.322  1.00  0.00     0.010 A 
ATOM     72  C   UNL A   1      36.012  33.661  31.342  1.00  0.00     0.020 A 
ATOM     73  C   UNL A   1      36.725  32.191  33.113  1.00  0.00     0.020 A 
ATOM     74  C   UNL A   1      35.835  33.140  32.619  1.00  0.00     0.054 A 
BRANCH  74  75
ATOM     75  S   UNL A   1      34.442  33.723  33.621  1.00  0.00     0.124 S 
ATOM     76  O   UNL A   1      33.376  32.795  33.252  1.00  0.00    -0.237 OA
ATOM     77  O   UNL A   1      34.955  33.583  34.981  1.00  0.00    -0.237 OA
ATOM     78  O   UNL A   1      34.243  35.099  33.170  1.00  0.00    -0.744 OA
ENDBRANCH  74  75
ENDBRANCH  55  69
BRANCH  56  79
ATOM     79  C   UNL A   1      46.375  29.167  27.171  1.00  0.00    -0.014 A 
ATOM     80  C   UNL A   1      47.624  28.529  27.347  1.00  0.00     0.010 A 
ATOM     81  C   UNL A   1      45.434  28.587  26.302  1.00  0.00     0.010 A 
ATOM     82  C   UNL A   1      47.844  27.244  26.841  1.00  0.00     0.020 A 
ATOM     83  C   UNL A   1      45.661  27.303  25.782  1.00  0.00     0.020 A 
ATOM     84  C   UNL A   1      46.825  26.610  26.132  1.00  0.00     0.054 A 
BRANCH  84  85
ATOM     85  S   UNL A   1      46.967  24.817  25.842  1.00  0.00     0.124 S 
ATOM     86  O   UNL A   1      45.709  24.311  26.382  1.00  0.00    -0.237 OA
ATOM     87  O   UNL A   1      47.104  24.748  24.385  1.00  0.00    -0.237 OA
ATOM     88  O   UNL A   1      48.165  24.452  26.592  1.00  0.00    -0.744 OA
ENDBRANCH  84  85
ENDBRANCH  56  79
BRANCH  68  89
ATOM     89  C   UNL A   1      43.207  35.682  28.306  1.00  0.00    -0.014 A 
ATOM     90  C   UNL A   1      42.520  36.082  27.152  1.00  0.00     0.010 A 
ATOM     91  C   UNL A   1      43.592  36.718  29.200  1.00  0.00     0.010 A 
ATOM     92  C   UNL A   1      42.274  37.438  26.877  1.00  0.00     0.020 A 
ATOM     93  C   UNL A   1      43.315  38.066  28.961  1.00  0.00     0.020 A 
ATOM     94  C   UNL A   1      42.675  38.421  27.783  1.00  0.00     0.054 A 
BRANCH  94  95
ATOM     95  S   UNL A   1      42.288  40.158  27.455  1.00  0.00     0.124 S 
ATOM     96  O   UNL A   1      41.525  40.526  28.645  1.00  0.00    -0.237 OA
ATOM     97  O   UNL A   1      43.610  40.773  27.345  1.00  0.00    -0.237 OA
ATOM     98  O   UNL A   1      41.526  40.112  26.210  1.00  0.00    -0.744 OA
ENDBRANCH  94  95
ENDBRANCH  68  89
ENDBRANCH  42  43
ENDBRANCH  34  37
ENDBRANCH  32  33
ENDBRANCH  31  32
ENDBRANCH   1  31
TORSDOF 18
ENDMDL
MODEL 3
REMARK VINA RESULT:     -11.8      1.735      2.333
REMARK SMILES Cc1cccc(-n2c(C)cc(/C=N\c3ccc(O)c(C(=O)NCCCCNC(=O)c4ccc(-c5c6nc(c(-c7ccc(S(=O)(=O)[O-])cc7)c7ccc([nH]7)c(-c7ccc(S(=O)(=O)[O-])cc7)c7nc(c(-c8ccc(S(=O)(=O)[O-])cc8)c8ccc5[nH]8)C=C7)C=C6)cc4)c3)c2C)c1
REMARK SMILES IDX 24 1 23 2 22 3 20 4 21 5 19 7 14 8 15 9 90 10 16 11 17 12
REMARK SMILES IDX 13 13 12 14 11 15 7 16 8 17 91 18 9 19 10 20 92 21 6 22 1 23
REMARK SMILES IDX 2 24 3 25 93 26 4 27 5 28 18 29 25 31 26 32 27 33 28 34
REMARK SMILES IDX 29 36 30 37 31 38 89 39 32 40 88 41 33 42 34 43 35 44 82 45
REMARK SMILES IDX 36 46 87 47 81 48 83 49 37 50 86 51 80 52 79 53 38 55 68 56
REMARK SMILES IDX 49 57 67 58 50 59 53 60 66 61 84 62 51 63 52 64 65 66 85 67
REMARK SMILES IDX 54 68 39 69 40 70 48 71 41 72 47 73 42 74 43 75 44 76 45 77
REMARK SMILES IDX 46 78 69 79 70 80 78 81 71 82 77 83 72 84 73 85 74 86 75 87
REMARK SMILES IDX 76 88 55 89 56 90 64 91 57 92 63 93 58 94 59 95 60 96 61 97
REMARK SMILES IDX 62 98
REMARK H PARENT 22 6 18 30 27 35 83 54 53 65
REMARK Flexibility Score: inf
ROOT
ATOM      1  C   UNL A   1      34.545  29.687  27.253  1.00  0.00     0.023 C 
ENDROOT
BRANCH   1   2
ATOM      2  C   UNL A   1      33.563  28.910  26.381  1.00  0.00     0.116 C 
BRANCH   2   3
ATOM      3  N   UNL A   1      34.022  28.549  25.044  1.00  0.00    -0.352 N 
ATOM      4  C   UNL A   1      33.385  27.972  23.965  1.00  0.00     0.255 C 
ATOM      5  O   UNL A   1      34.043  27.836  22.930  1.00  0.00    -0.269 OA
ATOM      6  H   UNL A   1      34.970  28.756  24.881  1.00  0.00     0.163 HD
BRANCH   4   7
ATOM      7  C   UNL A   1      31.976  27.470  23.982  1.00  0.00     0.083 A 
ATOM      8  C   UNL A   1      30.488  25.557  23.626  1.00  0.00     0.064 A 
ATOM      9  C   UNL A   1      29.410  26.303  24.092  1.00  0.00     0.032 A 
ATOM     10  C   UNL A   1      31.779  26.103  23.704  1.00  0.00     0.046 A 
ATOM     11  C   UNL A   1      29.575  27.663  24.324  1.00  0.00     0.049 A 
ATOM     12  C   UNL A   1      30.827  28.248  24.129  1.00  0.00     0.128 A 
BRANCH   8  13
ATOM     13  N   UNL A   1      30.308  24.300  23.039  1.00  0.00    -0.256 NA
ATOM     14  C   UNL A   1      31.064  23.276  23.323  1.00  0.00     0.121 C 
BRANCH  14  15
ATOM     15  C   UNL A   1      32.214  23.144  24.227  1.00  0.00     0.014 A 
ATOM     16  N   UNL A   1      34.266  22.936  25.167  1.00  0.00    -0.318 N 
ATOM     17  C   UNL A   1      33.336  22.803  26.189  1.00  0.00     0.021 A 
ATOM     18  C   UNL A   1      33.581  23.337  24.013  1.00  0.00     0.029 A 
ATOM     19  C   UNL A   1      33.705  22.681  27.627  1.00  0.00     0.065 C 
ATOM     20  C   UNL A   1      32.079  22.887  25.623  1.00  0.00     0.033 A 
ATOM     21  C   UNL A   1      34.303  23.797  22.795  1.00  0.00     0.065 C 
BRANCH  16  22
ATOM     22  C   UNL A   1      35.658  22.635  25.267  1.00  0.00     0.046 A 
ATOM     23  C   UNL A   1      38.813  24.276  26.658  1.00  0.00     0.044 C 
ATOM     24  C   UNL A   1      37.874  23.282  26.040  1.00  0.00    -0.049 A 
ATOM     25  C   UNL A   1      38.331  21.986  25.767  1.00  0.00     0.003 A 
ATOM     26  C   UNL A   1      36.532  23.605  25.783  1.00  0.00     0.030 A 
ATOM     27  C   UNL A   1      37.475  21.038  25.213  1.00  0.00     0.002 A 
ATOM     28  C   UNL A   1      36.144  21.363  24.952  1.00  0.00     0.026 A 
ENDBRANCH  16  22
ENDBRANCH  14  15
ENDBRANCH   8  13
BRANCH  12  29
ATOM     29  O   UNL A   1      30.782  29.597  23.905  1.00  0.00    -0.507 OA
ATOM     30  H   UNL A   1      31.183  30.187  24.514  1.00  0.00     0.293 HD
ENDBRANCH  12  29
ENDBRANCH   4   7
ENDBRANCH   2   3
ENDBRANCH   1   2
BRANCH   1  31
ATOM     31  C   UNL A   1      34.073  30.990  27.876  1.00  0.00     0.023 C 
BRANCH  31  32
ATOM     32  C   UNL A   1      34.937  32.210  27.626  1.00  0.00     0.116 C 
BRANCH  32  33
ATOM     33  N   UNL A   1      35.433  32.921  28.795  1.00  0.00    -0.352 N 
ATOM     34  C   UNL A   1      35.718  32.215  29.965  1.00  0.00     0.251 C 
ATOM     35  H   UNL A   1      35.569  33.895  28.760  1.00  0.00     0.163 HD
ATOM     36  O   UNL A   1      35.102  32.339  31.015  1.00  0.00    -0.269 OA
BRANCH  34  37
ATOM     37  C   UNL A   1      36.814  31.225  29.835  1.00  0.00     0.039 A 
ATOM     38  C   UNL A   1      36.710  29.949  30.395  1.00  0.00     0.014 A 
ATOM     39  C   UNL A   1      38.020  31.664  29.294  1.00  0.00     0.014 A 
ATOM     40  C   UNL A   1      37.866  29.172  30.537  1.00  0.00     0.010 A 
ATOM     41  C   UNL A   1      39.170  30.960  29.549  1.00  0.00     0.010 A 
ATOM     42  C   UNL A   1      39.101  29.718  30.183  1.00  0.00    -0.014 A 
BRANCH  42  43
ATOM     43  C   UNL A   1      40.403  29.123  30.448  1.00  0.00     0.031 A 
ATOM     44  C   UNL A   1      40.809  27.881  29.748  1.00  0.00     0.074 A 
ATOM     45  C   UNL A   1      41.317  29.823  31.154  1.00  0.00     0.049 A 
ATOM     46  N   UNL A   1      41.748  27.094  30.152  1.00  0.00    -0.248 NA
ATOM     47  C   UNL A   1      40.164  27.422  28.520  1.00  0.00     0.031 C 
ATOM     48  C   UNL A   1      42.757  29.586  31.207  1.00  0.00     0.029 A 
ATOM     49  N   UNL A   1      41.099  30.779  32.145  1.00  0.00    -0.354 N 
ATOM     50  C   UNL A   1      42.050  26.253  29.104  1.00  0.00     0.074 A 
ATOM     51  C   UNL A   1      40.985  26.435  28.146  1.00  0.00     0.031 C 
ATOM     52  C   UNL A   1      43.230  30.100  32.354  1.00  0.00     0.029 A 
ATOM     53  C   UNL A   1      42.082  30.550  33.123  1.00  0.00     0.049 A 
ATOM     54  H   UNL A   1      40.401  31.472  32.159  1.00  0.00     0.167 HD
ATOM     55  C   UNL A   1      43.251  25.610  29.070  1.00  0.00     0.031 A 
ATOM     56  C   UNL A   1      41.795  30.181  34.407  1.00  0.00     0.031 A 
ATOM     57  C   UNL A   1      44.055  25.893  30.255  1.00  0.00     0.049 A 
ATOM     58  C   UNL A   1      42.423  28.855  34.789  1.00  0.00     0.074 A 
ATOM     59  C   UNL A   1      45.140  26.724  30.486  1.00  0.00     0.029 A 
ATOM     60  N   UNL A   1      43.588  25.503  31.504  1.00  0.00    -0.354 N 
ATOM     61  N   UNL A   1      42.934  28.015  33.932  1.00  0.00    -0.248 NA
ATOM     62  C   UNL A   1      42.499  28.353  36.158  1.00  0.00     0.031 C 
ATOM     63  C   UNL A   1      45.283  26.882  31.889  1.00  0.00     0.029 A 
ATOM     64  C   UNL A   1      44.299  26.132  32.507  1.00  0.00     0.049 A 
ATOM     65  H   UNL A   1      42.852  24.867  31.653  1.00  0.00     0.167 HD
ATOM     66  C   UNL A   1      43.402  26.902  34.583  1.00  0.00     0.074 A 
ATOM     67  C   UNL A   1      43.112  27.169  35.981  1.00  0.00     0.031 C 
ATOM     68  C   UNL A   1      43.985  25.866  33.907  1.00  0.00     0.031 A 
BRANCH  55  69
ATOM     69  C   UNL A   1      43.797  24.976  27.810  1.00  0.00    -0.014 A 
ATOM     70  C   UNL A   1      43.448  23.649  27.485  1.00  0.00     0.010 A 
ATOM     71  C   UNL A   1      44.691  25.618  26.931  1.00  0.00     0.010 A 
ATOM     72  C   UNL A   1      44.036  22.966  26.412  1.00  0.00     0.020 A 
ATOM     73  C   UNL A   1      45.317  24.936  25.875  1.00  0.00     0.020 A 
ATOM     74  C   UNL A   1      44.992  23.605  25.629  1.00  0.00     0.054 A 
BRANCH  74  75
ATOM     75  S   UNL A   1      45.804  22.677  24.301  1.00  0.00     0.124 S 
ATOM     76  O   UNL A   1      46.729  23.663  23.745  1.00  0.00    -0.237 OA
ATOM     77  O   UNL A   1      46.425  21.572  25.026  1.00  0.00    -0.237 OA
ATOM     78  O   UNL A   1      44.703  22.301  23.417  1.00  0.00    -0.744 OA
ENDBRANCH  74  75
ENDBRANCH  55  69
BRANCH  56  79
ATOM     79  C   UNL A   1      40.492  30.709  34.906  1.00  0.00    -0.014 A 
ATOM     80  C   UNL A   1      40.500  32.018  35.439  1.00  0.00     0.010 A 
ATOM     81  C   UNL A   1      39.280  30.181  34.425  1.00  0.00     0.010 A 
ATOM     82  C   UNL A   1      39.387  32.852  35.296  1.00  0.00     0.020 A 
ATOM     83  C   UNL A   1      38.157  31.014  34.296  1.00  0.00     0.020 A 
ATOM     84  C   UNL A   1      38.252  32.364  34.650  1.00  0.00     0.054 A 
BRANCH  84  85
ATOM     85  S   UNL A   1      36.987  33.561  34.113  1.00  0.00     0.124 S 
ATOM     86  O   UNL A   1      37.380  33.835  32.734  1.00  0.00    -0.237 OA
ATOM     87  O   UNL A   1      35.748  32.797  34.278  1.00  0.00    -0.237 OA
ATOM     88  O   UNL A   1      37.159  34.669  35.047  1.00  0.00    -0.744 OA
ENDBRANCH  84  85
ENDBRANCH  56  79
BRANCH  68  89
ATOM     89  C   UNL A   1      44.402  24.521  34.468  1.00  0.00    -0.014 A 
ATOM     90  C   UNL A   1      44.032  23.278  33.937  1.00  0.00     0.010 A 
ATOM     91  C   UNL A   1      45.325  24.495  35.549  1.00  0.00     0.010 A 
ATOM     92  C   UNL A   1      44.513  22.076  34.482  1.00  0.00     0.020 A 
ATOM     93  C   UNL A   1      45.844  23.309  36.072  1.00  0.00     0.020 A 
ATOM     94  C   UNL A   1      45.414  22.099  35.547  1.00  0.00     0.054 A 
BRANCH  94  95
ATOM     95  S   UNL A   1      46.084  20.546  36.194  1.00  0.00     0.124 S 
ATOM     96  O   UNL A   1      47.491  20.645  35.816  1.00  0.00    -0.237 OA
ATOM     97  O   UNL A   1      45.812  20.645  37.627  1.00  0.00    -0.237 OA
ATOM     98  O   UNL A   1      45.315  19.522  35.492  1.00  0.00    -0.744 OA
ENDBRANCH  94  95
ENDBRANCH  68  89
ENDBRANCH  42  43
ENDBRANCH  34  37
ENDBRANCH  32  33
ENDBRANCH  31  32
ENDBRANCH   1  31
TORSDOF 18
ENDMDL
