MODEL 1
REMARK VINA RESULT:     -12.0      0.000      0.000
REMARK SMILES CC1(C)C(NC(=O)N[C@]2(C(=O)NCCCCNC(=O)c3ccc(-c4c5nc(c(-c6ccc(S(=O)(=O)[O-])cc6)c6ccc([nH]6)c(-c6ccc(S(=O)(=O)[O-])cc6)c6nc(c(-c7ccc(S(=O)(=O)[O-])cc7)c7ccc4[nH]7)C=C6)C=C5)cc3)CC[C@@H](C)CC2)C1(C)C
REMARK SMILES IDX 15 1 14 2 13 3 12 4 10 5 11 6 9 8 83 9 82 10 84 11 81 12
REMARK SMILES IDX 85 13 80 14 8 15 6 16 7 18 5 19 4 21 2 22 86 23 1 24 3 25
REMARK SMILES IDX 87 26 88 27 16 28 17 29 18 30 19 32 20 33 21 34 79 35 22 36
REMARK SMILES IDX 78 37 23 38 24 39 25 40 72 41 26 42 77 43 71 44 73 45 27 46
REMARK SMILES IDX 76 47 70 48 69 49 28 51 58 52 39 53 57 54 40 55 43 56 56 57
REMARK SMILES IDX 74 58 41 59 42 60 55 62 75 63 44 64 29 65 30 66 38 67 31 68
REMARK SMILES IDX 37 69 32 70 33 71 34 72 35 73 36 74 59 75 60 76 68 77 61 78
REMARK SMILES IDX 67 79 62 80 63 81 64 82 65 83 66 84 45 85 46 86 54 87 47 88
REMARK SMILES IDX 53 89 48 90 49 91 50 92 51 93 52 94
REMARK H PARENT 12 7 8 17 5 20 17 31 73 50 43 61
REMARK Flexibility Score: inf
ROOT
ATOM      1  C   UNL A   1      34.011  29.627  26.724  1.00  0.00     0.023 C 
ENDROOT
BRANCH   1   2
ATOM      2  C   UNL A   1      32.835  29.258  27.630  1.00  0.00     0.023 C 
BRANCH   2   3
ATOM      3  C   UNL A   1      32.081  28.020  27.159  1.00  0.00     0.116 C 
BRANCH   3   4
ATOM      4  N   UNL A   1      31.342  28.317  25.947  1.00  0.00    -0.354 N 
ATOM      5  C   UNL A   1      31.029  27.535  24.877  1.00  0.00     0.245 C 
ATOM      6  O   UNL A   1      30.459  28.102  23.940  1.00  0.00    -0.272 OA
ATOM      7  H   UNL A   1      31.009  29.241  25.889  1.00  0.00     0.163 HD
BRANCH   5   8
ATOM      8  C   UNL A   1      31.553  26.079  24.760  1.00  0.00     0.120 C 
ATOM      9  C   UNL A   1      33.850  28.129  21.871  1.00  0.00     0.007 C 
ATOM     10  C   UNL A   1      33.609  26.859  22.700  1.00  0.00    -0.014 C 
ATOM     11  C   UNL A   1      32.258  26.244  22.286  1.00  0.00     0.006 C 
ATOM     12  C   UNL A   1      33.783  27.169  24.196  1.00  0.00     0.006 C 
ATOM     13  C   UNL A   1      31.533  25.439  23.359  1.00  0.00     0.039 C 
ATOM     14  C   UNL A   1      33.065  26.179  25.121  1.00  0.00     0.039 C 
BRANCH   8  15
ATOM     15  N   UNL A   1      30.830  25.201  25.698  1.00  0.00    -0.324 N 
ATOM     16  C   UNL A   1      31.148  24.095  26.394  1.00  0.00     0.315 C 
ATOM     17  H   UNL A   1      29.901  25.489  25.848  1.00  0.00     0.166 HD
ATOM     18  O   UNL A   1      30.315  23.711  27.222  1.00  0.00    -0.249 OA
ATOM     19  N   UNL A   1      32.258  23.343  26.230  1.00  0.00    -0.334 N 
ATOM     20  H   UNL A   1      32.244  22.527  26.780  1.00  0.00     0.165 HD
BRANCH  19  21
ATOM     21  C   UNL A   1      33.450  23.453  25.446  1.00  0.00     0.096 C 
ATOM     22  C   UNL A   1      34.566  22.414  25.482  1.00  0.00    -0.007 C 
ATOM     23  C   UNL A   1      33.732  22.590  24.209  1.00  0.00    -0.007 C 
ATOM     24  C   UNL A   1      35.980  22.966  25.522  1.00  0.00     0.014 C 
ATOM     25  C   UNL A   1      34.447  21.115  26.242  1.00  0.00     0.014 C 
ATOM     26  C   UNL A   1      32.776  21.492  23.801  1.00  0.00     0.014 C 
ATOM     27  C   UNL A   1      34.411  23.192  22.993  1.00  0.00     0.014 C 
ENDBRANCH  19  21
ENDBRANCH   8  15
ENDBRANCH   5   8
ENDBRANCH   3   4
ENDBRANCH   2   3
ENDBRANCH   1   2
BRANCH   1  28
ATOM     28  C   UNL A   1      35.369  29.519  27.407  1.00  0.00     0.116 C 
BRANCH  28  29
ATOM     29  N   UNL A   1      35.306  29.925  28.797  1.00  0.00    -0.352 N 
ATOM     30  C   UNL A   1      36.262  29.796  29.768  1.00  0.00     0.251 C 
ATOM     31  H   UNL A   1      34.465  30.351  29.081  1.00  0.00     0.163 HD
ATOM     32  O   UNL A   1      35.968  29.988  30.949  1.00  0.00    -0.269 OA
BRANCH  30  33
ATOM     33  C   UNL A   1      37.638  29.406  29.397  1.00  0.00     0.039 A 
ATOM     34  C   UNL A   1      38.055  29.594  28.078  1.00  0.00     0.014 A 
ATOM     35  C   UNL A   1      38.508  28.850  30.340  1.00  0.00     0.014 A 
ATOM     36  C   UNL A   1      39.360  29.257  27.715  1.00  0.00     0.010 A 
ATOM     37  C   UNL A   1      39.830  28.581  29.992  1.00  0.00     0.010 A 
ATOM     38  C   UNL A   1      40.265  28.768  28.672  1.00  0.00    -0.014 A 
BRANCH  38  39
ATOM     39  C   UNL A   1      41.663  28.435  28.290  1.00  0.00     0.031 A 
ATOM     40  C   UNL A   1      42.715  29.510  28.252  1.00  0.00     0.074 A 
ATOM     41  C   UNL A   1      41.979  27.169  27.957  1.00  0.00     0.049 A 
ATOM     42  N   UNL A   1      43.984  29.409  27.949  1.00  0.00    -0.248 NA
ATOM     43  C   UNL A   1      42.286  30.878  28.585  1.00  0.00     0.031 C 
ATOM     44  C   UNL A   1      41.044  26.041  27.925  1.00  0.00     0.029 A 
ATOM     45  N   UNL A   1      43.179  26.613  27.585  1.00  0.00    -0.354 N 
ATOM     46  C   UNL A   1      44.501  30.696  28.043  1.00  0.00     0.074 A 
ATOM     47  C   UNL A   1      43.398  31.569  28.382  1.00  0.00     0.031 C 
ATOM     48  C   UNL A   1      41.711  24.926  27.587  1.00  0.00     0.029 A 
ATOM     49  C   UNL A   1      43.109  25.263  27.336  1.00  0.00     0.049 A 
ATOM     50  H   UNL A   1      44.011  27.134  27.505  1.00  0.00     0.167 HD
ATOM     51  C   UNL A   1      45.780  31.113  27.883  1.00  0.00     0.031 A 
ATOM     52  C   UNL A   1      44.061  24.392  26.945  1.00  0.00     0.031 A 
ATOM     53  C   UNL A   1      46.876  30.241  27.547  1.00  0.00     0.049 A 
ATOM     54  C   UNL A   1      45.468  24.883  26.744  1.00  0.00     0.074 A 
ATOM     55  C   UNL A   1      48.215  30.561  27.408  1.00  0.00     0.029 A 
ATOM     56  N   UNL A   1      46.760  28.884  27.290  1.00  0.00    -0.354 N 
ATOM     57  N   UNL A   1      45.950  26.093  26.903  1.00  0.00    -0.248 NA
ATOM     58  C   UNL A   1      46.465  23.889  26.321  1.00  0.00     0.031 C 
ATOM     59  C   UNL A   1      48.900  29.409  27.006  1.00  0.00     0.029 A 
ATOM     60  C   UNL A   1      47.999  28.356  26.963  1.00  0.00     0.049 A 
ATOM     61  H   UNL A   1      45.922  28.370  27.332  1.00  0.00     0.167 HD
ATOM     62  C   UNL A   1      47.310  26.000  26.630  1.00  0.00     0.074 A 
ATOM     63  C   UNL A   1      47.576  24.611  26.310  1.00  0.00     0.031 C 
ATOM     64  C   UNL A   1      48.252  26.973  26.644  1.00  0.00     0.031 A 
BRANCH  51  65
ATOM     65  C   UNL A   1      46.064  32.583  28.059  1.00  0.00    -0.014 A 
ATOM     66  C   UNL A   1      46.420  33.112  29.313  1.00  0.00     0.010 A 
ATOM     67  C   UNL A   1      46.019  33.440  26.944  1.00  0.00     0.010 A 
ATOM     68  C   UNL A   1      46.684  34.477  29.456  1.00  0.00     0.020 A 
ATOM     69  C   UNL A   1      46.313  34.800  27.077  1.00  0.00     0.020 A 
ATOM     70  C   UNL A   1      46.627  35.312  28.337  1.00  0.00     0.054 A 
BRANCH  70  71
ATOM     71  S   UNL A   1      46.997  37.076  28.550  1.00  0.00     0.124 S 
ATOM     72  O   UNL A   1      45.825  37.705  27.943  1.00  0.00    -0.237 OA
ATOM     73  O   UNL A   1      47.100  37.208  30.000  1.00  0.00    -0.237 OA
ATOM     74  O   UNL A   1      48.249  37.259  27.819  1.00  0.00    -0.744 OA
ENDBRANCH  70  71
ENDBRANCH  51  65
BRANCH  52  75
ATOM     75  C   UNL A   1      43.712  22.961  26.723  1.00  0.00    -0.014 A 
ATOM     76  C   UNL A   1      42.962  22.249  27.675  1.00  0.00     0.010 A 
ATOM     77  C   UNL A   1      44.123  22.303  25.548  1.00  0.00     0.010 A 
ATOM     78  C   UNL A   1      42.647  20.902  27.467  1.00  0.00     0.020 A 
ATOM     79  C   UNL A   1      43.784  20.967  25.322  1.00  0.00     0.020 A 
ATOM     80  C   UNL A   1      43.058  20.271  26.290  1.00  0.00     0.054 A 
BRANCH  80  81
ATOM     81  S   UNL A   1      42.596  18.538  26.019  1.00  0.00     0.124 S 
ATOM     82  O   UNL A   1      41.176  18.647  25.703  1.00  0.00    -0.237 OA
ATOM     83  O   UNL A   1      43.464  18.150  24.909  1.00  0.00    -0.237 OA
ATOM     84  O   UNL A   1      42.907  17.898  27.295  1.00  0.00    -0.744 OA
ENDBRANCH  80  81
ENDBRANCH  52  75
BRANCH  64  85
ATOM     85  C   UNL A   1      49.673  26.573  26.339  1.00  0.00    -0.014 A 
ATOM     86  C   UNL A   1      50.224  26.746  25.058  1.00  0.00     0.010 A 
ATOM     87  C   UNL A   1      50.485  26.065  27.371  1.00  0.00     0.010 A 
ATOM     88  C   UNL A   1      51.552  26.388  24.805  1.00  0.00     0.020 A 
ATOM     89  C   UNL A   1      51.821  25.736  27.130  1.00  0.00     0.020 A 
ATOM     90  C   UNL A   1      52.342  25.886  25.843  1.00  0.00     0.054 A 
BRANCH  90  91
ATOM     91  S   UNL A   1      54.074  25.471  25.500  1.00  0.00     0.124 S 
ATOM     92  O   UNL A   1      54.217  25.889  24.107  1.00  0.00    -0.237 OA
ATOM     93  O   UNL A   1      54.797  26.281  26.477  1.00  0.00    -0.237 OA
ATOM     94  O   UNL A   1      54.138  24.029  25.726  1.00  0.00    -0.744 OA
ENDBRANCH  90  91
ENDBRANCH  64  85
ENDBRANCH  38  39
ENDBRANCH  30  33
ENDBRANCH  28  29
ENDBRANCH   1  28
TORSDOF 16
ENDMDL
MODEL 2
REMARK VINA RESULT:     -11.9      5.193      6.318
REMARK SMILES CC1(C)C(NC(=O)N[C@]2(C(=O)NCCCCNC(=O)c3ccc(-c4c5nc(c(-c6ccc(S(=O)(=O)[O-])cc6)c6ccc([nH]6)c(-c6ccc(S(=O)(=O)[O-])cc6)c6nc(c(-c7ccc(S(=O)(=O)[O-])cc7)c7ccc4[nH]7)C=C6)C=C5)cc3)CC[C@@H](C)CC2)C1(C)C
REMARK SMILES IDX 15 1 14 2 13 3 12 4 10 5 11 6 9 8 83 9 82 10 84 11 81 12
REMARK SMILES IDX 85 13 80 14 8 15 6 16 7 18 5 19 4 21 2 22 86 23 1 24 3 25
REMARK SMILES IDX 87 26 88 27 16 28 17 29 18 30 19 32 20 33 21 34 79 35 22 36
REMARK SMILES IDX 78 37 23 38 24 39 25 40 72 41 26 42 77 43 71 44 73 45 27 46
REMARK SMILES IDX 76 47 70 48 69 49 28 51 58 52 39 53 57 54 40 55 43 56 56 57
REMARK SMILES IDX 74 58 41 59 42 60 55 62 75 63 44 64 29 65 30 66 38 67 31 68
REMARK SMILES IDX 37 69 32 70 33 71 34 72 35 73 36 74 59 75 60 76 68 77 61 78
REMARK SMILES IDX 67 79 62 80 63 81 64 82 65 83 66 84 45 85 46 86 54 87 47 88
REMARK SMILES IDX 53 89 48 90 49 91 50 92 51 93 52 94
REMARK H PARENT 12 7 8 17 5 20 17 31 73 50 43 61
REMARK Flexibility Score: inf
ROOT
ATOM      1  C   UNL A   1      32.814  28.714  26.058  1.00  0.00     0.023 C 
ENDROOT
BRANCH   1   2
ATOM      2  C   UNL A   1      32.180  28.176  27.342  1.00  0.00     0.023 C 
BRANCH   2   3
ATOM      3  C   UNL A   1      31.188  27.047  27.093  1.00  0.00     0.116 C 
BRANCH   3   4
ATOM      4  N   UNL A   1      30.618  27.167  25.765  1.00  0.00    -0.354 N 
ATOM      5  C   UNL A   1      30.447  26.243  24.779  1.00  0.00     0.245 C 
ATOM      6  O   UNL A   1      30.008  26.670  23.707  1.00  0.00    -0.272 OA
ATOM      7  H   UNL A   1      30.300  28.070  25.538  1.00  0.00     0.163 HD
BRANCH   5   8
ATOM      8  C   UNL A   1      30.975  24.792  24.932  1.00  0.00     0.120 C 
ATOM      9  C   UNL A   1      33.025  26.175  21.510  1.00  0.00     0.007 C 
ATOM     10  C   UNL A   1      32.860  25.109  22.602  1.00  0.00    -0.014 C 
ATOM     11  C   UNL A   1      31.488  24.429  22.431  1.00  0.00     0.006 C 
ATOM     12  C   UNL A   1      33.145  25.725  23.982  1.00  0.00     0.006 C 
ATOM     13  C   UNL A   1      30.856  23.872  23.702  1.00  0.00     0.039 C 
ATOM     14  C   UNL A   1      32.508  24.957  25.147  1.00  0.00     0.039 C 
BRANCH   8  15
ATOM     15  N   UNL A   1      30.334  24.135  26.085  1.00  0.00    -0.324 N 
ATOM     16  C   UNL A   1      30.455  22.933  26.676  1.00  0.00     0.315 C 
ATOM     17  H   UNL A   1      29.662  24.706  26.523  1.00  0.00     0.166 HD
ATOM     18  O   UNL A   1      29.853  22.785  27.745  1.00  0.00    -0.249 OA
ATOM     19  N   UNL A   1      31.122  21.867  26.182  1.00  0.00    -0.334 N 
ATOM     20  H   UNL A   1      31.003  21.061  26.734  1.00  0.00     0.165 HD
BRANCH  19  21
ATOM     21  C   UNL A   1      31.960  21.633  25.046  1.00  0.00     0.096 C 
ATOM     22  C   UNL A   1      33.472  21.464  25.151  1.00  0.00    -0.007 C 
ATOM     23  C   UNL A   1      32.602  20.274  24.734  1.00  0.00    -0.007 C 
ATOM     24  C   UNL A   1      34.291  22.188  24.096  1.00  0.00     0.014 C 
ATOM     25  C   UNL A   1      34.195  21.394  26.474  1.00  0.00     0.014 C 
ATOM     26  C   UNL A   1      32.446  19.111  25.686  1.00  0.00     0.014 C 
ATOM     27  C   UNL A   1      32.705  19.787  23.301  1.00  0.00     0.014 C 
ENDBRANCH  19  21
ENDBRANCH   8  15
ENDBRANCH   5   8
ENDBRANCH   3   4
ENDBRANCH   2   3
ENDBRANCH   1   2
BRANCH   1  28
ATOM     28  C   UNL A   1      34.079  29.532  26.295  1.00  0.00     0.116 C 
BRANCH  28  29
ATOM     29  N   UNL A   1      33.775  30.877  26.742  1.00  0.00    -0.352 N 
ATOM     30  C   UNL A   1      34.351  31.588  27.759  1.00  0.00     0.251 C 
ATOM     31  H   UNL A   1      33.060  31.340  26.247  1.00  0.00     0.163 HD
ATOM     32  O   UNL A   1      33.825  32.631  28.153  1.00  0.00    -0.269 OA
BRANCH  30  33
ATOM     33  C   UNL A   1      35.587  31.091  28.395  1.00  0.00     0.039 A 
ATOM     34  C   UNL A   1      36.787  31.756  28.138  1.00  0.00     0.014 A 
ATOM     35  C   UNL A   1      35.567  29.971  29.233  1.00  0.00     0.014 A 
ATOM     36  C   UNL A   1      37.962  31.318  28.752  1.00  0.00     0.010 A 
ATOM     37  C   UNL A   1      36.726  29.581  29.899  1.00  0.00     0.010 A 
ATOM     38  C   UNL A   1      37.939  30.241  29.653  1.00  0.00    -0.014 A 
BRANCH  38  39
ATOM     39  C   UNL A   1      39.186  29.792  30.327  1.00  0.00     0.031 A 
ATOM     40  C   UNL A   1      39.653  30.470  31.587  1.00  0.00     0.074 A 
ATOM     41  C   UNL A   1      39.909  28.789  29.793  1.00  0.00     0.049 A 
ATOM     42  N   UNL A   1      40.709  30.215  32.316  1.00  0.00    -0.248 NA
ATOM     43  C   UNL A   1      38.836  31.588  32.088  1.00  0.00     0.031 C 
ATOM     44  C   UNL A   1      39.579  28.070  28.560  1.00  0.00     0.029 A 
ATOM     45  N   UNL A   1      41.070  28.194  30.222  1.00  0.00    -0.354 N 
ATOM     46  C   UNL A   1      40.690  31.143  33.351  1.00  0.00     0.074 A 
ATOM     47  C   UNL A   1      39.546  32.000  33.127  1.00  0.00     0.031 C 
ATOM     48  C   UNL A   1      40.497  27.112  28.351  1.00  0.00     0.029 A 
ATOM     49  C   UNL A   1      41.502  27.174  29.408  1.00  0.00     0.049 A 
ATOM     50  H   UNL A   1      41.547  28.472  31.037  1.00  0.00     0.167 HD
ATOM     51  C   UNL A   1      41.535  31.260  34.404  1.00  0.00     0.031 A 
ATOM     52  C   UNL A   1      42.587  26.380  29.496  1.00  0.00     0.031 A 
ATOM     53  C   UNL A   1      42.672  30.405  34.624  1.00  0.00     0.049 A 
ATOM     54  C   UNL A   1      43.528  26.548  30.658  1.00  0.00     0.074 A 
ATOM     55  C   UNL A   1      43.560  30.415  35.685  1.00  0.00     0.029 A 
ATOM     56  N   UNL A   1      43.082  29.394  33.769  1.00  0.00    -0.354 N 
ATOM     57  N   UNL A   1      43.455  27.390  31.662  1.00  0.00    -0.248 NA
ATOM     58  C   UNL A   1      44.692  25.653  30.706  1.00  0.00     0.031 C 
ATOM     59  C   UNL A   1      44.544  29.451  35.441  1.00  0.00     0.029 A 
ATOM     60  C   UNL A   1      44.229  28.793  34.262  1.00  0.00     0.049 A 
ATOM     61  H   UNL A   1      42.627  29.141  32.933  1.00  0.00     0.167 HD
ATOM     62  C   UNL A   1      44.546  27.104  32.476  1.00  0.00     0.074 A 
ATOM     63  C   UNL A   1      45.253  26.003  31.854  1.00  0.00     0.031 C 
ATOM     64  C   UNL A   1      44.926  27.698  33.633  1.00  0.00     0.031 A 
BRANCH  51  65
ATOM     65  C   UNL A   1      41.267  32.364  35.395  1.00  0.00    -0.014 A 
ATOM     66  C   UNL A   1      40.461  32.148  36.527  1.00  0.00     0.010 A 
ATOM     67  C   UNL A   1      41.870  33.623  35.216  1.00  0.00     0.010 A 
ATOM     68  C   UNL A   1      40.227  33.182  37.438  1.00  0.00     0.020 A 
ATOM     69  C   UNL A   1      41.664  34.651  36.142  1.00  0.00     0.020 A 
ATOM     70  C   UNL A   1      40.829  34.427  37.238  1.00  0.00     0.054 A 
BRANCH  70  71
ATOM     71  S   UNL A   1      40.527  35.743  38.451  1.00  0.00     0.124 S 
ATOM     72  O   UNL A   1      39.778  36.715  37.657  1.00  0.00    -0.237 OA
ATOM     73  O   UNL A   1      39.761  35.054  39.485  1.00  0.00    -0.237 OA
ATOM     74  O   UNL A   1      41.868  36.165  38.848  1.00  0.00    -0.744 OA
ENDBRANCH  70  71
ENDBRANCH  51  65
BRANCH  52  75
ATOM     75  C   UNL A   1      42.838  25.347  28.454  1.00  0.00    -0.014 A 
ATOM     76  C   UNL A   1      43.595  25.651  27.309  1.00  0.00     0.010 A 
ATOM     77  C   UNL A   1      42.327  24.044  28.607  1.00  0.00     0.010 A 
ATOM     78  C   UNL A   1      43.818  24.679  26.327  1.00  0.00     0.020 A 
ATOM     79  C   UNL A   1      42.574  23.062  27.644  1.00  0.00     0.020 A 
ATOM     80  C   UNL A   1      43.308  23.390  26.503  1.00  0.00     0.054 A 
BRANCH  80  81
ATOM     81  S   UNL A   1      43.652  22.133  25.241  1.00  0.00     0.124 S 
ATOM     82  O   UNL A   1      45.034  21.771  25.541  1.00  0.00    -0.237 OA
ATOM     83  O   UNL A   1      42.651  21.110  25.535  1.00  0.00    -0.237 OA
ATOM     84  O   UNL A   1      43.450  22.848  23.983  1.00  0.00    -0.744 OA
ENDBRANCH  80  81
ENDBRANCH  52  75
BRANCH  64  85
ATOM     85  C   UNL A   1      46.145  27.151  34.330  1.00  0.00    -0.014 A 
ATOM     86  C   UNL A   1      46.058  26.056  35.207  1.00  0.00     0.010 A 
ATOM     87  C   UNL A   1      47.407  27.713  34.060  1.00  0.00     0.010 A 
ATOM     88  C   UNL A   1      47.207  25.551  35.824  1.00  0.00     0.020 A 
ATOM     89  C   UNL A   1      48.561  27.192  34.650  1.00  0.00     0.020 A 
ATOM     90  C   UNL A   1      48.451  26.122  35.542  1.00  0.00     0.054 A 
BRANCH  90  91
ATOM     91  S   UNL A   1      49.931  25.422  36.322  1.00  0.00     0.124 S 
ATOM     92  O   UNL A   1      50.364  24.442  35.329  1.00  0.00    -0.237 OA
ATOM     93  O   UNL A   1      50.797  26.589  36.471  1.00  0.00    -0.237 OA
ATOM     94  O   UNL A   1      49.432  24.860  37.574  1.00  0.00    -0.744 OA
ENDBRANCH  90  91
ENDBRANCH  64  85
ENDBRANCH  38  39
ENDBRANCH  30  33
ENDBRANCH  28  29
ENDBRANCH   1  28
TORSDOF 16
ENDMDL
MODEL 3
REMARK VINA RESULT:     -11.8      6.092     10.233
REMARK SMILES CC1(C)C(NC(=O)N[C@]2(C(=O)NCCCCNC(=O)c3ccc(-c4c5nc(c(-c6ccc(S(=O)(=O)[O-])cc6)c6ccc([nH]6)c(-c6ccc(S(=O)(=O)[O-])cc6)c6nc(c(-c7ccc(S(=O)(=O)[O-])cc7)c7ccc4[nH]7)C=C6)C=C5)cc3)CC[C@@H](C)CC2)C1(C)C
REMARK SMILES IDX 15 1 14 2 13 3 12 4 10 5 11 6 9 8 83 9 82 10 84 11 81 12
REMARK SMILES IDX 85 13 80 14 8 15 6 16 7 18 5 19 4 21 2 22 86 23 1 24 3 25
REMARK SMILES IDX 87 26 88 27 16 28 17 29 18 30 19 32 20 33 21 34 79 35 22 36
REMARK SMILES IDX 78 37 23 38 24 39 25 40 72 41 26 42 77 43 71 44 73 45 27 46
REMARK SMILES IDX 76 47 70 48 69 49 28 51 58 52 39 53 57 54 40 55 43 56 56 57
REMARK SMILES IDX 74 58 41 59 42 60 55 62 75 63 44 64 29 65 30 66 38 67 31 68
REMARK SMILES IDX 37 69 32 70 33 71 34 72 35 73 36 74 59 75 60 76 68 77 61 78
REMARK SMILES IDX 67 79 62 80 63 81 64 82 65 83 66 84 45 85 46 86 54 87 47 88
REMARK SMILES IDX 53 89 48 90 49 91 50 92 51 93 52 94
REMARK H PARENT 12 7 8 17 5 20 17 31 73 50 43 61
REMARK Flexibility Score: inf
ROOT
ATOM      1  C   UNL A   1      32.486  30.606  27.101  1.00  0.00     0.023 C 
ENDROOT
BRANCH   1   2
ATOM      2  C   UNL A   1      32.858  29.167  27.461  1.00  0.00     0.023 C 
BRANCH   2   3
ATOM      3  C   UNL A   1      31.731  28.174  27.203  1.00  0.00     0.116 C 
BRANCH   3   4
ATOM      4  N   UNL A   1      31.142  28.414  25.900  1.00  0.00    -0.354 N 
ATOM      5  C   UNL A   1      31.029  27.609  24.808  1.00  0.00     0.245 C 
ATOM      6  O   UNL A   1      30.552  28.131  23.797  1.00  0.00    -0.272 OA
ATOM      7  H   UNL A   1      30.757  29.312  25.786  1.00  0.00     0.163 HD
BRANCH   5   8
ATOM      8  C   UNL A   1      31.663  26.193  24.781  1.00  0.00     0.120 C 
ATOM      9  C   UNL A   1      33.978  28.302  21.950  1.00  0.00     0.007 C 
ATOM     10  C   UNL A   1      33.779  27.049  22.813  1.00  0.00    -0.014 C 
ATOM     11  C   UNL A   1      32.503  26.321  22.347  1.00  0.00     0.006 C 
ATOM     12  C   UNL A   1      33.839  27.423  24.303  1.00  0.00     0.006 C 
ATOM     13  C   UNL A   1      31.775  25.503  23.408  1.00  0.00     0.039 C 
ATOM     14  C   UNL A   1      33.138  26.417  25.224  1.00  0.00     0.039 C 
BRANCH   8  15
ATOM     15  N   UNL A   1      30.949  25.297  25.709  1.00  0.00    -0.324 N 
ATOM     16  C   UNL A   1      31.286  24.203  26.414  1.00  0.00     0.315 C 
ATOM     17  H   UNL A   1      30.010  25.559  25.843  1.00  0.00     0.166 HD
ATOM     18  O   UNL A   1      30.450  23.797  27.230  1.00  0.00    -0.249 OA
ATOM     19  N   UNL A   1      32.419  23.481  26.271  1.00  0.00    -0.334 N 
ATOM     20  H   UNL A   1      32.418  22.667  26.823  1.00  0.00     0.165 HD
BRANCH  19  21
ATOM     21  C   UNL A   1      33.621  23.622  25.506  1.00  0.00     0.096 C 
ATOM     22  C   UNL A   1      34.849  22.744  25.720  1.00  0.00    -0.007 C 
ATOM     23  C   UNL A   1      34.052  22.631  24.417  1.00  0.00    -0.007 C 
ATOM     24  C   UNL A   1      36.185  23.464  25.710  1.00  0.00     0.014 C 
ATOM     25  C   UNL A   1      34.853  21.563  26.661  1.00  0.00     0.014 C 
ATOM     26  C   UNL A   1      33.249  21.377  24.155  1.00  0.00     0.014 C 
ATOM     27  C   UNL A   1      34.703  23.129  23.141  1.00  0.00     0.014 C 
ENDBRANCH  19  21
ENDBRANCH   8  15
ENDBRANCH   5   8
ENDBRANCH   3   4
ENDBRANCH   2   3
ENDBRANCH   1   2
BRANCH   1  28
ATOM     28  C   UNL A   1      33.610  31.608  27.336  1.00  0.00     0.116 C 
BRANCH  28  29
ATOM     29  N   UNL A   1      33.101  32.915  27.699  1.00  0.00    -0.352 N 
ATOM     30  C   UNL A   1      33.508  33.738  28.714  1.00  0.00     0.251 C 
ATOM     31  H   UNL A   1      32.364  33.257  27.142  1.00  0.00     0.163 HD
ATOM     32  O   UNL A   1      32.823  34.714  29.026  1.00  0.00    -0.269 OA
BRANCH  30  33
ATOM     33  C   UNL A   1      34.756  33.439  29.446  1.00  0.00     0.039 A 
ATOM     34  C   UNL A   1      34.722  32.494  30.472  1.00  0.00     0.014 A 
ATOM     35  C   UNL A   1      35.952  34.093  29.128  1.00  0.00     0.014 A 
ATOM     36  C   UNL A   1      35.896  32.178  31.156  1.00  0.00     0.010 A 
ATOM     37  C   UNL A   1      37.135  33.723  29.764  1.00  0.00     0.010 A 
ATOM     38  C   UNL A   1      37.116  32.773  30.795  1.00  0.00    -0.014 A 
BRANCH  38  39
ATOM     39  C   UNL A   1      38.372  32.417  31.506  1.00  0.00     0.031 A 
ATOM     40  C   UNL A   1      39.336  31.434  30.897  1.00  0.00     0.074 A 
ATOM     41  C   UNL A   1      38.635  32.960  32.710  1.00  0.00     0.049 A 
ATOM     42  N   UNL A   1      40.480  31.004  31.365  1.00  0.00    -0.248 NA
ATOM     43  C   UNL A   1      38.961  30.846  29.600  1.00  0.00     0.031 C 
ATOM     44  C   UNL A   1      37.767  33.903  33.422  1.00  0.00     0.029 A 
ATOM     45  N   UNL A   1      39.711  32.803  33.549  1.00  0.00    -0.354 N 
ATOM     46  C   UNL A   1      40.954  30.092  30.430  1.00  0.00     0.074 A 
ATOM     47  C   UNL A   1      39.952  29.991  29.393  1.00  0.00     0.031 C 
ATOM     48  C   UNL A   1      38.361  34.264  34.571  1.00  0.00     0.029 A 
ATOM     49  C   UNL A   1      39.627  33.550  34.701  1.00  0.00     0.049 A 
ATOM     50  H   UNL A   1      40.471  32.213  33.344  1.00  0.00     0.167 HD
ATOM     51  C   UNL A   1      42.128  29.415  30.423  1.00  0.00     0.031 A 
ATOM     52  C   UNL A   1      40.470  33.646  35.748  1.00  0.00     0.031 A 
ATOM     53  C   UNL A   1      43.125  29.519  31.457  1.00  0.00     0.049 A 
ATOM     54  C   UNL A   1      41.754  32.861  35.732  1.00  0.00     0.074 A 
ATOM     55  C   UNL A   1      44.366  28.908  31.516  1.00  0.00     0.029 A 
ATOM     56  N   UNL A   1      42.995  30.274  32.612  1.00  0.00    -0.354 N 
ATOM     57  N   UNL A   1      42.215  32.055  34.806  1.00  0.00    -0.248 NA
ATOM     58  C   UNL A   1      42.636  33.008  36.897  1.00  0.00     0.031 C 
ATOM     59  C   UNL A   1      44.960  29.245  32.737  1.00  0.00     0.029 A 
ATOM     60  C   UNL A   1      44.120  30.121  33.406  1.00  0.00     0.049 A 
ATOM     61  H   UNL A   1      42.218  30.835  32.836  1.00  0.00     0.167 HD
ATOM     62  C   UNL A   1      43.454  31.622  35.263  1.00  0.00     0.074 A 
ATOM     63  C   UNL A   1      43.677  32.268  36.541  1.00  0.00     0.031 C 
ATOM     64  C   UNL A   1      44.330  30.768  34.678  1.00  0.00     0.031 A 
BRANCH  51  65
ATOM     65  C   UNL A   1      42.394  28.489  29.263  1.00  0.00    -0.014 A 
ATOM     66  C   UNL A   1      43.084  28.931  28.120  1.00  0.00     0.010 A 
ATOM     67  C   UNL A   1      41.988  27.144  29.338  1.00  0.00     0.010 A 
ATOM     68  C   UNL A   1      43.326  28.058  27.056  1.00  0.00     0.020 A 
ATOM     69  C   UNL A   1      42.255  26.259  28.289  1.00  0.00     0.020 A 
ATOM     70  C   UNL A   1      42.908  26.728  27.147  1.00  0.00     0.054 A 
BRANCH  70  71
ATOM     71  S   UNL A   1      43.256  25.611  25.760  1.00  0.00     0.124 S 
ATOM     72  O   UNL A   1      42.110  25.852  24.885  1.00  0.00    -0.237 OA
ATOM     73  O   UNL A   1      44.538  26.105  25.266  1.00  0.00    -0.237 OA
ATOM     74  O   UNL A   1      43.298  24.288  26.380  1.00  0.00    -0.744 OA
ENDBRANCH  70  71
ENDBRANCH  51  65
BRANCH  52  75
ATOM     75  C   UNL A   1      40.128  34.528  36.898  1.00  0.00    -0.014 A 
ATOM     76  C   UNL A   1      39.328  34.054  37.953  1.00  0.00     0.010 A 
ATOM     77  C   UNL A   1      40.612  35.849  36.949  1.00  0.00     0.010 A 
ATOM     78  C   UNL A   1      39.001  34.891  39.025  1.00  0.00     0.020 A 
ATOM     79  C   UNL A   1      40.313  36.677  38.034  1.00  0.00     0.020 A 
ATOM     80  C   UNL A   1      39.499  36.196  39.060  1.00  0.00     0.054 A 
BRANCH  80  81
ATOM     81  S   UNL A   1      39.102  37.246  40.485  1.00  0.00     0.124 S 
ATOM     82  O   UNL A   1      38.490  36.293  41.404  1.00  0.00    -0.237 OA
ATOM     83  O   UNL A   1      40.415  37.753  40.878  1.00  0.00    -0.237 OA
ATOM     84  O   UNL A   1      38.197  38.250  39.929  1.00  0.00    -0.744 OA
ENDBRANCH  80  81
ENDBRANCH  52  75
BRANCH  64  85
ATOM     85  C   UNL A   1      45.631  30.506  35.392  1.00  0.00    -0.014 A 
ATOM     86  C   UNL A   1      45.771  29.432  36.288  1.00  0.00     0.010 A 
ATOM     87  C   UNL A   1      46.747  31.319  35.118  1.00  0.00     0.010 A 
ATOM     88  C   UNL A   1      46.995  29.194  36.921  1.00  0.00     0.020 A 
ATOM     89  C   UNL A   1      47.980  31.066  35.724  1.00  0.00     0.020 A 
ATOM     90  C   UNL A   1      48.092  30.012  36.634  1.00  0.00     0.054 A 
BRANCH  90  91
ATOM     91  S   UNL A   1      49.680  29.657  37.435  1.00  0.00     0.124 S 
ATOM     92  O   UNL A   1      50.417  30.898  37.213  1.00  0.00    -0.237 OA
ATOM     93  O   UNL A   1      49.289  29.398  38.819  1.00  0.00    -0.237 OA
ATOM     94  O   UNL A   1      50.184  28.495  36.709  1.00  0.00    -0.744 OA
ENDBRANCH  90  91
ENDBRANCH  64  85
ENDBRANCH  38  39
ENDBRANCH  30  33
ENDBRANCH  28  29
ENDBRANCH   1  28
TORSDOF 16
ENDMDL
