MODEL 1
REMARK VINA RESULT:     -12.9      0.000      0.000
REMARK SMILES CC(=O)Nc1cc(NC(C)=O)cc(C(=O)Nc2ccc(Br)cc2C(=O)NCCCCNC(=O)c2ccc(-c3c4nc(c(-c5ccc(S(=O)(=O)[O-])cc5)c5ccc([nH]5)c(-c5ccc(S(=O)(=O)[O-])cc5)c5nc(c(-c6ccc(S(=O)(=O)[O-])cc6)c6ccc3[nH]6)C=C5)C=C4)cc2)c1
REMARK SMILES IDX 28 1 27 2 26 3 24 4 25 5 23 7 17 8 18 9 19 10 22 11 20 12
REMARK SMILES IDX 21 13 16 14 14 15 15 16 13 18 5 19 6 20 94 21 7 22 12 23
REMARK SMILES IDX 4 24 1 25 2 26 3 27 8 29 9 30 10 32 11 33 29 34 30 35 31 36
REMARK SMILES IDX 32 37 33 39 34 40 35 41 93 42 36 43 92 44 37 45 38 46 39 47
REMARK SMILES IDX 86 48 40 49 91 50 85 51 87 52 41 53 90 54 84 55 83 56 42 58
REMARK SMILES IDX 72 59 53 60 71 61 54 62 57 63 70 64 88 65 55 66 56 67 69 69
REMARK SMILES IDX 89 70 58 71 43 72 44 73 52 74 45 75 51 76 46 77 47 78 48 79
REMARK SMILES IDX 49 80 50 81 73 82 74 83 82 84 75 85 81 86 76 87 77 88 78 89
REMARK SMILES IDX 79 90 80 91 59 92 60 93 68 94 61 95 67 96 62 97 63 98 64 99
REMARK SMILES IDX 65 100 66 101
REMARK H PARENT 26 6 16 17 4 28 8 31 31 38 87 57 57 68
REMARK Flexibility Score: inf
ROOT
ATOM      1  C   UNL A   1      32.476  29.797  27.358  1.00  0.00     0.023 C 
ENDROOT
BRANCH   1   2
ATOM      2  C   UNL A   1      32.378  28.283  27.503  1.00  0.00     0.116 C 
BRANCH   2   3
ATOM      3  N   UNL A   1      33.165  27.545  26.535  1.00  0.00    -0.352 N 
ATOM      4  C   UNL A   1      32.789  27.016  25.327  1.00  0.00     0.253 C 
ATOM      5  O   UNL A   1      33.612  26.380  24.673  1.00  0.00    -0.269 OA
ATOM      6  H   UNL A   1      34.107  27.403  26.780  1.00  0.00     0.163 HD
BRANCH   4   7
ATOM      7  C   UNL A   1      31.392  27.112  24.828  1.00  0.00     0.064 A 
ATOM      8  C   UNL A   1      30.353  26.192  25.069  1.00  0.00     0.054 A 
ATOM      9  C   UNL A   1      29.157  26.321  24.341  1.00  0.00     0.028 A 
ATOM     10  C   UNL A   1      28.932  27.429  23.521  1.00  0.00     0.018 A 
ATOM     11  C   UNL A   1      31.143  28.244  24.027  1.00  0.00     0.031 A 
ATOM     12  C   UNL A   1      29.912  28.407  23.401  1.00  0.00     0.018 A 
ATOM     13  Br  UNL A   1      29.566  29.962  22.385  1.00  0.00    -0.051 Br
BRANCH   8  14
ATOM     14  N   UNL A   1      30.337  25.167  26.041  1.00  0.00    -0.321 N 
ATOM     15  C   UNL A   1      30.791  23.863  25.995  1.00  0.00     0.255 C 
ATOM     16  O   UNL A   1      30.419  23.068  26.858  1.00  0.00    -0.269 OA
ATOM     17  H   UNL A   1      29.932  25.428  26.900  1.00  0.00     0.170 HD
BRANCH  15  18
ATOM     18  C   UNL A   1      31.784  23.421  24.987  1.00  0.00     0.044 A 
ATOM     19  C   UNL A   1      33.841  22.275  24.443  1.00  0.00     0.044 A 
ATOM     20  C   UNL A   1      33.749  22.795  23.142  1.00  0.00     0.052 A 
ATOM     21  C   UNL A   1      32.813  22.539  25.336  1.00  0.00     0.040 A 
ATOM     22  C   UNL A   1      32.650  23.561  22.734  1.00  0.00     0.044 A 
ATOM     23  C   UNL A   1      31.674  23.894  23.675  1.00  0.00     0.040 A 
BRANCH  19  24
ATOM     24  N   UNL A   1      35.031  21.603  24.782  1.00  0.00    -0.326 N 
ATOM     25  C   UNL A   1      36.759  23.410  24.733  1.00  0.00     0.114 C 
ATOM     26  C   UNL A   1      36.345  21.968  24.797  1.00  0.00     0.221 C 
ATOM     27  O   UNL A   1      37.205  21.089  24.908  1.00  0.00    -0.275 OA
ATOM     28  H   UNL A   1      34.883  20.674  25.068  1.00  0.00     0.169 HD
ENDBRANCH  19  24
BRANCH  22  29
ATOM     29  N   UNL A   1      32.467  24.036  21.416  1.00  0.00    -0.326 N 
ATOM     30  C   UNL A   1      32.901  25.241  20.893  1.00  0.00     0.221 C 
ATOM     31  H   UNL A   1      31.978  23.443  20.801  1.00  0.00     0.169 HD
ATOM     32  C   UNL A   1      32.559  25.415  19.434  1.00  0.00     0.114 C 
ATOM     33  O   UNL A   1      33.527  26.112  21.490  1.00  0.00    -0.275 OA
ENDBRANCH  22  29
ENDBRANCH  15  18
ENDBRANCH   8  14
ENDBRANCH   4   7
ENDBRANCH   2   3
ENDBRANCH   1   2
BRANCH   1  34
ATOM     34  C   UNL A   1      33.850  30.347  26.970  1.00  0.00     0.023 C 
BRANCH  34  35
ATOM     35  C   UNL A   1      35.038  29.871  27.803  1.00  0.00     0.116 C 
BRANCH  35  36
ATOM     36  N   UNL A   1      35.224  30.614  29.041  1.00  0.00    -0.352 N 
ATOM     37  C   UNL A   1      36.305  30.650  29.894  1.00  0.00     0.251 C 
ATOM     38  H   UNL A   1      34.462  31.176  29.309  1.00  0.00     0.163 HD
ATOM     39  O   UNL A   1      36.244  31.259  30.954  1.00  0.00    -0.269 OA
BRANCH  37  40
ATOM     40  C   UNL A   1      37.532  29.907  29.535  1.00  0.00     0.039 A 
ATOM     41  C   UNL A   1      37.959  29.906  28.206  1.00  0.00     0.014 A 
ATOM     42  C   UNL A   1      38.291  29.279  30.524  1.00  0.00     0.014 A 
ATOM     43  C   UNL A   1      39.215  29.381  27.888  1.00  0.00     0.010 A 
ATOM     44  C   UNL A   1      39.571  28.827  30.219  1.00  0.00     0.010 A 
ATOM     45  C   UNL A   1      40.058  28.901  28.903  1.00  0.00    -0.014 A 
BRANCH  45  46
ATOM     46  C   UNL A   1      41.472  28.527  28.636  1.00  0.00     0.031 A 
ATOM     47  C   UNL A   1      42.548  29.577  28.644  1.00  0.00     0.074 A 
ATOM     48  C   UNL A   1      41.771  27.262  28.274  1.00  0.00     0.049 A 
ATOM     49  N   UNL A   1      43.800  29.477  28.282  1.00  0.00    -0.248 NA
ATOM     50  C   UNL A   1      42.153  30.923  29.091  1.00  0.00     0.031 C 
ATOM     51  C   UNL A   1      40.817  26.153  28.193  1.00  0.00     0.029 A 
ATOM     52  N   UNL A   1      42.963  26.700  27.889  1.00  0.00    -0.354 N 
ATOM     53  C   UNL A   1      44.339  30.750  28.431  1.00  0.00     0.074 A 
ATOM     54  C   UNL A   1      43.265  31.611  28.876  1.00  0.00     0.031 C 
ATOM     55  C   UNL A   1      41.466  25.040  27.814  1.00  0.00     0.029 A 
ATOM     56  C   UNL A   1      42.868  25.365  27.573  1.00  0.00     0.049 A 
ATOM     57  H   UNL A   1      43.807  27.205  27.845  1.00  0.00     0.167 HD
ATOM     58  C   UNL A   1      45.614  31.161  28.229  1.00  0.00     0.031 A 
ATOM     59  C   UNL A   1      43.799  24.499  27.127  1.00  0.00     0.031 A 
ATOM     60  C   UNL A   1      46.685  30.302  27.801  1.00  0.00     0.049 A 
ATOM     61  C   UNL A   1      45.205  24.981  26.901  1.00  0.00     0.074 A 
ATOM     62  C   UNL A   1      48.017  30.620  27.604  1.00  0.00     0.029 A 
ATOM     63  N   UNL A   1      46.549  28.954  27.511  1.00  0.00    -0.354 N 
ATOM     64  N   UNL A   1      45.699  26.183  27.071  1.00  0.00    -0.248 NA
ATOM     65  C   UNL A   1      46.178  23.987  26.426  1.00  0.00     0.031 C 
ATOM     66  C   UNL A   1      48.681  29.470  27.163  1.00  0.00     0.029 A 
ATOM     67  C   UNL A   1      47.770  28.426  27.129  1.00  0.00     0.049 A 
ATOM     68  H   UNL A   1      45.708  28.445  27.570  1.00  0.00     0.167 HD
ATOM     69  C   UNL A   1      47.049  26.084  26.755  1.00  0.00     0.074 A 
ATOM     70  C   UNL A   1      47.293  24.704  26.385  1.00  0.00     0.031 C 
ATOM     71  C   UNL A   1      48.001  27.049  26.772  1.00  0.00     0.031 A 
BRANCH  58  72
ATOM     72  C   UNL A   1      45.907  32.618  28.464  1.00  0.00    -0.014 A 
ATOM     73  C   UNL A   1      45.863  33.545  27.406  1.00  0.00     0.010 A 
ATOM     74  C   UNL A   1      46.228  33.070  29.757  1.00  0.00     0.010 A 
ATOM     75  C   UNL A   1      46.196  34.884  27.624  1.00  0.00     0.020 A 
ATOM     76  C   UNL A   1      46.535  34.414  29.984  1.00  0.00     0.020 A 
ATOM     77  C   UNL A   1      46.542  35.308  28.910  1.00  0.00     0.054 A 
BRANCH  77  78
ATOM     78  S   UNL A   1      46.985  37.047  29.166  1.00  0.00     0.124 S 
ATOM     79  O   UNL A   1      47.146  37.518  27.791  1.00  0.00    -0.237 OA
ATOM     80  O   UNL A   1      45.825  37.575  29.878  1.00  0.00    -0.237 OA
ATOM     81  O   UNL A   1      48.216  36.979  29.949  1.00  0.00    -0.744 OA
ENDBRANCH  77  78
ENDBRANCH  58  72
BRANCH  59  82
ATOM     82  C   UNL A   1      43.436  23.076  26.889  1.00  0.00    -0.014 A 
ATOM     83  C   UNL A   1      43.714  22.476  25.649  1.00  0.00     0.010 A 
ATOM     84  C   UNL A   1      42.830  22.310  27.902  1.00  0.00     0.010 A 
ATOM     85  C   UNL A   1      43.383  21.138  25.420  1.00  0.00     0.020 A 
ATOM     86  C   UNL A   1      42.518  20.964  27.684  1.00  0.00     0.020 A 
ATOM     87  C   UNL A   1      42.789  20.390  26.440  1.00  0.00     0.054 A 
BRANCH  87  88
ATOM     88  S   UNL A   1      42.424  18.637  26.142  1.00  0.00     0.124 S 
ATOM     89  O   UNL A   1      42.701  18.044  27.446  1.00  0.00    -0.237 OA
ATOM     90  O   UNL A   1      41.017  18.669  25.746  1.00  0.00    -0.237 OA
ATOM     91  O   UNL A   1      43.353  18.274  25.075  1.00  0.00    -0.744 OA
ENDBRANCH  87  88
ENDBRANCH  59  82
BRANCH  71  92
ATOM     92  C   UNL A   1      49.407  26.643  26.428  1.00  0.00    -0.014 A 
ATOM     93  C   UNL A   1      50.221  25.975  27.360  1.00  0.00     0.010 A 
ATOM     94  C   UNL A   1      49.894  26.876  25.130  1.00  0.00     0.010 A 
ATOM     95  C   UNL A   1      51.509  25.564  27.002  1.00  0.00     0.020 A 
ATOM     96  C   UNL A   1      51.172  26.448  24.763  1.00  0.00     0.020 A 
ATOM     97  C   UNL A   1      51.976  25.802  25.706  1.00  0.00     0.054 A 
BRANCH  97  98
ATOM     98  S   UNL A   1      53.625  25.205  25.245  1.00  0.00     0.124 S 
ATOM     99  O   UNL A   1      53.728  25.638  23.854  1.00  0.00    -0.237 OA
ATOM    100  O   UNL A   1      54.496  25.905  26.187  1.00  0.00    -0.237 OA
ATOM    101  O   UNL A   1      53.538  23.760  25.445  1.00  0.00    -0.744 OA
ENDBRANCH  97  98
ENDBRANCH  71  92
ENDBRANCH  45  46
ENDBRANCH  37  40
ENDBRANCH  35  36
ENDBRANCH  34  35
ENDBRANCH   1  34
TORSDOF 18
ENDMDL
MODEL 2
REMARK VINA RESULT:     -12.9      1.802      8.120
REMARK SMILES CC(=O)Nc1cc(NC(C)=O)cc(C(=O)Nc2ccc(Br)cc2C(=O)NCCCCNC(=O)c2ccc(-c3c4nc(c(-c5ccc(S(=O)(=O)[O-])cc5)c5ccc([nH]5)c(-c5ccc(S(=O)(=O)[O-])cc5)c5nc(c(-c6ccc(S(=O)(=O)[O-])cc6)c6ccc3[nH]6)C=C5)C=C4)cc2)c1
REMARK SMILES IDX 28 1 27 2 26 3 24 4 25 5 23 7 17 8 18 9 19 10 22 11 20 12
REMARK SMILES IDX 21 13 16 14 14 15 15 16 13 18 5 19 6 20 94 21 7 22 12 23
REMARK SMILES IDX 4 24 1 25 2 26 3 27 8 29 9 30 10 32 11 33 29 34 30 35 31 36
REMARK SMILES IDX 32 37 33 39 34 40 35 41 93 42 36 43 92 44 37 45 38 46 39 47
REMARK SMILES IDX 86 48 40 49 91 50 85 51 87 52 41 53 90 54 84 55 83 56 42 58
REMARK SMILES IDX 72 59 53 60 71 61 54 62 57 63 70 64 88 65 55 66 56 67 69 69
REMARK SMILES IDX 89 70 58 71 43 72 44 73 52 74 45 75 51 76 46 77 47 78 48 79
REMARK SMILES IDX 49 80 50 81 73 82 74 83 82 84 75 85 81 86 76 87 77 88 78 89
REMARK SMILES IDX 79 90 80 91 59 92 60 93 68 94 61 95 67 96 62 97 63 98 64 99
REMARK SMILES IDX 65 100 66 101
REMARK H PARENT 26 6 16 17 4 28 8 31 31 38 87 57 57 68
REMARK Flexibility Score: inf
ROOT
ATOM      1  C   UNL A   1      34.959  30.522  27.215  1.00  0.00     0.023 C 
ENDROOT
BRANCH   1   2
ATOM      2  C   UNL A   1      34.612  29.058  27.458  1.00  0.00     0.116 C 
BRANCH   2   3
ATOM      3  N   UNL A   1      33.255  28.842  27.920  1.00  0.00    -0.352 N 
ATOM      4  C   UNL A   1      32.264  28.063  27.380  1.00  0.00     0.253 C 
ATOM      5  O   UNL A   1      31.157  28.054  27.913  1.00  0.00    -0.269 OA
ATOM      6  H   UNL A   1      33.009  29.324  28.742  1.00  0.00     0.163 HD
BRANCH   4   7
ATOM      7  C   UNL A   1      32.463  27.299  26.121  1.00  0.00     0.064 A 
ATOM      8  C   UNL A   1      32.187  25.932  25.920  1.00  0.00     0.054 A 
ATOM      9  C   UNL A   1      32.640  25.321  24.738  1.00  0.00     0.028 A 
ATOM     10  C   UNL A   1      33.202  26.078  23.707  1.00  0.00     0.018 A 
ATOM     11  C   UNL A   1      32.999  28.060  25.063  1.00  0.00     0.031 A 
ATOM     12  C   UNL A   1      33.341  27.452  23.860  1.00  0.00     0.018 A 
ATOM     13  Br  UNL A   1      33.994  28.495  22.426  1.00  0.00    -0.051 Br
BRANCH   8  14
ATOM     14  N   UNL A   1      31.417  25.092  26.754  1.00  0.00    -0.321 N 
ATOM     15  C   UNL A   1      31.351  23.714  26.845  1.00  0.00     0.255 C 
ATOM     16  O   UNL A   1      30.408  23.198  27.442  1.00  0.00    -0.269 OA
ATOM     17  H   UNL A   1      30.826  25.570  27.379  1.00  0.00     0.170 HD
BRANCH  15  18
ATOM     18  C   UNL A   1      32.433  22.848  26.318  1.00  0.00     0.044 A 
ATOM     19  C   UNL A   1      34.778  22.275  26.197  1.00  0.00     0.044 A 
ATOM     20  C   UNL A   1      34.472  21.381  25.159  1.00  0.00     0.052 A 
ATOM     21  C   UNL A   1      33.736  22.952  26.816  1.00  0.00     0.040 A 
ATOM     22  C   UNL A   1      33.152  21.157  24.747  1.00  0.00     0.044 A 
ATOM     23  C   UNL A   1      32.131  21.918  25.318  1.00  0.00     0.040 A 
BRANCH  19  24
ATOM     24  N   UNL A   1      36.141  22.501  26.468  1.00  0.00    -0.326 N 
ATOM     25  C   UNL A   1      37.015  23.450  24.325  1.00  0.00     0.114 C 
ATOM     26  C   UNL A   1      37.205  22.868  25.697  1.00  0.00     0.221 C 
ATOM     27  O   UNL A   1      38.342  22.753  26.161  1.00  0.00    -0.275 OA
ATOM     28  H   UNL A   1      36.376  22.365  27.413  1.00  0.00     0.169 HD
ENDBRANCH  19  24
BRANCH  22  29
ATOM     29  N   UNL A   1      32.783  20.207  23.768  1.00  0.00    -0.326 N 
ATOM     30  C   UNL A   1      32.787  18.830  23.896  1.00  0.00     0.221 C 
ATOM     31  H   UNL A   1      32.491  20.566  22.899  1.00  0.00     0.169 HD
ATOM     32  C   UNL A   1      32.303  18.116  22.657  1.00  0.00     0.114 C 
ATOM     33  O   UNL A   1      33.112  18.190  24.891  1.00  0.00    -0.275 OA
ENDBRANCH  22  29
ENDBRANCH  15  18
ENDBRANCH   8  14
ENDBRANCH   4   7
ENDBRANCH   2   3
ENDBRANCH   1   2
BRANCH   1  34
ATOM     34  C   UNL A   1      34.636  31.487  28.358  1.00  0.00     0.023 C 
BRANCH  34  35
ATOM     35  C   UNL A   1      35.753  31.753  29.365  1.00  0.00     0.116 C 
BRANCH  35  36
ATOM     36  N   UNL A   1      35.760  30.834  30.494  1.00  0.00    -0.352 N 
ATOM     37  C   UNL A   1      36.768  30.020  30.963  1.00  0.00     0.251 C 
ATOM     38  H   UNL A   1      34.916  30.787  30.999  1.00  0.00     0.163 HD
ATOM     39  O   UNL A   1      36.559  29.228  31.873  1.00  0.00    -0.269 OA
BRANCH  37  40
ATOM     40  C   UNL A   1      38.100  30.083  30.325  1.00  0.00     0.039 A 
ATOM     41  C   UNL A   1      39.223  30.315  31.122  1.00  0.00     0.014 A 
ATOM     42  C   UNL A   1      38.239  29.841  28.957  1.00  0.00     0.014 A 
ATOM     43  C   UNL A   1      40.499  30.179  30.568  1.00  0.00     0.010 A 
ATOM     44  C   UNL A   1      39.509  29.631  28.427  1.00  0.00     0.010 A 
ATOM     45  C   UNL A   1      40.650  29.767  29.234  1.00  0.00    -0.014 A 
BRANCH  45  46
ATOM     46  C   UNL A   1      41.979  29.413  28.670  1.00  0.00     0.031 A 
ATOM     47  C   UNL A   1      42.261  28.006  28.221  1.00  0.00     0.074 A 
ATOM     48  C   UNL A   1      42.968  30.330  28.666  1.00  0.00     0.049 A 
ATOM     49  N   UNL A   1      43.396  27.470  27.853  1.00  0.00    -0.248 NA
ATOM     50  C   UNL A   1      41.121  27.076  28.213  1.00  0.00     0.031 C 
ATOM     51  C   UNL A   1      42.839  31.722  29.104  1.00  0.00     0.029 A 
ATOM     52  N   UNL A   1      44.286  30.223  28.294  1.00  0.00    -0.354 N 
ATOM     53  C   UNL A   1      43.115  26.133  27.596  1.00  0.00     0.074 A 
ATOM     54  C   UNL A   1      41.712  25.934  27.889  1.00  0.00     0.031 C 
ATOM     55  C   UNL A   1      44.019  32.346  28.949  1.00  0.00     0.029 A 
ATOM     56  C   UNL A   1      45.001  31.388  28.451  1.00  0.00     0.049 A 
ATOM     57  H   UNL A   1      44.682  29.391  27.947  1.00  0.00     0.167 HD
ATOM     58  C   UNL A   1      43.945  25.163  27.143  1.00  0.00     0.031 A 
ATOM     59  C   UNL A   1      46.303  31.655  28.233  1.00  0.00     0.031 A 
ATOM     60  C   UNL A   1      45.336  25.365  26.836  1.00  0.00     0.049 A 
ATOM     61  C   UNL A   1      47.208  30.560  27.740  1.00  0.00     0.074 A 
ATOM     62  C   UNL A   1      46.249  24.451  26.338  1.00  0.00     0.029 A 
ATOM     63  N   UNL A   1      46.014  26.563  26.991  1.00  0.00    -0.354 N 
ATOM     64  N   UNL A   1      46.917  29.309  27.479  1.00  0.00    -0.248 NA
ATOM     65  C   UNL A   1      48.615  30.917  27.509  1.00  0.00     0.031 C 
ATOM     66  C   UNL A   1      47.488  25.091  26.222  1.00  0.00     0.029 A 
ATOM     67  C   UNL A   1      47.335  26.414  26.606  1.00  0.00     0.049 A 
ATOM     68  H   UNL A   1      45.615  27.399  27.324  1.00  0.00     0.167 HD
ATOM     69  C   UNL A   1      48.098  28.735  27.022  1.00  0.00     0.074 A 
ATOM     70  C   UNL A   1      49.105  29.776  27.040  1.00  0.00     0.031 C 
ATOM     71  C   UNL A   1      48.325  27.460  26.621  1.00  0.00     0.031 A 
BRANCH  58  72
ATOM     72  C   UNL A   1      43.358  23.790  26.964  1.00  0.00    -0.014 A 
ATOM     73  C   UNL A   1      43.290  22.886  28.041  1.00  0.00     0.010 A 
ATOM     74  C   UNL A   1      42.866  23.395  25.707  1.00  0.00     0.010 A 
ATOM     75  C   UNL A   1      42.799  21.593  27.849  1.00  0.00     0.020 A 
ATOM     76  C   UNL A   1      42.348  22.111  25.518  1.00  0.00     0.020 A 
ATOM     77  C   UNL A   1      42.342  21.209  26.585  1.00  0.00     0.054 A 
BRANCH  77  78
ATOM     78  S   UNL A   1      41.723  19.520  26.357  1.00  0.00     0.124 S 
ATOM     79  O   UNL A   1      42.486  19.080  25.191  1.00  0.00    -0.237 OA
ATOM     80  O   UNL A   1      42.074  18.874  27.618  1.00  0.00    -0.237 OA
ATOM     81  O   UNL A   1      40.291  19.705  26.131  1.00  0.00    -0.744 OA
ENDBRANCH  77  78
ENDBRANCH  58  72
BRANCH  59  82
ATOM     82  C   UNL A   1      46.826  33.030  28.455  1.00  0.00    -0.014 A 
ATOM     83  C   UNL A   1      46.792  33.973  27.413  1.00  0.00     0.010 A 
ATOM     84  C   UNL A   1      47.340  33.410  29.708  1.00  0.00     0.010 A 
ATOM     85  C   UNL A   1      47.274  35.269  27.615  1.00  0.00     0.020 A 
ATOM     86  C   UNL A   1      47.802  34.713  29.921  1.00  0.00     0.020 A 
ATOM     87  C   UNL A   1      47.775  35.631  28.869  1.00  0.00     0.054 A 
BRANCH  87  88
ATOM     88  S   UNL A   1      48.338  37.337  29.127  1.00  0.00     0.124 S 
ATOM     89  O   UNL A   1      47.078  38.045  29.328  1.00  0.00    -0.237 OA
ATOM     90  O   UNL A   1      49.190  37.214  30.308  1.00  0.00    -0.237 OA
ATOM     91  O   UNL A   1      49.047  37.652  27.889  1.00  0.00    -0.744 OA
ENDBRANCH  87  88
ENDBRANCH  59  82
BRANCH  71  92
ATOM     92  C   UNL A   1      49.703  27.126  26.120  1.00  0.00    -0.014 A 
ATOM     93  C   UNL A   1      50.698  26.648  26.991  1.00  0.00     0.010 A 
ATOM     94  C   UNL A   1      49.982  27.230  24.746  1.00  0.00     0.010 A 
ATOM     95  C   UNL A   1      51.957  26.297  26.495  1.00  0.00     0.020 A 
ATOM     96  C   UNL A   1      51.232  26.860  24.244  1.00  0.00     0.020 A 
ATOM     97  C   UNL A   1      52.216  26.405  25.124  1.00  0.00     0.054 A 
BRANCH  97  98
ATOM     98  S   UNL A   1      53.836  25.886  24.495  1.00  0.00     0.124 S 
ATOM     99  O   UNL A   1      54.748  26.685  25.309  1.00  0.00    -0.237 OA
ATOM    100  O   UNL A   1      53.844  24.451  24.768  1.00  0.00    -0.237 OA
ATOM    101  O   UNL A   1      53.787  26.244  23.079  1.00  0.00    -0.744 OA
ENDBRANCH  97  98
ENDBRANCH  71  92
ENDBRANCH  45  46
ENDBRANCH  37  40
ENDBRANCH  35  36
ENDBRANCH  34  35
ENDBRANCH   1  34
TORSDOF 18
ENDMDL
MODEL 3
REMARK VINA RESULT:     -12.8      1.073      2.402
REMARK SMILES CC(=O)Nc1cc(NC(C)=O)cc(C(=O)Nc2ccc(Br)cc2C(=O)NCCCCNC(=O)c2ccc(-c3c4nc(c(-c5ccc(S(=O)(=O)[O-])cc5)c5ccc([nH]5)c(-c5ccc(S(=O)(=O)[O-])cc5)c5nc(c(-c6ccc(S(=O)(=O)[O-])cc6)c6ccc3[nH]6)C=C5)C=C4)cc2)c1
REMARK SMILES IDX 28 1 27 2 26 3 24 4 25 5 23 7 17 8 18 9 19 10 22 11 20 12
REMARK SMILES IDX 21 13 16 14 14 15 15 16 13 18 5 19 6 20 94 21 7 22 12 23
REMARK SMILES IDX 4 24 1 25 2 26 3 27 8 29 9 30 10 32 11 33 29 34 30 35 31 36
REMARK SMILES IDX 32 37 33 39 34 40 35 41 93 42 36 43 92 44 37 45 38 46 39 47
REMARK SMILES IDX 86 48 40 49 91 50 85 51 87 52 41 53 90 54 84 55 83 56 42 58
REMARK SMILES IDX 72 59 53 60 71 61 54 62 57 63 70 64 88 65 55 66 56 67 69 69
REMARK SMILES IDX 89 70 58 71 43 72 44 73 52 74 45 75 51 76 46 77 47 78 48 79
REMARK SMILES IDX 49 80 50 81 73 82 74 83 82 84 75 85 81 86 76 87 77 88 78 89
REMARK SMILES IDX 79 90 80 91 59 92 60 93 68 94 61 95 67 96 62 97 63 98 64 99
REMARK SMILES IDX 65 100 66 101
REMARK H PARENT 26 6 16 17 4 28 8 31 31 38 87 57 57 68
REMARK Flexibility Score: inf
ROOT
ATOM      1  C   UNL A   1      33.294  30.736  27.278  1.00  0.00     0.023 C 
ENDROOT
BRANCH   1   2
ATOM      2  C   UNL A   1      32.455  29.464  27.228  1.00  0.00     0.116 C 
BRANCH   2   3
ATOM      3  N   UNL A   1      33.210  28.271  26.902  1.00  0.00    -0.352 N 
ATOM      4  C   UNL A   1      32.882  27.233  26.067  1.00  0.00     0.253 C 
ATOM      5  O   UNL A   1      33.656  26.284  25.964  1.00  0.00    -0.269 OA
ATOM      6  H   UNL A   1      34.085  28.193  27.344  1.00  0.00     0.163 HD
BRANCH   4   7
ATOM      7  C   UNL A   1      31.580  27.181  25.352  1.00  0.00     0.064 A 
ATOM      8  C   UNL A   1      30.598  26.179  25.478  1.00  0.00     0.054 A 
ATOM      9  C   UNL A   1      29.527  26.168  24.567  1.00  0.00     0.028 A 
ATOM     10  C   UNL A   1      29.342  27.218  23.664  1.00  0.00     0.018 A 
ATOM     11  C   UNL A   1      31.367  28.252  24.463  1.00  0.00     0.031 A 
ATOM     12  C   UNL A   1      30.242  28.276  23.646  1.00  0.00     0.018 A 
ATOM     13  Br  UNL A   1      29.932  29.752  22.507  1.00  0.00    -0.051 Br
BRANCH   8  14
ATOM     14  N   UNL A   1      30.514  25.196  26.489  1.00  0.00    -0.321 N 
ATOM     15  C   UNL A   1      30.675  23.824  26.440  1.00  0.00     0.255 C 
ATOM     16  O   UNL A   1      30.278  23.140  27.382  1.00  0.00    -0.269 OA
ATOM     17  H   UNL A   1      30.304  25.549  27.383  1.00  0.00     0.170 HD
BRANCH  15  18
ATOM     18  C   UNL A   1      31.392  23.166  25.322  1.00  0.00     0.044 A 
ATOM     19  C   UNL A   1      32.329  23.263  23.096  1.00  0.00     0.044 A 
ATOM     20  C   UNL A   1      32.525  21.874  23.153  1.00  0.00     0.052 A 
ATOM     21  C   UNL A   1      31.825  23.907  24.217  1.00  0.00     0.040 A 
ATOM     22  C   UNL A   1      32.232  21.138  24.308  1.00  0.00     0.044 A 
ATOM     23  C   UNL A   1      31.638  21.791  25.389  1.00  0.00     0.040 A 
BRANCH  19  24
ATOM     24  N   UNL A   1      32.562  23.893  21.858  1.00  0.00    -0.326 N 
ATOM     25  C   UNL A   1      33.681  26.037  22.493  1.00  0.00     0.114 C 
ATOM     26  C   UNL A   1      33.004  25.133  21.502  1.00  0.00     0.221 C 
ATOM     27  O   UNL A   1      32.879  25.495  20.330  1.00  0.00    -0.275 OA
ATOM     28  H   UNL A   1      32.362  23.317  21.086  1.00  0.00     0.169 HD
ENDBRANCH  19  24
BRANCH  22  29
ATOM     29  N   UNL A   1      32.490  19.756  24.447  1.00  0.00    -0.326 N 
ATOM     30  C   UNL A   1      33.715  19.151  24.663  1.00  0.00     0.221 C 
ATOM     31  H   UNL A   1      31.711  19.157  24.383  1.00  0.00     0.169 HD
ATOM     32  C   UNL A   1      33.623  17.650  24.792  1.00  0.00     0.114 C 
ATOM     33  O   UNL A   1      34.798  19.717  24.776  1.00  0.00    -0.275 OA
ENDBRANCH  22  29
ENDBRANCH  15  18
ENDBRANCH   8  14
ENDBRANCH   4   7
ENDBRANCH   2   3
ENDBRANCH   1   2
BRANCH   1  34
ATOM     34  C   UNL A   1      34.812  30.539  27.256  1.00  0.00     0.023 C 
BRANCH  34  35
ATOM     35  C   UNL A   1      35.616  31.308  28.302  1.00  0.00     0.116 C 
BRANCH  35  36
ATOM     36  N   UNL A   1      35.510  30.759  29.646  1.00  0.00    -0.352 N 
ATOM     37  C   UNL A   1      36.473  30.171  30.437  1.00  0.00     0.251 C 
ATOM     38  H   UNL A   1      34.615  30.817  30.052  1.00  0.00     0.163 HD
ATOM     39  O   UNL A   1      36.175  29.669  31.514  1.00  0.00    -0.269 OA
BRANCH  37  40
ATOM     40  C   UNL A   1      37.868  30.115  29.953  1.00  0.00     0.039 A 
ATOM     41  C   UNL A   1      38.905  30.429  30.834  1.00  0.00     0.014 A 
ATOM     42  C   UNL A   1      38.147  29.683  28.654  1.00  0.00     0.014 A 
ATOM     43  C   UNL A   1      40.228  30.188  30.452  1.00  0.00     0.010 A 
ATOM     44  C   UNL A   1      39.458  29.373  28.305  1.00  0.00     0.010 A 
ATOM     45  C   UNL A   1      40.508  29.593  29.211  1.00  0.00    -0.014 A 
BRANCH  45  46
ATOM     46  C   UNL A   1      41.877  29.134  28.854  1.00  0.00     0.031 A 
ATOM     47  C   UNL A   1      43.017  30.114  28.810  1.00  0.00     0.074 A 
ATOM     48  C   UNL A   1      42.071  27.859  28.460  1.00  0.00     0.049 A 
ATOM     49  N   UNL A   1      44.236  29.940  28.373  1.00  0.00    -0.248 NA
ATOM     50  C   UNL A   1      42.736  31.474  29.297  1.00  0.00     0.031 C 
ATOM     51  C   UNL A   1      41.046  26.814  28.423  1.00  0.00     0.029 A 
ATOM     52  N   UNL A   1      43.200  27.228  27.997  1.00  0.00    -0.354 N 
ATOM     53  C   UNL A   1      44.863  31.173  28.504  1.00  0.00     0.074 A 
ATOM     54  C   UNL A   1      43.876  32.094  29.024  1.00  0.00     0.031 C 
ATOM     55  C   UNL A   1      41.597  25.668  27.992  1.00  0.00     0.029 A 
ATOM     56  C   UNL A   1      43.001  25.907  27.672  1.00  0.00     0.049 A 
ATOM     57  H   UNL A   1      44.071  27.679  27.908  1.00  0.00     0.167 HD
ATOM     58  C   UNL A   1      46.148  31.506  28.231  1.00  0.00     0.031 A 
ATOM     59  C   UNL A   1      43.846  24.991  27.160  1.00  0.00     0.031 A 
ATOM     60  C   UNL A   1      47.134  30.587  27.729  1.00  0.00     0.049 A 
ATOM     61  C   UNL A   1      45.264  25.386  26.855  1.00  0.00     0.074 A 
ATOM     62  C   UNL A   1      48.470  30.823  27.455  1.00  0.00     0.029 A 
ATOM     63  N   UNL A   1      46.895  29.255  27.431  1.00  0.00    -0.354 N 
ATOM     64  N   UNL A   1      45.844  26.552  27.009  1.00  0.00    -0.248 NA
ATOM     65  C   UNL A   1      46.141  24.340  26.310  1.00  0.00     0.031 C 
ATOM     66  C   UNL A   1      49.031  29.640  26.961  1.00  0.00     0.029 A 
ATOM     67  C   UNL A   1      48.055  28.657  26.970  1.00  0.00     0.049 A 
ATOM     68  H   UNL A   1      46.028  28.800  27.534  1.00  0.00     0.167 HD
ATOM     69  C   UNL A   1      47.164  26.372  26.611  1.00  0.00     0.074 A 
ATOM     70  C   UNL A   1      47.296  24.985  26.211  1.00  0.00     0.031 C 
ATOM     71  C   UNL A   1      48.175  27.274  26.583  1.00  0.00     0.031 A 
BRANCH  58  72
ATOM     72  C   UNL A   1      46.548  32.938  28.465  1.00  0.00    -0.014 A 
ATOM     73  C   UNL A   1      47.065  33.350  29.707  1.00  0.00     0.010 A 
ATOM     74  C   UNL A   1      46.408  33.883  27.433  1.00  0.00     0.010 A 
ATOM     75  C   UNL A   1      47.375  34.693  29.933  1.00  0.00     0.020 A 
ATOM     76  C   UNL A   1      46.744  35.223  27.647  1.00  0.00     0.020 A 
ATOM     77  C   UNL A   1      47.201  35.623  28.904  1.00  0.00     0.054 A 
BRANCH  77  78
ATOM     78  S   UNL A   1      47.597  37.364  29.225  1.00  0.00     0.124 S 
ATOM     79  O   UNL A   1      46.353  37.845  29.823  1.00  0.00    -0.237 OA
ATOM     80  O   UNL A   1      48.736  37.274  30.135  1.00  0.00    -0.237 OA
ATOM     81  O   UNL A   1      47.901  37.899  27.901  1.00  0.00    -0.744 OA
ENDBRANCH  77  78
ENDBRANCH  58  72
BRANCH  59  82
ATOM     82  C   UNL A   1      43.378  23.598  26.927  1.00  0.00    -0.014 A 
ATOM     83  C   UNL A   1      43.121  23.151  25.619  1.00  0.00     0.010 A 
ATOM     84  C   UNL A   1      43.207  22.708  28.003  1.00  0.00     0.010 A 
ATOM     85  C   UNL A   1      42.688  21.841  25.392  1.00  0.00     0.020 A 
ATOM     86  C   UNL A   1      42.797  21.391  27.777  1.00  0.00     0.020 A 
ATOM     87  C   UNL A   1      42.531  20.969  26.472  1.00  0.00     0.054 A 
BRANCH  87  88
ATOM     88  S   UNL A   1      42.029  19.256  26.148  1.00  0.00     0.124 S 
ATOM     89  O   UNL A   1      42.839  18.918  24.982  1.00  0.00    -0.237 OA
ATOM     90  O   UNL A   1      42.393  18.578  27.390  1.00  0.00    -0.237 OA
ATOM     91  O   UNL A   1      40.592  19.363  25.906  1.00  0.00    -0.744 OA
ENDBRANCH  87  88
ENDBRANCH  59  82
BRANCH  71  92
ATOM     92  C   UNL A   1      49.529  26.785  26.150  1.00  0.00    -0.014 A 
ATOM     93  C   UNL A   1      49.934  26.854  24.806  1.00  0.00     0.010 A 
ATOM     94  C   UNL A   1      50.432  26.310  27.119  1.00  0.00     0.010 A 
ATOM     95  C   UNL A   1      51.216  26.439  24.434  1.00  0.00     0.020 A 
ATOM     96  C   UNL A   1      51.722  25.914  26.754  1.00  0.00     0.020 A 
ATOM     97  C   UNL A   1      52.102  25.972  25.411  1.00  0.00     0.054 A 
BRANCH  97  98
ATOM     98  S   UNL A   1      53.780  25.496  24.915  1.00  0.00     0.124 S 
ATOM     99  O   UNL A   1      53.632  24.062  24.678  1.00  0.00    -0.237 OA
ATOM    100  O   UNL A   1      54.008  26.310  23.723  1.00  0.00    -0.237 OA
ATOM    101  O   UNL A   1      54.598  25.856  26.072  1.00  0.00    -0.744 OA
ENDBRANCH  97  98
ENDBRANCH  71  92
ENDBRANCH  45  46
ENDBRANCH  37  40
ENDBRANCH  35  36
ENDBRANCH  34  35
ENDBRANCH   1  34
TORSDOF 18
ENDMDL
