MODEL 1
REMARK VINA RESULT:     -11.8      0.000      0.000
REMARK SMILES Cc1cc(C(=O)NCCCCNC(=O)c2ccc(-c3c4nc(c(-c5ccc(S(=O)(=O)[O-])cc5)c5ccc([nH]5)c(-c5ccc(S(=O)(=O)[O-])cc5)c5nc(c(-c6ccc(S(=O)(=O)[O-])cc6)c6ccc3[nH]6)C=C5)C=C4)cc2)c2c(C)nn(CC(C)C)c2n1
REMARK SMILES IDX 10 1 9 2 8 3 7 4 5 5 6 6 4 8 1 9 2 10 3 11 85 12 84 13 75 14
REMARK SMILES IDX 79 15 76 16 78 17 77 18 80 19 81 20 82 21 83 22 11 23 12 24
REMARK SMILES IDX 13 25 14 27 15 28 16 29 74 30 17 31 73 32 18 33 19 34 20 35
REMARK SMILES IDX 67 36 21 37 72 38 66 39 68 40 22 41 71 42 65 43 64 44 23 46
REMARK SMILES IDX 53 47 34 48 52 49 35 50 38 51 51 52 69 53 36 54 37 55 50 57
REMARK SMILES IDX 70 58 39 59 24 60 25 61 33 62 26 63 32 64 27 65 28 66 29 67
REMARK SMILES IDX 30 68 31 69 54 70 55 71 63 72 56 73 62 74 57 75 58 76 59 77
REMARK SMILES IDX 60 78 61 79 40 80 41 81 49 82 42 83 48 84 43 85 44 86 45 87
REMARK SMILES IDX 46 88 47 89
REMARK H PARENT 7 7 12 26 68 45 38 56
REMARK Flexibility Score: inf
ROOT
ATOM      1  C   UNL A   1      38.964  22.247  25.983  1.00  0.00     0.023 C 
ENDROOT
BRANCH   1   2
ATOM      2  C   UNL A   1      38.083  23.497  26.126  1.00  0.00     0.023 C 
BRANCH   2   3
ATOM      3  C   UNL A   1      37.020  23.665  25.027  1.00  0.00     0.116 C 
BRANCH   3   4
ATOM      4  N   UNL A   1      35.796  22.984  25.410  1.00  0.00    -0.352 N 
ATOM      5  C   UNL A   1      34.518  23.409  25.686  1.00  0.00     0.252 C 
ATOM      6  O   UNL A   1      33.806  22.612  26.292  1.00  0.00    -0.269 OA
ATOM      7  H   UNL A   1      35.905  22.008  25.488  1.00  0.00     0.163 HD
BRANCH   5   8
ATOM      8  C   UNL A   1      33.972  24.735  25.287  1.00  0.00     0.054 A 
ATOM      9  C   UNL A   1      34.069  28.359  26.442  1.00  0.00     0.067 C 
ATOM     10  C   UNL A   1      33.757  27.137  25.630  1.00  0.00     0.041 A 
ATOM     11  C   UNL A   1      34.154  25.885  26.075  1.00  0.00     0.038 A 
ATOM     12  N   UNL A   1      33.100  27.330  24.485  1.00  0.00    -0.234 NA
ATOM     13  C   UNL A   1      32.763  26.198  23.847  1.00  0.00     0.159 A 
ATOM     14  C   UNL A   1      33.167  24.896  24.127  1.00  0.00     0.055 A 
ATOM     15  N   UNL A   1      31.865  26.129  22.825  1.00  0.00    -0.247 N 
ATOM     16  C   UNL A   1      32.583  24.146  23.047  1.00  0.00     0.070 A 
ATOM     17  N   UNL A   1      31.755  24.900  22.296  1.00  0.00    -0.176 NA
ATOM     18  C   UNL A   1      32.708  22.715  22.656  1.00  0.00     0.069 C 
BRANCH  15  19
ATOM     19  C   UNL A   1      31.078  27.233  22.312  1.00  0.00     0.149 C 
BRANCH  19  20
ATOM     20  C   UNL A   1      30.032  27.822  23.291  1.00  0.00     0.004 C 
ATOM     21  C   UNL A   1      29.164  28.937  22.700  1.00  0.00     0.009 C 
ATOM     22  C   UNL A   1      29.103  26.702  23.768  1.00  0.00     0.009 C 
ENDBRANCH  19  20
ENDBRANCH  15  19
ENDBRANCH   5   8
ENDBRANCH   3   4
ENDBRANCH   2   3
ENDBRANCH   1   2
BRANCH   1  23
ATOM     23  C   UNL A   1      40.033  22.118  27.057  1.00  0.00     0.116 C 
BRANCH  23  24
ATOM     24  N   UNL A   1      41.385  22.052  26.496  1.00  0.00    -0.352 N 
ATOM     25  C   UNL A   1      42.169  23.090  26.018  1.00  0.00     0.251 C 
ATOM     26  H   UNL A   1      41.788  21.155  26.453  1.00  0.00     0.163 HD
ATOM     27  O   UNL A   1      43.098  22.882  25.259  1.00  0.00    -0.269 OA
BRANCH  25  28
ATOM     28  C   UNL A   1      41.867  24.447  26.500  1.00  0.00     0.039 A 
ATOM     29  C   UNL A   1      41.114  25.366  25.766  1.00  0.00     0.014 A 
ATOM     30  C   UNL A   1      42.369  24.767  27.757  1.00  0.00     0.014 A 
ATOM     31  C   UNL A   1      40.869  26.613  26.334  1.00  0.00     0.010 A 
ATOM     32  C   UNL A   1      41.912  25.869  28.407  1.00  0.00     0.010 A 
ATOM     33  C   UNL A   1      41.293  26.846  27.649  1.00  0.00    -0.014 A 
BRANCH  33  34
ATOM     34  C   UNL A   1      41.186  28.134  28.296  1.00  0.00     0.031 A 
ATOM     35  C   UNL A   1      42.225  29.115  27.932  1.00  0.00     0.074 A 
ATOM     36  C   UNL A   1      40.070  28.466  28.981  1.00  0.00     0.049 A 
ATOM     37  N   UNL A   1      43.213  29.494  28.667  1.00  0.00    -0.248 NA
ATOM     38  C   UNL A   1      42.266  29.634  26.557  1.00  0.00     0.031 C 
ATOM     39  C   UNL A   1      38.811  27.724  29.149  1.00  0.00     0.029 A 
ATOM     40  N   UNL A   1      39.801  29.638  29.596  1.00  0.00    -0.354 N 
ATOM     41  C   UNL A   1      43.899  30.448  27.929  1.00  0.00     0.074 A 
ATOM     42  C   UNL A   1      43.384  30.366  26.584  1.00  0.00     0.031 C 
ATOM     43  C   UNL A   1      37.853  28.560  29.616  1.00  0.00     0.029 A 
ATOM     44  C   UNL A   1      38.471  29.832  29.941  1.00  0.00     0.049 A 
ATOM     45  H   UNL A   1      40.498  30.307  29.786  1.00  0.00     0.167 HD
ATOM     46  C   UNL A   1      44.689  31.381  28.527  1.00  0.00     0.031 A 
ATOM     47  C   UNL A   1      37.942  30.984  30.425  1.00  0.00     0.031 A 
ATOM     48  C   UNL A   1      44.852  31.121  29.935  1.00  0.00     0.049 A 
ATOM     49  C   UNL A   1      39.084  31.746  31.005  1.00  0.00     0.074 A 
ATOM     50  C   UNL A   1      45.408  30.087  30.662  1.00  0.00     0.029 A 
ATOM     51  N   UNL A   1      43.985  31.765  30.792  1.00  0.00    -0.354 N 
ATOM     52  N   UNL A   1      39.777  31.313  32.025  1.00  0.00    -0.248 NA
ATOM     53  C   UNL A   1      39.774  32.707  30.153  1.00  0.00     0.031 C 
ATOM     54  C   UNL A   1      44.487  29.858  31.728  1.00  0.00     0.029 A 
ATOM     55  C   UNL A   1      43.472  30.815  31.643  1.00  0.00     0.049 A 
ATOM     56  H   UNL A   1      43.772  32.726  30.794  1.00  0.00     0.167 HD
ATOM     57  C   UNL A   1      41.100  31.602  31.714  1.00  0.00     0.074 A 
ATOM     58  C   UNL A   1      41.028  32.537  30.590  1.00  0.00     0.031 C 
ATOM     59  C   UNL A   1      42.131  30.843  32.194  1.00  0.00     0.031 A 
BRANCH  46  60
ATOM     60  C   UNL A   1      45.018  32.711  27.922  1.00  0.00    -0.014 A 
ATOM     61  C   UNL A   1      46.347  32.988  27.547  1.00  0.00     0.010 A 
ATOM     62  C   UNL A   1      44.108  33.787  27.942  1.00  0.00     0.010 A 
ATOM     63  C   UNL A   1      46.753  34.294  27.248  1.00  0.00     0.020 A 
ATOM     64  C   UNL A   1      44.494  35.085  27.607  1.00  0.00     0.020 A 
ATOM     65  C   UNL A   1      45.822  35.335  27.290  1.00  0.00     0.054 A 
BRANCH  65  66
ATOM     66  S   UNL A   1      46.390  37.035  27.036  1.00  0.00     0.124 S 
ATOM     67  O   UNL A   1      47.220  36.906  25.842  1.00  0.00    -0.237 OA
ATOM     68  O   UNL A   1      45.132  37.754  26.861  1.00  0.00    -0.237 OA
ATOM     69  O   UNL A   1      47.116  37.341  28.267  1.00  0.00    -0.744 OA
ENDBRANCH  65  66
ENDBRANCH  46  60
BRANCH  47  70
ATOM     70  C   UNL A   1      36.637  31.602  30.064  1.00  0.00    -0.014 A 
ATOM     71  C   UNL A   1      35.824  32.197  31.048  1.00  0.00     0.010 A 
ATOM     72  C   UNL A   1      36.322  31.867  28.715  1.00  0.00     0.010 A 
ATOM     73  C   UNL A   1      34.794  33.090  30.697  1.00  0.00     0.020 A 
ATOM     74  C   UNL A   1      35.295  32.751  28.357  1.00  0.00     0.020 A 
ATOM     75  C   UNL A   1      34.559  33.388  29.353  1.00  0.00     0.054 A 
BRANCH  75  76
ATOM     76  S   UNL A   1      33.363  34.687  28.920  1.00  0.00     0.124 S 
ATOM     77  O   UNL A   1      32.716  34.961  30.200  1.00  0.00    -0.237 OA
ATOM     78  O   UNL A   1      34.229  35.747  28.410  1.00  0.00    -0.237 OA
ATOM     79  O   UNL A   1      32.509  34.051  27.919  1.00  0.00    -0.744 OA
ENDBRANCH  75  76
ENDBRANCH  47  70
BRANCH  59  80
ATOM     80  C   UNL A   1      41.819  29.777  33.226  1.00  0.00    -0.014 A 
ATOM     81  C   UNL A   1      41.359  28.485  32.897  1.00  0.00     0.010 A 
ATOM     82  C   UNL A   1      42.186  30.035  34.556  1.00  0.00     0.010 A 
ATOM     83  C   UNL A   1      41.256  27.484  33.879  1.00  0.00     0.020 A 
ATOM     84  C   UNL A   1      42.098  29.041  35.535  1.00  0.00     0.020 A 
ATOM     85  C   UNL A   1      41.632  27.771  35.195  1.00  0.00     0.054 A 
BRANCH  85  86
ATOM     86  S   UNL A   1      41.529  26.470  36.458  1.00  0.00     0.124 S 
ATOM     87  O   UNL A   1      40.929  25.357  35.726  1.00  0.00    -0.237 OA
ATOM     88  O   UNL A   1      42.927  26.286  36.844  1.00  0.00    -0.237 OA
ATOM     89  O   UNL A   1      40.679  27.055  37.493  1.00  0.00    -0.744 OA
ENDBRANCH  85  86
ENDBRANCH  59  80
ENDBRANCH  33  34
ENDBRANCH  25  28
ENDBRANCH  23  24
ENDBRANCH   1  23
TORSDOF 16
ENDMDL
MODEL 2
REMARK VINA RESULT:     -11.6      1.628      2.362
REMARK SMILES Cc1cc(C(=O)NCCCCNC(=O)c2ccc(-c3c4nc(c(-c5ccc(S(=O)(=O)[O-])cc5)c5ccc([nH]5)c(-c5ccc(S(=O)(=O)[O-])cc5)c5nc(c(-c6ccc(S(=O)(=O)[O-])cc6)c6ccc3[nH]6)C=C5)C=C4)cc2)c2c(C)nn(CC(C)C)c2n1
REMARK SMILES IDX 10 1 9 2 8 3 7 4 5 5 6 6 4 8 1 9 2 10 3 11 85 12 84 13 75 14
REMARK SMILES IDX 79 15 76 16 78 17 77 18 80 19 81 20 82 21 83 22 11 23 12 24
REMARK SMILES IDX 13 25 14 27 15 28 16 29 74 30 17 31 73 32 18 33 19 34 20 35
REMARK SMILES IDX 67 36 21 37 72 38 66 39 68 40 22 41 71 42 65 43 64 44 23 46
REMARK SMILES IDX 53 47 34 48 52 49 35 50 38 51 51 52 69 53 36 54 37 55 50 57
REMARK SMILES IDX 70 58 39 59 24 60 25 61 33 62 26 63 32 64 27 65 28 66 29 67
REMARK SMILES IDX 30 68 31 69 54 70 55 71 63 72 56 73 62 74 57 75 58 76 59 77
REMARK SMILES IDX 60 78 61 79 40 80 41 81 49 82 42 83 48 84 43 85 44 86 45 87
REMARK SMILES IDX 46 88 47 89
REMARK H PARENT 7 7 12 26 68 45 38 56
REMARK Flexibility Score: inf
ROOT
ATOM      1  C   UNL A   1      36.354  23.559  26.165  1.00  0.00     0.023 C 
ENDROOT
BRANCH   1   2
ATOM      2  C   UNL A   1      35.366  23.703  24.996  1.00  0.00     0.023 C 
BRANCH   2   3
ATOM      3  C   UNL A   1      34.484  24.962  25.052  1.00  0.00     0.116 C 
BRANCH   3   4
ATOM      4  N   UNL A   1      33.237  24.668  25.733  1.00  0.00    -0.352 N 
ATOM      5  C   UNL A   1      32.247  25.447  26.285  1.00  0.00     0.252 C 
ATOM      6  O   UNL A   1      31.490  24.879  27.069  1.00  0.00    -0.269 OA
ATOM      7  H   UNL A   1      33.061  23.702  25.819  1.00  0.00     0.163 HD
BRANCH   5   8
ATOM      8  C   UNL A   1      32.049  26.889  25.977  1.00  0.00     0.054 A 
ATOM      9  C   UNL A   1      33.241  30.290  27.200  1.00  0.00     0.067 C 
ATOM     10  C   UNL A   1      32.532  29.240  26.398  1.00  0.00     0.041 A 
ATOM     11  C   UNL A   1      32.612  27.907  26.768  1.00  0.00     0.038 A 
ATOM     12  N   UNL A   1      31.847  29.662  25.334  1.00  0.00    -0.234 NA
ATOM     13  C   UNL A   1      31.153  28.696  24.708  1.00  0.00     0.159 A 
ATOM     14  C   UNL A   1      31.212  27.320  24.913  1.00  0.00     0.055 A 
ATOM     15  N   UNL A   1      30.178  28.924  23.786  1.00  0.00    -0.247 N 
ATOM     16  C   UNL A   1      30.345  26.813  23.884  1.00  0.00     0.070 A 
ATOM     17  N   UNL A   1      29.686  27.799  23.242  1.00  0.00    -0.176 NA
ATOM     18  C   UNL A   1      30.036  25.423  23.449  1.00  0.00     0.069 C 
BRANCH  15  19
ATOM     19  C   UNL A   1      29.676  30.224  23.384  1.00  0.00     0.149 C 
BRANCH  19  20
ATOM     20  C   UNL A   1      28.181  30.270  22.981  1.00  0.00     0.004 C 
ATOM     21  C   UNL A   1      27.371  31.373  23.670  1.00  0.00     0.009 C 
ATOM     22  C   UNL A   1      28.074  30.478  21.468  1.00  0.00     0.009 C 
ENDBRANCH  19  20
ENDBRANCH  15  19
ENDBRANCH   5   8
ENDBRANCH   3   4
ENDBRANCH   2   3
ENDBRANCH   1   2
BRANCH   1  23
ATOM     23  C   UNL A   1      37.815  23.577  25.743  1.00  0.00     0.116 C 
BRANCH  23  24
ATOM     24  N   UNL A   1      38.581  22.476  26.332  1.00  0.00    -0.352 N 
ATOM     25  C   UNL A   1      39.805  22.528  26.980  1.00  0.00     0.251 C 
ATOM     26  H   UNL A   1      38.174  21.582  26.256  1.00  0.00     0.163 HD
ATOM     27  O   UNL A   1      40.502  21.537  27.097  1.00  0.00    -0.269 OA
BRANCH  25  28
ATOM     28  C   UNL A   1      40.208  23.818  27.563  1.00  0.00     0.039 A 
ATOM     29  C   UNL A   1      41.543  24.188  27.743  1.00  0.00     0.014 A 
ATOM     30  C   UNL A   1      39.169  24.670  27.921  1.00  0.00     0.014 A 
ATOM     31  C   UNL A   1      41.806  25.445  28.281  1.00  0.00     0.010 A 
ATOM     32  C   UNL A   1      39.429  25.976  28.195  1.00  0.00     0.010 A 
ATOM     33  C   UNL A   1      40.731  26.313  28.515  1.00  0.00    -0.014 A 
BRANCH  33  34
ATOM     34  C   UNL A   1      40.880  27.594  29.167  1.00  0.00     0.031 A 
ATOM     35  C   UNL A   1      41.893  28.491  28.579  1.00  0.00     0.074 A 
ATOM     36  C   UNL A   1      39.977  28.007  30.083  1.00  0.00     0.049 A 
ATOM     37  N   UNL A   1      43.048  28.773  29.076  1.00  0.00    -0.248 NA
ATOM     38  C   UNL A   1      41.672  29.029  27.229  1.00  0.00     0.031 C 
ATOM     39  C   UNL A   1      38.727  27.370  30.528  1.00  0.00     0.029 A 
ATOM     40  N   UNL A   1      39.952  29.185  30.740  1.00  0.00    -0.354 N 
ATOM     41  C   UNL A   1      43.631  29.680  28.203  1.00  0.00     0.074 A 
ATOM     42  C   UNL A   1      42.826  29.664  27.006  1.00  0.00     0.031 C 
ATOM     43  C   UNL A   1      37.972  28.274  31.194  1.00  0.00     0.029 A 
ATOM     44  C   UNL A   1      38.753  29.484  31.372  1.00  0.00     0.049 A 
ATOM     45  H   UNL A   1      40.728  29.790  30.769  1.00  0.00     0.167 HD
ATOM     46  C   UNL A   1      44.611  30.532  28.608  1.00  0.00     0.031 A 
ATOM     47  C   UNL A   1      38.445  30.668  31.960  1.00  0.00     0.031 A 
ATOM     48  C   UNL A   1      45.060  30.235  29.945  1.00  0.00     0.049 A 
ATOM     49  C   UNL A   1      39.747  31.321  32.270  1.00  0.00     0.074 A 
ATOM     50  C   UNL A   1      45.673  29.146  30.532  1.00  0.00     0.029 A 
ATOM     51  N   UNL A   1      44.462  30.935  30.973  1.00  0.00    -0.354 N 
ATOM     52  N   UNL A   1      40.610  30.814  33.111  1.00  0.00    -0.248 NA
ATOM     53  C   UNL A   1      40.311  32.236  31.284  1.00  0.00     0.031 C 
ATOM     54  C   UNL A   1      44.995  28.976  31.776  1.00  0.00     0.029 A 
ATOM     55  C   UNL A   1      44.072  30.016  31.917  1.00  0.00     0.049 A 
ATOM     56  H   UNL A   1      44.338  31.910  31.020  1.00  0.00     0.167 HD
ATOM     57  C   UNL A   1      41.851  30.997  32.513  1.00  0.00     0.074 A 
ATOM     58  C   UNL A   1      41.611  31.955  31.432  1.00  0.00     0.031 C 
ATOM     59  C   UNL A   1      42.894  30.146  32.753  1.00  0.00     0.031 A 
BRANCH  46  60
ATOM     60  C   UNL A   1      44.910  31.841  27.943  1.00  0.00    -0.014 A 
ATOM     61  C   UNL A   1      46.234  32.134  27.563  1.00  0.00     0.010 A 
ATOM     62  C   UNL A   1      43.973  32.893  27.907  1.00  0.00     0.010 A 
ATOM     63  C   UNL A   1      46.608  33.435  27.204  1.00  0.00     0.020 A 
ATOM     64  C   UNL A   1      44.327  34.183  27.514  1.00  0.00     0.020 A 
ATOM     65  C   UNL A   1      45.651  34.452  27.192  1.00  0.00     0.054 A 
BRANCH  65  66
ATOM     66  S   UNL A   1      46.177  36.152  26.862  1.00  0.00     0.124 S 
ATOM     67  O   UNL A   1      46.720  36.048  25.511  1.00  0.00    -0.237 OA
ATOM     68  O   UNL A   1      44.923  36.890  26.987  1.00  0.00    -0.237 OA
ATOM     69  O   UNL A   1      47.161  36.416  27.910  1.00  0.00    -0.744 OA
ENDBRANCH  65  66
ENDBRANCH  46  60
BRANCH  47  70
ATOM     70  C   UNL A   1      37.150  31.399  31.897  1.00  0.00    -0.014 A 
ATOM     71  C   UNL A   1      36.450  31.729  33.074  1.00  0.00     0.010 A 
ATOM     72  C   UNL A   1      36.743  32.029  30.702  1.00  0.00     0.010 A 
ATOM     73  C   UNL A   1      35.444  32.714  33.070  1.00  0.00     0.020 A 
ATOM     74  C   UNL A   1      35.739  33.006  30.688  1.00  0.00     0.020 A 
ATOM     75  C   UNL A   1      35.119  33.371  31.881  1.00  0.00     0.054 A 
BRANCH  75  76
ATOM     76  S   UNL A   1      33.963  34.774  31.921  1.00  0.00     0.124 S 
ATOM     77  O   UNL A   1      33.488  34.832  30.542  1.00  0.00    -0.237 OA
ATOM     78  O   UNL A   1      32.983  34.338  32.911  1.00  0.00    -0.237 OA
ATOM     79  O   UNL A   1      34.800  35.899  32.335  1.00  0.00    -0.744 OA
ENDBRANCH  75  76
ENDBRANCH  47  70
BRANCH  59  80
ATOM     80  C   UNL A   1      42.728  29.093  33.830  1.00  0.00    -0.014 A 
ATOM     81  C   UNL A   1      42.959  29.337  35.200  1.00  0.00     0.010 A 
ATOM     82  C   UNL A   1      42.137  27.874  33.462  1.00  0.00     0.010 A 
ATOM     83  C   UNL A   1      42.620  28.378  36.171  1.00  0.00     0.020 A 
ATOM     84  C   UNL A   1      41.786  26.921  34.423  1.00  0.00     0.020 A 
ATOM     85  C   UNL A   1      42.029  27.175  35.773  1.00  0.00     0.054 A 
BRANCH  85  86
ATOM     86  S   UNL A   1      41.562  25.949  37.028  1.00  0.00     0.124 S 
ATOM     87  O   UNL A   1      42.802  25.768  37.779  1.00  0.00    -0.237 OA
ATOM     88  O   UNL A   1      40.485  26.624  37.750  1.00  0.00    -0.237 OA
ATOM     89  O   UNL A   1      41.143  24.788  36.244  1.00  0.00    -0.744 OA
ENDBRANCH  85  86
ENDBRANCH  59  80
ENDBRANCH  33  34
ENDBRANCH  25  28
ENDBRANCH  23  24
ENDBRANCH   1  23
TORSDOF 16
ENDMDL
MODEL 3
REMARK VINA RESULT:     -11.5      1.527      2.079
REMARK SMILES Cc1cc(C(=O)NCCCCNC(=O)c2ccc(-c3c4nc(c(-c5ccc(S(=O)(=O)[O-])cc5)c5ccc([nH]5)c(-c5ccc(S(=O)(=O)[O-])cc5)c5nc(c(-c6ccc(S(=O)(=O)[O-])cc6)c6ccc3[nH]6)C=C5)C=C4)cc2)c2c(C)nn(CC(C)C)c2n1
REMARK SMILES IDX 10 1 9 2 8 3 7 4 5 5 6 6 4 8 1 9 2 10 3 11 85 12 84 13 75 14
REMARK SMILES IDX 79 15 76 16 78 17 77 18 80 19 81 20 82 21 83 22 11 23 12 24
REMARK SMILES IDX 13 25 14 27 15 28 16 29 74 30 17 31 73 32 18 33 19 34 20 35
REMARK SMILES IDX 67 36 21 37 72 38 66 39 68 40 22 41 71 42 65 43 64 44 23 46
REMARK SMILES IDX 53 47 34 48 52 49 35 50 38 51 51 52 69 53 36 54 37 55 50 57
REMARK SMILES IDX 70 58 39 59 24 60 25 61 33 62 26 63 32 64 27 65 28 66 29 67
REMARK SMILES IDX 30 68 31 69 54 70 55 71 63 72 56 73 62 74 57 75 58 76 59 77
REMARK SMILES IDX 60 78 61 79 40 80 41 81 49 82 42 83 48 84 43 85 44 86 45 87
REMARK SMILES IDX 46 88 47 89
REMARK H PARENT 7 7 12 26 68 45 38 56
REMARK Flexibility Score: inf
ROOT
ATOM      1  C   UNL A   1      37.571  22.578  25.178  1.00  0.00     0.023 C 
ENDROOT
BRANCH   1   2
ATOM      2  C   UNL A   1      36.714  21.310  25.312  1.00  0.00     0.023 C 
BRANCH   2   3
ATOM      3  C   UNL A   1      35.257  21.560  25.738  1.00  0.00     0.116 C 
BRANCH   3   4
ATOM      4  N   UNL A   1      34.351  21.135  24.687  1.00  0.00    -0.352 N 
ATOM      5  C   UNL A   1      33.010  21.334  24.449  1.00  0.00     0.252 C 
ATOM      6  O   UNL A   1      32.489  20.567  23.643  1.00  0.00    -0.269 OA
ATOM      7  H   UNL A   1      34.789  20.588  23.995  1.00  0.00     0.163 HD
BRANCH   5   8
ATOM      8  C   UNL A   1      32.197  22.404  25.088  1.00  0.00     0.054 A 
ATOM      9  C   UNL A   1      29.275  22.752  27.501  1.00  0.00     0.067 C 
ATOM     10  C   UNL A   1      30.400  23.107  26.575  1.00  0.00     0.041 A 
ATOM     11  C   UNL A   1      31.070  22.114  25.878  1.00  0.00     0.038 A 
ATOM     12  N   UNL A   1      30.707  24.402  26.476  1.00  0.00    -0.234 NA
ATOM     13  C   UNL A   1      31.655  24.674  25.564  1.00  0.00     0.159 A 
ATOM     14  C   UNL A   1      32.465  23.781  24.868  1.00  0.00     0.055 A 
ATOM     15  N   UNL A   1      31.933  25.921  25.092  1.00  0.00    -0.247 N 
ATOM     16  C   UNL A   1      33.344  24.657  24.140  1.00  0.00     0.070 A 
ATOM     17  N   UNL A   1      32.976  25.950  24.247  1.00  0.00    -0.176 NA
ATOM     18  C   UNL A   1      34.531  24.379  23.286  1.00  0.00     0.069 C 
BRANCH  15  19
ATOM     19  C   UNL A   1      31.216  27.136  25.430  1.00  0.00     0.149 C 
BRANCH  19  20
ATOM     20  C   UNL A   1      32.023  28.187  26.233  1.00  0.00     0.004 C 
ATOM     21  C   UNL A   1      31.798  29.636  25.788  1.00  0.00     0.009 C 
ATOM     22  C   UNL A   1      31.650  28.083  27.714  1.00  0.00     0.009 C 
ENDBRANCH  19  20
ENDBRANCH  15  19
ENDBRANCH   5   8
ENDBRANCH   3   4
ENDBRANCH   2   3
ENDBRANCH   1   2
BRANCH   1  23
ATOM     23  C   UNL A   1      38.552  22.784  26.321  1.00  0.00     0.116 C 
BRANCH  23  24
ATOM     24  N   UNL A   1      39.868  22.204  26.041  1.00  0.00    -0.352 N 
ATOM     25  C   UNL A   1      41.106  22.827  26.063  1.00  0.00     0.251 C 
ATOM     26  H   UNL A   1      39.874  21.248  25.805  1.00  0.00     0.163 HD
ATOM     27  O   UNL A   1      42.060  22.358  25.471  1.00  0.00    -0.269 OA
BRANCH  25  28
ATOM     28  C   UNL A   1      41.234  24.053  26.867  1.00  0.00     0.039 A 
ATOM     29  C   UNL A   1      41.947  24.106  28.066  1.00  0.00     0.014 A 
ATOM     30  C   UNL A   1      40.605  25.182  26.352  1.00  0.00     0.014 A 
ATOM     31  C   UNL A   1      42.022  25.327  28.729  1.00  0.00     0.010 A 
ATOM     32  C   UNL A   1      40.898  26.409  26.857  1.00  0.00     0.010 A 
ATOM     33  C   UNL A   1      41.475  26.461  28.112  1.00  0.00    -0.014 A 
BRANCH  33  34
ATOM     34  C   UNL A   1      41.404  27.752  28.756  1.00  0.00     0.031 A 
ATOM     35  C   UNL A   1      42.466  28.706  28.384  1.00  0.00     0.074 A 
ATOM     36  C   UNL A   1      40.301  28.114  29.447  1.00  0.00     0.049 A 
ATOM     37  N   UNL A   1      43.467  29.062  29.113  1.00  0.00    -0.248 NA
ATOM     38  C   UNL A   1      42.512  29.221  27.007  1.00  0.00     0.031 C 
ATOM     39  C   UNL A   1      39.024  27.405  29.625  1.00  0.00     0.029 A 
ATOM     40  N   UNL A   1      40.065  29.294  30.061  1.00  0.00    -0.354 N 
ATOM     41  C   UNL A   1      44.172  29.997  28.369  1.00  0.00     0.074 A 
ATOM     42  C   UNL A   1      43.648  29.924  27.027  1.00  0.00     0.031 C 
ATOM     43  C   UNL A   1      38.091  28.266  30.094  1.00  0.00     0.029 A 
ATOM     44  C   UNL A   1      38.743  29.522  30.413  1.00  0.00     0.049 A 
ATOM     45  H   UNL A   1      40.780  29.945  30.245  1.00  0.00     0.167 HD
ATOM     46  C   UNL A   1      44.989  30.910  28.960  1.00  0.00     0.031 A 
ATOM     47  C   UNL A   1      38.246  30.688  30.898  1.00  0.00     0.031 A 
ATOM     48  C   UNL A   1      45.154  30.649  30.367  1.00  0.00     0.049 A 
ATOM     49  C   UNL A   1      39.410  31.422  31.469  1.00  0.00     0.074 A 
ATOM     50  C   UNL A   1      45.688  29.603  31.094  1.00  0.00     0.029 A 
ATOM     51  N   UNL A   1      44.308  31.317  31.228  1.00  0.00    -0.354 N 
ATOM     52  N   UNL A   1      40.098  30.974  32.486  1.00  0.00    -0.248 NA
ATOM     53  C   UNL A   1      40.119  32.363  30.611  1.00  0.00     0.031 C 
ATOM     54  C   UNL A   1      44.768  29.400  32.165  1.00  0.00     0.029 A 
ATOM     55  C   UNL A   1      43.777  30.382  32.084  1.00  0.00     0.049 A 
ATOM     56  H   UNL A   1      44.120  32.284  31.228  1.00  0.00     0.167 HD
ATOM     57  C   UNL A   1      41.426  31.229  32.167  1.00  0.00     0.074 A 
ATOM     58  C   UNL A   1      41.371  32.163  31.041  1.00  0.00     0.031 C 
ATOM     59  C   UNL A   1      42.440  30.445  32.643  1.00  0.00     0.031 A 
BRANCH  46  60
ATOM     60  C   UNL A   1      45.349  32.230  28.349  1.00  0.00    -0.014 A 
ATOM     61  C   UNL A   1      46.698  32.515  28.069  1.00  0.00     0.010 A 
ATOM     62  C   UNL A   1      44.428  33.295  28.276  1.00  0.00     0.010 A 
ATOM     63  C   UNL A   1      47.111  33.820  27.770  1.00  0.00     0.020 A 
ATOM     64  C   UNL A   1      44.823  34.589  27.940  1.00  0.00     0.020 A 
ATOM     65  C   UNL A   1      46.169  34.849  27.717  1.00  0.00     0.054 A 
BRANCH  65  66
ATOM     66  S   UNL A   1      46.735  36.550  27.467  1.00  0.00     0.124 S 
ATOM     67  O   UNL A   1      46.039  36.928  26.240  1.00  0.00    -0.237 OA
ATOM     68  O   UNL A   1      46.276  37.207  28.686  1.00  0.00    -0.237 OA
ATOM     69  O   UNL A   1      48.185  36.413  27.342  1.00  0.00    -0.744 OA
ENDBRANCH  65  66
ENDBRANCH  46  60
BRANCH  47  70
ATOM     70  C   UNL A   1      36.955  31.339  30.543  1.00  0.00    -0.014 A 
ATOM     71  C   UNL A   1      36.298  32.185  31.457  1.00  0.00     0.010 A 
ATOM     72  C   UNL A   1      36.511  31.361  29.204  1.00  0.00     0.010 A 
ATOM     73  C   UNL A   1      35.300  33.081  31.030  1.00  0.00     0.020 A 
ATOM     74  C   UNL A   1      35.515  32.246  28.771  1.00  0.00     0.020 A 
ATOM     75  C   UNL A   1      34.939  33.129  29.681  1.00  0.00     0.054 A 
BRANCH  75  76
ATOM     76  S   UNL A   1      33.795  34.421  29.107  1.00  0.00     0.124 S 
ATOM     77  O   UNL A   1      32.993  33.714  28.113  1.00  0.00    -0.237 OA
ATOM     78  O   UNL A   1      33.100  34.788  30.337  1.00  0.00    -0.237 OA
ATOM     79  O   UNL A   1      34.681  35.451  28.567  1.00  0.00    -0.744 OA
ENDBRANCH  75  76
ENDBRANCH  47  70
BRANCH  59  80
ATOM     80  C   UNL A   1      42.107  29.390  33.679  1.00  0.00    -0.014 A 
ATOM     81  C   UNL A   1      41.739  28.068  33.354  1.00  0.00     0.010 A 
ATOM     82  C   UNL A   1      42.362  29.699  35.024  1.00  0.00     0.010 A 
ATOM     83  C   UNL A   1      41.614  27.088  34.354  1.00  0.00     0.020 A 
ATOM     84  C   UNL A   1      42.253  28.725  36.022  1.00  0.00     0.020 A 
ATOM     85  C   UNL A   1      41.878  27.425  35.685  1.00  0.00     0.054 A 
BRANCH  85  86
ATOM     86  S   UNL A   1      41.748  26.152  36.973  1.00  0.00     0.124 S 
ATOM     87  O   UNL A   1      40.370  26.298  37.434  1.00  0.00    -0.237 OA
ATOM     88  O   UNL A   1      42.037  24.921  36.238  1.00  0.00    -0.237 OA
ATOM     89  O   UNL A   1      42.768  26.537  37.948  1.00  0.00    -0.744 OA
ENDBRANCH  85  86
ENDBRANCH  59  80
ENDBRANCH  33  34
ENDBRANCH  25  28
ENDBRANCH  23  24
ENDBRANCH   1  23
TORSDOF 16
ENDMDL
