MODEL 1
REMARK VINA RESULT:     -12.0      0.000      0.000
REMARK SMILES COc1ccc(S(=O)(=O)N2CCC[C@H](C(=O)N3CCC[C@H](C(=O)NCCCCNC(=O)c4ccc(-c5c6nc(c(-c7ccc(S(=O)(=O)[O-])cc7)c7ccc([nH]7)c(-c7ccc(S(=O)(=O)[O-])cc7)c7nc(c(-c8ccc(S(=O)(=O)[O-])cc8)c8ccc5[nH]8)C=C7)C=C6)cc4)C3)C2)cc1
REMARK SMILES IDX 25 1 24 2 22 3 23 4 21 6 17 7 18 8 92 9 19 10 20 11 15 12
REMARK SMILES IDX 16 13 14 14 10 15 11 16 93 17 12 18 13 19 7 20 8 21 9 22
REMARK SMILES IDX 6 23 3 24 4 25 95 26 5 27 94 28 2 29 1 30 26 31 27 32 28 33
REMARK SMILES IDX 29 34 30 35 31 37 32 38 33 39 91 40 34 41 90 42 35 43 36 44
REMARK SMILES IDX 37 45 84 46 38 47 89 48 83 49 85 50 39 51 88 52 82 53 81 54
REMARK SMILES IDX 40 56 70 57 51 58 69 59 52 60 55 61 68 62 86 63 53 64 54 65
REMARK SMILES IDX 67 67 87 68 56 69 41 70 42 71 50 72 43 73 49 74 44 75 45 76
REMARK SMILES IDX 46 77 47 78 48 79 71 80 72 81 80 82 73 83 79 84 74 85 75 86
REMARK SMILES IDX 76 87 77 88 78 89 57 90 58 91 66 92 59 93 65 94 60 95 61 96
REMARK SMILES IDX 62 97 63 98 64 99
REMARK H PARENT 24 5 29 36 85 55 55 66
REMARK Flexibility Score: inf
ROOT
ATOM      1  C   UNL A   1      38.034  22.446  25.492  1.00  0.00     0.116 C 
ENDROOT
BRANCH   1   2
ATOM      2  N   UNL A   1      36.828  22.507  26.281  1.00  0.00    -0.356 N 
ATOM      3  C   UNL A   1      35.627  21.910  26.074  1.00  0.00     0.224 C 
ATOM      4  O   UNL A   1      34.816  21.950  27.007  1.00  0.00    -0.275 OA
ATOM      5  H   UNL A   1      36.885  23.064  27.091  1.00  0.00     0.163 HD
BRANCH   3   6
ATOM      6  C   UNL A   1      35.234  21.200  24.772  1.00  0.00     0.098 C 
ATOM      7  N   UNL A   1      33.424  22.272  23.393  1.00  0.00    -0.342 N 
ATOM      8  C   UNL A   1      32.640  21.042  23.366  1.00  0.00     0.119 C 
ATOM      9  C   UNL A   1      34.854  22.136  23.622  1.00  0.00     0.133 C 
ATOM     10  C   UNL A   1      32.866  20.156  24.584  1.00  0.00     0.022 C 
ATOM     11  C   UNL A   1      34.340  19.965  24.930  1.00  0.00     0.017 C 
BRANCH   7  12
ATOM     12  C   UNL A   1      32.757  23.481  23.398  1.00  0.00     0.227 C 
ATOM     13  O   UNL A   1      33.386  24.546  23.376  1.00  0.00    -0.275 OA
BRANCH  12  14
ATOM     14  C   UNL A   1      31.259  23.528  23.700  1.00  0.00     0.094 C 
ATOM     15  N   UNL A   1      31.238  25.872  24.466  1.00  0.00    -0.197 NA
ATOM     16  C   UNL A   1      31.084  25.506  25.883  1.00  0.00     0.102 C 
ATOM     17  C   UNL A   1      30.787  24.948  23.410  1.00  0.00     0.116 C 
ATOM     18  C   UNL A   1      30.761  24.045  26.179  1.00  0.00     0.018 C 
ATOM     19  C   UNL A   1      30.670  23.062  25.018  1.00  0.00     0.016 C 
BRANCH  15  20
ATOM     20  S   UNL A   1      31.308  27.529  24.100  1.00  0.00     0.243 S 
ATOM     21  O   UNL A   1      29.993  28.097  24.256  1.00  0.00    -0.207 OA
ATOM     22  O   UNL A   1      32.045  27.656  22.853  1.00  0.00    -0.207 OA
BRANCH  20  23
ATOM     23  C   UNL A   1      32.337  28.268  25.352  1.00  0.00     0.082 A 
ATOM     24  C   UNL A   1      33.920  29.624  27.213  1.00  0.00     0.118 A 
ATOM     25  C   UNL A   1      32.598  30.018  26.999  1.00  0.00     0.048 A 
ATOM     26  C   UNL A   1      34.430  28.517  26.537  1.00  0.00     0.048 A 
ATOM     27  C   UNL A   1      31.806  29.349  26.063  1.00  0.00     0.025 A 
ATOM     28  C   UNL A   1      33.642  27.843  25.604  1.00  0.00     0.025 A 
BRANCH  24  29
ATOM     29  O   UNL A   1      34.628  30.372  28.114  1.00  0.00    -0.497 OA
ATOM     30  C   UNL A   1      34.917  31.700  27.684  1.00  0.00     0.278 C 
ENDBRANCH  24  29
ENDBRANCH  20  23
ENDBRANCH  15  20
ENDBRANCH  12  14
ENDBRANCH   7  12
ENDBRANCH   3   6
ENDBRANCH   1   2
BRANCH   1  31
ATOM     31  C   UNL A   1      39.251  21.944  26.258  1.00  0.00     0.023 C 
BRANCH  31  32
ATOM     32  C   UNL A   1      39.765  22.909  27.318  1.00  0.00     0.023 C 
BRANCH  32  33
ATOM     33  C   UNL A   1      41.170  23.456  27.083  1.00  0.00     0.116 C 
BRANCH  33  34
ATOM     34  N   UNL A   1      41.282  24.401  25.978  1.00  0.00    -0.352 N 
ATOM     35  C   UNL A   1      41.302  25.779  26.053  1.00  0.00     0.251 C 
ATOM     36  H   UNL A   1      41.351  24.012  25.077  1.00  0.00     0.163 HD
ATOM     37  O   UNL A   1      41.321  26.477  25.047  1.00  0.00    -0.269 OA
BRANCH  35  38
ATOM     38  C   UNL A   1      41.258  26.399  27.393  1.00  0.00     0.039 A 
ATOM     39  C   UNL A   1      42.374  27.099  27.857  1.00  0.00     0.014 A 
ATOM     40  C   UNL A   1      40.062  26.398  28.117  1.00  0.00     0.014 A 
ATOM     41  C   UNL A   1      42.255  27.886  29.004  1.00  0.00     0.010 A 
ATOM     42  C   UNL A   1      39.926  27.247  29.208  1.00  0.00     0.010 A 
ATOM     43  C   UNL A   1      41.015  28.011  29.655  1.00  0.00    -0.014 A 
BRANCH  43  44
ATOM     44  C   UNL A   1      40.824  28.955  30.786  1.00  0.00     0.031 A 
ATOM     45  C   UNL A   1      41.662  28.821  32.027  1.00  0.00     0.074 A 
ATOM     46  C   UNL A   1      39.838  29.875  30.732  1.00  0.00     0.049 A 
ATOM     47  N   UNL A   1      41.587  29.492  33.148  1.00  0.00    -0.248 NA
ATOM     48  C   UNL A   1      42.695  27.771  32.022  1.00  0.00     0.031 C 
ATOM     49  C   UNL A   1      38.914  30.069  29.611  1.00  0.00     0.029 A 
ATOM     50  N   UNL A   1      39.442  30.816  31.650  1.00  0.00    -0.354 N 
ATOM     51  C   UNL A   1      42.541  28.929  33.988  1.00  0.00     0.074 A 
ATOM     52  C   UNL A   1      43.147  27.832  33.265  1.00  0.00     0.031 C 
ATOM     53  C   UNL A   1      38.083  31.085  29.895  1.00  0.00     0.029 A 
ATOM     54  C   UNL A   1      38.388  31.592  31.228  1.00  0.00     0.049 A 
ATOM     55  H   UNL A   1      39.872  30.924  32.529  1.00  0.00     0.167 HD
ATOM     56  C   UNL A   1      42.898  29.303  35.239  1.00  0.00     0.031 A 
ATOM     57  C   UNL A   1      37.739  32.600  31.845  1.00  0.00     0.031 A 
ATOM     58  C   UNL A   1      42.318  30.414  35.943  1.00  0.00     0.049 A 
ATOM     59  C   UNL A   1      38.175  33.020  33.222  1.00  0.00     0.074 A 
ATOM     60  C   UNL A   1      42.662  30.917  37.187  1.00  0.00     0.029 A 
ATOM     61  N   UNL A   1      41.280  31.198  35.466  1.00  0.00    -0.354 N 
ATOM     62  N   UNL A   1      39.126  32.517  33.972  1.00  0.00    -0.248 NA
ATOM     63  C   UNL A   1      37.457  34.148  33.830  1.00  0.00     0.031 C 
ATOM     64  C   UNL A   1      41.805  31.985  37.475  1.00  0.00     0.029 A 
ATOM     65  C   UNL A   1      40.959  32.173  36.394  1.00  0.00     0.049 A 
ATOM     66  H   UNL A   1      40.836  31.078  34.596  1.00  0.00     0.167 HD
ATOM     67  C   UNL A   1      39.138  33.286  35.131  1.00  0.00     0.074 A 
ATOM     68  C   UNL A   1      38.107  34.292  34.978  1.00  0.00     0.031 C 
ATOM     69  C   UNL A   1      39.933  33.169  36.223  1.00  0.00     0.031 A 
BRANCH  56  70
ATOM     70  C   UNL A   1      43.972  28.499  35.920  1.00  0.00    -0.014 A 
ATOM     71  C   UNL A   1      43.651  27.367  36.690  1.00  0.00     0.010 A 
ATOM     72  C   UNL A   1      45.321  28.870  35.775  1.00  0.00     0.010 A 
ATOM     73  C   UNL A   1      44.655  26.649  37.344  1.00  0.00     0.020 A 
ATOM     74  C   UNL A   1      46.331  28.138  36.406  1.00  0.00     0.020 A 
ATOM     75  C   UNL A   1      45.988  27.043  37.204  1.00  0.00     0.054 A 
BRANCH  75  76
ATOM     76  S   UNL A   1      47.274  26.090  38.057  1.00  0.00     0.124 S 
ATOM     77  O   UNL A   1      46.744  24.732  37.977  1.00  0.00    -0.237 OA
ATOM     78  O   UNL A   1      48.460  26.349  37.244  1.00  0.00    -0.237 OA
ATOM     79  O   UNL A   1      47.303  26.670  39.398  1.00  0.00    -0.744 OA
ENDBRANCH  75  76
ENDBRANCH  56  70
BRANCH  57  80
ATOM     80  C   UNL A   1      36.628  33.305  31.151  1.00  0.00    -0.014 A 
ATOM     81  C   UNL A   1      36.848  33.920  29.906  1.00  0.00     0.010 A 
ATOM     82  C   UNL A   1      35.345  33.360  31.723  1.00  0.00     0.010 A 
ATOM     83  C   UNL A   1      35.810  34.591  29.253  1.00  0.00     0.020 A 
ATOM     84  C   UNL A   1      34.298  34.010  31.063  1.00  0.00     0.020 A 
ATOM     85  C   UNL A   1      34.541  34.632  29.836  1.00  0.00     0.054 A 
BRANCH  85  86
ATOM     86  S   UNL A   1      33.194  35.464  28.948  1.00  0.00     0.124 S 
ATOM     87  O   UNL A   1      32.363  35.949  30.044  1.00  0.00    -0.237 OA
ATOM     88  O   UNL A   1      33.902  36.491  28.187  1.00  0.00    -0.237 OA
ATOM     89  O   UNL A   1      32.609  34.396  28.141  1.00  0.00    -0.744 OA
ENDBRANCH  85  86
ENDBRANCH  57  80
BRANCH  69  90
ATOM     90  C   UNL A   1      39.744  34.174  37.326  1.00  0.00    -0.014 A 
ATOM     91  C   UNL A   1      39.021  33.850  38.487  1.00  0.00     0.010 A 
ATOM     92  C   UNL A   1      40.351  35.439  37.222  1.00  0.00     0.010 A 
ATOM     93  C   UNL A   1      38.888  34.786  39.517  1.00  0.00     0.020 A 
ATOM     94  C   UNL A   1      40.239  36.368  38.260  1.00  0.00     0.020 A 
ATOM     95  C   UNL A   1      39.496  36.039  39.395  1.00  0.00     0.054 A 
BRANCH  95  96
ATOM     96  S   UNL A   1      39.352  37.218  40.766  1.00  0.00     0.124 S 
ATOM     97  O   UNL A   1      38.706  36.409  41.795  1.00  0.00    -0.237 OA
ATOM     98  O   UNL A   1      40.744  37.578  41.030  1.00  0.00    -0.237 OA
ATOM     99  O   UNL A   1      38.533  38.294  40.211  1.00  0.00    -0.744 OA
ENDBRANCH  95  96
ENDBRANCH  69  90
ENDBRANCH  43  44
ENDBRANCH  35  38
ENDBRANCH  33  34
ENDBRANCH  32  33
ENDBRANCH  31  32
ENDBRANCH   1  31
TORSDOF 19
ENDMDL
MODEL 2
REMARK VINA RESULT:     -12.0      0.599      7.786
REMARK SMILES COc1ccc(S(=O)(=O)N2CCC[C@H](C(=O)N3CCC[C@H](C(=O)NCCCCNC(=O)c4ccc(-c5c6nc(c(-c7ccc(S(=O)(=O)[O-])cc7)c7ccc([nH]7)c(-c7ccc(S(=O)(=O)[O-])cc7)c7nc(c(-c8ccc(S(=O)(=O)[O-])cc8)c8ccc5[nH]8)C=C7)C=C6)cc4)C3)C2)cc1
REMARK SMILES IDX 25 1 24 2 22 3 23 4 21 6 17 7 18 8 92 9 19 10 20 11 15 12
REMARK SMILES IDX 16 13 14 14 10 15 11 16 93 17 12 18 13 19 7 20 8 21 9 22
REMARK SMILES IDX 6 23 3 24 4 25 95 26 5 27 94 28 2 29 1 30 26 31 27 32 28 33
REMARK SMILES IDX 29 34 30 35 31 37 32 38 33 39 91 40 34 41 90 42 35 43 36 44
REMARK SMILES IDX 37 45 84 46 38 47 89 48 83 49 85 50 39 51 88 52 82 53 81 54
REMARK SMILES IDX 40 56 70 57 51 58 69 59 52 60 55 61 68 62 86 63 53 64 54 65
REMARK SMILES IDX 67 67 87 68 56 69 41 70 42 71 50 72 43 73 49 74 44 75 45 76
REMARK SMILES IDX 46 77 47 78 48 79 71 80 72 81 80 82 73 83 79 84 74 85 75 86
REMARK SMILES IDX 76 87 77 88 78 89 57 90 58 91 66 92 59 93 65 94 60 95 61 96
REMARK SMILES IDX 62 97 63 98 64 99
REMARK H PARENT 24 5 29 36 85 55 55 66
REMARK Flexibility Score: inf
ROOT
ATOM      1  C   UNL A   1      37.557  22.667  25.442  1.00  0.00     0.116 C 
ENDROOT
BRANCH   1   2
ATOM      2  N   UNL A   1      36.410  22.520  26.303  1.00  0.00    -0.356 N 
ATOM      3  C   UNL A   1      35.294  21.763  26.138  1.00  0.00     0.224 C 
ATOM      4  O   UNL A   1      34.550  21.646  27.118  1.00  0.00    -0.275 OA
ATOM      5  H   UNL A   1      36.440  23.046  27.135  1.00  0.00     0.163 HD
BRANCH   3   6
ATOM      6  C   UNL A   1      34.922  21.058  24.828  1.00  0.00     0.098 C 
ATOM      7  N   UNL A   1      33.179  22.168  23.394  1.00  0.00    -0.342 N 
ATOM      8  C   UNL A   1      32.366  20.957  23.348  1.00  0.00     0.119 C 
ATOM      9  C   UNL A   1      34.598  21.998  23.664  1.00  0.00     0.133 C 
ATOM     10  C   UNL A   1      32.535  20.071  24.575  1.00  0.00     0.022 C 
ATOM     11  C   UNL A   1      33.993  19.846  24.965  1.00  0.00     0.017 C 
BRANCH   7  12
ATOM     12  C   UNL A   1      32.542  23.393  23.375  1.00  0.00     0.227 C 
ATOM     13  O   UNL A   1      33.139  24.406  22.993  1.00  0.00    -0.275 OA
BRANCH  12  14
ATOM     14  C   UNL A   1      31.192  23.565  24.073  1.00  0.00     0.094 C 
ATOM     15  N   UNL A   1      31.486  25.959  24.586  1.00  0.00    -0.197 NA
ATOM     16  C   UNL A   1      31.721  25.719  26.019  1.00  0.00     0.102 C 
ATOM     17  C   UNL A   1      30.718  24.985  23.789  1.00  0.00     0.116 C 
ATOM     18  C   UNL A   1      31.433  24.312  26.532  1.00  0.00     0.018 C 
ATOM     19  C   UNL A   1      30.978  23.247  25.541  1.00  0.00     0.016 C 
BRANCH  15  20
ATOM     20  S   UNL A   1      31.520  27.572  24.058  1.00  0.00     0.243 S 
ATOM     21  O   UNL A   1      30.178  28.096  24.073  1.00  0.00    -0.207 OA
ATOM     22  O   UNL A   1      32.333  27.605  22.853  1.00  0.00    -0.207 OA
BRANCH  20  23
ATOM     23  C   UNL A   1      32.437  28.476  25.289  1.00  0.00     0.082 A 
ATOM     24  C   UNL A   1      33.816  30.081  27.113  1.00  0.00     0.118 A 
ATOM     25  C   UNL A   1      32.452  30.283  26.894  1.00  0.00     0.048 A 
ATOM     26  C   UNL A   1      34.475  29.040  26.461  1.00  0.00     0.048 A 
ATOM     27  C   UNL A   1      31.761  29.489  25.976  1.00  0.00     0.025 A 
ATOM     28  C   UNL A   1      33.788  28.242  25.546  1.00  0.00     0.025 A 
BRANCH  24  29
ATOM     29  O   UNL A   1      34.413  30.941  27.994  1.00  0.00    -0.497 OA
ATOM     30  C   UNL A   1      35.817  31.104  27.805  1.00  0.00     0.278 C 
ENDBRANCH  24  29
ENDBRANCH  20  23
ENDBRANCH  15  20
ENDBRANCH  12  14
ENDBRANCH   7  12
ENDBRANCH   3   6
ENDBRANCH   1   2
BRANCH   1  31
ATOM     31  C   UNL A   1      38.856  22.148  26.045  1.00  0.00     0.023 C 
BRANCH  31  32
ATOM     32  C   UNL A   1      39.464  23.061  27.101  1.00  0.00     0.023 C 
BRANCH  32  33
ATOM     33  C   UNL A   1      40.936  23.410  26.899  1.00  0.00     0.116 C 
BRANCH  33  34
ATOM     34  N   UNL A   1      41.192  24.410  25.869  1.00  0.00    -0.352 N 
ATOM     35  C   UNL A   1      41.360  25.768  26.044  1.00  0.00     0.251 C 
ATOM     36  H   UNL A   1      41.251  24.078  24.945  1.00  0.00     0.163 HD
ATOM     37  O   UNL A   1      41.494  26.527  25.092  1.00  0.00    -0.269 OA
BRANCH  35  38
ATOM     38  C   UNL A   1      41.336  26.296  27.423  1.00  0.00     0.039 A 
ATOM     39  C   UNL A   1      42.479  26.909  27.940  1.00  0.00     0.014 A 
ATOM     40  C   UNL A   1      40.135  26.301  28.140  1.00  0.00     0.014 A 
ATOM     41  C   UNL A   1      42.388  27.620  29.138  1.00  0.00     0.010 A 
ATOM     42  C   UNL A   1      40.030  27.078  29.287  1.00  0.00     0.010 A 
ATOM     43  C   UNL A   1      41.151  27.758  29.790  1.00  0.00    -0.014 A 
BRANCH  43  44
ATOM     44  C   UNL A   1      40.995  28.630  30.983  1.00  0.00     0.031 A 
ATOM     45  C   UNL A   1      39.919  29.679  31.011  1.00  0.00     0.074 A 
ATOM     46  C   UNL A   1      41.876  28.537  32.001  1.00  0.00     0.049 A 
ATOM     47  N   UNL A   1      39.677  30.587  31.922  1.00  0.00    -0.248 NA
ATOM     48  C   UNL A   1      39.018  29.739  29.848  1.00  0.00     0.031 C 
ATOM     49  C   UNL A   1      43.003  27.603  32.070  1.00  0.00     0.029 A 
ATOM     50  N   UNL A   1      41.966  29.247  33.173  1.00  0.00    -0.354 N 
ATOM     51  C   UNL A   1      38.619  31.342  31.429  1.00  0.00     0.074 A 
ATOM     52  C   UNL A   1      38.297  30.816  30.121  1.00  0.00     0.031 C 
ATOM     53  C   UNL A   1      43.649  27.776  33.235  1.00  0.00     0.029 A 
ATOM     54  C   UNL A   1      43.008  28.855  33.980  1.00  0.00     0.049 A 
ATOM     55  H   UNL A   1      41.343  29.970  33.413  1.00  0.00     0.167 HD
ATOM     56  C   UNL A   1      37.959  32.365  32.020  1.00  0.00     0.031 A 
ATOM     57  C   UNL A   1      43.404  29.311  35.185  1.00  0.00     0.031 A 
ATOM     58  C   UNL A   1      38.258  32.865  33.334  1.00  0.00     0.049 A 
ATOM     59  C   UNL A   1      42.635  30.427  35.836  1.00  0.00     0.074 A 
ATOM     60  C   UNL A   1      37.601  33.852  34.049  1.00  0.00     0.029 A 
ATOM     61  N   UNL A   1      39.298  32.415  34.133  1.00  0.00    -0.354 N 
ATOM     62  N   UNL A   1      41.593  31.082  35.382  1.00  0.00    -0.248 NA
ATOM     63  C   UNL A   1      43.089  30.858  37.165  1.00  0.00     0.031 C 
ATOM     64  C   UNL A   1      38.265  34.022  35.268  1.00  0.00     0.029 A 
ATOM     65  C   UNL A   1      39.309  33.111  35.329  1.00  0.00     0.049 A 
ATOM     66  H   UNL A   1      39.933  31.706  33.887  1.00  0.00     0.167 HD
ATOM     67  C   UNL A   1      41.250  31.985  36.382  1.00  0.00     0.074 A 
ATOM     68  C   UNL A   1      42.189  31.785  37.468  1.00  0.00     0.031 C 
ATOM     69  C   UNL A   1      40.247  32.897  36.400  1.00  0.00     0.031 A 
BRANCH  56  70
ATOM     70  C   UNL A   1      36.841  33.006  31.242  1.00  0.00    -0.014 A 
ATOM     71  C   UNL A   1      35.496  32.731  31.547  1.00  0.00     0.010 A 
ATOM     72  C   UNL A   1      37.139  33.907  30.204  1.00  0.00     0.010 A 
ATOM     73  C   UNL A   1      34.469  33.307  30.796  1.00  0.00     0.020 A 
ATOM     74  C   UNL A   1      36.113  34.507  29.468  1.00  0.00     0.020 A 
ATOM     75  C   UNL A   1      34.784  34.186  29.756  1.00  0.00     0.054 A 
BRANCH  75  76
ATOM     76  S   UNL A   1      33.432  34.926  28.801  1.00  0.00     0.124 S 
ATOM     77  O   UNL A   1      32.463  35.243  29.846  1.00  0.00    -0.237 OA
ATOM     78  O   UNL A   1      34.074  36.078  28.172  1.00  0.00    -0.237 OA
ATOM     79  O   UNL A   1      33.033  33.862  27.883  1.00  0.00    -0.744 OA
ENDBRANCH  75  76
ENDBRANCH  56  70
BRANCH  57  80
ATOM     80  C   UNL A   1      44.570  28.689  35.870  1.00  0.00    -0.014 A 
ATOM     81  C   UNL A   1      45.873  29.146  35.606  1.00  0.00     0.010 A 
ATOM     82  C   UNL A   1      44.385  27.646  36.794  1.00  0.00     0.010 A 
ATOM     83  C   UNL A   1      46.972  28.560  36.240  1.00  0.00     0.020 A 
ATOM     84  C   UNL A   1      45.480  27.073  37.449  1.00  0.00     0.020 A 
ATOM     85  C   UNL A   1      46.768  27.527  37.158  1.00  0.00     0.054 A 
BRANCH  85  86
ATOM     86  S   UNL A   1      48.204  26.814  38.010  1.00  0.00     0.124 S 
ATOM     87  O   UNL A   1      47.614  26.344  39.259  1.00  0.00    -0.237 OA
ATOM     88  O   UNL A   1      48.638  25.771  37.083  1.00  0.00    -0.237 OA
ATOM     89  O   UNL A   1      49.120  27.944  38.134  1.00  0.00    -0.744 OA
ENDBRANCH  85  86
ENDBRANCH  57  80
BRANCH  69  90
ATOM     90  C   UNL A   1      40.090  33.726  37.644  1.00  0.00    -0.014 A 
ATOM     91  C   UNL A   1      40.744  34.963  37.781  1.00  0.00     0.010 A 
ATOM     92  C   UNL A   1      39.225  33.287  38.665  1.00  0.00     0.010 A 
ATOM     93  C   UNL A   1      40.556  35.736  38.930  1.00  0.00     0.020 A 
ATOM     94  C   UNL A   1      39.017  34.069  39.804  1.00  0.00     0.020 A 
ATOM     95  C   UNL A   1      39.694  35.283  39.935  1.00  0.00     0.054 A 
BRANCH  95  96
ATOM     96  S   UNL A   1      39.426  36.326  41.393  1.00  0.00     0.124 S 
ATOM     97  O   UNL A   1      38.427  35.561  42.134  1.00  0.00    -0.237 OA
ATOM     98  O   UNL A   1      40.753  36.381  42.001  1.00  0.00    -0.237 OA
ATOM     99  O   UNL A   1      38.953  37.590  40.832  1.00  0.00    -0.744 OA
ENDBRANCH  95  96
ENDBRANCH  69  90
ENDBRANCH  43  44
ENDBRANCH  35  38
ENDBRANCH  33  34
ENDBRANCH  32  33
ENDBRANCH  31  32
ENDBRANCH   1  31
TORSDOF 19
ENDMDL
MODEL 3
REMARK VINA RESULT:     -11.8      5.910      8.231
REMARK SMILES COc1ccc(S(=O)(=O)N2CCC[C@H](C(=O)N3CCC[C@H](C(=O)NCCCCNC(=O)c4ccc(-c5c6nc(c(-c7ccc(S(=O)(=O)[O-])cc7)c7ccc([nH]7)c(-c7ccc(S(=O)(=O)[O-])cc7)c7nc(c(-c8ccc(S(=O)(=O)[O-])cc8)c8ccc5[nH]8)C=C7)C=C6)cc4)C3)C2)cc1
REMARK SMILES IDX 25 1 24 2 22 3 23 4 21 6 17 7 18 8 92 9 19 10 20 11 15 12
REMARK SMILES IDX 16 13 14 14 10 15 11 16 93 17 12 18 13 19 7 20 8 21 9 22
REMARK SMILES IDX 6 23 3 24 4 25 95 26 5 27 94 28 2 29 1 30 26 31 27 32 28 33
REMARK SMILES IDX 29 34 30 35 31 37 32 38 33 39 91 40 34 41 90 42 35 43 36 44
REMARK SMILES IDX 37 45 84 46 38 47 89 48 83 49 85 50 39 51 88 52 82 53 81 54
REMARK SMILES IDX 40 56 70 57 51 58 69 59 52 60 55 61 68 62 86 63 53 64 54 65
REMARK SMILES IDX 67 67 87 68 56 69 41 70 42 71 50 72 43 73 49 74 44 75 45 76
REMARK SMILES IDX 46 77 47 78 48 79 71 80 72 81 80 82 73 83 79 84 74 85 75 86
REMARK SMILES IDX 76 87 77 88 78 89 57 90 58 91 66 92 59 93 65 94 60 95 61 96
REMARK SMILES IDX 62 97 63 98 64 99
REMARK H PARENT 24 5 29 36 85 55 55 66
REMARK Flexibility Score: inf
ROOT
ATOM      1  C   UNL A   1      37.044  23.460  25.501  1.00  0.00     0.116 C 
ENDROOT
BRANCH   1   2
ATOM      2  N   UNL A   1      35.923  23.342  26.400  1.00  0.00    -0.356 N 
ATOM      3  C   UNL A   1      34.965  22.383  26.467  1.00  0.00     0.224 C 
ATOM      4  O   UNL A   1      34.232  22.396  27.463  1.00  0.00    -0.275 OA
ATOM      5  H   UNL A   1      35.842  24.063  27.065  1.00  0.00     0.163 HD
BRANCH   3   6
ATOM      6  C   UNL A   1      34.752  21.305  25.397  1.00  0.00     0.098 C 
ATOM      7  N   UNL A   1      33.404  21.958  23.376  1.00  0.00    -0.342 N 
ATOM      8  C   UNL A   1      32.491  20.834  23.553  1.00  0.00     0.119 C 
ATOM      9  C   UNL A   1      34.730  21.827  23.958  1.00  0.00     0.133 C 
ATOM     10  C   UNL A   1      32.356  20.390  25.004  1.00  0.00     0.022 C 
ATOM     11  C   UNL A   1      33.695  20.243  25.721  1.00  0.00     0.017 C 
BRANCH   7  12
ATOM     12  C   UNL A   1      32.909  23.135  22.852  1.00  0.00     0.227 C 
ATOM     13  O   UNL A   1      33.560  23.774  22.016  1.00  0.00    -0.275 OA
BRANCH  12  14
ATOM     14  C   UNL A   1      31.688  23.802  23.486  1.00  0.00     0.094 C 
ATOM     15  N   UNL A   1      32.760  25.995  23.835  1.00  0.00    -0.197 NA
ATOM     16  C   UNL A   1      32.887  25.806  25.289  1.00  0.00     0.102 C 
ATOM     17  C   UNL A   1      31.719  25.272  23.083  1.00  0.00     0.116 C 
ATOM     18  C   UNL A   1      32.139  24.622  25.892  1.00  0.00     0.018 C 
ATOM     19  C   UNL A   1      31.364  23.693  24.964  1.00  0.00     0.016 C 
BRANCH  15  20
ATOM     20  S   UNL A   1      33.337  27.457  23.193  1.00  0.00     0.243 S 
ATOM     21  O   UNL A   1      33.645  27.265  21.799  1.00  0.00    -0.207 OA
ATOM     22  O   UNL A   1      34.331  27.965  24.125  1.00  0.00    -0.207 OA
BRANCH  20  23
ATOM     23  C   UNL A   1      31.973  28.600  23.264  1.00  0.00     0.082 A 
ATOM     24  C   UNL A   1      29.761  30.282  23.557  1.00  0.00     0.118 A 
ATOM     25  C   UNL A   1      30.674  30.136  24.603  1.00  0.00     0.048 A 
ATOM     26  C   UNL A   1      29.987  29.631  22.345  1.00  0.00     0.048 A 
ATOM     27  C   UNL A   1      31.776  29.289  24.465  1.00  0.00     0.025 A 
ATOM     28  C   UNL A   1      31.089  28.786  22.201  1.00  0.00     0.025 A 
BRANCH  24  29
ATOM     29  O   UNL A   1      28.690  31.096  23.807  1.00  0.00    -0.497 OA
ATOM     30  C   UNL A   1      27.453  30.627  23.279  1.00  0.00     0.278 C 
ENDBRANCH  24  29
ENDBRANCH  20  23
ENDBRANCH  15  20
ENDBRANCH  12  14
ENDBRANCH   7  12
ENDBRANCH   3   6
ENDBRANCH   1   2
BRANCH   1  31
ATOM     31  C   UNL A   1      38.387  23.117  26.135  1.00  0.00     0.023 C 
BRANCH  31  32
ATOM     32  C   UNL A   1      38.860  21.696  25.865  1.00  0.00     0.023 C 
BRANCH  32  33
ATOM     33  C   UNL A   1      39.946  21.176  26.803  1.00  0.00     0.116 C 
BRANCH  33  34
ATOM     34  N   UNL A   1      40.705  20.040  26.292  1.00  0.00    -0.352 N 
ATOM     35  C   UNL A   1      42.035  20.016  25.930  1.00  0.00     0.251 C 
ATOM     36  H   UNL A   1      40.210  19.195  26.193  1.00  0.00     0.163 HD
ATOM     37  O   UNL A   1      42.550  19.019  25.437  1.00  0.00    -0.269 OA
BRANCH  35  38
ATOM     38  C   UNL A   1      42.826  21.250  26.118  1.00  0.00     0.039 A 
ATOM     39  C   UNL A   1      42.994  22.122  25.042  1.00  0.00     0.014 A 
ATOM     40  C   UNL A   1      43.274  21.595  27.397  1.00  0.00     0.014 A 
ATOM     41  C   UNL A   1      43.524  23.394  25.272  1.00  0.00     0.010 A 
ATOM     42  C   UNL A   1      43.723  22.888  27.634  1.00  0.00     0.010 A 
ATOM     43  C   UNL A   1      43.840  23.805  26.578  1.00  0.00    -0.014 A 
BRANCH  43  44
ATOM     44  C   UNL A   1      44.264  25.199  26.871  1.00  0.00     0.031 A 
ATOM     45  C   UNL A   1      45.695  25.610  26.655  1.00  0.00     0.074 A 
ATOM     46  C   UNL A   1      43.387  26.067  27.415  1.00  0.00     0.049 A 
ATOM     47  N   UNL A   1      46.274  26.751  26.929  1.00  0.00    -0.248 NA
ATOM     48  C   UNL A   1      46.600  24.596  26.089  1.00  0.00     0.031 C 
ATOM     49  C   UNL A   1      41.986  25.776  27.733  1.00  0.00     0.029 A 
ATOM     50  N   UNL A   1      43.547  27.373  27.806  1.00  0.00    -0.354 N 
ATOM     51  C   UNL A   1      47.613  26.581  26.597  1.00  0.00     0.074 A 
ATOM     52  C   UNL A   1      47.769  25.215  26.147  1.00  0.00     0.031 C 
ATOM     53  C   UNL A   1      41.409  26.878  28.239  1.00  0.00     0.029 A 
ATOM     54  C   UNL A   1      42.403  27.943  28.316  1.00  0.00     0.049 A 
ATOM     55  H   UNL A   1      44.401  27.857  27.730  1.00  0.00     0.167 HD
ATOM     56  C   UNL A   1      48.620  27.485  26.641  1.00  0.00     0.031 A 
ATOM     57  C   UNL A   1      42.179  29.184  28.792  1.00  0.00     0.031 A 
ATOM     58  C   UNL A   1      48.458  28.852  27.057  1.00  0.00     0.049 A 
ATOM     59  C   UNL A   1      43.304  30.182  28.800  1.00  0.00     0.074 A 
ATOM     60  C   UNL A   1      49.401  29.865  27.068  1.00  0.00     0.029 A 
ATOM     61  N   UNL A   1      47.275  29.399  27.530  1.00  0.00    -0.354 N 
ATOM     62  N   UNL A   1      44.548  30.021  28.417  1.00  0.00    -0.248 NA
ATOM     63  C   UNL A   1      42.993  31.530  29.295  1.00  0.00     0.031 C 
ATOM     64  C   UNL A   1      48.796  31.017  27.581  1.00  0.00     0.029 A 
ATOM     65  C   UNL A   1      47.466  30.732  27.848  1.00  0.00     0.049 A 
ATOM     66  H   UNL A   1      46.426  28.912  27.625  1.00  0.00     0.167 HD
ATOM     67  C   UNL A   1      45.162  31.255  28.600  1.00  0.00     0.074 A 
ATOM     68  C   UNL A   1      44.151  32.154  29.117  1.00  0.00     0.031 C 
ATOM     69  C   UNL A   1      46.448  31.613  28.359  1.00  0.00     0.031 A 
BRANCH  56  70
ATOM     70  C   UNL A   1      49.987  27.017  26.220  1.00  0.00    -0.014 A 
ATOM     71  C   UNL A   1      50.393  27.085  24.875  1.00  0.00     0.010 A 
ATOM     72  C   UNL A   1      50.882  26.519  27.182  1.00  0.00     0.010 A 
ATOM     73  C   UNL A   1      51.652  26.616  24.492  1.00  0.00     0.020 A 
ATOM     74  C   UNL A   1      52.154  26.075  26.808  1.00  0.00     0.020 A 
ATOM     75  C   UNL A   1      52.522  26.108  25.461  1.00  0.00     0.054 A 
BRANCH  75  76
ATOM     76  S   UNL A   1      54.154  25.513  24.940  1.00  0.00     0.124 S 
ATOM     77  O   UNL A   1      54.998  25.937  26.053  1.00  0.00    -0.237 OA
ATOM     78  O   UNL A   1      53.950  24.071  24.822  1.00  0.00    -0.237 OA
ATOM     79  O   UNL A   1      54.390  26.210  23.677  1.00  0.00    -0.744 OA
ENDBRANCH  75  76
ENDBRANCH  56  70
BRANCH  57  80
ATOM     80  C   UNL A   1      40.822  29.564  29.271  1.00  0.00    -0.014 A 
ATOM     81  C   UNL A   1      39.809  29.881  28.350  1.00  0.00     0.010 A 
ATOM     82  C   UNL A   1      40.533  29.604  30.646  1.00  0.00     0.010 A 
ATOM     83  C   UNL A   1      38.535  30.246  28.794  1.00  0.00     0.020 A 
ATOM     84  C   UNL A   1      39.253  29.947  31.095  1.00  0.00     0.020 A 
ATOM     85  C   UNL A   1      38.265  30.277  30.164  1.00  0.00     0.054 A 
BRANCH  85  86
ATOM     86  S   UNL A   1      36.591  30.704  30.720  1.00  0.00     0.124 S 
ATOM     87  O   UNL A   1      36.793  32.024  31.307  1.00  0.00    -0.237 OA
ATOM     88  O   UNL A   1      35.826  30.675  29.474  1.00  0.00    -0.237 OA
ATOM     89  O   UNL A   1      36.264  29.639  31.664  1.00  0.00    -0.744 OA
ENDBRANCH  85  86
ENDBRANCH  57  80
BRANCH  69  90
ATOM     90  C   UNL A   1      46.827  33.044  28.620  1.00  0.00    -0.014 A 
ATOM     91  C   UNL A   1      47.362  33.439  29.859  1.00  0.00     0.010 A 
ATOM     92  C   UNL A   1      46.704  33.993  27.588  1.00  0.00     0.010 A 
ATOM     93  C   UNL A   1      47.743  34.767  30.070  1.00  0.00     0.020 A 
ATOM     94  C   UNL A   1      47.106  35.316  27.789  1.00  0.00     0.020 A 
ATOM     95  C   UNL A   1      47.611  35.697  29.033  1.00  0.00     0.054 A 
BRANCH  95  96
ATOM     96  S   UNL A   1      48.159  37.403  29.313  1.00  0.00     0.124 S 
ATOM     97  O   UNL A   1      47.336  38.146  28.364  1.00  0.00    -0.237 OA
ATOM     98  O   UNL A   1      47.842  37.618  30.723  1.00  0.00    -0.237 OA
ATOM     99  O   UNL A   1      49.587  37.362  29.002  1.00  0.00    -0.744 OA
ENDBRANCH  95  96
ENDBRANCH  69  90
ENDBRANCH  43  44
ENDBRANCH  35  38
ENDBRANCH  33  34
ENDBRANCH  32  33
ENDBRANCH  31  32
ENDBRANCH   1  31
TORSDOF 19
ENDMDL
