MODEL 1
REMARK VINA RESULT:     -13.4      0.000      0.000
REMARK SMILES Cc1ccc(-c2coc3cc4oc(=O)c(CC(=O)N[C@H](Cc5ccccc5)C(=O)NCCCCNC(=O)c5ccc(-c6c7nc(c(-c8ccc(S(=O)(=O)[O-])cc8)c8ccc([nH]8)c(-c8ccc(S(=O)(=O)[O-])cc8)c8nc(c(-c9ccc(S(=O)(=O)[O-])cc9)c9ccc6[nH]9)C=C8)C=C7)cc5)c(C)c4cc23)cc1
REMARK SMILES IDX 32 1 31 2 30 3 28 4 29 5 20 7 19 8 17 9 18 10 16 12 15 13
REMARK SMILES IDX 6 14 7 15 102 16 8 17 9 18 101 19 10 20 100 21 11 22 98 23
REMARK SMILES IDX 12 24 99 25 13 26 14 27 5 28 1 29 2 30 3 31 104 32 4 33
REMARK SMILES IDX 103 34 21 35 22 36 23 37 27 38 24 39 26 40 25 41 33 42 34 43
REMARK SMILES IDX 35 44 36 45 37 47 38 48 39 49 97 50 40 51 96 52 41 53 42 54
REMARK SMILES IDX 43 55 90 56 44 57 95 58 89 59 91 60 45 61 94 62 88 63 87 64
REMARK SMILES IDX 46 66 76 67 57 68 75 69 58 70 61 71 74 72 92 73 59 74 60 75
REMARK SMILES IDX 73 77 93 78 62 79 47 80 48 81 56 82 49 83 55 84 50 85 51 86
REMARK SMILES IDX 52 87 53 88 54 89 77 90 78 91 86 92 79 93 85 94 80 95 81 96
REMARK SMILES IDX 82 97 83 98 84 99 63 100 64 101 72 102 65 103 71 104 66 105
REMARK SMILES IDX 67 106 68 107 69 108 70 109
REMARK H PARENT 30 6 19 11 35 46 91 65 61 76
REMARK Flexibility Score: inf
ROOT
ATOM      1  C   UNL A   1      34.375  31.082  27.346  1.00  0.00     0.023 C 
ENDROOT
BRANCH   1   2
ATOM      2  C   UNL A   1      33.107  30.447  26.750  1.00  0.00     0.116 C 
BRANCH   2   3
ATOM      3  N   UNL A   1      33.233  29.968  25.368  1.00  0.00    -0.354 N 
ATOM      4  C   UNL A   1      32.297  29.510  24.471  1.00  0.00     0.242 C 
ATOM      5  O   UNL A   1      32.675  29.153  23.353  1.00  0.00    -0.273 OA
ATOM      6  H   UNL A   1      34.154  29.975  25.021  1.00  0.00     0.163 HD
BRANCH   4   7
ATOM      7  C   UNL A   1      30.819  29.350  24.894  1.00  0.00     0.175 C 
BRANCH   7   8
ATOM      8  N   UNL A   1      30.318  28.169  24.167  1.00  0.00    -0.344 N 
ATOM      9  C   UNL A   1      30.270  26.835  24.390  1.00  0.00     0.225 C 
ATOM     10  O   UNL A   1      29.980  26.124  23.423  1.00  0.00    -0.275 OA
ATOM     11  H   UNL A   1      29.917  28.412  23.301  1.00  0.00     0.164 HD
BRANCH   9  12
ATOM     12  C   UNL A   1      30.501  26.207  25.753  1.00  0.00     0.143 C 
BRANCH  12  13
ATOM     13  C   UNL A   1      31.746  25.366  25.834  1.00  0.00     0.051 A 
ATOM     14  C   UNL A   1      35.147  20.196  24.913  1.00  0.00     0.028 A 
ATOM     15  C   UNL A   1      36.496  20.383  24.698  1.00  0.00     0.205 A 
ATOM     16  C   UNL A   1      34.597  21.493  25.130  1.00  0.00     0.029 A 
ATOM     17  O   UNL A   1      36.821  21.700  24.792  1.00  0.00    -0.464 OA
ATOM     18  C   UNL A   1      35.671  22.374  25.069  1.00  0.00     0.138 A 
ATOM     19  C   UNL A   1      33.311  22.011  25.390  1.00  0.00     0.025 A 
ATOM     20  C   UNL A   1      35.563  23.740  25.285  1.00  0.00     0.095 A 
ATOM     21  C   UNL A   1      33.139  23.392  25.587  1.00  0.00     0.022 A 
ATOM     22  C   UNL A   1      34.273  24.206  25.562  1.00  0.00     0.142 A 
ATOM     23  C   UNL A   1      31.811  24.022  25.720  1.00  0.00    -0.029 A 
ATOM     24  O   UNL A   1      34.181  25.573  25.868  1.00  0.00    -0.422 OA
ATOM     25  C   UNL A   1      30.598  23.128  25.671  1.00  0.00     0.046 C 
ATOM     26  C   UNL A   1      32.964  26.144  26.171  1.00  0.00     0.340 A 
ATOM     27  O   UNL A   1      32.887  27.248  26.704  1.00  0.00    -0.246 OA
BRANCH  14  28
ATOM     28  C   UNL A   1      34.497  18.903  24.945  1.00  0.00    -0.015 A 
ATOM     29  C   UNL A   1      32.665  15.016  25.313  1.00  0.00     0.044 C 
ATOM     30  C   UNL A   1      33.288  16.374  25.168  1.00  0.00    -0.051 A 
ATOM     31  C   UNL A   1      34.607  16.492  24.716  1.00  0.00     0.004 A 
ATOM     32  C   UNL A   1      32.574  17.532  25.498  1.00  0.00     0.004 A 
ATOM     33  C   UNL A   1      35.208  17.747  24.604  1.00  0.00     0.009 A 
ATOM     34  C   UNL A   1      33.175  18.788  25.387  1.00  0.00     0.009 A 
ENDBRANCH  14  28
ENDBRANCH  12  13
ENDBRANCH   9  12
ENDBRANCH   7   8
BRANCH   7  35
ATOM     35  C   UNL A   1      30.152  30.717  24.661  1.00  0.00     0.070 C 
BRANCH  35  36
ATOM     36  C   UNL A   1      29.407  30.940  23.358  1.00  0.00    -0.045 A 
ATOM     37  C   UNL A   1      29.076  32.265  23.021  1.00  0.00     0.004 A 
ATOM     38  C   UNL A   1      28.954  29.913  22.521  1.00  0.00     0.004 A 
ATOM     39  C   UNL A   1      28.381  32.562  21.850  1.00  0.00     0.000 A 
ATOM     40  C   UNL A   1      28.258  30.211  21.344  1.00  0.00     0.000 A 
ATOM     41  C   UNL A   1      27.979  31.535  21.004  1.00  0.00     0.000 A 
ENDBRANCH  35  36
ENDBRANCH   7  35
ENDBRANCH   4   7
ENDBRANCH   2   3
ENDBRANCH   1   2
BRANCH   1  42
ATOM     42  C   UNL A   1      35.510  30.119  27.693  1.00  0.00     0.023 C 
BRANCH  42  43
ATOM     43  C   UNL A   1      36.775  30.813  28.161  1.00  0.00     0.116 C 
BRANCH  43  44
ATOM     44  N   UNL A   1      36.972  30.865  29.600  1.00  0.00    -0.352 N 
ATOM     45  C   UNL A   1      36.991  29.665  30.323  1.00  0.00     0.251 C 
ATOM     46  H   UNL A   1      37.091  31.728  30.059  1.00  0.00     0.163 HD
ATOM     47  O   UNL A   1      36.117  29.276  31.054  1.00  0.00    -0.269 OA
BRANCH  45  48
ATOM     48  C   UNL A   1      38.160  28.813  29.993  1.00  0.00     0.039 A 
ATOM     49  C   UNL A   1      39.129  28.528  30.955  1.00  0.00     0.014 A 
ATOM     50  C   UNL A   1      38.376  28.536  28.643  1.00  0.00     0.014 A 
ATOM     51  C   UNL A   1      40.393  28.114  30.535  1.00  0.00     0.010 A 
ATOM     52  C   UNL A   1      39.649  28.235  28.224  1.00  0.00     0.010 A 
ATOM     53  C   UNL A   1      40.667  28.064  29.168  1.00  0.00    -0.014 A 
BRANCH  53  54
ATOM     54  C   UNL A   1      41.981  27.842  28.585  1.00  0.00     0.031 A 
ATOM     55  C   UNL A   1      42.514  26.456  28.558  1.00  0.00     0.074 A 
ATOM     56  C   UNL A   1      42.596  28.852  27.927  1.00  0.00     0.049 A 
ATOM     57  N   UNL A   1      43.738  26.149  28.300  1.00  0.00    -0.248 NA
ATOM     58  C   UNL A   1      41.695  25.286  28.884  1.00  0.00     0.031 C 
ATOM     59  C   UNL A   1      43.732  28.734  27.012  1.00  0.00     0.029 A 
ATOM     60  N   UNL A   1      42.449  30.236  28.069  1.00  0.00    -0.354 N 
ATOM     61  C   UNL A   1      43.795  24.784  28.113  1.00  0.00     0.074 A 
ATOM     62  C   UNL A   1      42.538  24.286  28.610  1.00  0.00     0.031 C 
ATOM     63  C   UNL A   1      44.359  29.921  26.954  1.00  0.00     0.029 A 
ATOM     64  C   UNL A   1      43.750  30.759  27.973  1.00  0.00     0.049 A 
ATOM     65  H   UNL A   1      41.613  30.737  28.208  1.00  0.00     0.167 HD
ATOM     66  C   UNL A   1      44.845  24.257  27.421  1.00  0.00     0.031 A 
ATOM     67  C   UNL A   1      44.438  31.303  29.025  1.00  0.00     0.031 A 
ATOM     68  C   UNL A   1      45.890  25.261  27.219  1.00  0.00     0.049 A 
ATOM     69  C   UNL A   1      45.748  30.581  29.316  1.00  0.00     0.074 A 
ATOM     70  C   UNL A   1      46.272  26.029  26.133  1.00  0.00     0.029 A 
ATOM     71  N   UNL A   1      46.503  25.822  28.335  1.00  0.00    -0.354 N 
ATOM     72  N   UNL A   1      46.018  29.368  28.916  1.00  0.00    -0.248 NA
ATOM     73  C   UNL A   1      46.849  31.162  30.081  1.00  0.00     0.031 C 
ATOM     74  C   UNL A   1      47.022  27.133  26.629  1.00  0.00     0.029 A 
ATOM     75  C   UNL A   1      47.135  27.004  28.003  1.00  0.00     0.049 A 
ATOM     76  H   UNL A   1      46.488  25.430  29.239  1.00  0.00     0.167 HD
ATOM     77  C   UNL A   1      47.276  29.007  29.321  1.00  0.00     0.074 A 
ATOM     78  C   UNL A   1      47.759  30.171  30.044  1.00  0.00     0.031 C 
ATOM     79  C   UNL A   1      47.819  27.785  29.030  1.00  0.00     0.031 A 
BRANCH  66  80
ATOM     80  C   UNL A   1      44.827  22.912  26.712  1.00  0.00    -0.014 A 
ATOM     81  C   UNL A   1      45.947  22.513  25.951  1.00  0.00     0.010 A 
ATOM     82  C   UNL A   1      43.715  22.048  26.656  1.00  0.00     0.010 A 
ATOM     83  C   UNL A   1      45.934  21.358  25.146  1.00  0.00     0.020 A 
ATOM     84  C   UNL A   1      43.689  20.888  25.868  1.00  0.00     0.020 A 
ATOM     85  C   UNL A   1      44.794  20.558  25.100  1.00  0.00     0.054 A 
BRANCH  85  86
ATOM     86  S   UNL A   1      44.757  19.106  24.017  1.00  0.00     0.124 S 
ATOM     87  O   UNL A   1      43.706  18.292  24.621  1.00  0.00    -0.237 OA
ATOM     88  O   UNL A   1      44.438  19.687  22.717  1.00  0.00    -0.237 OA
ATOM     89  O   UNL A   1      46.106  18.553  24.131  1.00  0.00    -0.744 OA
ENDBRANCH  85  86
ENDBRANCH  66  80
BRANCH  67  90
ATOM     90  C   UNL A   1      43.578  31.967  30.048  1.00  0.00    -0.014 A 
ATOM     91  C   UNL A   1      43.061  33.241  29.726  1.00  0.00     0.010 A 
ATOM     92  C   UNL A   1      42.938  31.210  31.045  1.00  0.00     0.010 A 
ATOM     93  C   UNL A   1      41.817  33.646  30.214  1.00  0.00     0.020 A 
ATOM     94  C   UNL A   1      41.697  31.625  31.551  1.00  0.00     0.020 A 
ATOM     95  C   UNL A   1      41.107  32.793  31.058  1.00  0.00     0.054 A 
BRANCH  95  96
ATOM     96  S   UNL A   1      39.334  33.126  31.314  1.00  0.00     0.124 S 
ATOM     97  O   UNL A   1      39.356  34.347  32.112  1.00  0.00    -0.237 OA
ATOM     98  O   UNL A   1      38.850  33.274  29.938  1.00  0.00    -0.237 OA
ATOM     99  O   UNL A   1      38.864  31.931  32.004  1.00  0.00    -0.744 OA
ENDBRANCH  95  96
ENDBRANCH  67  90
BRANCH  79 100
ATOM    100  C   UNL A   1      49.088  27.212  29.626  1.00  0.00    -0.014 A 
ATOM    101  C   UNL A   1      50.230  26.879  28.883  1.00  0.00     0.010 A 
ATOM    102  C   UNL A   1      49.199  27.118  31.036  1.00  0.00     0.010 A 
ATOM    103  C   UNL A   1      51.398  26.410  29.506  1.00  0.00     0.020 A 
ATOM    104  C   UNL A   1      50.373  26.703  31.671  1.00  0.00     0.020 A 
ATOM    105  C   UNL A   1      51.460  26.321  30.896  1.00  0.00     0.054 A 
BRANCH 105 106
ATOM    106  S   UNL A   1      52.992  25.773  31.690  1.00  0.00     0.124 S 
ATOM    107  O   UNL A   1      53.016  26.596  32.896  1.00  0.00    -0.237 OA
ATOM    108  O   UNL A   1      52.753  24.348  31.910  1.00  0.00    -0.237 OA
ATOM    109  O   UNL A   1      54.020  26.078  30.700  1.00  0.00    -0.744 OA
ENDBRANCH 105 106
ENDBRANCH  79 100
ENDBRANCH  53  54
ENDBRANCH  45  48
ENDBRANCH  43  44
ENDBRANCH  42  43
ENDBRANCH   1  42
TORSDOF 20
ENDMDL
MODEL 2
REMARK VINA RESULT:     -13.3      3.008      3.721
REMARK SMILES Cc1ccc(-c2coc3cc4oc(=O)c(CC(=O)N[C@H](Cc5ccccc5)C(=O)NCCCCNC(=O)c5ccc(-c6c7nc(c(-c8ccc(S(=O)(=O)[O-])cc8)c8ccc([nH]8)c(-c8ccc(S(=O)(=O)[O-])cc8)c8nc(c(-c9ccc(S(=O)(=O)[O-])cc9)c9ccc6[nH]9)C=C8)C=C7)cc5)c(C)c4cc23)cc1
REMARK SMILES IDX 32 1 31 2 30 3 28 4 29 5 20 7 19 8 17 9 18 10 16 12 15 13
REMARK SMILES IDX 6 14 7 15 102 16 8 17 9 18 101 19 10 20 100 21 11 22 98 23
REMARK SMILES IDX 12 24 99 25 13 26 14 27 5 28 1 29 2 30 3 31 104 32 4 33
REMARK SMILES IDX 103 34 21 35 22 36 23 37 27 38 24 39 26 40 25 41 33 42 34 43
REMARK SMILES IDX 35 44 36 45 37 47 38 48 39 49 97 50 40 51 96 52 41 53 42 54
REMARK SMILES IDX 43 55 90 56 44 57 95 58 89 59 91 60 45 61 94 62 88 63 87 64
REMARK SMILES IDX 46 66 76 67 57 68 75 69 58 70 61 71 74 72 92 73 59 74 60 75
REMARK SMILES IDX 73 77 93 78 62 79 47 80 48 81 56 82 49 83 55 84 50 85 51 86
REMARK SMILES IDX 52 87 53 88 54 89 77 90 78 91 86 92 79 93 85 94 80 95 81 96
REMARK SMILES IDX 82 97 83 98 84 99 63 100 64 101 72 102 65 103 71 104 66 105
REMARK SMILES IDX 67 106 68 107 69 108 70 109
REMARK H PARENT 30 6 19 11 35 46 91 65 61 76
REMARK Flexibility Score: inf
ROOT
ATOM      1  C   UNL A   1      33.094  31.628  27.445  1.00  0.00     0.023 C 
ENDROOT
BRANCH   1   2
ATOM      2  C   UNL A   1      32.932  30.595  26.316  1.00  0.00     0.116 C 
BRANCH   2   3
ATOM      3  N   UNL A   1      32.444  29.276  26.736  1.00  0.00    -0.354 N 
ATOM      4  C   UNL A   1      31.654  28.350  26.098  1.00  0.00     0.242 C 
ATOM      5  O   UNL A   1      31.379  27.302  26.687  1.00  0.00    -0.273 OA
ATOM      6  H   UNL A   1      32.735  29.005  27.637  1.00  0.00     0.163 HD
BRANCH   4   7
ATOM      7  C   UNL A   1      31.040  28.663  24.715  1.00  0.00     0.175 C 
BRANCH   7   8
ATOM      8  N   UNL A   1      31.967  28.087  23.723  1.00  0.00    -0.344 N 
ATOM      9  C   UNL A   1      32.523  26.875  23.497  1.00  0.00     0.225 C 
ATOM     10  O   UNL A   1      33.457  26.837  22.689  1.00  0.00    -0.275 OA
ATOM     11  H   UNL A   1      32.255  28.754  23.057  1.00  0.00     0.164 HD
BRANCH   9  12
ATOM     12  C   UNL A   1      32.023  25.594  24.140  1.00  0.00     0.143 C 
BRANCH  12  13
ATOM     13  C   UNL A   1      33.119  24.650  24.553  1.00  0.00     0.051 A 
ATOM     14  C   UNL A   1      35.999  19.103  24.833  1.00  0.00     0.028 A 
ATOM     15  C   UNL A   1      37.377  19.133  24.885  1.00  0.00     0.205 A 
ATOM     16  C   UNL A   1      35.576  20.464  24.812  1.00  0.00     0.029 A 
ATOM     17  O   UNL A   1      37.831  20.414  24.922  1.00  0.00    -0.464 OA
ATOM     18  C   UNL A   1      36.736  21.223  24.893  1.00  0.00     0.138 A 
ATOM     19  C   UNL A   1      34.334  21.130  24.752  1.00  0.00     0.025 A 
ATOM     20  C   UNL A   1      36.751  22.609  24.955  1.00  0.00     0.095 A 
ATOM     21  C   UNL A   1      34.291  22.534  24.781  1.00  0.00     0.022 A 
ATOM     22  C   UNL A   1      35.496  23.227  24.916  1.00  0.00     0.142 A 
ATOM     23  C   UNL A   1      33.047  23.302  24.579  1.00  0.00    -0.029 A 
ATOM     24  O   UNL A   1      35.508  24.622  25.070  1.00  0.00    -0.422 OA
ATOM     25  C   UNL A   1      31.769  22.530  24.363  1.00  0.00     0.046 C 
ATOM     26  C   UNL A   1      34.331  25.339  25.061  1.00  0.00     0.340 A 
ATOM     27  O   UNL A   1      34.283  26.499  25.464  1.00  0.00    -0.246 OA
BRANCH  14  28
ATOM     28  C   UNL A   1      35.208  17.892  24.849  1.00  0.00    -0.015 A 
ATOM     29  C   UNL A   1      32.765  14.352  25.168  1.00  0.00     0.044 C 
ATOM     30  C   UNL A   1      33.614  15.582  25.034  1.00  0.00    -0.051 A 
ATOM     31  C   UNL A   1      34.937  15.569  25.491  1.00  0.00     0.004 A 
ATOM     32  C   UNL A   1      33.098  16.756  24.475  1.00  0.00     0.004 A 
ATOM     33  C   UNL A   1      35.730  16.715  25.398  1.00  0.00     0.009 A 
ATOM     34  C   UNL A   1      33.889  17.903  24.383  1.00  0.00     0.009 A 
ENDBRANCH  14  28
ENDBRANCH  12  13
ENDBRANCH   9  12
ENDBRANCH   7   8
BRANCH   7  35
ATOM     35  C   UNL A   1      30.762  30.176  24.698  1.00  0.00     0.070 C 
BRANCH  35  36
ATOM     36  C   UNL A   1      29.808  30.719  23.650  1.00  0.00    -0.045 A 
ATOM     37  C   UNL A   1      28.907  31.721  24.053  1.00  0.00     0.004 A 
ATOM     38  C   UNL A   1      29.709  30.229  22.341  1.00  0.00     0.004 A 
ATOM     39  C   UNL A   1      27.986  32.268  23.160  1.00  0.00     0.000 A 
ATOM     40  C   UNL A   1      28.787  30.780  21.445  1.00  0.00     0.000 A 
ATOM     41  C   UNL A   1      27.932  31.805  21.851  1.00  0.00     0.000 A 
ENDBRANCH  35  36
ENDBRANCH   7  35
ENDBRANCH   4   7
ENDBRANCH   2   3
ENDBRANCH   1   2
BRANCH   1  42
ATOM     42  C   UNL A   1      34.479  32.256  27.589  1.00  0.00     0.023 C 
BRANCH  42  43
ATOM     43  C   UNL A   1      35.345  31.587  28.639  1.00  0.00     0.116 C 
BRANCH  43  44
ATOM     44  N   UNL A   1      35.148  30.156  28.802  1.00  0.00    -0.352 N 
ATOM     45  C   UNL A   1      35.922  29.275  28.035  1.00  0.00     0.251 C 
ATOM     46  H   UNL A   1      34.483  29.811  29.441  1.00  0.00     0.163 HD
ATOM     47  O   UNL A   1      35.524  28.623  27.105  1.00  0.00    -0.269 OA
BRANCH  45  48
ATOM     48  C   UNL A   1      37.363  29.319  28.389  1.00  0.00     0.039 A 
ATOM     49  C   UNL A   1      38.330  29.550  27.412  1.00  0.00     0.014 A 
ATOM     50  C   UNL A   1      37.712  28.868  29.662  1.00  0.00     0.014 A 
ATOM     51  C   UNL A   1      39.647  29.165  27.664  1.00  0.00     0.010 A 
ATOM     52  C   UNL A   1      38.983  28.391  29.870  1.00  0.00     0.010 A 
ATOM     53  C   UNL A   1      39.940  28.502  28.856  1.00  0.00    -0.014 A 
BRANCH  53  54
ATOM     54  C   UNL A   1      41.212  27.873  29.173  1.00  0.00     0.031 A 
ATOM     55  C   UNL A   1      41.415  26.457  28.777  1.00  0.00     0.074 A 
ATOM     56  C   UNL A   1      42.228  28.631  29.647  1.00  0.00     0.049 A 
ATOM     57  N   UNL A   1      42.378  25.710  29.199  1.00  0.00    -0.248 NA
ATOM     58  C   UNL A   1      40.491  25.740  27.894  1.00  0.00     0.031 C 
ATOM     59  C   UNL A   1      43.642  28.258  29.704  1.00  0.00     0.029 A 
ATOM     60  N   UNL A   1      42.194  29.842  30.346  1.00  0.00    -0.354 N 
ATOM     61  C   UNL A   1      42.388  24.568  28.427  1.00  0.00     0.074 A 
ATOM     62  C   UNL A   1      41.129  24.578  27.727  1.00  0.00     0.031 C 
ATOM     63  C   UNL A   1      44.243  29.005  30.645  1.00  0.00     0.029 A 
ATOM     64  C   UNL A   1      43.188  29.729  31.333  1.00  0.00     0.049 A 
ATOM     65  H   UNL A   1      41.600  30.609  30.182  1.00  0.00     0.167 HD
ATOM     66  C   UNL A   1      43.530  23.825  28.364  1.00  0.00     0.031 A 
ATOM     67  C   UNL A   1      42.928  29.610  32.673  1.00  0.00     0.031 A 
ATOM     68  C   UNL A   1      44.492  24.267  29.376  1.00  0.00     0.049 A 
ATOM     69  C   UNL A   1      43.490  28.329  33.276  1.00  0.00     0.074 A 
ATOM     70  C   UNL A   1      45.643  25.033  29.322  1.00  0.00     0.029 A 
ATOM     71  N   UNL A   1      44.137  24.179  30.719  1.00  0.00    -0.354 N 
ATOM     72  N   UNL A   1      43.817  27.275  32.577  1.00  0.00    -0.248 NA
ATOM     73  C   UNL A   1      43.720  28.131  34.705  1.00  0.00     0.031 C 
ATOM     74  C   UNL A   1      45.904  25.511  30.638  1.00  0.00     0.029 A 
ATOM     75  C   UNL A   1      44.945  24.991  31.491  1.00  0.00     0.049 A 
ATOM     76  H   UNL A   1      43.410  23.615  31.071  1.00  0.00     0.167 HD
ATOM     77  C   UNL A   1      44.304  26.296  33.402  1.00  0.00     0.074 A 
ATOM     78  C   UNL A   1      44.229  26.884  34.729  1.00  0.00     0.031 C 
ATOM     79  C   UNL A   1      44.730  25.084  32.932  1.00  0.00     0.031 A 
BRANCH  66  80
ATOM     80  C   UNL A   1      43.881  22.869  27.236  1.00  0.00    -0.014 A 
ATOM     81  C   UNL A   1      42.971  21.851  26.880  1.00  0.00     0.010 A 
ATOM     82  C   UNL A   1      45.119  22.840  26.563  1.00  0.00     0.010 A 
ATOM     83  C   UNL A   1      43.298  20.841  25.955  1.00  0.00     0.020 A 
ATOM     84  C   UNL A   1      45.458  21.848  25.632  1.00  0.00     0.020 A 
ATOM     85  C   UNL A   1      44.551  20.840  25.346  1.00  0.00     0.054 A 
BRANCH  85  86
ATOM     86  S   UNL A   1      44.995  19.506  24.203  1.00  0.00     0.124 S 
ATOM     87  O   UNL A   1      44.499  20.010  22.926  1.00  0.00    -0.237 OA
ATOM     88  O   UNL A   1      46.447  19.443  24.336  1.00  0.00    -0.237 OA
ATOM     89  O   UNL A   1      44.277  18.345  24.728  1.00  0.00    -0.744 OA
ENDBRANCH  85  86
ENDBRANCH  66  80
BRANCH  67  90
ATOM     90  C   UNL A   1      41.683  30.298  33.124  1.00  0.00    -0.014 A 
ATOM     91  C   UNL A   1      41.759  31.692  33.338  1.00  0.00     0.010 A 
ATOM     92  C   UNL A   1      40.423  29.716  32.899  1.00  0.00     0.010 A 
ATOM     93  C   UNL A   1      40.649  32.507  33.107  1.00  0.00     0.020 A 
ATOM     94  C   UNL A   1      39.302  30.533  32.686  1.00  0.00     0.020 A 
ATOM     95  C   UNL A   1      39.450  31.923  32.699  1.00  0.00     0.054 A 
BRANCH  95  96
ATOM     96  S   UNL A   1      38.174  33.006  31.978  1.00  0.00     0.124 S 
ATOM     97  O   UNL A   1      37.729  32.240  30.820  1.00  0.00    -0.237 OA
ATOM     98  O   UNL A   1      37.210  33.114  33.078  1.00  0.00    -0.237 OA
ATOM     99  O   UNL A   1      38.904  34.233  31.680  1.00  0.00    -0.744 OA
ENDBRANCH  95  96
ENDBRANCH  67  90
BRANCH  79 100
ATOM    100  C   UNL A   1      45.056  23.868  33.774  1.00  0.00    -0.014 A 
ATOM    101  C   UNL A   1      44.178  22.796  33.990  1.00  0.00     0.010 A 
ATOM    102  C   UNL A   1      46.372  23.721  34.281  1.00  0.00     0.010 A 
ATOM    103  C   UNL A   1      44.566  21.668  34.730  1.00  0.00     0.020 A 
ATOM    104  C   UNL A   1      46.787  22.581  34.974  1.00  0.00     0.020 A 
ATOM    105  C   UNL A   1      45.868  21.569  35.221  1.00  0.00     0.054 A 
BRANCH 105 106
ATOM    106  S   UNL A   1      46.375  20.083  36.122  1.00  0.00     0.124 S 
ATOM    107  O   UNL A   1      45.789  20.316  37.439  1.00  0.00    -0.237 OA
ATOM    108  O   UNL A   1      45.762  19.006  35.347  1.00  0.00    -0.237 OA
ATOM    109  O   UNL A   1      47.833  20.129  36.065  1.00  0.00    -0.744 OA
ENDBRANCH 105 106
ENDBRANCH  79 100
ENDBRANCH  53  54
ENDBRANCH  45  48
ENDBRANCH  43  44
ENDBRANCH  42  43
ENDBRANCH   1  42
TORSDOF 20
ENDMDL
MODEL 3
REMARK VINA RESULT:     -13.0      3.481      4.367
REMARK SMILES Cc1ccc(-c2coc3cc4oc(=O)c(CC(=O)N[C@H](Cc5ccccc5)C(=O)NCCCCNC(=O)c5ccc(-c6c7nc(c(-c8ccc(S(=O)(=O)[O-])cc8)c8ccc([nH]8)c(-c8ccc(S(=O)(=O)[O-])cc8)c8nc(c(-c9ccc(S(=O)(=O)[O-])cc9)c9ccc6[nH]9)C=C8)C=C7)cc5)c(C)c4cc23)cc1
REMARK SMILES IDX 32 1 31 2 30 3 28 4 29 5 20 7 19 8 17 9 18 10 16 12 15 13
REMARK SMILES IDX 6 14 7 15 102 16 8 17 9 18 101 19 10 20 100 21 11 22 98 23
REMARK SMILES IDX 12 24 99 25 13 26 14 27 5 28 1 29 2 30 3 31 104 32 4 33
REMARK SMILES IDX 103 34 21 35 22 36 23 37 27 38 24 39 26 40 25 41 33 42 34 43
REMARK SMILES IDX 35 44 36 45 37 47 38 48 39 49 97 50 40 51 96 52 41 53 42 54
REMARK SMILES IDX 43 55 90 56 44 57 95 58 89 59 91 60 45 61 94 62 88 63 87 64
REMARK SMILES IDX 46 66 76 67 57 68 75 69 58 70 61 71 74 72 92 73 59 74 60 75
REMARK SMILES IDX 73 77 93 78 62 79 47 80 48 81 56 82 49 83 55 84 50 85 51 86
REMARK SMILES IDX 52 87 53 88 54 89 77 90 78 91 86 92 79 93 85 94 80 95 81 96
REMARK SMILES IDX 82 97 83 98 84 99 63 100 64 101 72 102 65 103 71 104 66 105
REMARK SMILES IDX 67 106 68 107 69 108 70 109
REMARK H PARENT 30 6 19 11 35 46 91 65 61 76
REMARK Flexibility Score: inf
ROOT
ATOM      1  C   UNL A   1      34.411  31.004  27.553  1.00  0.00     0.023 C 
ENDROOT
BRANCH   1   2
ATOM      2  C   UNL A   1      33.340  30.106  26.908  1.00  0.00     0.116 C 
BRANCH   2   3
ATOM      3  N   UNL A   1      33.569  29.768  25.498  1.00  0.00    -0.354 N 
ATOM      4  C   UNL A   1      32.705  29.399  24.495  1.00  0.00     0.242 C 
ATOM      5  O   UNL A   1      33.166  29.157  23.377  1.00  0.00    -0.273 OA
ATOM      6  H   UNL A   1      34.513  29.813  25.220  1.00  0.00     0.163 HD
BRANCH   4   7
ATOM      7  C   UNL A   1      31.203  29.191  24.793  1.00  0.00     0.175 C 
BRANCH   7   8
ATOM      8  N   UNL A   1      31.135  28.105  25.788  1.00  0.00    -0.344 N 
ATOM      9  C   UNL A   1      31.182  26.754  25.760  1.00  0.00     0.225 C 
ATOM     10  O   UNL A   1      30.848  26.168  26.795  1.00  0.00    -0.275 OA
ATOM     11  H   UNL A   1      31.028  28.452  26.704  1.00  0.00     0.164 HD
BRANCH   9  12
ATOM     12  C   UNL A   1      31.665  25.959  24.560  1.00  0.00     0.143 C 
BRANCH  12  13
ATOM     13  C   UNL A   1      32.775  24.993  24.875  1.00  0.00     0.051 A 
ATOM     14  C   UNL A   1      35.591  19.407  24.838  1.00  0.00     0.028 A 
ATOM     15  C   UNL A   1      36.970  19.419  24.795  1.00  0.00     0.205 A 
ATOM     16  C   UNL A   1      35.186  20.773  24.875  1.00  0.00     0.029 A 
ATOM     17  O   UNL A   1      37.443  20.693  24.827  1.00  0.00    -0.464 OA
ATOM     18  C   UNL A   1      36.360  21.516  24.891  1.00  0.00     0.138 A 
ATOM     19  C   UNL A   1      33.952  21.456  24.916  1.00  0.00     0.025 A 
ATOM     20  C   UNL A   1      36.398  22.900  24.981  1.00  0.00     0.095 A 
ATOM     21  C   UNL A   1      33.930  22.859  24.977  1.00  0.00     0.022 A 
ATOM     22  C   UNL A   1      35.151  23.534  25.042  1.00  0.00     0.142 A 
ATOM     23  C   UNL A   1      32.686  23.646  24.878  1.00  0.00    -0.029 A 
ATOM     24  O   UNL A   1      35.193  24.925  25.224  1.00  0.00    -0.422 OA
ATOM     25  C   UNL A   1      31.386  22.895  24.735  1.00  0.00     0.046 C 
ATOM     26  C   UNL A   1      34.029  25.657  25.312  1.00  0.00     0.340 A 
ATOM     27  O   UNL A   1      34.024  26.807  25.741  1.00  0.00    -0.246 OA
BRANCH  14  28
ATOM     28  C   UNL A   1      34.787  18.205  24.884  1.00  0.00    -0.015 A 
ATOM     29  C   UNL A   1      32.386  14.648  25.312  1.00  0.00     0.044 C 
ATOM     30  C   UNL A   1      33.214  15.888  25.141  1.00  0.00    -0.051 A 
ATOM     31  C   UNL A   1      34.611  15.806  25.192  1.00  0.00     0.004 A 
ATOM     32  C   UNL A   1      32.611  17.136  24.950  1.00  0.00     0.004 A 
ATOM     33  C   UNL A   1      35.392  16.957  25.062  1.00  0.00     0.009 A 
ATOM     34  C   UNL A   1      33.391  18.287  24.822  1.00  0.00     0.009 A 
ENDBRANCH  14  28
ENDBRANCH  12  13
ENDBRANCH   9  12
ENDBRANCH   7   8
BRANCH   7  35
ATOM     35  C   UNL A   1      30.514  29.008  23.429  1.00  0.00     0.070 C 
BRANCH  35  36
ATOM     36  C   UNL A   1      29.562  30.091  22.953  1.00  0.00    -0.045 A 
ATOM     37  C   UNL A   1      29.481  30.318  21.568  1.00  0.00     0.004 A 
ATOM     38  C   UNL A   1      28.833  30.931  23.804  1.00  0.00     0.004 A 
ATOM     39  C   UNL A   1      28.644  31.301  21.043  1.00  0.00     0.000 A 
ATOM     40  C   UNL A   1      27.990  31.916  23.277  1.00  0.00     0.000 A 
ATOM     41  C   UNL A   1      27.889  32.095  21.898  1.00  0.00     0.000 A 
ENDBRANCH  35  36
ENDBRANCH   7  35
ENDBRANCH   4   7
ENDBRANCH   2   3
ENDBRANCH   1   2
BRANCH   1  42
ATOM     42  C   UNL A   1      35.829  30.436  27.594  1.00  0.00     0.023 C 
BRANCH  42  43
ATOM     43  C   UNL A   1      36.547  30.689  28.906  1.00  0.00     0.116 C 
BRANCH  43  44
ATOM     44  N   UNL A   1      36.358  32.008  29.487  1.00  0.00    -0.352 N 
ATOM     45  C   UNL A   1      36.674  32.203  30.837  1.00  0.00     0.251 C 
ATOM     46  H   UNL A   1      36.015  32.751  28.940  1.00  0.00     0.163 HD
ATOM     47  O   UNL A   1      35.877  32.349  31.727  1.00  0.00    -0.269 OA
BRANCH  45  48
ATOM     48  C   UNL A   1      38.126  32.070  31.113  1.00  0.00     0.039 A 
ATOM     49  C   UNL A   1      39.070  32.414  30.145  1.00  0.00     0.014 A 
ATOM     50  C   UNL A   1      38.488  31.357  32.256  1.00  0.00     0.014 A 
ATOM     51  C   UNL A   1      40.359  31.891  30.246  1.00  0.00     0.010 A 
ATOM     52  C   UNL A   1      39.722  30.755  32.299  1.00  0.00     0.010 A 
ATOM     53  C   UNL A   1      40.643  30.990  31.273  1.00  0.00    -0.014 A 
BRANCH  53  54
ATOM     54  C   UNL A   1      41.870  30.219  31.394  1.00  0.00     0.031 A 
ATOM     55  C   UNL A   1      41.940  28.896  30.723  1.00  0.00     0.074 A 
ATOM     56  C   UNL A   1      42.963  30.792  31.949  1.00  0.00     0.049 A 
ATOM     57  N   UNL A   1      42.853  28.013  30.940  1.00  0.00    -0.248 NA
ATOM     58  C   UNL A   1      40.926  28.437  29.770  1.00  0.00     0.031 C 
ATOM     59  C   UNL A   1      44.343  30.311  31.857  1.00  0.00     0.029 A 
ATOM     60  N   UNL A   1      43.057  31.842  32.869  1.00  0.00    -0.354 N 
ATOM     61  C   UNL A   1      42.738  27.046  29.964  1.00  0.00     0.074 A 
ATOM     62  C   UNL A   1      41.459  27.286  29.348  1.00  0.00     0.031 C 
ATOM     63  C   UNL A   1      45.039  30.813  32.890  1.00  0.00     0.029 A 
ATOM     64  C   UNL A   1      44.075  31.465  33.761  1.00  0.00     0.049 A 
ATOM     65  H   UNL A   1      42.523  32.668  32.888  1.00  0.00     0.167 HD
ATOM     66  C   UNL A   1      43.812  26.248  29.698  1.00  0.00     0.031 A 
ATOM     67  C   UNL A   1      43.858  31.105  35.065  1.00  0.00     0.031 A 
ATOM     68  C   UNL A   1      44.845  26.410  30.722  1.00  0.00     0.049 A 
ATOM     69  C   UNL A   1      44.335  29.692  35.379  1.00  0.00     0.074 A 
ATOM     70  C   UNL A   1      46.052  27.086  30.754  1.00  0.00     0.029 A 
ATOM     71  N   UNL A   1      44.537  26.087  32.040  1.00  0.00    -0.354 N 
ATOM     72  N   UNL A   1      44.546  28.775  34.474  1.00  0.00    -0.248 NA
ATOM     73  C   UNL A   1      44.603  29.201  36.729  1.00  0.00     0.031 C 
ATOM     74  C   UNL A   1      46.403  27.275  32.122  1.00  0.00     0.029 A 
ATOM     75  C   UNL A   1      45.437  26.671  32.909  1.00  0.00     0.049 A 
ATOM     76  H   UNL A   1      43.779  25.521  32.316  1.00  0.00     0.167 HD
ATOM     77  C   UNL A   1      44.982  27.619  35.068  1.00  0.00     0.074 A 
ATOM     78  C   UNL A   1      45.007  27.940  36.485  1.00  0.00     0.031 C 
ATOM     79  C   UNL A   1      45.287  26.495  34.351  1.00  0.00     0.031 A 
BRANCH  66  80
ATOM     80  C   UNL A   1      44.038  25.508  28.390  1.00  0.00    -0.014 A 
ATOM     81  C   UNL A   1      43.223  24.403  28.066  1.00  0.00     0.010 A 
ATOM     82  C   UNL A   1      45.092  25.769  27.492  1.00  0.00     0.010 A 
ATOM     83  C   UNL A   1      43.478  23.582  26.951  1.00  0.00     0.020 A 
ATOM     84  C   UNL A   1      45.356  24.968  26.371  1.00  0.00     0.020 A 
ATOM     85  C   UNL A   1      44.557  23.864  26.116  1.00  0.00     0.054 A 
BRANCH  85  86
ATOM     86  S   UNL A   1      44.922  22.773  24.717  1.00  0.00     0.124 S 
ATOM     87  O   UNL A   1      45.571  21.638  25.367  1.00  0.00    -0.237 OA
ATOM     88  O   UNL A   1      43.597  22.512  24.163  1.00  0.00    -0.237 OA
ATOM     89  O   UNL A   1      45.798  23.578  23.867  1.00  0.00    -0.744 OA
ENDBRANCH  85  86
ENDBRANCH  66  80
BRANCH  67  90
ATOM     90  C   UNL A   1      42.693  31.780  35.706  1.00  0.00    -0.014 A 
ATOM     91  C   UNL A   1      42.807  33.166  35.952  1.00  0.00     0.010 A 
ATOM     92  C   UNL A   1      41.410  31.210  35.640  1.00  0.00     0.010 A 
ATOM     93  C   UNL A   1      41.682  33.992  35.903  1.00  0.00     0.020 A 
ATOM     94  C   UNL A   1      40.275  32.036  35.611  1.00  0.00     0.020 A 
ATOM     95  C   UNL A   1      40.434  33.425  35.648  1.00  0.00     0.054 A 
BRANCH  95  96
ATOM     96  S   UNL A   1      39.079  34.534  35.146  1.00  0.00     0.124 S 
ATOM     97  O   UNL A   1      37.915  33.909  35.765  1.00  0.00    -0.237 OA
ATOM     98  O   UNL A   1      39.499  35.812  35.730  1.00  0.00    -0.237 OA
ATOM     99  O   UNL A   1      39.122  34.481  33.689  1.00  0.00    -0.744 OA
ENDBRANCH  95  96
ENDBRANCH  67  90
BRANCH  79 100
ATOM    100  C   UNL A   1      45.544  25.117  34.925  1.00  0.00    -0.014 A 
ATOM    101  C   UNL A   1      44.850  24.572  36.016  1.00  0.00     0.010 A 
ATOM    102  C   UNL A   1      46.447  24.254  34.254  1.00  0.00     0.010 A 
ATOM    103  C   UNL A   1      45.094  23.263  36.459  1.00  0.00     0.020 A 
ATOM    104  C   UNL A   1      46.660  22.932  34.652  1.00  0.00     0.020 A 
ATOM    105  C   UNL A   1      46.000  22.452  35.777  1.00  0.00     0.054 A 
BRANCH 105 106
ATOM    106  S   UNL A   1      46.261  20.745  36.321  1.00  0.00     0.124 S 
ATOM    107  O   UNL A   1      45.383  20.005  35.419  1.00  0.00    -0.237 OA
ATOM    108  O   UNL A   1      47.692  20.548  36.102  1.00  0.00    -0.237 OA
ATOM    109  O   UNL A   1      45.850  20.765  37.722  1.00  0.00    -0.744 OA
ENDBRANCH 105 106
ENDBRANCH  79 100
ENDBRANCH  53  54
ENDBRANCH  45  48
ENDBRANCH  43  44
ENDBRANCH  42  43
ENDBRANCH   1  42
TORSDOF 20
ENDMDL
