MODEL 1
REMARK VINA RESULT:     -12.8      0.000      0.000
REMARK SMILES O=C(NCCCCNC(=O)C1(n2ccnc2)CCN(C(=O)C2(c3ccccc3)CC2)CC1)c1ccc(-c2c3nc(c(-c4ccc(S(=O)(=O)[O-])cc4)c4ccc([nH]4)c(-c4ccc(S(=O)(=O)[O-])cc4)c4nc(c(-c5ccc(S(=O)(=O)[O-])cc5)c5ccc2[nH]5)C=C4)C=C3)cc1
REMARK SMILES IDX 5 1 4 2 3 3 1 4 2 5 33 7 34 8 92 9 35 10 91 11 36 12 37 13
REMARK SMILES IDX 38 14 85 15 39 16 90 17 84 18 86 19 40 20 89 21 83 22 82 23
REMARK SMILES IDX 41 25 71 26 52 27 70 28 53 29 56 30 69 31 87 32 54 33 55 34
REMARK SMILES IDX 68 36 88 37 57 38 42 39 43 40 51 41 44 42 50 43 45 44 46 45
REMARK SMILES IDX 47 46 48 47 49 48 72 49 73 50 81 51 74 52 80 53 75 54 76 55
REMARK SMILES IDX 77 56 78 57 79 58 58 59 59 60 67 61 60 62 66 63 61 64 62 65
REMARK SMILES IDX 63 66 64 67 65 68 6 69 7 70 8 71 9 72 10 74 11 75 17 76
REMARK SMILES IDX 32 77 18 78 31 79 19 80 20 81 21 82 12 83 13 84 16 85 14 86
REMARK SMILES IDX 15 87 22 88 29 89 30 90 23 91 24 92 28 93 25 94 27 95 26 96
REMARK H PARENT 3 6 86 24 56 35 8 73
REMARK Flexibility Score: inf
ROOT
ATOM      1  C   UNL A   1      39.101  20.689  25.781  1.00  0.00     0.023 C 
ENDROOT
BRANCH   1   2
ATOM      2  C   UNL A   1      40.468  20.562  26.466  1.00  0.00     0.116 C 
BRANCH   2   3
ATOM      3  N   UNL A   1      41.649  20.776  25.644  1.00  0.00    -0.352 N 
ATOM      4  O   UNL A   1      43.649  21.415  24.947  1.00  0.00    -0.269 OA
ATOM      5  C   UNL A   1      42.675  21.685  25.654  1.00  0.00     0.251 C 
ATOM      6  H   UNL A   1      41.728  20.120  24.915  1.00  0.00     0.163 HD
BRANCH   5   7
ATOM      7  C   UNL A   1      42.648  22.981  26.379  1.00  0.00     0.039 A 
ATOM      8  C   UNL A   1      43.140  23.182  27.665  1.00  0.00     0.014 A 
ATOM      9  C   UNL A   1      42.051  24.065  25.708  1.00  0.00     0.014 A 
ATOM     10  C   UNL A   1      42.917  24.384  28.324  1.00  0.00     0.010 A 
ATOM     11  C   UNL A   1      41.864  25.288  26.346  1.00  0.00     0.010 A 
ATOM     12  C   UNL A   1      42.260  25.430  27.673  1.00  0.00    -0.014 A 
BRANCH  12  13
ATOM     13  C   UNL A   1      42.154  26.701  28.384  1.00  0.00     0.031 A 
ATOM     14  C   UNL A   1      43.311  27.623  28.202  1.00  0.00     0.074 A 
ATOM     15  C   UNL A   1      41.058  27.107  29.052  1.00  0.00     0.049 A 
ATOM     16  N   UNL A   1      44.130  28.073  29.096  1.00  0.00    -0.248 NA
ATOM     17  C   UNL A   1      43.655  28.008  26.824  1.00  0.00     0.031 C 
ATOM     18  C   UNL A   1      39.736  26.479  29.074  1.00  0.00     0.029 A 
ATOM     19  N   UNL A   1      40.872  28.256  29.762  1.00  0.00    -0.354 N 
ATOM     20  C   UNL A   1      44.987  28.946  28.427  1.00  0.00     0.074 A 
ATOM     21  C   UNL A   1      44.736  28.760  27.019  1.00  0.00     0.031 C 
ATOM     22  C   UNL A   1      38.836  27.369  29.551  1.00  0.00     0.029 A 
ATOM     23  C   UNL A   1      39.537  28.566  29.986  1.00  0.00     0.049 A 
ATOM     24  H   UNL A   1      41.615  28.815  30.085  1.00  0.00     0.167 HD
ATOM     25  C   UNL A   1      45.710  29.904  29.070  1.00  0.00     0.031 A 
ATOM     26  C   UNL A   1      39.042  29.754  30.414  1.00  0.00     0.031 A 
ATOM     27  C   UNL A   1      45.763  29.693  30.489  1.00  0.00     0.049 A 
ATOM     28  C   UNL A   1      40.147  30.503  31.060  1.00  0.00     0.074 A 
ATOM     29  C   UNL A   1      46.249  28.698  31.314  1.00  0.00     0.029 A 
ATOM     30  N   UNL A   1      44.947  30.472  31.274  1.00  0.00    -0.354 N 
ATOM     31  N   UNL A   1      40.706  30.143  32.181  1.00  0.00    -0.248 NA
ATOM     32  C   UNL A   1      40.911  31.448  30.260  1.00  0.00     0.031 C 
ATOM     33  C   UNL A   1      45.340  28.653  32.411  1.00  0.00     0.029 A 
ATOM     34  C   UNL A   1      44.379  29.646  32.208  1.00  0.00     0.049 A 
ATOM     35  H   UNL A   1      44.797  31.440  31.180  1.00  0.00     0.167 HD
ATOM     36  C   UNL A   1      42.045  30.475  32.036  1.00  0.00     0.074 A 
ATOM     37  C   UNL A   1      42.088  31.373  30.886  1.00  0.00     0.031 C 
ATOM     38  C   UNL A   1      43.021  29.779  32.689  1.00  0.00     0.031 A 
BRANCH  25  39
ATOM     39  C   UNL A   1      46.058  31.241  28.458  1.00  0.00    -0.014 A 
ATOM     40  C   UNL A   1      45.029  32.181  28.235  1.00  0.00     0.010 A 
ATOM     41  C   UNL A   1      47.297  31.487  27.832  1.00  0.00     0.010 A 
ATOM     42  C   UNL A   1      45.210  33.264  27.365  1.00  0.00     0.020 A 
ATOM     43  C   UNL A   1      47.502  32.589  27.001  1.00  0.00     0.020 A 
ATOM     44  C   UNL A   1      46.443  33.449  26.740  1.00  0.00     0.054 A 
BRANCH  44  45
ATOM     45  S   UNL A   1      46.629  34.767  25.514  1.00  0.00     0.124 S 
ATOM     46  O   UNL A   1      46.382  35.959  26.320  1.00  0.00    -0.237 OA
ATOM     47  O   UNL A   1      48.005  34.580  25.063  1.00  0.00    -0.237 OA
ATOM     48  O   UNL A   1      45.604  34.458  24.520  1.00  0.00    -0.744 OA
ENDBRANCH  44  45
ENDBRANCH  25  39
BRANCH  26  49
ATOM     49  C   UNL A   1      37.766  30.397  30.015  1.00  0.00    -0.014 A 
ATOM     50  C   UNL A   1      36.825  30.804  30.978  1.00  0.00     0.010 A 
ATOM     51  C   UNL A   1      37.594  30.859  28.693  1.00  0.00     0.010 A 
ATOM     52  C   UNL A   1      35.786  31.690  30.642  1.00  0.00     0.020 A 
ATOM     53  C   UNL A   1      36.556  31.731  28.350  1.00  0.00     0.020 A 
ATOM     54  C   UNL A   1      35.671  32.164  29.333  1.00  0.00     0.054 A 
BRANCH  54  55
ATOM     55  S   UNL A   1      34.444  33.447  28.947  1.00  0.00     0.124 S 
ATOM     56  O   UNL A   1      33.573  32.766  27.994  1.00  0.00    -0.237 OA
ATOM     57  O   UNL A   1      33.856  33.728  30.254  1.00  0.00    -0.237 OA
ATOM     58  O   UNL A   1      35.247  34.533  28.387  1.00  0.00    -0.744 OA
ENDBRANCH  54  55
ENDBRANCH  26  49
BRANCH  38  59
ATOM     59  C   UNL A   1      42.621  28.865  33.823  1.00  0.00    -0.014 A 
ATOM     60  C   UNL A   1      42.077  27.581  33.631  1.00  0.00     0.010 A 
ATOM     61  C   UNL A   1      42.953  29.266  35.130  1.00  0.00     0.010 A 
ATOM     62  C   UNL A   1      41.847  26.731  34.722  1.00  0.00     0.020 A 
ATOM     63  C   UNL A   1      42.744  28.416  36.218  1.00  0.00     0.020 A 
ATOM     64  C   UNL A   1      42.184  27.156  36.011  1.00  0.00     0.054 A 
BRANCH  64  65
ATOM     65  S   UNL A   1      41.943  26.025  37.409  1.00  0.00     0.124 S 
ATOM     66  O   UNL A   1      42.919  26.511  38.380  1.00  0.00    -0.237 OA
ATOM     67  O   UNL A   1      40.542  26.241  37.762  1.00  0.00    -0.237 OA
ATOM     68  O   UNL A   1      42.234  24.707  36.845  1.00  0.00    -0.744 OA
ENDBRANCH  64  65
ENDBRANCH  38  59
ENDBRANCH  12  13
ENDBRANCH   5   7
ENDBRANCH   2   3
ENDBRANCH   1   2
BRANCH   1  69
ATOM     69  C   UNL A   1      38.366  22.020  25.921  1.00  0.00     0.023 C 
BRANCH  69  70
ATOM     70  C   UNL A   1      36.894  22.018  25.548  1.00  0.00     0.116 C 
BRANCH  70  71
ATOM     71  N   UNL A   1      35.939  22.255  26.625  1.00  0.00    -0.354 N 
ATOM     72  C   UNL A   1      34.569  22.319  26.662  1.00  0.00     0.246 C 
ATOM     73  H   UNL A   1      36.363  22.399  27.501  1.00  0.00     0.163 HD
ATOM     74  O   UNL A   1      34.074  22.089  27.776  1.00  0.00    -0.272 OA
BRANCH  72  75
ATOM     75  C   UNL A   1      33.620  22.731  25.477  1.00  0.00     0.127 C 
ATOM     76  C   UNL A   1      34.396  23.656  24.468  1.00  0.00     0.061 C 
ATOM     77  C   UNL A   1      32.369  23.528  25.834  1.00  0.00     0.061 C 
ATOM     78  C   UNL A   1      34.615  25.101  24.955  1.00  0.00     0.122 C 
ATOM     79  C   UNL A   1      32.743  24.825  26.490  1.00  0.00     0.122 C 
ATOM     80  N   UNL A   1      33.441  25.692  25.602  1.00  0.00    -0.342 N 
ATOM     81  C   UNL A   1      33.388  27.076  25.788  1.00  0.00     0.233 C 
ATOM     82  O   UNL A   1      34.344  27.789  25.496  1.00  0.00    -0.274 OA
BRANCH  75  83
ATOM     83  N   UNL A   1      33.225  21.481  24.769  1.00  0.00    -0.322 N 
ATOM     84  C   UNL A   1      33.700  20.216  25.021  1.00  0.00     0.108 A 
ATOM     85  C   UNL A   1      32.353  21.361  23.717  1.00  0.00     0.200 A 
ATOM     86  C   UNL A   1      33.121  19.408  24.072  1.00  0.00     0.130 A 
ATOM     87  N   UNL A   1      32.298  20.132  23.259  1.00  0.00    -0.245 NA
ENDBRANCH  75  83
BRANCH  81  88
ATOM     88  C   UNL A   1      32.097  27.761  26.258  1.00  0.00     0.074 C 
ATOM     89  C   UNL A   1      31.463  27.845  27.659  1.00  0.00     0.023 C 
ATOM     90  C   UNL A   1      32.358  28.939  27.213  1.00  0.00     0.023 C 
BRANCH  88  91
ATOM     91  C   UNL A   1      31.105  27.962  25.104  1.00  0.00    -0.032 A 
ATOM     92  C   UNL A   1      30.239  26.936  24.688  1.00  0.00     0.005 A 
ATOM     93  C   UNL A   1      31.091  29.163  24.373  1.00  0.00     0.005 A 
ATOM     94  C   UNL A   1      29.414  27.096  23.572  1.00  0.00     0.000 A 
ATOM     95  C   UNL A   1      30.277  29.323  23.254  1.00  0.00     0.000 A 
ATOM     96  C   UNL A   1      29.442  28.286  22.849  1.00  0.00     0.000 A 
ENDBRANCH  88  91
ENDBRANCH  81  88
ENDBRANCH  72  75
ENDBRANCH  70  71
ENDBRANCH  69  70
ENDBRANCH   1  69
TORSDOF 17
ENDMDL
MODEL 2
REMARK VINA RESULT:     -12.3      2.934      8.681
REMARK SMILES O=C(NCCCCNC(=O)C1(n2ccnc2)CCN(C(=O)C2(c3ccccc3)CC2)CC1)c1ccc(-c2c3nc(c(-c4ccc(S(=O)(=O)[O-])cc4)c4ccc([nH]4)c(-c4ccc(S(=O)(=O)[O-])cc4)c4nc(c(-c5ccc(S(=O)(=O)[O-])cc5)c5ccc2[nH]5)C=C4)C=C3)cc1
REMARK SMILES IDX 5 1 4 2 3 3 1 4 2 5 33 7 34 8 92 9 35 10 91 11 36 12 37 13
REMARK SMILES IDX 38 14 85 15 39 16 90 17 84 18 86 19 40 20 89 21 83 22 82 23
REMARK SMILES IDX 41 25 71 26 52 27 70 28 53 29 56 30 69 31 87 32 54 33 55 34
REMARK SMILES IDX 68 36 88 37 57 38 42 39 43 40 51 41 44 42 50 43 45 44 46 45
REMARK SMILES IDX 47 46 48 47 49 48 72 49 73 50 81 51 74 52 80 53 75 54 76 55
REMARK SMILES IDX 77 56 78 57 79 58 58 59 59 60 67 61 60 62 66 63 61 64 62 65
REMARK SMILES IDX 63 66 64 67 65 68 6 69 7 70 8 71 9 72 10 74 11 75 17 76
REMARK SMILES IDX 32 77 18 78 31 79 19 80 20 81 21 82 12 83 13 84 16 85 14 86
REMARK SMILES IDX 15 87 22 88 29 89 30 90 23 91 24 92 28 93 25 94 27 95 26 96
REMARK H PARENT 3 6 86 24 56 35 8 73
REMARK Flexibility Score: inf
ROOT
ATOM      1  C   UNL A   1      31.648  31.857  26.848  1.00  0.00     0.023 C 
ENDROOT
BRANCH   1   2
ATOM      2  C   UNL A   1      32.047  33.329  26.671  1.00  0.00     0.116 C 
BRANCH   2   3
ATOM      3  N   UNL A   1      31.979  34.184  27.845  1.00  0.00    -0.352 N 
ATOM      4  O   UNL A   1      32.519  35.582  29.474  1.00  0.00    -0.269 OA
ATOM      5  C   UNL A   1      32.903  34.674  28.732  1.00  0.00     0.251 C 
ATOM      6  H   UNL A   1      31.063  34.478  28.049  1.00  0.00     0.163 HD
BRANCH   5   7
ATOM      7  C   UNL A   1      34.275  34.134  28.907  1.00  0.00     0.039 A 
ATOM      8  C   UNL A   1      35.272  34.168  27.937  1.00  0.00     0.014 A 
ATOM      9  C   UNL A   1      34.556  33.519  30.142  1.00  0.00     0.014 A 
ATOM     10  C   UNL A   1      36.467  33.487  28.130  1.00  0.00     0.010 A 
ATOM     11  C   UNL A   1      35.769  32.873  30.361  1.00  0.00     0.010 A 
ATOM     12  C   UNL A   1      36.707  32.821  29.334  1.00  0.00    -0.014 A 
BRANCH  12  13
ATOM     13  C   UNL A   1      38.024  32.216  29.513  1.00  0.00     0.031 A 
ATOM     14  C   UNL A   1      38.112  30.776  29.133  1.00  0.00     0.074 A 
ATOM     15  C   UNL A   1      39.131  32.897  29.861  1.00  0.00     0.049 A 
ATOM     16  N   UNL A   1      38.395  29.762  29.883  1.00  0.00    -0.248 NA
ATOM     17  C   UNL A   1      37.735  30.419  27.757  1.00  0.00     0.031 C 
ATOM     18  C   UNL A   1      39.296  34.348  29.967  1.00  0.00     0.029 A 
ATOM     19  N   UNL A   1      40.391  32.421  30.074  1.00  0.00    -0.354 N 
ATOM     20  C   UNL A   1      38.411  28.653  29.039  1.00  0.00     0.074 A 
ATOM     21  C   UNL A   1      37.866  29.094  27.780  1.00  0.00     0.031 C 
ATOM     22  C   UNL A   1      40.617  34.639  29.982  1.00  0.00     0.029 A 
ATOM     23  C   UNL A   1      41.376  33.399  30.022  1.00  0.00     0.049 A 
ATOM     24  H   UNL A   1      40.585  31.472  30.250  1.00  0.00     0.167 HD
ATOM     25  C   UNL A   1      39.049  27.492  29.360  1.00  0.00     0.031 A 
ATOM     26  C   UNL A   1      42.713  33.197  29.927  1.00  0.00     0.031 A 
ATOM     27  C   UNL A   1      39.383  27.417  30.754  1.00  0.00     0.049 A 
ATOM     28  C   UNL A   1      42.998  31.811  30.370  1.00  0.00     0.074 A 
ATOM     29  C   UNL A   1      38.667  27.413  31.935  1.00  0.00     0.029 A 
ATOM     30  N   UNL A   1      40.689  27.662  31.105  1.00  0.00    -0.354 N 
ATOM     31  N   UNL A   1      42.855  31.400  31.599  1.00  0.00    -0.248 NA
ATOM     32  C   UNL A   1      43.069  30.759  29.368  1.00  0.00     0.031 C 
ATOM     33  C   UNL A   1      39.486  28.116  32.865  1.00  0.00     0.029 A 
ATOM     34  C   UNL A   1      40.666  28.473  32.209  1.00  0.00     0.049 A 
ATOM     35  H   UNL A   1      41.491  27.320  30.647  1.00  0.00     0.167 HD
ATOM     36  C   UNL A   1      42.404  30.094  31.489  1.00  0.00     0.074 A 
ATOM     37  C   UNL A   1      42.663  29.720  30.102  1.00  0.00     0.031 C 
ATOM     38  C   UNL A   1      41.618  29.534  32.455  1.00  0.00     0.031 A 
BRANCH  25  39
ATOM     39  C   UNL A   1      39.702  26.588  28.342  1.00  0.00    -0.014 A 
ATOM     40  C   UNL A   1      39.327  25.229  28.293  1.00  0.00     0.010 A 
ATOM     41  C   UNL A   1      40.868  26.956  27.641  1.00  0.00     0.010 A 
ATOM     42  C   UNL A   1      40.125  24.278  27.643  1.00  0.00     0.020 A 
ATOM     43  C   UNL A   1      41.645  26.025  26.950  1.00  0.00     0.020 A 
ATOM     44  C   UNL A   1      41.290  24.683  26.991  1.00  0.00     0.054 A 
BRANCH  44  45
ATOM     45  S   UNL A   1      42.386  23.435  26.272  1.00  0.00     0.124 S 
ATOM     46  O   UNL A   1      42.899  24.132  25.097  1.00  0.00    -0.237 OA
ATOM     47  O   UNL A   1      43.349  23.211  27.347  1.00  0.00    -0.237 OA
ATOM     48  O   UNL A   1      41.493  22.313  25.997  1.00  0.00    -0.744 OA
ENDBRANCH  44  45
ENDBRANCH  25  39
BRANCH  26  49
ATOM     49  C   UNL A   1      43.700  34.018  29.183  1.00  0.00    -0.014 A 
ATOM     50  C   UNL A   1      45.008  34.198  29.667  1.00  0.00     0.010 A 
ATOM     51  C   UNL A   1      43.435  34.402  27.852  1.00  0.00     0.010 A 
ATOM     52  C   UNL A   1      46.027  34.687  28.830  1.00  0.00     0.020 A 
ATOM     53  C   UNL A   1      44.440  34.900  27.018  1.00  0.00     0.020 A 
ATOM     54  C   UNL A   1      45.739  35.017  27.503  1.00  0.00     0.054 A 
BRANCH  54  55
ATOM     55  S   UNL A   1      47.090  35.472  26.378  1.00  0.00     0.124 S 
ATOM     56  O   UNL A   1      46.707  36.816  25.960  1.00  0.00    -0.237 OA
ATOM     57  O   UNL A   1      48.265  35.387  27.241  1.00  0.00    -0.237 OA
ATOM     58  O   UNL A   1      47.022  34.454  25.330  1.00  0.00    -0.744 OA
ENDBRANCH  54  55
ENDBRANCH  26  49
BRANCH  38  59
ATOM     59  C   UNL A   1      41.516  30.225  33.794  1.00  0.00    -0.014 A 
ATOM     60  C   UNL A   1      42.396  29.980  34.865  1.00  0.00     0.010 A 
ATOM     61  C   UNL A   1      40.586  31.275  33.915  1.00  0.00     0.010 A 
ATOM     62  C   UNL A   1      42.330  30.747  36.036  1.00  0.00     0.020 A 
ATOM     63  C   UNL A   1      40.530  32.056  35.072  1.00  0.00     0.020 A 
ATOM     64  C   UNL A   1      41.396  31.783  36.131  1.00  0.00     0.054 A 
BRANCH  64  65
ATOM     65  S   UNL A   1      41.360  32.812  37.625  1.00  0.00     0.124 S 
ATOM     66  O   UNL A   1      42.404  33.796  37.356  1.00  0.00    -0.237 OA
ATOM     67  O   UNL A   1      39.993  33.328  37.629  1.00  0.00    -0.237 OA
ATOM     68  O   UNL A   1      41.659  31.870  38.703  1.00  0.00    -0.744 OA
ENDBRANCH  64  65
ENDBRANCH  38  59
ENDBRANCH  12  13
ENDBRANCH   5   7
ENDBRANCH   2   3
ENDBRANCH   1   2
BRANCH   1  69
ATOM     69  C   UNL A   1      32.770  30.848  27.075  1.00  0.00     0.023 C 
BRANCH  69  70
ATOM     70  C   UNL A   1      32.586  29.482  26.436  1.00  0.00     0.116 C 
BRANCH  70  71
ATOM     71  N   UNL A   1      33.489  29.136  25.345  1.00  0.00    -0.354 N 
ATOM     72  C   UNL A   1      33.359  28.326  24.245  1.00  0.00     0.246 C 
ATOM     73  H   UNL A   1      34.370  29.570  25.411  1.00  0.00     0.163 HD
ATOM     74  O   UNL A   1      34.126  28.602  23.310  1.00  0.00    -0.272 OA
BRANCH  72  75
ATOM     75  C   UNL A   1      32.419  27.071  24.114  1.00  0.00     0.127 C 
ATOM     76  C   UNL A   1      32.213  26.408  25.526  1.00  0.00     0.061 C 
ATOM     77  C   UNL A   1      32.905  25.929  23.228  1.00  0.00     0.061 C 
ATOM     78  C   UNL A   1      33.420  25.601  26.042  1.00  0.00     0.122 C 
ATOM     79  C   UNL A   1      34.202  25.379  23.745  1.00  0.00     0.122 C 
ATOM     80  N   UNL A   1      34.052  24.763  25.020  1.00  0.00    -0.342 N 
ATOM     81  C   UNL A   1      34.926  23.747  25.415  1.00  0.00     0.233 C 
ATOM     82  O   UNL A   1      35.236  23.605  26.595  1.00  0.00    -0.274 OA
BRANCH  75  83
ATOM     83  N   UNL A   1      31.100  27.555  23.618  1.00  0.00    -0.322 N 
ATOM     84  C   UNL A   1      30.868  28.711  22.912  1.00  0.00     0.108 A 
ATOM     85  C   UNL A   1      29.875  26.967  23.805  1.00  0.00     0.200 A 
ATOM     86  C   UNL A   1      29.504  28.780  22.753  1.00  0.00     0.130 A 
ATOM     87  N   UNL A   1      28.897  27.699  23.325  1.00  0.00    -0.245 NA
ENDBRANCH  75  83
BRANCH  81  88
ATOM     88  C   UNL A   1      35.440  22.710  24.406  1.00  0.00     0.074 C 
ATOM     89  C   UNL A   1      36.489  22.839  23.287  1.00  0.00     0.023 C 
ATOM     90  C   UNL A   1      36.921  22.350  24.618  1.00  0.00     0.023 C 
BRANCH  88  91
ATOM     91  C   UNL A   1      34.434  21.570  24.199  1.00  0.00    -0.032 A 
ATOM     92  C   UNL A   1      33.280  21.736  23.413  1.00  0.00     0.005 A 
ATOM     93  C   UNL A   1      34.599  20.340  24.860  1.00  0.00     0.005 A 
ATOM     94  C   UNL A   1      32.321  20.725  23.315  1.00  0.00     0.000 A 
ATOM     95  C   UNL A   1      33.641  19.332  24.773  1.00  0.00     0.000 A 
ATOM     96  C   UNL A   1      32.496  19.528  24.005  1.00  0.00     0.000 A 
ENDBRANCH  88  91
ENDBRANCH  81  88
ENDBRANCH  72  75
ENDBRANCH  70  71
ENDBRANCH  69  70
ENDBRANCH   1  69
TORSDOF 17
ENDMDL
MODEL 3
REMARK VINA RESULT:     -12.2      2.502      9.353
REMARK SMILES O=C(NCCCCNC(=O)C1(n2ccnc2)CCN(C(=O)C2(c3ccccc3)CC2)CC1)c1ccc(-c2c3nc(c(-c4ccc(S(=O)(=O)[O-])cc4)c4ccc([nH]4)c(-c4ccc(S(=O)(=O)[O-])cc4)c4nc(c(-c5ccc(S(=O)(=O)[O-])cc5)c5ccc2[nH]5)C=C4)C=C3)cc1
REMARK SMILES IDX 5 1 4 2 3 3 1 4 2 5 33 7 34 8 92 9 35 10 91 11 36 12 37 13
REMARK SMILES IDX 38 14 85 15 39 16 90 17 84 18 86 19 40 20 89 21 83 22 82 23
REMARK SMILES IDX 41 25 71 26 52 27 70 28 53 29 56 30 69 31 87 32 54 33 55 34
REMARK SMILES IDX 68 36 88 37 57 38 42 39 43 40 51 41 44 42 50 43 45 44 46 45
REMARK SMILES IDX 47 46 48 47 49 48 72 49 73 50 81 51 74 52 80 53 75 54 76 55
REMARK SMILES IDX 77 56 78 57 79 58 58 59 59 60 67 61 60 62 66 63 61 64 62 65
REMARK SMILES IDX 63 66 64 67 65 68 6 69 7 70 8 71 9 72 10 74 11 75 17 76
REMARK SMILES IDX 32 77 18 78 31 79 19 80 20 81 21 82 12 83 13 84 16 85 14 86
REMARK SMILES IDX 15 87 22 88 29 89 30 90 23 91 24 92 28 93 25 94 27 95 26 96
REMARK H PARENT 3 6 86 24 56 35 8 73
REMARK Flexibility Score: inf
ROOT
ATOM      1  C   UNL A   1      34.275  30.704  27.445  1.00  0.00     0.023 C 
ENDROOT
BRANCH   1   2
ATOM      2  C   UNL A   1      34.268  32.124  28.027  1.00  0.00     0.116 C 
BRANCH   2   3
ATOM      3  N   UNL A   1      34.023  32.258  29.454  1.00  0.00    -0.352 N 
ATOM      4  O   UNL A   1      34.298  32.628  31.619  1.00  0.00    -0.269 OA
ATOM      5  C   UNL A   1      34.815  32.229  30.572  1.00  0.00     0.251 C 
ATOM      6  H   UNL A   1      33.073  32.404  29.665  1.00  0.00     0.163 HD
BRANCH   5   7
ATOM      7  C   UNL A   1      36.194  31.677  30.616  1.00  0.00     0.039 A 
ATOM      8  C   UNL A   1      37.348  32.438  30.783  1.00  0.00     0.014 A 
ATOM      9  C   UNL A   1      36.322  30.286  30.444  1.00  0.00     0.014 A 
ATOM     10  C   UNL A   1      38.601  31.856  30.640  1.00  0.00     0.010 A 
ATOM     11  C   UNL A   1      37.574  29.688  30.345  1.00  0.00     0.010 A 
ATOM     12  C   UNL A   1      38.715  30.485  30.400  1.00  0.00    -0.014 A 
BRANCH  12  13
ATOM     13  C   UNL A   1      40.061  29.920  30.366  1.00  0.00     0.031 A 
ATOM     14  C   UNL A   1      40.680  29.692  31.703  1.00  0.00     0.074 A 
ATOM     15  C   UNL A   1      40.678  29.497  29.248  1.00  0.00     0.049 A 
ATOM     16  N   UNL A   1      41.750  30.226  32.197  1.00  0.00    -0.248 NA
ATOM     17  C   UNL A   1      39.950  28.829  32.645  1.00  0.00     0.031 C 
ATOM     18  C   UNL A   1      40.110  29.356  27.906  1.00  0.00     0.029 A 
ATOM     19  N   UNL A   1      41.934  28.981  29.113  1.00  0.00    -0.354 N 
ATOM     20  C   UNL A   1      41.934  29.633  33.445  1.00  0.00     0.074 A 
ATOM     21  C   UNL A   1      40.730  28.891  33.723  1.00  0.00     0.031 C 
ATOM     22  C   UNL A   1      40.927  28.576  27.164  1.00  0.00     0.029 A 
ATOM     23  C   UNL A   1      42.126  28.279  27.931  1.00  0.00     0.049 A 
ATOM     24  H   UNL A   1      42.638  29.096  29.790  1.00  0.00     0.167 HD
ATOM     25  C   UNL A   1      43.135  29.628  34.087  1.00  0.00     0.031 A 
ATOM     26  C   UNL A   1      43.155  27.444  27.643  1.00  0.00     0.031 A 
ATOM     27  C   UNL A   1      44.062  30.568  33.525  1.00  0.00     0.049 A 
ATOM     28  C   UNL A   1      44.272  27.762  28.565  1.00  0.00     0.074 A 
ATOM     29  C   UNL A   1      44.093  31.940  33.368  1.00  0.00     0.029 A 
ATOM     30  N   UNL A   1      45.048  30.071  32.706  1.00  0.00    -0.354 N 
ATOM     31  N   UNL A   1      44.947  28.876  28.526  1.00  0.00    -0.248 NA
ATOM     32  C   UNL A   1      44.394  27.005  29.801  1.00  0.00     0.031 C 
ATOM     33  C   UNL A   1      44.761  32.153  32.127  1.00  0.00     0.029 A 
ATOM     34  C   UNL A   1      45.131  30.905  31.622  1.00  0.00     0.049 A 
ATOM     35  H   UNL A   1      45.591  29.266  32.868  1.00  0.00     0.167 HD
ATOM     36  C   UNL A   1      45.234  29.167  29.851  1.00  0.00     0.074 A 
ATOM     37  C   UNL A   1      44.968  27.928  30.576  1.00  0.00     0.031 C 
ATOM     38  C   UNL A   1      45.396  30.456  30.272  1.00  0.00     0.031 A 
BRANCH  25  39
ATOM     39  C   UNL A   1      43.597  28.506  34.987  1.00  0.00    -0.014 A 
ATOM     40  C   UNL A   1      44.096  28.818  36.270  1.00  0.00     0.010 A 
ATOM     41  C   UNL A   1      43.829  27.200  34.510  1.00  0.00     0.010 A 
ATOM     42  C   UNL A   1      44.858  27.894  36.998  1.00  0.00     0.020 A 
ATOM     43  C   UNL A   1      44.546  26.256  35.248  1.00  0.00     0.020 A 
ATOM     44  C   UNL A   1      45.092  26.624  36.470  1.00  0.00     0.054 A 
BRANCH  44  45
ATOM     45  S   UNL A   1      46.188  25.485  37.351  1.00  0.00     0.124 S 
ATOM     46  O   UNL A   1      45.240  24.729  38.164  1.00  0.00    -0.237 OA
ATOM     47  O   UNL A   1      46.815  24.748  36.257  1.00  0.00    -0.237 OA
ATOM     48  O   UNL A   1      47.081  26.373  38.091  1.00  0.00    -0.744 OA
ENDBRANCH  44  45
ENDBRANCH  25  39
BRANCH  26  49
ATOM     49  C   UNL A   1      43.108  26.194  26.844  1.00  0.00    -0.014 A 
ATOM     50  C   UNL A   1      43.762  26.101  25.602  1.00  0.00     0.010 A 
ATOM     51  C   UNL A   1      42.646  24.999  27.433  1.00  0.00     0.010 A 
ATOM     52  C   UNL A   1      43.997  24.851  25.003  1.00  0.00     0.020 A 
ATOM     53  C   UNL A   1      42.866  23.754  26.836  1.00  0.00     0.020 A 
ATOM     54  C   UNL A   1      43.564  23.683  25.635  1.00  0.00     0.054 A 
BRANCH  54  55
ATOM     55  S   UNL A   1      44.031  22.066  24.951  1.00  0.00     0.124 S 
ATOM     56  O   UNL A   1      45.263  21.768  25.674  1.00  0.00    -0.237 OA
ATOM     57  O   UNL A   1      42.880  21.234  25.289  1.00  0.00    -0.237 OA
ATOM     58  O   UNL A   1      44.198  22.333  23.523  1.00  0.00    -0.744 OA
ENDBRANCH  54  55
ENDBRANCH  26  49
BRANCH  38  59
ATOM     59  C   UNL A   1      45.592  31.536  29.235  1.00  0.00    -0.014 A 
ATOM     60  C   UNL A   1      46.853  31.923  28.745  1.00  0.00     0.010 A 
ATOM     61  C   UNL A   1      44.441  32.068  28.625  1.00  0.00     0.010 A 
ATOM     62  C   UNL A   1      46.960  32.840  27.689  1.00  0.00     0.020 A 
ATOM     63  C   UNL A   1      44.541  32.966  27.560  1.00  0.00     0.020 A 
ATOM     64  C   UNL A   1      45.800  33.354  27.102  1.00  0.00     0.054 A 
BRANCH  64  65
ATOM     65  S   UNL A   1      45.946  34.490  25.695  1.00  0.00     0.124 S 
ATOM     66  O   UNL A   1      45.547  35.768  26.277  1.00  0.00    -0.237 OA
ATOM     67  O   UNL A   1      47.357  34.376  25.332  1.00  0.00    -0.237 OA
ATOM     68  O   UNL A   1      45.016  33.942  24.708  1.00  0.00    -0.744 OA
ENDBRANCH  64  65
ENDBRANCH  38  59
ENDBRANCH  12  13
ENDBRANCH   5   7
ENDBRANCH   2   3
ENDBRANCH   1   2
BRANCH   1  69
ATOM     69  C   UNL A   1      32.923  30.039  27.200  1.00  0.00     0.023 C 
BRANCH  69  70
ATOM     70  C   UNL A   1      32.448  29.991  25.758  1.00  0.00     0.116 C 
BRANCH  70  71
ATOM     71  N   UNL A   1      33.385  29.467  24.771  1.00  0.00    -0.354 N 
ATOM     72  C   UNL A   1      33.288  28.482  23.821  1.00  0.00     0.246 C 
ATOM     73  H   UNL A   1      34.264  29.909  24.791  1.00  0.00     0.163 HD
ATOM     74  O   UNL A   1      34.085  28.596  22.877  1.00  0.00    -0.272 OA
BRANCH  72  75
ATOM     75  C   UNL A   1      32.348  27.221  23.874  1.00  0.00     0.127 C 
ATOM     76  C   UNL A   1      32.256  26.686  25.352  1.00  0.00     0.061 C 
ATOM     77  C   UNL A   1      32.771  26.004  23.058  1.00  0.00     0.061 C 
ATOM     78  C   UNL A   1      33.505  25.927  25.841  1.00  0.00     0.122 C 
ATOM     79  C   UNL A   1      34.108  25.502  23.519  1.00  0.00     0.122 C 
ATOM     80  N   UNL A   1      34.061  25.001  24.851  1.00  0.00    -0.342 N 
ATOM     81  C   UNL A   1      34.970  24.023  25.266  1.00  0.00     0.233 C 
ATOM     82  O   UNL A   1      35.371  23.987  26.425  1.00  0.00    -0.274 OA
BRANCH  75  83
ATOM     83  N   UNL A   1      30.992  27.659  23.442  1.00  0.00    -0.322 N 
ATOM     84  C   UNL A   1      30.700  28.735  22.637  1.00  0.00     0.108 A 
ATOM     85  C   UNL A   1      29.787  27.105  23.794  1.00  0.00     0.200 A 
ATOM     86  C   UNL A   1      29.328  28.797  22.587  1.00  0.00     0.130 A 
ATOM     87  N   UNL A   1      28.772  27.790  23.321  1.00  0.00    -0.245 NA
ENDBRANCH  75  83
BRANCH  81  88
ATOM     88  C   UNL A   1      35.411  22.901  24.315  1.00  0.00     0.074 C 
ATOM     89  C   UNL A   1      36.374  22.929  23.115  1.00  0.00     0.023 C 
ATOM     90  C   UNL A   1      36.904  22.556  24.448  1.00  0.00     0.023 C 
BRANCH  88  91
ATOM     91  C   UNL A   1      34.395  21.751  24.283  1.00  0.00    -0.032 A 
ATOM     92  C   UNL A   1      34.651  20.520  24.912  1.00  0.00     0.005 A 
ATOM     93  C   UNL A   1      33.202  21.870  23.548  1.00  0.00     0.005 A 
ATOM     94  C   UNL A   1      33.765  19.448  24.790  1.00  0.00     0.000 A 
ATOM     95  C   UNL A   1      32.319  20.800  23.415  1.00  0.00     0.000 A 
ATOM     96  C   UNL A   1      32.605  19.585  24.031  1.00  0.00     0.000 A 
ENDBRANCH  88  91
ENDBRANCH  81  88
ENDBRANCH  72  75
ENDBRANCH  70  71
ENDBRANCH  69  70
ENDBRANCH   1  69
TORSDOF 17
ENDMDL
