MODEL 1
REMARK VINA RESULT:     -11.3      0.000      0.000
REMARK SMILES CC(C)CCc1cc2c(cc1Cl)C=C(C(=O)NCCCCNC(=O)c1ccc(-c3c4nc(c(-c5ccc(S(=O)(=O)[O-])cc5)c5ccc([nH]5)c(-c5ccc(S(=O)(=O)[O-])cc5)c5nc(c(-c6ccc(S(=O)(=O)[O-])cc6)c6ccc3[nH]6)C=C5)C=C4)cc1)[C@@H](C(F)(F)F)O2
REMARK SMILES IDX 19 1 18 2 17 3 15 4 16 5 14 7 6 8 7 9 11 10 8 11 10 12 12 13
REMARK SMILES IDX 9 14 90 15 13 16 85 17 5 18 4 19 2 20 1 21 3 22 86 23 87 24
REMARK SMILES IDX 88 25 89 26 20 27 21 28 22 29 23 30 24 32 25 33 26 34 84 35
REMARK SMILES IDX 27 36 83 37 28 38 29 39 30 40 77 41 31 42 82 43 76 44 78 45
REMARK SMILES IDX 32 46 81 47 75 48 74 49 33 51 63 52 44 53 62 54 45 55 48 56
REMARK SMILES IDX 61 57 79 58 46 59 47 60 60 62 80 63 49 64 34 65 35 66 43 67
REMARK SMILES IDX 36 68 42 69 37 70 38 71 39 72 40 73 41 74 64 75 65 76 73 77
REMARK SMILES IDX 66 78 72 79 67 80 68 81 69 82 70 83 71 84 50 85 51 86 59 87
REMARK SMILES IDX 52 88 58 89 53 90 54 91 55 92 56 93 57 94
REMARK H PARENT 17 6 22 31 78 50 48 61
REMARK Flexibility Score: inf
ROOT
ATOM      1  C   UNL A   1      31.566  28.980  26.164  1.00  0.00     0.023 C 
ENDROOT
BRANCH   1   2
ATOM      2  C   UNL A   1      31.447  28.473  24.730  1.00  0.00     0.116 C 
BRANCH   2   3
ATOM      3  N   UNL A   1      30.175  27.815  24.485  1.00  0.00    -0.352 N 
ATOM      4  C   UNL A   1      29.745  26.559  24.221  1.00  0.00     0.251 C 
ATOM      5  O   UNL A   1      28.522  26.436  24.084  1.00  0.00    -0.270 OA
ATOM      6  H   UNL A   1      29.426  28.454  24.520  1.00  0.00     0.163 HD
BRANCH   4   7
ATOM      7  C   UNL A   1      30.619  25.356  24.090  1.00  0.00     0.067 C 
ATOM      8  C   UNL A   1      33.532  21.338  25.071  1.00  0.00    -0.026 A 
ATOM      9  C   UNL A   1      32.874  21.833  23.934  1.00  0.00     0.052 A 
ATOM     10  C   UNL A   1      33.410  22.055  26.273  1.00  0.00     0.045 A 
ATOM     11  C   UNL A   1      32.101  22.988  24.004  1.00  0.00     0.128 A 
ATOM     12  C   UNL A   1      32.635  23.221  26.336  1.00  0.00     0.032 A 
ATOM     13  Cl  UNL A   1      34.192  21.537  27.724  1.00  0.00    -0.084 Cl
ATOM     14  C   UNL A   1      31.967  23.686  25.200  1.00  0.00     0.019 A 
ATOM     15  O   UNL A   1      31.444  23.345  22.862  1.00  0.00    -0.475 OA
ATOM     16  C   UNL A   1      31.097  24.853  25.245  1.00  0.00     0.025 C 
ATOM     17  C   UNL A   1      31.005  24.728  22.780  1.00  0.00     0.314 C 
BRANCH   8  18
ATOM     18  C   UNL A   1      34.280  20.031  24.949  1.00  0.00     0.037 C 
BRANCH  18  19
ATOM     19  C   UNL A   1      33.362  18.815  24.742  1.00  0.00     0.008 C 
BRANCH  19  20
ATOM     20  C   UNL A   1      33.640  17.973  23.479  1.00  0.00    -0.017 C 
ATOM     21  C   UNL A   1      33.960  16.512  23.804  1.00  0.00     0.007 C 
ATOM     22  C   UNL A   1      32.433  18.033  22.538  1.00  0.00     0.007 C 
ENDBRANCH  19  20
ENDBRANCH  18  19
ENDBRANCH   8  18
BRANCH  17  23
ATOM     23  C   UNL A   1      32.071  25.541  22.023  1.00  0.00     0.429 C 
ATOM     24  F   UNL A   1      32.747  24.743  21.157  1.00  0.00    -0.167 F 
ATOM     25  F   UNL A   1      31.540  26.543  21.287  1.00  0.00    -0.167 F 
ATOM     26  F   UNL A   1      32.984  26.099  22.850  1.00  0.00    -0.167 F 
ENDBRANCH  17  23
ENDBRANCH   4   7
ENDBRANCH   2   3
ENDBRANCH   1   2
BRANCH   1  27
ATOM     27  C   UNL A   1      32.661  28.295  26.985  1.00  0.00     0.023 C 
BRANCH  27  28
ATOM     28  C   UNL A   1      34.006  29.017  27.020  1.00  0.00     0.116 C 
BRANCH  28  29
ATOM     29  N   UNL A   1      34.011  30.243  27.809  1.00  0.00    -0.352 N 
ATOM     30  C   UNL A   1      35.058  30.762  28.542  1.00  0.00     0.251 C 
ATOM     31  H   UNL A   1      33.173  30.759  27.820  1.00  0.00     0.163 HD
ATOM     32  O   UNL A   1      34.920  31.781  29.210  1.00  0.00    -0.269 OA
BRANCH  30  33
ATOM     33  C   UNL A   1      36.332  30.019  28.545  1.00  0.00     0.039 A 
ATOM     34  C   UNL A   1      36.750  29.368  29.708  1.00  0.00     0.014 A 
ATOM     35  C   UNL A   1      37.173  30.113  27.434  1.00  0.00     0.014 A 
ATOM     36  C   UNL A   1      38.076  28.973  29.822  1.00  0.00     0.010 A 
ATOM     37  C   UNL A   1      38.485  29.649  27.528  1.00  0.00     0.010 A 
ATOM     38  C   UNL A   1      38.965  29.136  28.745  1.00  0.00    -0.014 A 
BRANCH  38  39
ATOM     39  C   UNL A   1      40.401  28.815  28.933  1.00  0.00     0.031 A 
ATOM     40  C   UNL A   1      41.298  29.746  29.706  1.00  0.00     0.074 A 
ATOM     41  C   UNL A   1      40.876  27.639  28.482  1.00  0.00     0.049 A 
ATOM     42  N   UNL A   1      42.567  29.608  29.999  1.00  0.00    -0.248 NA
ATOM     43  C   UNL A   1      40.700  30.990  30.222  1.00  0.00     0.031 C 
ATOM     44  C   UNL A   1      40.090  26.640  27.756  1.00  0.00     0.029 A 
ATOM     45  N   UNL A   1      42.117  27.068  28.600  1.00  0.00    -0.354 N 
ATOM     46  C   UNL A   1      42.922  30.747  30.711  1.00  0.00     0.074 A 
ATOM     47  C   UNL A   1      41.742  31.580  30.793  1.00  0.00     0.031 C 
ATOM     48  C   UNL A   1      40.847  25.551  27.556  1.00  0.00     0.029 A 
ATOM     49  C   UNL A   1      42.187  25.798  28.079  1.00  0.00     0.049 A 
ATOM     50  H   UNL A   1      42.884  27.523  29.018  1.00  0.00     0.167 HD
ATOM     51  C   UNL A   1      44.120  31.065  31.255  1.00  0.00     0.031 A 
ATOM     52  C   UNL A   1      43.213  24.926  28.022  1.00  0.00     0.031 A 
ATOM     53  C   UNL A   1      45.287  30.225  31.186  1.00  0.00     0.049 A 
ATOM     54  C   UNL A   1      44.541  25.316  28.599  1.00  0.00     0.074 A 
ATOM     55  C   UNL A   1      46.549  30.469  31.701  1.00  0.00     0.029 A 
ATOM     56  N   UNL A   1      45.335  28.980  30.580  1.00  0.00    -0.354 N 
ATOM     57  N   UNL A   1      44.866  26.417  29.232  1.00  0.00    -0.248 NA
ATOM     58  C   UNL A   1      45.642  24.357  28.443  1.00  0.00     0.031 C 
ATOM     59  C   UNL A   1      47.371  29.390  31.369  1.00  0.00     0.029 A 
ATOM     60  C   UNL A   1      46.608  28.450  30.694  1.00  0.00     0.049 A 
ATOM     61  H   UNL A   1      44.576  28.539  30.135  1.00  0.00     0.167 HD
ATOM     62  C   UNL A   1      46.211  26.286  29.551  1.00  0.00     0.074 A 
ATOM     63  C   UNL A   1      46.635  24.990  29.058  1.00  0.00     0.031 C 
ATOM     64  C   UNL A   1      47.021  27.165  30.188  1.00  0.00     0.031 A 
BRANCH  51  65
ATOM     65  C   UNL A   1      44.250  32.384  31.968  1.00  0.00    -0.014 A 
ATOM     66  C   UNL A   1      44.682  33.520  31.258  1.00  0.00     0.010 A 
ATOM     67  C   UNL A   1      44.045  32.480  33.355  1.00  0.00     0.010 A 
ATOM     68  C   UNL A   1      44.924  34.724  31.925  1.00  0.00     0.020 A 
ATOM     69  C   UNL A   1      44.265  33.689  34.022  1.00  0.00     0.020 A 
ATOM     70  C   UNL A   1      44.722  34.798  33.306  1.00  0.00     0.054 A 
BRANCH  70  71
ATOM     71  S   UNL A   1      45.037  36.368  34.160  1.00  0.00     0.124 S 
ATOM     72  O   UNL A   1      45.161  37.305  33.049  1.00  0.00    -0.237 OA
ATOM     73  O   UNL A   1      43.847  36.528  34.993  1.00  0.00    -0.237 OA
ATOM     74  O   UNL A   1      46.270  36.106  34.901  1.00  0.00    -0.744 OA
ENDBRANCH  70  71
ENDBRANCH  51  65
BRANCH  52  75
ATOM     75  C   UNL A   1      42.985  23.595  27.402  1.00  0.00    -0.014 A 
ATOM     76  C   UNL A   1      42.390  22.559  28.144  1.00  0.00     0.010 A 
ATOM     77  C   UNL A   1      43.469  23.325  26.111  1.00  0.00     0.010 A 
ATOM     78  C   UNL A   1      42.339  21.261  27.634  1.00  0.00     0.020 A 
ATOM     79  C   UNL A   1      43.397  22.031  25.586  1.00  0.00     0.020 A 
ATOM     80  C   UNL A   1      42.863  21.001  26.365  1.00  0.00     0.054 A 
BRANCH  80  81
ATOM     81  S   UNL A   1      42.854  19.297  25.744  1.00  0.00     0.124 S 
ATOM     82  O   UNL A   1      43.631  19.426  24.514  1.00  0.00    -0.237 OA
ATOM     83  O   UNL A   1      43.503  18.554  26.822  1.00  0.00    -0.237 OA
ATOM     84  O   UNL A   1      41.434  19.011  25.562  1.00  0.00    -0.744 OA
ENDBRANCH  80  81
ENDBRANCH  52  75
BRANCH  64  85
ATOM     85  C   UNL A   1      48.459  26.780  30.391  1.00  0.00    -0.014 A 
ATOM     86  C   UNL A   1      48.837  26.072  31.546  1.00  0.00     0.010 A 
ATOM     87  C   UNL A   1      49.451  27.228  29.502  1.00  0.00     0.010 A 
ATOM     88  C   UNL A   1      50.186  25.844  31.826  1.00  0.00     0.020 A 
ATOM     89  C   UNL A   1      50.800  26.984  29.769  1.00  0.00     0.020 A 
ATOM     90  C   UNL A   1      51.160  26.313  30.942  1.00  0.00     0.054 A 
BRANCH  90  91
ATOM     91  S   UNL A   1      52.910  26.035  31.331  1.00  0.00     0.124 S 
ATOM     92  O   UNL A   1      53.249  27.233  32.090  1.00  0.00    -0.237 OA
ATOM     93  O   UNL A   1      52.878  24.791  32.096  1.00  0.00    -0.237 OA
ATOM     94  O   UNL A   1      53.537  25.930  30.014  1.00  0.00    -0.744 OA
ENDBRANCH  90  91
ENDBRANCH  64  85
ENDBRANCH  38  39
ENDBRANCH  30  33
ENDBRANCH  28  29
ENDBRANCH  27  28
ENDBRANCH   1  27
TORSDOF 18
ENDMDL
MODEL 2
REMARK VINA RESULT:     -11.0      3.173      8.682
REMARK SMILES CC(C)CCc1cc2c(cc1Cl)C=C(C(=O)NCCCCNC(=O)c1ccc(-c3c4nc(c(-c5ccc(S(=O)(=O)[O-])cc5)c5ccc([nH]5)c(-c5ccc(S(=O)(=O)[O-])cc5)c5nc(c(-c6ccc(S(=O)(=O)[O-])cc6)c6ccc3[nH]6)C=C5)C=C4)cc1)[C@@H](C(F)(F)F)O2
REMARK SMILES IDX 19 1 18 2 17 3 15 4 16 5 14 7 6 8 7 9 11 10 8 11 10 12 12 13
REMARK SMILES IDX 9 14 90 15 13 16 85 17 5 18 4 19 2 20 1 21 3 22 86 23 87 24
REMARK SMILES IDX 88 25 89 26 20 27 21 28 22 29 23 30 24 32 25 33 26 34 84 35
REMARK SMILES IDX 27 36 83 37 28 38 29 39 30 40 77 41 31 42 82 43 76 44 78 45
REMARK SMILES IDX 32 46 81 47 75 48 74 49 33 51 63 52 44 53 62 54 45 55 48 56
REMARK SMILES IDX 61 57 79 58 46 59 47 60 60 62 80 63 49 64 34 65 35 66 43 67
REMARK SMILES IDX 36 68 42 69 37 70 38 71 39 72 40 73 41 74 64 75 65 76 73 77
REMARK SMILES IDX 66 78 72 79 67 80 68 81 69 82 70 83 71 84 50 85 51 86 59 87
REMARK SMILES IDX 52 88 58 89 53 90 54 91 55 92 56 93 57 94
REMARK H PARENT 17 6 22 31 78 50 48 61
REMARK Flexibility Score: inf
ROOT
ATOM      1  C   UNL A   1      35.373  23.248  24.127  1.00  0.00     0.023 C 
ENDROOT
BRANCH   1   2
ATOM      2  C   UNL A   1      34.709  22.000  24.703  1.00  0.00     0.116 C 
BRANCH   2   3
ATOM      3  N   UNL A   1      33.694  21.459  23.815  1.00  0.00    -0.352 N 
ATOM      4  C   UNL A   1      32.537  21.885  23.260  1.00  0.00     0.251 C 
ATOM      5  O   UNL A   1      31.969  21.068  22.526  1.00  0.00    -0.270 OA
ATOM      6  H   UNL A   1      33.906  20.535  23.546  1.00  0.00     0.163 HD
BRANCH   4   7
ATOM      7  C   UNL A   1      31.922  23.230  23.468  1.00  0.00     0.067 C 
ATOM      8  C   UNL A   1      30.938  28.190  23.352  1.00  0.00    -0.026 A 
ATOM      9  C   UNL A   1      30.219  27.044  23.727  1.00  0.00     0.052 A 
ATOM     10  C   UNL A   1      32.250  28.025  22.878  1.00  0.00     0.045 A 
ATOM     11  C   UNL A   1      30.783  25.778  23.608  1.00  0.00     0.128 A 
ATOM     12  C   UNL A   1      32.815  26.747  22.766  1.00  0.00     0.032 A 
ATOM     13  Cl  UNL A   1      33.223  29.372  22.405  1.00  0.00    -0.084 Cl
ATOM     14  C   UNL A   1      32.077  25.616  23.121  1.00  0.00     0.019 A 
ATOM     15  O   UNL A   1      29.977  24.725  23.929  1.00  0.00    -0.475 OA
ATOM     16  C   UNL A   1      32.605  24.269  22.950  1.00  0.00     0.025 C 
ATOM     17  C   UNL A   1      30.648  23.470  24.228  1.00  0.00     0.314 C 
BRANCH   8  18
ATOM     18  C   UNL A   1      30.236  29.527  23.422  1.00  0.00     0.037 C 
BRANCH  18  19
ATOM     19  C   UNL A   1      29.309  29.796  22.226  1.00  0.00     0.008 C 
BRANCH  19  20
ATOM     20  C   UNL A   1      27.818  30.010  22.568  1.00  0.00    -0.017 C 
ATOM     21  C   UNL A   1      27.164  28.757  23.154  1.00  0.00     0.007 C 
ATOM     22  C   UNL A   1      27.673  31.171  23.555  1.00  0.00     0.007 C 
ENDBRANCH  19  20
ENDBRANCH  18  19
ENDBRANCH   8  18
BRANCH  17  23
ATOM     23  C   UNL A   1      30.837  23.361  25.752  1.00  0.00     0.429 C 
ATOM     24  F   UNL A   1      30.568  22.098  26.171  1.00  0.00    -0.167 F 
ATOM     25  F   UNL A   1      32.102  23.635  26.144  1.00  0.00    -0.167 F 
ATOM     26  F   UNL A   1      30.021  24.194  26.438  1.00  0.00    -0.167 F 
ENDBRANCH  17  23
ENDBRANCH   4   7
ENDBRANCH   2   3
ENDBRANCH   1   2
BRANCH   1  27
ATOM     27  C   UNL A   1      36.890  23.300  24.321  1.00  0.00     0.023 C 
BRANCH  27  28
ATOM     28  C   UNL A   1      37.391  22.892  25.704  1.00  0.00     0.116 C 
BRANCH  28  29
ATOM     29  N   UNL A   1      38.677  22.205  25.701  1.00  0.00    -0.352 N 
ATOM     30  C   UNL A   1      39.882  22.683  26.171  1.00  0.00     0.251 C 
ATOM     31  H   UNL A   1      38.686  21.297  25.321  1.00  0.00     0.163 HD
ATOM     32  O   UNL A   1      40.910  22.024  26.064  1.00  0.00    -0.269 OA
BRANCH  30  33
ATOM     33  C   UNL A   1      39.906  24.039  26.753  1.00  0.00     0.039 A 
ATOM     34  C   UNL A   1      40.595  25.060  26.097  1.00  0.00     0.014 A 
ATOM     35  C   UNL A   1      39.374  24.237  28.028  1.00  0.00     0.014 A 
ATOM     36  C   UNL A   1      40.909  26.220  26.794  1.00  0.00     0.010 A 
ATOM     37  C   UNL A   1      39.631  25.433  28.699  1.00  0.00     0.010 A 
ATOM     38  C   UNL A   1      40.457  26.406  28.111  1.00  0.00    -0.014 A 
BRANCH  38  39
ATOM     39  C   UNL A   1      40.905  27.599  28.872  1.00  0.00     0.031 A 
ATOM     40  C   UNL A   1      39.976  28.767  29.078  1.00  0.00     0.074 A 
ATOM     41  C   UNL A   1      42.119  27.591  29.451  1.00  0.00     0.049 A 
ATOM     42  N   UNL A   1      40.187  29.874  29.745  1.00  0.00    -0.248 NA
ATOM     43  C   UNL A   1      38.640  28.687  28.463  1.00  0.00     0.031 C 
ATOM     44  C   UNL A   1      43.087  26.496  29.354  1.00  0.00     0.029 A 
ATOM     45  N   UNL A   1      42.731  28.508  30.267  1.00  0.00    -0.354 N 
ATOM     46  C   UNL A   1      39.025  30.626  29.615  1.00  0.00     0.074 A 
ATOM     47  C   UNL A   1      38.116  29.861  28.790  1.00  0.00     0.031 C 
ATOM     48  C   UNL A   1      44.140  26.775  30.138  1.00  0.00     0.029 A 
ATOM     49  C   UNL A   1      43.952  28.092  30.739  1.00  0.00     0.049 A 
ATOM     50  H   UNL A   1      42.333  29.380  30.492  1.00  0.00     0.167 HD
ATOM     51  C   UNL A   1      38.740  31.839  30.144  1.00  0.00     0.031 A 
ATOM     52  C   UNL A   1      44.830  28.698  31.562  1.00  0.00     0.031 A 
ATOM     53  C   UNL A   1      39.641  32.588  30.979  1.00  0.00     0.049 A 
ATOM     54  C   UNL A   1      44.508  30.058  32.106  1.00  0.00     0.074 A 
ATOM     55  C   UNL A   1      39.441  33.832  31.554  1.00  0.00     0.029 A 
ATOM     56  N   UNL A   1      40.901  32.164  31.370  1.00  0.00    -0.354 N 
ATOM     57  N   UNL A   1      43.419  30.770  31.936  1.00  0.00    -0.248 NA
ATOM     58  C   UNL A   1      45.532  30.703  32.937  1.00  0.00     0.031 C 
ATOM     59  C   UNL A   1      40.598  34.178  32.257  1.00  0.00     0.029 A 
ATOM     60  C   UNL A   1      41.497  33.127  32.164  1.00  0.00     0.049 A 
ATOM     61  H   UNL A   1      41.311  31.305  31.118  1.00  0.00     0.167 HD
ATOM     62  C   UNL A   1      43.626  31.949  32.639  1.00  0.00     0.074 A 
ATOM     63  C   UNL A   1      44.936  31.848  33.253  1.00  0.00     0.031 C 
ATOM     64  C   UNL A   1      42.806  33.020  32.758  1.00  0.00     0.031 A 
BRANCH  51  65
ATOM     65  C   UNL A   1      37.402  32.453  29.833  1.00  0.00    -0.014 A 
ATOM     66  C   UNL A   1      37.233  33.192  28.647  1.00  0.00     0.010 A 
ATOM     67  C   UNL A   1      36.344  32.388  30.756  1.00  0.00     0.010 A 
ATOM     68  C   UNL A   1      36.037  33.869  28.397  1.00  0.00     0.020 A 
ATOM     69  C   UNL A   1      35.137  33.047  30.499  1.00  0.00     0.020 A 
ATOM     70  C   UNL A   1      34.998  33.800  29.330  1.00  0.00     0.054 A 
BRANCH  70  71
ATOM     71  S   UNL A   1      33.450  34.682  28.994  1.00  0.00     0.124 S 
ATOM     72  O   UNL A   1      32.771  33.776  28.074  1.00  0.00    -0.237 OA
ATOM     73  O   UNL A   1      32.850  34.801  30.321  1.00  0.00    -0.237 OA
ATOM     74  O   UNL A   1      33.901  35.946  28.413  1.00  0.00    -0.744 OA
ENDBRANCH  70  71
ENDBRANCH  51  65
BRANCH  52  75
ATOM     75  C   UNL A   1      46.085  27.987  31.917  1.00  0.00    -0.014 A 
ATOM     76  C   UNL A   1      47.197  28.039  31.056  1.00  0.00     0.010 A 
ATOM     77  C   UNL A   1      46.135  27.163  33.054  1.00  0.00     0.010 A 
ATOM     78  C   UNL A   1      48.311  27.230  31.288  1.00  0.00     0.020 A 
ATOM     79  C   UNL A   1      47.260  26.371  33.304  1.00  0.00     0.020 A 
ATOM     80  C   UNL A   1      48.326  26.385  32.401  1.00  0.00     0.054 A 
BRANCH  80  81
ATOM     81  S   UNL A   1      49.750  25.290  32.652  1.00  0.00     0.124 S 
ATOM     82  O   UNL A   1      50.687  26.175  33.338  1.00  0.00    -0.237 OA
ATOM     83  O   UNL A   1      49.191  24.213  33.465  1.00  0.00    -0.237 OA
ATOM     84  O   UNL A   1      50.126  24.908  31.294  1.00  0.00    -0.744 OA
ENDBRANCH  80  81
ENDBRANCH  52  75
BRANCH  64  85
ATOM     85  C   UNL A   1      43.286  34.189  33.570  1.00  0.00    -0.014 A 
ATOM     86  C   UNL A   1      43.070  34.210  34.960  1.00  0.00     0.010 A 
ATOM     87  C   UNL A   1      43.834  35.320  32.941  1.00  0.00     0.010 A 
ATOM     88  C   UNL A   1      43.369  35.353  35.705  1.00  0.00     0.020 A 
ATOM     89  C   UNL A   1      44.152  36.458  33.686  1.00  0.00     0.020 A 
ATOM     90  C   UNL A   1      43.895  36.475  35.060  1.00  0.00     0.054 A 
BRANCH  90  91
ATOM     91  S   UNL A   1      44.252  37.964  36.034  1.00  0.00     0.124 S 
ATOM     92  O   UNL A   1      43.900  39.030  35.102  1.00  0.00    -0.237 OA
ATOM     93  O   UNL A   1      43.367  37.817  37.187  1.00  0.00    -0.237 OA
ATOM     94  O   UNL A   1      45.677  37.840  36.334  1.00  0.00    -0.744 OA
ENDBRANCH  90  91
ENDBRANCH  64  85
ENDBRANCH  38  39
ENDBRANCH  30  33
ENDBRANCH  28  29
ENDBRANCH  27  28
ENDBRANCH   1  27
TORSDOF 18
ENDMDL
MODEL 3
REMARK VINA RESULT:     -10.8      4.459      5.863
REMARK SMILES CC(C)CCc1cc2c(cc1Cl)C=C(C(=O)NCCCCNC(=O)c1ccc(-c3c4nc(c(-c5ccc(S(=O)(=O)[O-])cc5)c5ccc([nH]5)c(-c5ccc(S(=O)(=O)[O-])cc5)c5nc(c(-c6ccc(S(=O)(=O)[O-])cc6)c6ccc3[nH]6)C=C5)C=C4)cc1)[C@@H](C(F)(F)F)O2
REMARK SMILES IDX 19 1 18 2 17 3 15 4 16 5 14 7 6 8 7 9 11 10 8 11 10 12 12 13
REMARK SMILES IDX 9 14 90 15 13 16 85 17 5 18 4 19 2 20 1 21 3 22 86 23 87 24
REMARK SMILES IDX 88 25 89 26 20 27 21 28 22 29 23 30 24 32 25 33 26 34 84 35
REMARK SMILES IDX 27 36 83 37 28 38 29 39 30 40 77 41 31 42 82 43 76 44 78 45
REMARK SMILES IDX 32 46 81 47 75 48 74 49 33 51 63 52 44 53 62 54 45 55 48 56
REMARK SMILES IDX 61 57 79 58 46 59 47 60 60 62 80 63 49 64 34 65 35 66 43 67
REMARK SMILES IDX 36 68 42 69 37 70 38 71 39 72 40 73 41 74 64 75 65 76 73 77
REMARK SMILES IDX 66 78 72 79 67 80 68 81 69 82 70 83 71 84 50 85 51 86 59 87
REMARK SMILES IDX 52 88 58 89 53 90 54 91 55 92 56 93 57 94
REMARK H PARENT 17 6 22 31 78 50 48 61
REMARK Flexibility Score: inf
ROOT
ATOM      1  C   UNL A   1      35.027  30.035  27.313  1.00  0.00     0.023 C 
ENDROOT
BRANCH   1   2
ATOM      2  C   UNL A   1      34.208  28.876  26.752  1.00  0.00     0.116 C 
BRANCH   2   3
ATOM      3  N   UNL A   1      32.915  28.751  27.403  1.00  0.00    -0.352 N 
ATOM      4  C   UNL A   1      31.864  27.901  27.360  1.00  0.00     0.251 C 
ATOM      5  O   UNL A   1      30.929  28.176  28.122  1.00  0.00    -0.270 OA
ATOM      6  H   UNL A   1      32.765  29.481  28.049  1.00  0.00     0.163 HD
BRANCH   4   7
ATOM      7  C   UNL A   1      31.762  26.697  26.483  1.00  0.00     0.067 C 
ATOM      8  C   UNL A   1      32.666  22.311  24.133  1.00  0.00    -0.026 A 
ATOM      9  C   UNL A   1      31.544  23.140  24.289  1.00  0.00     0.052 A 
ATOM     10  C   UNL A   1      33.871  22.702  24.740  1.00  0.00     0.045 A 
ATOM     11  C   UNL A   1      31.619  24.304  25.046  1.00  0.00     0.128 A 
ATOM     12  C   UNL A   1      33.941  23.879  25.496  1.00  0.00     0.032 A 
ATOM     13  Cl  UNL A   1      35.311  21.758  24.595  1.00  0.00    -0.084 Cl
ATOM     14  C   UNL A   1      32.809  24.680  25.662  1.00  0.00     0.019 A 
ATOM     15  O   UNL A   1      30.456  25.002  25.197  1.00  0.00    -0.475 OA
ATOM     16  C   UNL A   1      32.826  25.872  26.499  1.00  0.00     0.025 C 
ATOM     17  C   UNL A   1      30.589  26.395  25.593  1.00  0.00     0.314 C 
BRANCH   8  18
ATOM     18  C   UNL A   1      32.495  21.015  23.373  1.00  0.00     0.037 C 
BRANCH  18  19
ATOM     19  C   UNL A   1      32.378  19.781  24.282  1.00  0.00     0.008 C 
BRANCH  19  20
ATOM     20  C   UNL A   1      32.975  18.473  23.719  1.00  0.00    -0.017 C 
ATOM     21  C   UNL A   1      32.785  17.285  24.663  1.00  0.00     0.007 C 
ATOM     22  C   UNL A   1      32.339  18.154  22.363  1.00  0.00     0.007 C 
ENDBRANCH  19  20
ENDBRANCH  18  19
ENDBRANCH   8  18
BRANCH  17  23
ATOM     23  C   UNL A   1      30.562  27.273  24.329  1.00  0.00     0.429 C 
ATOM     24  F   UNL A   1      31.642  27.010  23.548  1.00  0.00    -0.167 F 
ATOM     25  F   UNL A   1      29.471  27.051  23.561  1.00  0.00    -0.167 F 
ATOM     26  F   UNL A   1      30.584  28.595  24.613  1.00  0.00    -0.167 F 
ENDBRANCH  17  23
ENDBRANCH   4   7
ENDBRANCH   2   3
ENDBRANCH   1   2
BRANCH   1  27
ATOM     27  C   UNL A   1      34.197  31.104  28.029  1.00  0.00     0.023 C 
BRANCH  27  28
ATOM     28  C   UNL A   1      34.502  32.547  27.634  1.00  0.00     0.116 C 
BRANCH  28  29
ATOM     29  N   UNL A   1      33.508  33.516  28.079  1.00  0.00    -0.352 N 
ATOM     30  C   UNL A   1      33.494  34.214  29.268  1.00  0.00     0.251 C 
ATOM     31  H   UNL A   1      32.764  33.694  27.460  1.00  0.00     0.163 HD
ATOM     32  O   UNL A   1      32.569  34.967  29.550  1.00  0.00    -0.269 OA
BRANCH  30  33
ATOM     33  C   UNL A   1      34.596  33.977  30.219  1.00  0.00     0.039 A 
ATOM     34  C   UNL A   1      35.847  34.551  29.986  1.00  0.00     0.014 A 
ATOM     35  C   UNL A   1      34.412  33.052  31.250  1.00  0.00     0.014 A 
ATOM     36  C   UNL A   1      36.954  34.062  30.668  1.00  0.00     0.010 A 
ATOM     37  C   UNL A   1      35.517  32.615  31.982  1.00  0.00     0.010 A 
ATOM     38  C   UNL A   1      36.805  33.069  31.651  1.00  0.00    -0.014 A 
BRANCH  38  39
ATOM     39  C   UNL A   1      38.014  32.481  32.279  1.00  0.00     0.031 A 
ATOM     40  C   UNL A   1      38.434  32.896  33.666  1.00  0.00     0.074 A 
ATOM     41  C   UNL A   1      38.685  31.510  31.633  1.00  0.00     0.049 A 
ATOM     42  N   UNL A   1      39.440  32.461  34.382  1.00  0.00    -0.248 NA
ATOM     43  C   UNL A   1      37.622  33.924  34.339  1.00  0.00     0.031 C 
ATOM     44  C   UNL A   1      38.345  30.999  30.303  1.00  0.00     0.029 A 
ATOM     45  N   UNL A   1      39.760  30.752  32.019  1.00  0.00    -0.354 N 
ATOM     46  C   UNL A   1      39.395  33.172  35.576  1.00  0.00     0.074 A 
ATOM     47  C   UNL A   1      38.274  34.082  35.484  1.00  0.00     0.031 C 
ATOM     48  C   UNL A   1      39.151  29.966  30.015  1.00  0.00     0.029 A 
ATOM     49  C   UNL A   1      40.103  29.783  31.106  1.00  0.00     0.049 A 
ATOM     50  H   UNL A   1      40.240  30.887  32.868  1.00  0.00     0.167 HD
ATOM     51  C   UNL A   1      40.208  33.068  36.653  1.00  0.00     0.031 A 
ATOM     52  C   UNL A   1      41.076  28.852  31.136  1.00  0.00     0.031 A 
ATOM     53  C   UNL A   1      41.311  32.149  36.746  1.00  0.00     0.049 A 
ATOM     54  C   UNL A   1      41.989  28.781  32.324  1.00  0.00     0.074 A 
ATOM     55  C   UNL A   1      42.197  31.979  37.796  1.00  0.00     0.029 A 
ATOM     56  N   UNL A   1      41.672  31.238  35.765  1.00  0.00    -0.354 N 
ATOM     57  N   UNL A   1      41.954  29.492  33.425  1.00  0.00    -0.248 NA
ATOM     58  C   UNL A   1      43.077  27.796  32.271  1.00  0.00     0.031 C 
ATOM     59  C   UNL A   1      43.120  30.995  37.433  1.00  0.00     0.029 A 
ATOM     60  C   UNL A   1      42.777  30.515  36.178  1.00  0.00     0.049 A 
ATOM     61  H   UNL A   1      41.211  31.125  34.903  1.00  0.00     0.167 HD
ATOM     62  C   UNL A   1      43.016  29.042  34.198  1.00  0.00     0.074 A 
ATOM     63  C   UNL A   1      43.663  27.984  33.448  1.00  0.00     0.031 C 
ATOM     64  C   UNL A   1      43.420  29.474  35.417  1.00  0.00     0.031 A 
BRANCH  51  65
ATOM     65  C   UNL A   1      39.956  33.977  37.825  1.00  0.00    -0.014 A 
ATOM     66  C   UNL A   1      40.605  35.223  37.893  1.00  0.00     0.010 A 
ATOM     67  C   UNL A   1      39.159  33.559  38.906  1.00  0.00     0.010 A 
ATOM     68  C   UNL A   1      40.478  36.030  39.027  1.00  0.00     0.020 A 
ATOM     69  C   UNL A   1      39.012  34.373  40.034  1.00  0.00     0.020 A 
ATOM     70  C   UNL A   1      39.688  35.594  40.096  1.00  0.00     0.054 A 
BRANCH  70  71
ATOM     71  S   UNL A   1      39.529  36.650  41.562  1.00  0.00     0.124 S 
ATOM     72  O   UNL A   1      40.886  36.639  42.100  1.00  0.00    -0.237 OA
ATOM     73  O   UNL A   1      39.084  37.923  40.997  1.00  0.00    -0.237 OA
ATOM     74  O   UNL A   1      38.527  35.957  42.370  1.00  0.00    -0.744 OA
ENDBRANCH  70  71
ENDBRANCH  51  65
BRANCH  52  75
ATOM     75  C   UNL A   1      41.201  27.912  29.992  1.00  0.00    -0.014 A 
ATOM     76  C   UNL A   1      42.219  28.090  29.037  1.00  0.00     0.010 A 
ATOM     77  C   UNL A   1      40.235  26.912  29.789  1.00  0.00     0.010 A 
ATOM     78  C   UNL A   1      42.233  27.328  27.867  1.00  0.00     0.020 A 
ATOM     79  C   UNL A   1      40.262  26.129  28.631  1.00  0.00     0.020 A 
ATOM     80  C   UNL A   1      41.241  26.366  27.662  1.00  0.00     0.054 A 
BRANCH  80  81
ATOM     81  S   UNL A   1      41.231  25.432  26.107  1.00  0.00     0.124 S 
ATOM     82  O   UNL A   1      39.847  24.968  26.049  1.00  0.00    -0.237 OA
ATOM     83  O   UNL A   1      41.597  26.444  25.119  1.00  0.00    -0.237 OA
ATOM     84  O   UNL A   1      42.233  24.394  26.330  1.00  0.00    -0.744 OA
ENDBRANCH  80  81
ENDBRANCH  52  75
BRANCH  64  85
ATOM     85  C   UNL A   1      44.627  28.823  36.031  1.00  0.00    -0.014 A 
ATOM     86  C   UNL A   1      45.913  29.301  35.722  1.00  0.00     0.010 A 
ATOM     87  C   UNL A   1      44.493  27.661  36.811  1.00  0.00     0.010 A 
ATOM     88  C   UNL A   1      47.047  28.614  36.158  1.00  0.00     0.020 A 
ATOM     89  C   UNL A   1      45.625  26.982  37.265  1.00  0.00     0.020 A 
ATOM     90  C   UNL A   1      46.896  27.450  36.916  1.00  0.00     0.054 A 
BRANCH  90  91
ATOM     91  S   UNL A   1      48.376  26.550  37.452  1.00  0.00     0.124 S 
ATOM     92  O   UNL A   1      49.416  27.147  36.621  1.00  0.00    -0.237 OA
ATOM     93  O   UNL A   1      48.450  26.865  38.877  1.00  0.00    -0.237 OA
ATOM     94  O   UNL A   1      48.055  25.156  37.148  1.00  0.00    -0.744 OA
ENDBRANCH  90  91
ENDBRANCH  64  85
ENDBRANCH  38  39
ENDBRANCH  30  33
ENDBRANCH  28  29
ENDBRANCH  27  28
ENDBRANCH   1  27
TORSDOF 18
ENDMDL
