MODEL 1
REMARK VINA RESULT:     -10.3      0.000      0.000
REMARK SMILES CCCc1nsc(N2CCO[C@H](CC(=O)NCCCCNC(=O)c3ccc(-c4c5nc(c(-c6ccc(S(=O)(=O)[O-])cc6)c6ccc([nH]6)c(-c6ccc(S(=O)(=O)[O-])cc6)c6nc(c(-c7ccc(S(=O)(=O)[O-])cc7)c7ccc4[nH]7)C=C6)C=C5)cc3)C2)n1
REMARK SMILES IDX 18 1 17 2 16 3 14 4 15 5 13 7 12 8 8 9 9 10 84 11 10 12
REMARK SMILES IDX 11 13 7 14 4 15 5 16 85 17 6 18 3 19 2 20 1 21 19 22 20 23
REMARK SMILES IDX 21 24 22 25 23 27 24 28 25 29 83 30 26 31 82 32 27 33 28 34
REMARK SMILES IDX 29 35 76 36 30 37 81 38 75 39 77 40 31 41 80 42 74 43 73 44
REMARK SMILES IDX 32 46 62 47 43 48 61 49 44 50 47 51 60 52 78 53 45 54 46 55
REMARK SMILES IDX 59 57 79 58 48 59 33 60 34 61 42 62 35 63 41 64 36 65 37 66
REMARK SMILES IDX 38 67 39 68 40 69 63 70 64 71 72 72 65 73 71 74 66 75 67 76
REMARK SMILES IDX 68 77 69 78 70 79 49 80 50 81 58 82 51 83 57 84 52 85 53 86
REMARK SMILES IDX 54 87 55 88 56 89
REMARK H PARENT 16 6 21 26 77 45 47 56
REMARK Flexibility Score: inf
ROOT
ATOM      1  C   UNL A   1      39.063  23.422  26.416  1.00  0.00     0.023 C 
ENDROOT
BRANCH   1   2
ATOM      2  C   UNL A   1      37.586  23.689  26.118  1.00  0.00     0.116 C 
BRANCH   2   3
ATOM      3  N   UNL A   1      37.333  23.679  24.689  1.00  0.00    -0.356 N 
ATOM      4  C   UNL A   1      36.598  22.807  23.939  1.00  0.00     0.222 C 
ATOM      5  O   UNL A   1      36.616  22.919  22.712  1.00  0.00    -0.275 OA
ATOM      6  H   UNL A   1      37.756  24.411  24.184  1.00  0.00     0.163 HD
BRANCH   4   7
ATOM      7  C   UNL A   1      35.741  21.754  24.604  1.00  0.00     0.133 C 
BRANCH   7   8
ATOM      8  C   UNL A   1      34.661  22.381  25.492  1.00  0.00     0.147 C 
ATOM      9  N   UNL A   1      32.753  20.919  24.862  1.00  0.00    -0.342 N 
ATOM     10  C   UNL A   1      32.111  22.030  24.160  1.00  0.00     0.147 C 
ATOM     11  C   UNL A   1      33.624  21.333  25.970  1.00  0.00     0.151 C 
ATOM     12  C   UNL A   1      33.131  23.101  23.775  1.00  0.00     0.182 C 
ATOM     13  O   UNL A   1      33.987  23.489  24.860  1.00  0.00    -0.374 OA
BRANCH   9  14
ATOM     14  C   UNL A   1      33.000  19.750  24.218  1.00  0.00     0.205 A 
ATOM     15  C   UNL A   1      33.727  17.723  23.730  1.00  0.00     0.144 A 
ATOM     16  N   UNL A   1      32.936  17.818  22.659  1.00  0.00    -0.174 NA
ATOM     17  N   UNL A   1      33.843  18.811  24.599  1.00  0.00    -0.203 NA
ATOM     18  S   UNL A   1      32.202  19.306  22.740  1.00  0.00     0.004 S 
BRANCH  15  19
ATOM     19  C   UNL A   1      34.467  16.446  23.973  1.00  0.00     0.078 C 
BRANCH  19  20
ATOM     20  C   UNL A   1      34.170  15.769  25.312  1.00  0.00     0.005 C 
ATOM     21  C   UNL A   1      32.691  15.748  25.672  1.00  0.00     0.004 C 
ENDBRANCH  19  20
ENDBRANCH  15  19
ENDBRANCH   9  14
ENDBRANCH   7   8
ENDBRANCH   4   7
ENDBRANCH   2   3
ENDBRANCH   1   2
BRANCH   1  22
ATOM     22  C   UNL A   1      39.361  21.992  26.867  1.00  0.00     0.023 C 
BRANCH  22  23
ATOM     23  C   UNL A   1      39.503  20.991  25.727  1.00  0.00     0.116 C 
BRANCH  23  24
ATOM     24  N   UNL A   1      40.330  19.840  26.062  1.00  0.00    -0.352 N 
ATOM     25  C   UNL A   1      41.644  19.824  26.477  1.00  0.00     0.251 C 
ATOM     26  H   UNL A   1      39.893  18.960  25.983  1.00  0.00     0.163 HD
ATOM     27  O   UNL A   1      42.233  18.769  26.631  1.00  0.00    -0.269 OA
BRANCH  25  28
ATOM     28  C   UNL A   1      42.337  21.115  26.683  1.00  0.00     0.039 A 
ATOM     29  C   UNL A   1      42.649  21.896  25.568  1.00  0.00     0.014 A 
ATOM     30  C   UNL A   1      42.621  21.574  27.971  1.00  0.00     0.014 A 
ATOM     31  C   UNL A   1      43.176  23.176  25.751  1.00  0.00     0.010 A 
ATOM     32  C   UNL A   1      43.078  22.875  28.153  1.00  0.00     0.010 A 
ATOM     33  C   UNL A   1      43.356  23.690  27.045  1.00  0.00    -0.014 A 
BRANCH  33  34
ATOM     34  C   UNL A   1      43.831  25.078  27.265  1.00  0.00     0.031 A 
ATOM     35  C   UNL A   1      45.277  25.422  27.037  1.00  0.00     0.074 A 
ATOM     36  C   UNL A   1      42.979  26.009  27.739  1.00  0.00     0.049 A 
ATOM     37  N   UNL A   1      45.899  26.553  27.251  1.00  0.00    -0.248 NA
ATOM     38  C   UNL A   1      46.143  24.346  26.528  1.00  0.00     0.031 C 
ATOM     39  C   UNL A   1      41.563  25.786  28.048  1.00  0.00     0.029 A 
ATOM     40  N   UNL A   1      43.182  27.328  28.055  1.00  0.00    -0.354 N 
ATOM     41  C   UNL A   1      47.227  26.322  26.917  1.00  0.00     0.074 A 
ATOM     42  C   UNL A   1      47.333  24.930  26.537  1.00  0.00     0.031 C 
ATOM     43  C   UNL A   1      41.024  26.933  28.491  1.00  0.00     0.029 A 
ATOM     44  C   UNL A   1      42.058  27.962  28.531  1.00  0.00     0.049 A 
ATOM     45  H   UNL A   1      44.051  27.779  27.951  1.00  0.00     0.167 HD
ATOM     46  C   UNL A   1      48.263  27.194  26.903  1.00  0.00     0.031 A 
ATOM     47  C   UNL A   1      41.881  29.227  28.960  1.00  0.00     0.031 A 
ATOM     48  C   UNL A   1      48.155  28.580  27.269  1.00  0.00     0.049 A 
ATOM     49  C   UNL A   1      43.045  30.180  28.929  1.00  0.00     0.074 A 
ATOM     50  C   UNL A   1      49.136  29.556  27.253  1.00  0.00     0.029 A 
ATOM     51  N   UNL A   1      46.991  29.190  27.713  1.00  0.00    -0.354 N 
ATOM     52  N   UNL A   1      44.283  29.955  28.557  1.00  0.00    -0.248 NA
ATOM     53  C   UNL A   1      42.784  31.560  29.360  1.00  0.00     0.031 C 
ATOM     54  C   UNL A   1      48.574  30.748  27.719  1.00  0.00     0.029 A 
ATOM     55  C   UNL A   1      47.232  30.527  27.981  1.00  0.00     0.049 A 
ATOM     56  H   UNL A   1      46.123  28.740  27.821  1.00  0.00     0.167 HD
ATOM     57  C   UNL A   1      44.943  31.172  28.688  1.00  0.00     0.074 A 
ATOM     58  C   UNL A   1      43.964  32.132  29.156  1.00  0.00     0.031 C 
ATOM     59  C   UNL A   1      46.243  31.467  28.444  1.00  0.00     0.031 A 
BRANCH  46  60
ATOM     60  C   UNL A   1      49.603  26.667  26.466  1.00  0.00    -0.014 A 
ATOM     61  C   UNL A   1      50.442  25.994  27.374  1.00  0.00     0.010 A 
ATOM     62  C   UNL A   1      50.021  26.821  25.132  1.00  0.00     0.010 A 
ATOM     63  C   UNL A   1      51.693  25.524  26.967  1.00  0.00     0.020 A 
ATOM     64  C   UNL A   1      51.261  26.328  24.715  1.00  0.00     0.020 A 
ATOM     65  C   UNL A   1      52.097  25.699  25.641  1.00  0.00     0.054 A 
BRANCH  65  66
ATOM     66  S   UNL A   1      53.720  25.068  25.136  1.00  0.00     0.124 S 
ATOM     67  O   UNL A   1      53.527  23.624  25.248  1.00  0.00    -0.237 OA
ATOM     68  O   UNL A   1      53.855  25.578  23.773  1.00  0.00    -0.237 OA
ATOM     69  O   UNL A   1      54.638  25.651  26.109  1.00  0.00    -0.744 OA
ENDBRANCH  65  66
ENDBRANCH  46  60
BRANCH  47  70
ATOM     70  C   UNL A   1      40.546  29.670  29.444  1.00  0.00    -0.014 A 
ATOM     71  C   UNL A   1      39.525  29.989  28.533  1.00  0.00     0.010 A 
ATOM     72  C   UNL A   1      40.288  29.770  30.823  1.00  0.00     0.010 A 
ATOM     73  C   UNL A   1      38.277  30.424  28.990  1.00  0.00     0.020 A 
ATOM     74  C   UNL A   1      39.034  30.179  31.284  1.00  0.00     0.020 A 
ATOM     75  C   UNL A   1      38.040  30.518  30.364  1.00  0.00     0.054 A 
BRANCH  75  76
ATOM     76  S   UNL A   1      36.401  31.043  30.938  1.00  0.00     0.124 S 
ATOM     77  O   UNL A   1      36.077  30.007  31.913  1.00  0.00    -0.237 OA
ATOM     78  O   UNL A   1      36.666  32.370  31.488  1.00  0.00    -0.237 OA
ATOM     79  O   UNL A   1      35.594  31.032  29.720  1.00  0.00    -0.744 OA
ENDBRANCH  75  76
ENDBRANCH  47  70
BRANCH  59  80
ATOM     80  C   UNL A   1      46.676  32.894  28.645  1.00  0.00    -0.014 A 
ATOM     81  C   UNL A   1      47.223  33.322  29.866  1.00  0.00     0.010 A 
ATOM     82  C   UNL A   1      46.586  33.803  27.575  1.00  0.00     0.010 A 
ATOM     83  C   UNL A   1      47.645  34.644  30.025  1.00  0.00     0.020 A 
ATOM     84  C   UNL A   1      47.029  35.119  27.721  1.00  0.00     0.020 A 
ATOM     85  C   UNL A   1      47.544  35.535  28.952  1.00  0.00     0.054 A 
BRANCH  85  86
ATOM     86  S   UNL A   1      48.142  37.234  29.166  1.00  0.00     0.124 S 
ATOM     87  O   UNL A   1      49.570  37.089  28.901  1.00  0.00    -0.237 OA
ATOM     88  O   UNL A   1      47.386  37.971  28.157  1.00  0.00    -0.237 OA
ATOM     89  O   UNL A   1      47.793  37.551  30.549  1.00  0.00    -0.744 OA
ENDBRANCH  85  86
ENDBRANCH  59  80
ENDBRANCH  33  34
ENDBRANCH  25  28
ENDBRANCH  23  24
ENDBRANCH  22  23
ENDBRANCH   1  22
TORSDOF 18
ENDMDL
MODEL 2
REMARK VINA RESULT:     -10.0      6.037      9.871
REMARK SMILES CCCc1nsc(N2CCO[C@H](CC(=O)NCCCCNC(=O)c3ccc(-c4c5nc(c(-c6ccc(S(=O)(=O)[O-])cc6)c6ccc([nH]6)c(-c6ccc(S(=O)(=O)[O-])cc6)c6nc(c(-c7ccc(S(=O)(=O)[O-])cc7)c7ccc4[nH]7)C=C6)C=C5)cc3)C2)n1
REMARK SMILES IDX 18 1 17 2 16 3 14 4 15 5 13 7 12 8 8 9 9 10 84 11 10 12
REMARK SMILES IDX 11 13 7 14 4 15 5 16 85 17 6 18 3 19 2 20 1 21 19 22 20 23
REMARK SMILES IDX 21 24 22 25 23 27 24 28 25 29 83 30 26 31 82 32 27 33 28 34
REMARK SMILES IDX 29 35 76 36 30 37 81 38 75 39 77 40 31 41 80 42 74 43 73 44
REMARK SMILES IDX 32 46 62 47 43 48 61 49 44 50 47 51 60 52 78 53 45 54 46 55
REMARK SMILES IDX 59 57 79 58 48 59 33 60 34 61 42 62 35 63 41 64 36 65 37 66
REMARK SMILES IDX 38 67 39 68 40 69 63 70 64 71 72 72 65 73 71 74 66 75 67 76
REMARK SMILES IDX 68 77 69 78 70 79 49 80 50 81 58 82 51 83 57 84 52 85 53 86
REMARK SMILES IDX 54 87 55 88 56 89
REMARK H PARENT 16 6 21 26 77 45 47 56
REMARK Flexibility Score: inf
ROOT
ATOM      1  C   UNL A   1      38.798  21.937  26.140  1.00  0.00     0.023 C 
ENDROOT
BRANCH   1   2
ATOM      2  C   UNL A   1      40.204  21.849  26.736  1.00  0.00     0.116 C 
BRANCH   2   3
ATOM      3  N   UNL A   1      40.814  20.564  26.443  1.00  0.00    -0.356 N 
ATOM      4  C   UNL A   1      42.059  20.279  25.963  1.00  0.00     0.222 C 
ATOM      5  O   UNL A   1      42.330  19.113  25.673  1.00  0.00    -0.275 OA
ATOM      6  H   UNL A   1      40.243  19.782  26.617  1.00  0.00     0.163 HD
BRANCH   4   7
ATOM      7  C   UNL A   1      43.102  21.366  25.836  1.00  0.00     0.133 C 
BRANCH   7   8
ATOM      8  C   UNL A   1      44.410  20.831  25.243  1.00  0.00     0.147 C 
ATOM      9  N   UNL A   1      45.769  22.906  25.379  1.00  0.00    -0.342 N 
ATOM     10  C   UNL A   1      45.748  23.037  23.923  1.00  0.00     0.147 C 
ATOM     11  C   UNL A   1      45.652  21.523  25.860  1.00  0.00     0.151 C 
ATOM     12  C   UNL A   1      44.571  22.272  23.319  1.00  0.00     0.182 C 
ATOM     13  O   UNL A   1      44.456  20.927  23.804  1.00  0.00    -0.374 OA
BRANCH   9  14
ATOM     14  C   UNL A   1      45.342  23.927  26.167  1.00  0.00     0.205 A 
ATOM     15  C   UNL A   1      44.631  25.102  27.895  1.00  0.00     0.144 A 
ATOM     16  N   UNL A   1      44.821  26.164  27.109  1.00  0.00    -0.174 NA
ATOM     17  N   UNL A   1      44.851  23.820  27.385  1.00  0.00    -0.203 NA
ATOM     18  S   UNL A   1      45.389  25.587  25.659  1.00  0.00     0.004 S 
BRANCH  15  19
ATOM     19  C   UNL A   1      44.193  25.316  29.309  1.00  0.00     0.078 C 
BRANCH  19  20
ATOM     20  C   UNL A   1      43.372  24.176  29.914  1.00  0.00     0.005 C 
ATOM     21  C   UNL A   1      44.048  23.496  31.096  1.00  0.00     0.004 C 
ENDBRANCH  19  20
ENDBRANCH  15  19
ENDBRANCH   9  14
ENDBRANCH   7   8
ENDBRANCH   4   7
ENDBRANCH   2   3
ENDBRANCH   1   2
BRANCH   1  22
ATOM     22  C   UNL A   1      38.196  23.342  26.163  1.00  0.00     0.023 C 
BRANCH  22  23
ATOM     23  C   UNL A   1      39.140  24.421  26.682  1.00  0.00     0.116 C 
BRANCH  23  24
ATOM     24  N   UNL A   1      40.206  24.760  25.750  1.00  0.00    -0.352 N 
ATOM     25  C   UNL A   1      41.163  25.744  25.868  1.00  0.00     0.251 C 
ATOM     26  H   UNL A   1      40.248  24.216  24.930  1.00  0.00     0.163 HD
ATOM     27  O   UNL A   1      41.937  25.970  24.955  1.00  0.00    -0.269 OA
BRANCH  25  28
ATOM     28  C   UNL A   1      41.199  26.553  27.107  1.00  0.00     0.039 A 
ATOM     29  C   UNL A   1      41.844  27.791  27.084  1.00  0.00     0.014 A 
ATOM     30  C   UNL A   1      40.546  26.116  28.262  1.00  0.00     0.014 A 
ATOM     31  C   UNL A   1      41.768  28.627  28.200  1.00  0.00     0.010 A 
ATOM     32  C   UNL A   1      40.411  26.977  29.345  1.00  0.00     0.010 A 
ATOM     33  C   UNL A   1      41.017  28.243  29.323  1.00  0.00    -0.014 A 
BRANCH  33  34
ATOM     34  C   UNL A   1      40.848  29.150  30.484  1.00  0.00     0.031 A 
ATOM     35  C   UNL A   1      41.712  28.979  31.703  1.00  0.00     0.074 A 
ATOM     36  C   UNL A   1      39.870  30.078  30.472  1.00  0.00     0.049 A 
ATOM     37  N   UNL A   1      41.662  29.615  32.845  1.00  0.00    -0.248 NA
ATOM     38  C   UNL A   1      42.750  27.937  31.640  1.00  0.00     0.031 C 
ATOM     39  C   UNL A   1      38.932  30.309  29.369  1.00  0.00     0.029 A 
ATOM     40  N   UNL A   1      39.493  30.993  31.422  1.00  0.00    -0.354 N 
ATOM     41  C   UNL A   1      42.649  29.043  33.638  1.00  0.00     0.074 A 
ATOM     42  C   UNL A   1      43.246  27.974  32.868  1.00  0.00     0.031 C 
ATOM     43  C   UNL A   1      38.103  31.312  29.699  1.00  0.00     0.029 A 
ATOM     44  C   UNL A   1      38.424  31.772  31.046  1.00  0.00     0.049 A 
ATOM     45  H   UNL A   1      39.946  31.083  32.291  1.00  0.00     0.167 HD
ATOM     46  C   UNL A   1      43.043  29.391  34.887  1.00  0.00     0.031 A 
ATOM     47  C   UNL A   1      37.771  32.743  31.714  1.00  0.00     0.031 A 
ATOM     48  C   UNL A   1      42.457  30.462  35.647  1.00  0.00     0.049 A 
ATOM     49  C   UNL A   1      38.229  33.117  33.097  1.00  0.00     0.074 A 
ATOM     50  C   UNL A   1      42.808  30.919  36.905  1.00  0.00     0.029 A 
ATOM     51  N   UNL A   1      41.399  31.249  35.216  1.00  0.00    -0.354 N 
ATOM     52  N   UNL A   1      39.202  32.599  33.809  1.00  0.00    -0.248 NA
ATOM     53  C   UNL A   1      37.513  34.215  33.759  1.00  0.00     0.031 C 
ATOM     54  C   UNL A   1      41.940  31.960  37.249  1.00  0.00     0.029 A 
ATOM     55  C   UNL A   1      41.080  32.182  36.187  1.00  0.00     0.049 A 
ATOM     56  H   UNL A   1      40.943  31.157  34.349  1.00  0.00     0.167 HD
ATOM     57  C   UNL A   1      39.228  33.325  34.995  1.00  0.00     0.074 A 
ATOM     58  C   UNL A   1      38.187  34.327  34.896  1.00  0.00     0.031 C 
ATOM     59  C   UNL A   1      40.041  33.174  36.069  1.00  0.00     0.031 A 
BRANCH  46  60
ATOM     60  C   UNL A   1      44.170  28.605  35.499  1.00  0.00    -0.014 A 
ATOM     61  C   UNL A   1      45.510  28.951  35.245  1.00  0.00     0.010 A 
ATOM     62  C   UNL A   1      43.892  27.526  36.357  1.00  0.00     0.010 A 
ATOM     63  C   UNL A   1      46.551  28.205  35.801  1.00  0.00     0.020 A 
ATOM     64  C   UNL A   1      44.932  26.793  36.937  1.00  0.00     0.020 A 
ATOM     65  C   UNL A   1      46.256  27.127  36.639  1.00  0.00     0.054 A 
BRANCH  65  66
ATOM     66  S   UNL A   1      47.627  26.184  37.359  1.00  0.00     0.124 S 
ATOM     67  O   UNL A   1      48.661  26.331  36.338  1.00  0.00    -0.237 OA
ATOM     68  O   UNL A   1      47.880  26.889  38.613  1.00  0.00    -0.237 OA
ATOM     69  O   UNL A   1      47.083  24.836  37.505  1.00  0.00    -0.744 OA
ENDBRANCH  65  66
ENDBRANCH  46  60
BRANCH  47  70
ATOM     70  C   UNL A   1      36.619  33.438  31.078  1.00  0.00    -0.014 A 
ATOM     71  C   UNL A   1      36.758  34.048  29.820  1.00  0.00     0.010 A 
ATOM     72  C   UNL A   1      35.373  33.489  31.729  1.00  0.00     0.010 A 
ATOM     73  C   UNL A   1      35.680  34.718  29.234  1.00  0.00     0.020 A 
ATOM     74  C   UNL A   1      34.286  34.135  31.135  1.00  0.00     0.020 A 
ATOM     75  C   UNL A   1      34.450  34.759  29.896  1.00  0.00     0.054 A 
BRANCH  75  76
ATOM     76  S   UNL A   1      33.051  35.595  29.100  1.00  0.00     0.124 S 
ATOM     77  O   UNL A   1      32.267  36.035  30.250  1.00  0.00    -0.237 OA
ATOM     78  O   UNL A   1      33.706  36.655  28.336  1.00  0.00    -0.237 OA
ATOM     79  O   UNL A   1      32.441  34.542  28.290  1.00  0.00    -0.744 OA
ENDBRANCH  75  76
ENDBRANCH  47  70
BRANCH  59  80
ATOM     80  C   UNL A   1      39.861  34.137  37.211  1.00  0.00    -0.014 A 
ATOM     81  C   UNL A   1      40.414  35.428  37.167  1.00  0.00     0.010 A 
ATOM     82  C   UNL A   1      39.079  33.761  38.318  1.00  0.00     0.010 A 
ATOM     83  C   UNL A   1      40.213  36.318  38.225  1.00  0.00     0.020 A 
ATOM     84  C   UNL A   1      38.854  34.656  39.366  1.00  0.00     0.020 A 
ATOM     85  C   UNL A   1      39.435  35.926  39.319  1.00  0.00     0.054 A 
BRANCH  85  86
ATOM     86  S   UNL A   1      39.148  37.114  40.659  1.00  0.00     0.124 S 
ATOM     87  O   UNL A   1      40.501  37.577  40.948  1.00  0.00    -0.237 OA
ATOM     88  O   UNL A   1      38.266  38.097  40.034  1.00  0.00    -0.237 OA
ATOM     89  O   UNL A   1      38.526  36.308  41.707  1.00  0.00    -0.744 OA
ENDBRANCH  85  86
ENDBRANCH  59  80
ENDBRANCH  33  34
ENDBRANCH  25  28
ENDBRANCH  23  24
ENDBRANCH  22  23
ENDBRANCH   1  22
TORSDOF 18
ENDMDL
MODEL 3
REMARK VINA RESULT:     -10.0      6.263      8.722
REMARK SMILES CCCc1nsc(N2CCO[C@H](CC(=O)NCCCCNC(=O)c3ccc(-c4c5nc(c(-c6ccc(S(=O)(=O)[O-])cc6)c6ccc([nH]6)c(-c6ccc(S(=O)(=O)[O-])cc6)c6nc(c(-c7ccc(S(=O)(=O)[O-])cc7)c7ccc4[nH]7)C=C6)C=C5)cc3)C2)n1
REMARK SMILES IDX 18 1 17 2 16 3 14 4 15 5 13 7 12 8 8 9 9 10 84 11 10 12
REMARK SMILES IDX 11 13 7 14 4 15 5 16 85 17 6 18 3 19 2 20 1 21 19 22 20 23
REMARK SMILES IDX 21 24 22 25 23 27 24 28 25 29 83 30 26 31 82 32 27 33 28 34
REMARK SMILES IDX 29 35 76 36 30 37 81 38 75 39 77 40 31 41 80 42 74 43 73 44
REMARK SMILES IDX 32 46 62 47 43 48 61 49 44 50 47 51 60 52 78 53 45 54 46 55
REMARK SMILES IDX 59 57 79 58 48 59 33 60 34 61 42 62 35 63 41 64 36 65 37 66
REMARK SMILES IDX 38 67 39 68 40 69 63 70 64 71 72 72 65 73 71 74 66 75 67 76
REMARK SMILES IDX 68 77 69 78 70 79 49 80 50 81 58 82 51 83 57 84 52 85 53 86
REMARK SMILES IDX 54 87 55 88 56 89
REMARK H PARENT 16 6 21 26 77 45 47 56
REMARK Flexibility Score: inf
ROOT
ATOM      1  C   UNL A   1      39.449  21.278  25.788  1.00  0.00     0.023 C 
ENDROOT
BRANCH   1   2
ATOM      2  C   UNL A   1      38.019  21.824  25.770  1.00  0.00     0.116 C 
BRANCH   2   3
ATOM      3  N   UNL A   1      37.661  22.299  24.445  1.00  0.00    -0.356 N 
ATOM      4  C   UNL A   1      36.465  22.763  23.979  1.00  0.00     0.222 C 
ATOM      5  O   UNL A   1      36.351  23.004  22.776  1.00  0.00    -0.275 OA
ATOM      6  H   UNL A   1      38.390  22.283  23.784  1.00  0.00     0.163 HD
BRANCH   4   7
ATOM      7  C   UNL A   1      35.318  23.022  24.929  1.00  0.00     0.133 C 
BRANCH   7   8
ATOM      8  C   UNL A   1      34.270  21.904  24.870  1.00  0.00     0.147 C 
ATOM      9  N   UNL A   1      32.262  23.231  25.489  1.00  0.00    -0.342 N 
ATOM     10  C   UNL A   1      32.186  22.548  26.780  1.00  0.00     0.147 C 
ATOM     11  C   UNL A   1      32.884  22.434  24.423  1.00  0.00     0.151 C 
ATOM     12  C   UNL A   1      33.539  21.951  27.166  1.00  0.00     0.182 C 
ATOM     13  O   UNL A   1      34.145  21.185  26.115  1.00  0.00    -0.374 OA
BRANCH   9  14
ATOM     14  C   UNL A   1      32.321  24.586  25.431  1.00  0.00     0.205 A 
ATOM     15  C   UNL A   1      32.383  26.721  25.991  1.00  0.00     0.144 A 
ATOM     16  N   UNL A   1      32.648  26.937  24.701  1.00  0.00    -0.174 NA
ATOM     17  N   UNL A   1      32.128  25.420  26.433  1.00  0.00    -0.203 NA
ATOM     18  S   UNL A   1      32.677  25.448  23.966  1.00  0.00     0.004 S 
BRANCH  15  19
ATOM     19  C   UNL A   1      32.371  27.883  26.933  1.00  0.00     0.078 C 
BRANCH  19  20
ATOM     20  C   UNL A   1      32.169  29.249  26.275  1.00  0.00     0.005 C 
ATOM     21  C   UNL A   1      33.086  30.333  26.824  1.00  0.00     0.004 C 
ENDBRANCH  19  20
ENDBRANCH  15  19
ENDBRANCH   9  14
ENDBRANCH   7   8
ENDBRANCH   4   7
ENDBRANCH   2   3
ENDBRANCH   1   2
BRANCH   1  22
ATOM     22  C   UNL A   1      40.243  21.652  27.040  1.00  0.00     0.023 C 
BRANCH  22  23
ATOM     23  C   UNL A   1      40.353  23.152  27.290  1.00  0.00     0.116 C 
BRANCH  23  24
ATOM     24  N   UNL A   1      40.827  23.902  26.136  1.00  0.00    -0.352 N 
ATOM     25  C   UNL A   1      41.180  25.232  26.068  1.00  0.00     0.251 C 
ATOM     26  H   UNL A   1      40.907  23.393  25.296  1.00  0.00     0.163 HD
ATOM     27  O   UNL A   1      41.471  25.743  25.002  1.00  0.00    -0.269 OA
BRANCH  25  28
ATOM     28  C   UNL A   1      41.149  26.037  27.310  1.00  0.00     0.039 A 
ATOM     29  C   UNL A   1      42.181  26.947  27.548  1.00  0.00     0.014 A 
ATOM     30  C   UNL A   1      40.075  25.936  28.198  1.00  0.00     0.014 A 
ATOM     31  C   UNL A   1      42.098  27.811  28.641  1.00  0.00     0.010 A 
ATOM     32  C   UNL A   1      39.959  26.845  29.244  1.00  0.00     0.010 A 
ATOM     33  C   UNL A   1      40.967  27.794  29.473  1.00  0.00    -0.014 A 
BRANCH  33  34
ATOM     34  C   UNL A   1      40.814  28.762  30.587  1.00  0.00     0.031 A 
ATOM     35  C   UNL A   1      41.663  28.626  31.821  1.00  0.00     0.074 A 
ATOM     36  C   UNL A   1      39.863  29.715  30.519  1.00  0.00     0.049 A 
ATOM     37  N   UNL A   1      41.621  29.319  32.930  1.00  0.00    -0.248 NA
ATOM     38  C   UNL A   1      42.670  27.553  31.819  1.00  0.00     0.031 C 
ATOM     39  C   UNL A   1      38.942  29.918  29.397  1.00  0.00     0.029 A 
ATOM     40  N   UNL A   1      39.505  30.686  31.419  1.00  0.00    -0.354 N 
ATOM     41  C   UNL A   1      42.584  28.760  33.760  1.00  0.00     0.074 A 
ATOM     42  C   UNL A   1      43.157  27.638  33.049  1.00  0.00     0.031 C 
ATOM     43  C   UNL A   1      38.139  30.959  29.669  1.00  0.00     0.029 A 
ATOM     44  C   UNL A   1      38.462  31.476  30.995  1.00  0.00     0.049 A 
ATOM     45  H   UNL A   1      39.953  30.807  32.287  1.00  0.00     0.167 HD
ATOM     46  C   UNL A   1      42.977  29.158  34.994  1.00  0.00     0.031 A 
ATOM     47  C   UNL A   1      37.831  32.497  31.608  1.00  0.00     0.031 A 
ATOM     48  C   UNL A   1      42.415  30.280  35.695  1.00  0.00     0.049 A 
ATOM     49  C   UNL A   1      38.288  32.925  32.975  1.00  0.00     0.074 A 
ATOM     50  C   UNL A   1      42.769  30.789  36.933  1.00  0.00     0.029 A 
ATOM     51  N   UNL A   1      41.384  31.075  35.215  1.00  0.00    -0.354 N 
ATOM     52  N   UNL A   1      39.239  32.416  33.721  1.00  0.00    -0.248 NA
ATOM     53  C   UNL A   1      37.598  34.075  33.575  1.00  0.00     0.031 C 
ATOM     54  C   UNL A   1      41.929  31.870  37.216  1.00  0.00     0.029 A 
ATOM     55  C   UNL A   1      41.084  32.064  36.136  1.00  0.00     0.049 A 
ATOM     56  H   UNL A   1      40.934  30.954  34.349  1.00  0.00     0.167 HD
ATOM     57  C   UNL A   1      39.277  33.198  34.870  1.00  0.00     0.074 A 
ATOM     58  C   UNL A   1      38.266  34.224  34.712  1.00  0.00     0.031 C 
ATOM     59  C   UNL A   1      40.076  33.078  35.959  1.00  0.00     0.031 A 
BRANCH  46  60
ATOM     60  C   UNL A   1      44.075  28.371  35.655  1.00  0.00    -0.014 A 
ATOM     61  C   UNL A   1      45.426  28.640  35.368  1.00  0.00     0.010 A 
ATOM     62  C   UNL A   1      43.761  27.370  36.591  1.00  0.00     0.010 A 
ATOM     63  C   UNL A   1      46.441  27.893  35.971  1.00  0.00     0.020 A 
ATOM     64  C   UNL A   1      44.775  26.638  37.217  1.00  0.00     0.020 A 
ATOM     65  C   UNL A   1      46.108  26.892  36.887  1.00  0.00     0.054 A 
BRANCH  65  66
ATOM     66  S   UNL A   1      47.445  25.947  37.666  1.00  0.00     0.124 S 
ATOM     67  O   UNL A   1      48.312  27.010  38.167  1.00  0.00    -0.237 OA
ATOM     68  O   UNL A   1      46.742  25.177  38.690  1.00  0.00    -0.237 OA
ATOM     69  O   UNL A   1      47.998  25.158  36.569  1.00  0.00    -0.744 OA
ENDBRANCH  65  66
ENDBRANCH  46  60
BRANCH  47  70
ATOM     70  C   UNL A   1      36.705  33.192  30.927  1.00  0.00    -0.014 A 
ATOM     71  C   UNL A   1      35.408  33.149  31.467  1.00  0.00     0.010 A 
ATOM     72  C   UNL A   1      36.927  33.906  29.736  1.00  0.00     0.010 A 
ATOM     73  C   UNL A   1      34.348  33.785  30.815  1.00  0.00     0.020 A 
ATOM     74  C   UNL A   1      35.874  34.566  29.096  1.00  0.00     0.020 A 
ATOM     75  C   UNL A   1      34.588  34.489  29.632  1.00  0.00     0.054 A 
BRANCH  75  76
ATOM     76  S   UNL A   1      33.207  35.346  28.824  1.00  0.00     0.124 S 
ATOM     77  O   UNL A   1      32.509  35.935  29.962  1.00  0.00    -0.237 OA
ATOM     78  O   UNL A   1      33.890  36.289  27.942  1.00  0.00    -0.237 OA
ATOM     79  O   UNL A   1      32.493  34.270  28.139  1.00  0.00    -0.744 OA
ENDBRANCH  75  76
ENDBRANCH  47  70
BRANCH  59  80
ATOM     80  C   UNL A   1      39.913  34.100  37.050  1.00  0.00    -0.014 A 
ATOM     81  C   UNL A   1      40.637  35.304  37.031  1.00  0.00     0.010 A 
ATOM     82  C   UNL A   1      38.980  33.875  38.078  1.00  0.00     0.010 A 
ATOM     83  C   UNL A   1      40.453  36.254  38.038  1.00  0.00     0.020 A 
ATOM     84  C   UNL A   1      38.774  34.833  39.074  1.00  0.00     0.020 A 
ATOM     85  C   UNL A   1      39.523  36.012  39.055  1.00  0.00     0.054 A 
BRANCH  85  86
ATOM     86  S   UNL A   1      39.266  37.280  40.326  1.00  0.00     0.124 S 
ATOM     87  O   UNL A   1      40.636  37.600  40.715  1.00  0.00    -0.237 OA
ATOM     88  O   UNL A   1      38.557  38.328  39.597  1.00  0.00    -0.237 OA
ATOM     89  O   UNL A   1      38.473  36.593  41.343  1.00  0.00    -0.744 OA
ENDBRANCH  85  86
ENDBRANCH  59  80
ENDBRANCH  33  34
ENDBRANCH  25  28
ENDBRANCH  23  24
ENDBRANCH  22  23
ENDBRANCH   1  22
TORSDOF 18
ENDMDL
