MODEL 1
REMARK VINA RESULT:     -10.6      0.000      0.000
REMARK SMILES O=C(/C=C/C(=O)Nc1ccc(Br)c([N+](=O)[O-])c1)NCCCCNC(=O)c1ccc(-c2c3nc(c(-c4ccc(S(=O)(=O)[O-])cc4)c4ccc([nH]4)c(-c4ccc(S(=O)(=O)[O-])cc4)c4nc(c(-c5ccc(S(=O)(=O)[O-])cc5)c5ccc2[nH]5)C=C4)C=C3)cc1
REMARK SMILES IDX 20 1 19 2 18 3 1 4 2 5 3 7 4 8 5 9 6 10 7 11 8 13 9 14 17 15
REMARK SMILES IDX 10 16 13 17 11 18 12 19 14 20 15 21 16 22 21 23 22 24 23 25
REMARK SMILES IDX 24 26 25 28 26 29 27 30 85 31 28 32 84 33 29 34 30 35 31 36
REMARK SMILES IDX 78 37 32 38 83 39 77 40 79 41 33 42 82 43 76 44 75 45 34 47
REMARK SMILES IDX 64 48 45 49 63 50 46 51 49 52 62 53 80 54 47 55 48 56 61 58
REMARK SMILES IDX 81 59 50 60 35 61 36 62 44 63 37 64 43 65 38 66 39 67 40 68
REMARK SMILES IDX 41 69 42 70 65 71 66 72 74 73 67 74 73 75 68 76 69 77 70 78
REMARK SMILES IDX 71 79 72 80 51 81 52 82 60 83 53 84 59 85 54 86 55 87 56 88
REMARK SMILES IDX 57 89 58 90
REMARK H PARENT 18 6 7 12 23 27 79 46 49 57
REMARK Flexibility Score: inf
ROOT
ATOM      1  C   UNL A   1      36.183  34.180  34.412  1.00  0.00     0.023 C 
ENDROOT
BRANCH   1   2
ATOM      2  C   UNL A   1      34.816  34.861  34.360  1.00  0.00     0.116 C 
BRANCH   2   3
ATOM      3  N   UNL A   1      34.455  35.198  32.998  1.00  0.00    -0.353 N 
ATOM      4  O   UNL A   1      33.554  37.246  33.519  1.00  0.00    -0.270 OA
ATOM      5  C   UNL A   1      33.796  36.358  32.711  1.00  0.00     0.244 C 
ATOM      6  H   UNL A   1      34.690  34.581  32.268  1.00  0.00     0.163 HD
BRANCH   5   7
ATOM      7  C   UNL A   1      33.299  36.494  31.329  1.00  0.00     0.077 C 
ATOM      8  C   UNL A   1      33.225  35.499  30.433  1.00  0.00     0.077 C 
BRANCH   8   9
ATOM      9  C   UNL A   1      32.903  35.802  29.015  1.00  0.00     0.248 C 
ATOM     10  O   UNL A   1      32.277  36.823  28.749  1.00  0.00    -0.270 OA
ATOM     11  N   UNL A   1      33.359  34.974  28.018  1.00  0.00    -0.322 N 
ATOM     12  H   UNL A   1      33.291  35.336  27.106  1.00  0.00     0.170 HD
BRANCH  11  13
ATOM     13  C   UNL A   1      33.909  33.684  28.116  1.00  0.00     0.048 A 
ATOM     14  C   UNL A   1      35.234  33.459  28.485  1.00  0.00     0.028 A 
ATOM     15  C   UNL A   1      33.109  32.601  27.751  1.00  0.00     0.113 A 
ATOM     16  C   UNL A   1      35.796  32.189  28.348  1.00  0.00     0.025 A 
ATOM     17  C   UNL A   1      33.675  31.313  27.596  1.00  0.00     0.285 A 
ATOM     18  C   UNL A   1      35.037  31.112  27.869  1.00  0.00     0.095 A 
ATOM     19  Br  UNL A   1      36.026  29.509  27.608  1.00  0.00    -0.043 Br
BRANCH  17  20
ATOM     20  N   UNL A   1      32.779  30.256  27.098  1.00  0.00     0.064 N 
ATOM     21  O   UNL A   1      32.914  29.123  27.585  1.00  0.00    -0.258 OA
ATOM     22  O   UNL A   1      31.962  30.518  26.210  1.00  0.00    -0.258 OA
ENDBRANCH  17  20
ENDBRANCH  11  13
ENDBRANCH   8   9
ENDBRANCH   5   7
ENDBRANCH   2   3
ENDBRANCH   1   2
BRANCH   1  23
ATOM     23  C   UNL A   1      37.096  34.511  33.228  1.00  0.00     0.023 C 
BRANCH  23  24
ATOM     24  C   UNL A   1      37.797  33.312  32.599  1.00  0.00     0.116 C 
BRANCH  24  25
ATOM     25  N   UNL A   1      36.918  32.164  32.456  1.00  0.00    -0.352 N 
ATOM     26  C   UNL A   1      37.136  30.991  31.775  1.00  0.00     0.251 C 
ATOM     27  H   UNL A   1      36.046  32.238  32.908  1.00  0.00     0.163 HD
ATOM     28  O   UNL A   1      36.213  30.193  31.620  1.00  0.00    -0.269 OA
BRANCH  26  29
ATOM     29  C   UNL A   1      38.472  30.704  31.209  1.00  0.00     0.039 A 
ATOM     30  C   UNL A   1      39.448  30.142  32.034  1.00  0.00     0.014 A 
ATOM     31  C   UNL A   1      38.756  30.973  29.868  1.00  0.00     0.014 A 
ATOM     32  C   UNL A   1      40.689  29.790  31.497  1.00  0.00     0.010 A 
ATOM     33  C   UNL A   1      39.964  30.550  29.317  1.00  0.00     0.010 A 
ATOM     34  C   UNL A   1      40.945  29.956  30.125  1.00  0.00    -0.014 A 
BRANCH  34  35
ATOM     35  C   UNL A   1      42.226  29.505  29.521  1.00  0.00     0.031 A 
ATOM     36  C   UNL A   1      43.372  30.469  29.358  1.00  0.00     0.074 A 
ATOM     37  C   UNL A   1      42.341  28.241  29.065  1.00  0.00     0.049 A 
ATOM     38  N   UNL A   1      44.542  30.272  28.807  1.00  0.00    -0.248 NA
ATOM     39  C   UNL A   1      43.166  31.839  29.855  1.00  0.00     0.031 C 
ATOM     40  C   UNL A   1      41.292  27.220  29.127  1.00  0.00     0.029 A 
ATOM     41  N   UNL A   1      43.389  27.601  28.452  1.00  0.00    -0.354 N 
ATOM     42  C   UNL A   1      45.207  31.490  28.883  1.00  0.00     0.074 A 
ATOM     43  C   UNL A   1      44.287  32.435  29.480  1.00  0.00     0.031 C 
ATOM     44  C   UNL A   1      41.760  26.077  28.600  1.00  0.00     0.029 A 
ATOM     45  C   UNL A   1      43.121  26.293  28.120  1.00  0.00     0.049 A 
ATOM     46  H   UNL A   1      44.252  28.036  28.267  1.00  0.00     0.167 HD
ATOM     47  C   UNL A   1      46.474  31.793  28.511  1.00  0.00     0.031 A 
ATOM     48  C   UNL A   1      43.878  25.372  27.491  1.00  0.00     0.031 A 
ATOM     49  C   UNL A   1      47.386  30.852  27.917  1.00  0.00     0.049 A 
ATOM     50  C   UNL A   1      45.273  25.738  27.062  1.00  0.00     0.074 A 
ATOM     51  C   UNL A   1      48.704  31.049  27.546  1.00  0.00     0.029 A 
ATOM     52  N   UNL A   1      47.075  29.537  27.599  1.00  0.00    -0.354 N 
ATOM     53  N   UNL A   1      45.905  26.879  27.202  1.00  0.00    -0.248 NA
ATOM     54  C   UNL A   1      46.061  24.688  26.403  1.00  0.00     0.031 C 
ATOM     55  C   UNL A   1      49.172  29.874  26.949  1.00  0.00     0.029 A 
ATOM     56  C   UNL A   1      48.168  28.921  27.013  1.00  0.00     0.049 A 
ATOM     57  H   UNL A   1      46.206  29.106  27.766  1.00  0.00     0.167 HD
ATOM     58  C   UNL A   1      47.175  26.674  26.673  1.00  0.00     0.074 A 
ATOM     59  C   UNL A   1      47.226  25.297  26.228  1.00  0.00     0.031 C 
ATOM     60  C   UNL A   1      48.207  27.549  26.569  1.00  0.00     0.031 A 
BRANCH  47  61
ATOM     61  C   UNL A   1      46.945  33.209  28.729  1.00  0.00    -0.014 A 
ATOM     62  C   UNL A   1      47.451  33.624  29.974  1.00  0.00     0.010 A 
ATOM     63  C   UNL A   1      46.916  34.129  27.665  1.00  0.00     0.010 A 
ATOM     64  C   UNL A   1      47.873  34.942  30.166  1.00  0.00     0.020 A 
ATOM     65  C   UNL A   1      47.369  35.439  27.842  1.00  0.00     0.020 A 
ATOM     66  C   UNL A   1      47.827  35.843  29.098  1.00  0.00     0.054 A 
BRANCH  66  67
ATOM     67  S   UNL A   1      48.396  37.543  29.371  1.00  0.00     0.124 S 
ATOM     68  O   UNL A   1      47.227  38.153  30.002  1.00  0.00    -0.237 OA
ATOM     69  O   UNL A   1      49.553  37.356  30.243  1.00  0.00    -0.237 OA
ATOM     70  O   UNL A   1      48.702  38.028  28.028  1.00  0.00    -0.744 OA
ENDBRANCH  66  67
ENDBRANCH  47  61
BRANCH  48  71
ATOM     71  C   UNL A   1      43.329  24.010  27.235  1.00  0.00    -0.014 A 
ATOM     72  C   UNL A   1      42.788  23.678  25.981  1.00  0.00     0.010 A 
ATOM     73  C   UNL A   1      43.363  23.031  28.246  1.00  0.00     0.010 A 
ATOM     74  C   UNL A   1      42.276  22.399  25.747  1.00  0.00     0.020 A 
ATOM     75  C   UNL A   1      42.881  21.742  28.005  1.00  0.00     0.020 A 
ATOM     76  C   UNL A   1      42.330  21.437  26.760  1.00  0.00     0.054 A 
BRANCH  76  77
ATOM     77  S   UNL A   1      41.710  19.766  26.414  1.00  0.00     0.124 S 
ATOM     78  O   UNL A   1      42.434  19.419  25.196  1.00  0.00    -0.237 OA
ATOM     79  O   UNL A   1      42.101  19.032  27.615  1.00  0.00    -0.237 OA
ATOM     80  O   UNL A   1      40.271  19.963  26.254  1.00  0.00    -0.744 OA
ENDBRANCH  76  77
ENDBRANCH  48  71
BRANCH  60  81
ATOM     81  C   UNL A   1      49.497  27.038  25.981  1.00  0.00    -0.014 A 
ATOM     82  C   UNL A   1      49.779  27.164  24.610  1.00  0.00     0.010 A 
ATOM     83  C   UNL A   1      50.466  26.471  26.830  1.00  0.00     0.010 A 
ATOM     84  C   UNL A   1      50.994  26.703  24.092  1.00  0.00     0.020 A 
ATOM     85  C   UNL A   1      51.694  26.039  26.322  1.00  0.00     0.020 A 
ATOM     86  C   UNL A   1      51.945  26.145  24.954  1.00  0.00     0.054 A 
BRANCH  86  87
ATOM     87  S   UNL A   1      53.530  25.597  24.264  1.00  0.00     0.124 S 
ATOM     88  O   UNL A   1      54.481  26.448  24.973  1.00  0.00    -0.237 OA
ATOM     89  O   UNL A   1      53.563  24.181  24.625  1.00  0.00    -0.237 OA
ATOM     90  O   UNL A   1      53.399  25.867  22.835  1.00  0.00    -0.744 OA
ENDBRANCH  86  87
ENDBRANCH  60  81
ENDBRANCH  34  35
ENDBRANCH  26  29
ENDBRANCH  24  25
ENDBRANCH  23  24
ENDBRANCH   1  23
TORSDOF 17
ENDMDL
MODEL 2
REMARK VINA RESULT:     -10.4      4.698      6.889
REMARK SMILES O=C(/C=C/C(=O)Nc1ccc(Br)c([N+](=O)[O-])c1)NCCCCNC(=O)c1ccc(-c2c3nc(c(-c4ccc(S(=O)(=O)[O-])cc4)c4ccc([nH]4)c(-c4ccc(S(=O)(=O)[O-])cc4)c4nc(c(-c5ccc(S(=O)(=O)[O-])cc5)c5ccc2[nH]5)C=C4)C=C3)cc1
REMARK SMILES IDX 20 1 19 2 18 3 1 4 2 5 3 7 4 8 5 9 6 10 7 11 8 13 9 14 17 15
REMARK SMILES IDX 10 16 13 17 11 18 12 19 14 20 15 21 16 22 21 23 22 24 23 25
REMARK SMILES IDX 24 26 25 28 26 29 27 30 85 31 28 32 84 33 29 34 30 35 31 36
REMARK SMILES IDX 78 37 32 38 83 39 77 40 79 41 33 42 82 43 76 44 75 45 34 47
REMARK SMILES IDX 64 48 45 49 63 50 46 51 49 52 62 53 80 54 47 55 48 56 61 58
REMARK SMILES IDX 81 59 50 60 35 61 36 62 44 63 37 64 43 65 38 66 39 67 40 68
REMARK SMILES IDX 41 69 42 70 65 71 66 72 74 73 67 74 73 75 68 76 69 77 70 78
REMARK SMILES IDX 71 79 72 80 51 81 52 82 60 83 53 84 59 85 54 86 55 87 56 88
REMARK SMILES IDX 57 89 58 90
REMARK H PARENT 18 6 7 12 23 27 79 46 49 57
REMARK Flexibility Score: inf
ROOT
ATOM      1  C   UNL A   1      31.701  29.447  25.905  1.00  0.00     0.023 C 
ENDROOT
BRANCH   1   2
ATOM      2  C   UNL A   1      31.039  29.449  24.527  1.00  0.00     0.116 C 
BRANCH   2   3
ATOM      3  N   UNL A   1      31.523  28.350  23.717  1.00  0.00    -0.353 N 
ATOM      4  O   UNL A   1      29.967  28.617  22.048  1.00  0.00    -0.270 OA
ATOM      5  C   UNL A   1      30.893  27.998  22.559  1.00  0.00     0.244 C 
ATOM      6  H   UNL A   1      32.319  27.849  24.006  1.00  0.00     0.163 HD
BRANCH   5   7
ATOM      7  C   UNL A   1      31.345  26.742  21.932  1.00  0.00     0.077 C 
ATOM      8  C   UNL A   1      32.573  26.217  22.053  1.00  0.00     0.077 C 
BRANCH   8   9
ATOM      9  C   UNL A   1      32.971  25.061  21.211  1.00  0.00     0.248 C 
ATOM     10  O   UNL A   1      32.981  25.186  19.990  1.00  0.00    -0.270 OA
ATOM     11  N   UNL A   1      33.379  23.891  21.803  1.00  0.00    -0.322 N 
ATOM     12  H   UNL A   1      33.820  23.246  21.205  1.00  0.00     0.170 HD
BRANCH  11  13
ATOM     13  C   UNL A   1      33.258  23.483  23.143  1.00  0.00     0.048 A 
ATOM     14  C   UNL A   1      33.357  24.374  24.211  1.00  0.00     0.028 A 
ATOM     15  C   UNL A   1      33.110  22.120  23.403  1.00  0.00     0.113 A 
ATOM     16  C   UNL A   1      33.458  23.896  25.518  1.00  0.00     0.025 A 
ATOM     17  C   UNL A   1      33.227  21.627  24.725  1.00  0.00     0.285 A 
ATOM     18  C   UNL A   1      33.431  22.521  25.787  1.00  0.00     0.095 A 
ATOM     19  Br  UNL A   1      33.740  22.071  27.609  1.00  0.00    -0.043 Br
BRANCH  17  20
ATOM     20  N   UNL A   1      33.172  20.165  24.889  1.00  0.00     0.064 N 
ATOM     21  O   UNL A   1      32.049  19.649  25.001  1.00  0.00    -0.258 OA
ATOM     22  O   UNL A   1      34.222  19.517  24.938  1.00  0.00    -0.258 OA
ENDBRANCH  17  20
ENDBRANCH  11  13
ENDBRANCH   8   9
ENDBRANCH   5   7
ENDBRANCH   2   3
ENDBRANCH   1   2
BRANCH   1  23
ATOM     23  C   UNL A   1      32.737  28.337  26.102  1.00  0.00     0.023 C 
BRANCH  23  24
ATOM     24  C   UNL A   1      33.870  28.676  27.065  1.00  0.00     0.116 C 
BRANCH  24  25
ATOM     25  N   UNL A   1      33.770  30.027  27.590  1.00  0.00    -0.352 N 
ATOM     26  C   UNL A   1      34.681  30.732  28.339  1.00  0.00     0.251 C 
ATOM     27  H   UNL A   1      32.932  30.503  27.382  1.00  0.00     0.163 HD
ATOM     28  O   UNL A   1      34.360  31.807  28.841  1.00  0.00    -0.269 OA
BRANCH  26  29
ATOM     29  C   UNL A   1      36.035  30.181  28.561  1.00  0.00     0.039 A 
ATOM     30  C   UNL A   1      36.982  30.284  27.540  1.00  0.00     0.014 A 
ATOM     31  C   UNL A   1      36.376  29.579  29.775  1.00  0.00     0.014 A 
ATOM     32  C   UNL A   1      38.289  29.842  27.760  1.00  0.00     0.010 A 
ATOM     33  C   UNL A   1      37.697  29.212  30.020  1.00  0.00     0.010 A 
ATOM     34  C   UNL A   1      38.668  29.336  29.015  1.00  0.00    -0.014 A 
BRANCH  34  35
ATOM     35  C   UNL A   1      40.075  28.945  29.294  1.00  0.00     0.031 A 
ATOM     36  C   UNL A   1      41.030  29.931  29.914  1.00  0.00     0.074 A 
ATOM     37  C   UNL A   1      40.512  27.720  28.938  1.00  0.00     0.049 A 
ATOM     38  N   UNL A   1      42.302  29.788  30.183  1.00  0.00    -0.248 NA
ATOM     39  C   UNL A   1      40.490  31.258  30.254  1.00  0.00     0.031 C 
ATOM     40  C   UNL A   1      39.698  26.686  28.294  1.00  0.00     0.029 A 
ATOM     41  N   UNL A   1      41.749  27.138  29.059  1.00  0.00    -0.354 N 
ATOM     42  C   UNL A   1      42.718  31.005  30.712  1.00  0.00     0.074 A 
ATOM     43  C   UNL A   1      41.575  31.892  30.672  1.00  0.00     0.031 C 
ATOM     44  C   UNL A   1      40.450  25.590  28.103  1.00  0.00     0.029 A 
ATOM     45  C   UNL A   1      41.808  25.856  28.565  1.00  0.00     0.049 A 
ATOM     46  H   UNL A   1      42.521  27.596  29.463  1.00  0.00     0.167 HD
ATOM     47  C   UNL A   1      43.931  31.348  31.207  1.00  0.00     0.031 A 
ATOM     48  C   UNL A   1      42.840  24.992  28.481  1.00  0.00     0.031 A 
ATOM     49  C   UNL A   1      45.066  30.464  31.244  1.00  0.00     0.049 A 
ATOM     50  C   UNL A   1      44.186  25.405  29.013  1.00  0.00     0.074 A 
ATOM     51  C   UNL A   1      46.325  30.703  31.765  1.00  0.00     0.029 A 
ATOM     52  N   UNL A   1      45.083  29.173  30.734  1.00  0.00    -0.354 N 
ATOM     53  N   UNL A   1      44.541  26.539  29.568  1.00  0.00    -0.248 NA
ATOM     54  C   UNL A   1      45.269  24.415  28.917  1.00  0.00     0.031 C 
ATOM     55  C   UNL A   1      47.122  29.581  31.517  1.00  0.00     0.029 A 
ATOM     56  C   UNL A   1      46.339  28.614  30.905  1.00  0.00     0.049 A 
ATOM     57  H   UNL A   1      44.316  28.721  30.314  1.00  0.00     0.167 HD
ATOM     58  C   UNL A   1      45.880  26.388  29.914  1.00  0.00     0.074 A 
ATOM     59  C   UNL A   1      46.264  25.048  29.521  1.00  0.00     0.031 C 
ATOM     60  C   UNL A   1      46.713  27.280  30.507  1.00  0.00     0.031 A 
BRANCH  47  61
ATOM     61  C   UNL A   1      44.096  32.749  31.740  1.00  0.00    -0.014 A 
ATOM     62  C   UNL A   1      44.492  33.806  30.900  1.00  0.00     0.010 A 
ATOM     63  C   UNL A   1      43.816  33.022  33.092  1.00  0.00     0.010 A 
ATOM     64  C   UNL A   1      44.651  35.097  31.410  1.00  0.00     0.020 A 
ATOM     65  C   UNL A   1      43.941  34.318  33.600  1.00  0.00     0.020 A 
ATOM     66  C   UNL A   1      44.377  35.344  32.759  1.00  0.00     0.054 A 
BRANCH  66  67
ATOM     67  S   UNL A   1      44.577  37.032  33.390  1.00  0.00     0.124 S 
ATOM     68  O   UNL A   1      43.463  37.727  32.748  1.00  0.00    -0.237 OA
ATOM     69  O   UNL A   1      44.455  36.851  34.834  1.00  0.00    -0.237 OA
ATOM     70  O   UNL A   1      45.905  37.423  32.923  1.00  0.00    -0.744 OA
ENDBRANCH  66  67
ENDBRANCH  47  61
BRANCH  48  71
ATOM     71  C   UNL A   1      42.635  23.648  27.874  1.00  0.00    -0.014 A 
ATOM     72  C   UNL A   1      43.073  23.376  26.566  1.00  0.00     0.010 A 
ATOM     73  C   UNL A   1      42.012  22.624  28.612  1.00  0.00     0.010 A 
ATOM     74  C   UNL A   1      42.877  22.112  26.001  1.00  0.00     0.020 A 
ATOM     75  C   UNL A   1      41.844  21.350  28.062  1.00  0.00     0.020 A 
ATOM     76  C   UNL A   1      42.269  21.105  26.756  1.00  0.00     0.054 A 
BRANCH  76  77
ATOM     77  S   UNL A   1      42.077  19.457  26.021  1.00  0.00     0.124 S 
ATOM     78  O   UNL A   1      40.634  19.376  25.826  1.00  0.00    -0.237 OA
ATOM     79  O   UNL A   1      42.876  19.562  24.803  1.00  0.00    -0.237 OA
ATOM     80  O   UNL A   1      42.624  18.564  27.040  1.00  0.00    -0.744 OA
ENDBRANCH  76  77
ENDBRANCH  48  71
BRANCH  60  81
ATOM     81  C   UNL A   1      48.120  26.827  30.802  1.00  0.00    -0.014 A 
ATOM     82  C   UNL A   1      49.188  27.143  29.944  1.00  0.00     0.010 A 
ATOM     83  C   UNL A   1      48.384  26.120  31.990  1.00  0.00     0.010 A 
ATOM     84  C   UNL A   1      50.489  26.733  30.252  1.00  0.00     0.020 A 
ATOM     85  C   UNL A   1      49.686  25.737  32.318  1.00  0.00     0.020 A 
ATOM     86  C   UNL A   1      50.729  26.034  31.440  1.00  0.00     0.054 A 
BRANCH  86  87
ATOM     87  S   UNL A   1      52.432  25.553  31.838  1.00  0.00     0.124 S 
ATOM     88  O   UNL A   1      52.754  26.455  32.940  1.00  0.00    -0.237 OA
ATOM     89  O   UNL A   1      52.289  24.144  32.201  1.00  0.00    -0.237 OA
ATOM     90  O   UNL A   1      53.162  25.800  30.598  1.00  0.00    -0.744 OA
ENDBRANCH  86  87
ENDBRANCH  60  81
ENDBRANCH  34  35
ENDBRANCH  26  29
ENDBRANCH  24  25
ENDBRANCH  23  24
ENDBRANCH   1  23
TORSDOF 17
ENDMDL
MODEL 3
REMARK VINA RESULT:     -10.3      3.450      5.468
REMARK SMILES O=C(/C=C/C(=O)Nc1ccc(Br)c([N+](=O)[O-])c1)NCCCCNC(=O)c1ccc(-c2c3nc(c(-c4ccc(S(=O)(=O)[O-])cc4)c4ccc([nH]4)c(-c4ccc(S(=O)(=O)[O-])cc4)c4nc(c(-c5ccc(S(=O)(=O)[O-])cc5)c5ccc2[nH]5)C=C4)C=C3)cc1
REMARK SMILES IDX 20 1 19 2 18 3 1 4 2 5 3 7 4 8 5 9 6 10 7 11 8 13 9 14 17 15
REMARK SMILES IDX 10 16 13 17 11 18 12 19 14 20 15 21 16 22 21 23 22 24 23 25
REMARK SMILES IDX 24 26 25 28 26 29 27 30 85 31 28 32 84 33 29 34 30 35 31 36
REMARK SMILES IDX 78 37 32 38 83 39 77 40 79 41 33 42 82 43 76 44 75 45 34 47
REMARK SMILES IDX 64 48 45 49 63 50 46 51 49 52 62 53 80 54 47 55 48 56 61 58
REMARK SMILES IDX 81 59 50 60 35 61 36 62 44 63 37 64 43 65 38 66 39 67 40 68
REMARK SMILES IDX 41 69 42 70 65 71 66 72 74 73 67 74 73 75 68 76 69 77 70 78
REMARK SMILES IDX 71 79 72 80 51 81 52 82 60 83 53 84 59 85 54 86 55 87 56 88
REMARK SMILES IDX 57 89 58 90
REMARK H PARENT 18 6 7 12 23 27 79 46 49 57
REMARK Flexibility Score: inf
ROOT
ATOM      1  C   UNL A   1      34.053  34.795  29.657  1.00  0.00     0.023 C 
ENDROOT
BRANCH   1   2
ATOM      2  C   UNL A   1      33.756  35.165  31.110  1.00  0.00     0.116 C 
BRANCH   2   3
ATOM      3  N   UNL A   1      34.955  35.094  31.920  1.00  0.00    -0.353 N 
ATOM      4  O   UNL A   1      34.031  33.764  33.550  1.00  0.00    -0.270 OA
ATOM      5  C   UNL A   1      34.961  34.433  33.113  1.00  0.00     0.244 C 
ATOM      6  H   UNL A   1      35.779  35.529  31.603  1.00  0.00     0.163 HD
BRANCH   5   7
ATOM      7  C   UNL A   1      36.169  34.605  33.942  1.00  0.00     0.077 C 
ATOM      8  C   UNL A   1      37.415  34.279  33.568  1.00  0.00     0.077 C 
BRANCH   8   9
ATOM      9  C   UNL A   1      38.518  34.307  34.561  1.00  0.00     0.248 C 
ATOM     10  O   UNL A   1      38.752  35.349  35.166  1.00  0.00    -0.270 OA
ATOM     11  N   UNL A   1      39.219  33.159  34.838  1.00  0.00    -0.322 N 
ATOM     12  H   UNL A   1      39.786  33.193  35.641  1.00  0.00     0.170 HD
BRANCH  11  13
ATOM     13  C   UNL A   1      39.241  31.939  34.138  1.00  0.00     0.048 A 
ATOM     14  C   UNL A   1      38.190  31.524  33.321  1.00  0.00     0.028 A 
ATOM     15  C   UNL A   1      40.328  31.088  34.337  1.00  0.00     0.113 A 
ATOM     16  C   UNL A   1      38.154  30.218  32.832  1.00  0.00     0.025 A 
ATOM     17  C   UNL A   1      40.292  29.758  33.856  1.00  0.00     0.285 A 
ATOM     18  C   UNL A   1      39.183  29.311  33.122  1.00  0.00     0.095 A 
ATOM     19  Br  UNL A   1      38.871  27.542  32.495  1.00  0.00    -0.043 Br
BRANCH  17  20
ATOM     20  N   UNL A   1      41.433  28.898  34.213  1.00  0.00     0.064 N 
ATOM     21  O   UNL A   1      41.268  28.093  35.141  1.00  0.00    -0.258 OA
ATOM     22  O   UNL A   1      42.504  29.026  33.610  1.00  0.00    -0.258 OA
ENDBRANCH  17  20
ENDBRANCH  11  13
ENDBRANCH   8   9
ENDBRANCH   5   7
ENDBRANCH   2   3
ENDBRANCH   1   2
BRANCH   1  23
ATOM     23  C   UNL A   1      35.035  33.631  29.493  1.00  0.00     0.023 C 
BRANCH  23  24
ATOM     24  C   UNL A   1      35.110  33.046  28.088  1.00  0.00     0.116 C 
BRANCH  24  25
ATOM     25  N   UNL A   1      34.161  31.965  27.881  1.00  0.00    -0.352 N 
ATOM     26  C   UNL A   1      34.395  30.613  27.812  1.00  0.00     0.251 C 
ATOM     27  H   UNL A   1      33.221  32.241  27.774  1.00  0.00     0.163 HD
ATOM     28  O   UNL A   1      33.493  29.853  27.464  1.00  0.00    -0.269 OA
BRANCH  26  29
ATOM     29  C   UNL A   1      35.736  30.079  28.132  1.00  0.00     0.039 A 
ATOM     30  C   UNL A   1      36.715  30.072  27.136  1.00  0.00     0.014 A 
ATOM     31  C   UNL A   1      36.034  29.601  29.411  1.00  0.00     0.014 A 
ATOM     32  C   UNL A   1      38.009  29.646  27.440  1.00  0.00     0.010 A 
ATOM     33  C   UNL A   1      37.343  29.252  29.733  1.00  0.00     0.010 A 
ATOM     34  C   UNL A   1      38.345  29.268  28.751  1.00  0.00    -0.014 A 
BRANCH  34  35
ATOM     35  C   UNL A   1      39.739  28.898  29.113  1.00  0.00     0.031 A 
ATOM     36  C   UNL A   1      40.643  29.900  29.781  1.00  0.00     0.074 A 
ATOM     37  C   UNL A   1      40.212  27.677  28.790  1.00  0.00     0.049 A 
ATOM     38  N   UNL A   1      41.900  29.777  30.123  1.00  0.00    -0.248 NA
ATOM     39  C   UNL A   1      40.067  31.221  30.081  1.00  0.00     0.031 C 
ATOM     40  C   UNL A   1      39.451  26.628  28.107  1.00  0.00     0.029 A 
ATOM     41  N   UNL A   1      41.448  27.113  28.985  1.00  0.00    -0.354 N 
ATOM     42  C   UNL A   1      42.268  31.002  30.667  1.00  0.00     0.074 A 
ATOM     43  C   UNL A   1      41.117  31.873  30.556  1.00  0.00     0.031 C 
ATOM     44  C   UNL A   1      40.228  25.542  27.966  1.00  0.00     0.029 A 
ATOM     45  C   UNL A   1      41.553  25.829  28.503  1.00  0.00     0.049 A 
ATOM     46  H   UNL A   1      42.190  27.584  29.430  1.00  0.00     0.167 HD
ATOM     47  C   UNL A   1      43.446  31.365  31.228  1.00  0.00     0.031 A 
ATOM     48  C   UNL A   1      42.600  24.980  28.484  1.00  0.00     0.031 A 
ATOM     49  C   UNL A   1      44.589  30.496  31.335  1.00  0.00     0.049 A 
ATOM     50  C   UNL A   1      43.908  25.414  29.089  1.00  0.00     0.074 A 
ATOM     51  C   UNL A   1      45.813  30.755  31.926  1.00  0.00     0.029 A 
ATOM     52  N   UNL A   1      44.653  29.204  30.836  1.00  0.00    -0.354 N 
ATOM     53  N   UNL A   1      44.215  26.556  29.657  1.00  0.00    -0.248 NA
ATOM     54  C   UNL A   1      45.007  24.439  29.061  1.00  0.00     0.031 C 
ATOM     55  C   UNL A   1      46.638  29.644  31.732  1.00  0.00     0.029 A 
ATOM     56  C   UNL A   1      45.904  28.663  31.082  1.00  0.00     0.049 A 
ATOM     57  H   UNL A   1      43.918  28.738  30.375  1.00  0.00     0.167 HD
ATOM     58  C   UNL A   1      45.533  26.425  30.080  1.00  0.00     0.074 A 
ATOM     59  C   UNL A   1      45.958  25.089  29.717  1.00  0.00     0.031 C 
ATOM     60  C   UNL A   1      46.319  27.332  30.714  1.00  0.00     0.031 A 
BRANCH  47  61
ATOM     61  C   UNL A   1      43.561  32.770  31.761  1.00  0.00    -0.014 A 
ATOM     62  C   UNL A   1      43.283  33.062  33.109  1.00  0.00     0.010 A 
ATOM     63  C   UNL A   1      43.986  33.810  30.914  1.00  0.00     0.010 A 
ATOM     64  C   UNL A   1      43.382  34.371  33.587  1.00  0.00     0.020 A 
ATOM     65  C   UNL A   1      44.120  35.115  31.395  1.00  0.00     0.020 A 
ATOM     66  C   UNL A   1      43.797  35.391  32.725  1.00  0.00     0.054 A 
BRANCH  66  67
ATOM     67  S   UNL A   1      43.931  37.077  33.378  1.00  0.00     0.124 S 
ATOM     68  O   UNL A   1      42.766  37.153  34.257  1.00  0.00    -0.237 OA
ATOM     69  O   UNL A   1      45.226  37.057  34.054  1.00  0.00    -0.237 OA
ATOM     70  O   UNL A   1      43.867  37.918  32.185  1.00  0.00    -0.744 OA
ENDBRANCH  66  67
ENDBRANCH  47  61
BRANCH  48  71
ATOM     71  C   UNL A   1      42.448  23.629  27.874  1.00  0.00    -0.014 A 
ATOM     72  C   UNL A   1      42.817  23.399  26.537  1.00  0.00     0.010 A 
ATOM     73  C   UNL A   1      41.947  22.558  28.638  1.00  0.00     0.010 A 
ATOM     74  C   UNL A   1      42.672  22.130  25.970  1.00  0.00     0.020 A 
ATOM     75  C   UNL A   1      41.832  21.280  28.084  1.00  0.00     0.020 A 
ATOM     76  C   UNL A   1      42.185  21.077  26.750  1.00  0.00     0.054 A 
BRANCH  76  77
ATOM     77  S   UNL A   1      42.060  19.425  26.008  1.00  0.00     0.124 S 
ATOM     78  O   UNL A   1      40.624  19.300  25.783  1.00  0.00    -0.237 OA
ATOM     79  O   UNL A   1      42.881  19.558  24.807  1.00  0.00    -0.237 OA
ATOM     80  O   UNL A   1      42.613  18.546  27.037  1.00  0.00    -0.744 OA
ENDBRANCH  76  77
ENDBRANCH  48  71
BRANCH  60  81
ATOM     81  C   UNL A   1      47.713  26.901  31.091  1.00  0.00    -0.014 A 
ATOM     82  C   UNL A   1      48.811  27.145  30.248  1.00  0.00     0.010 A 
ATOM     83  C   UNL A   1      47.932  26.289  32.340  1.00  0.00     0.010 A 
ATOM     84  C   UNL A   1      50.098  26.757  30.632  1.00  0.00     0.020 A 
ATOM     85  C   UNL A   1      49.221  25.930  32.742  1.00  0.00     0.020 A 
ATOM     86  C   UNL A   1      50.295  26.154  31.879  1.00  0.00     0.054 A 
BRANCH  86  87
ATOM     87  S   UNL A   1      51.980  25.701  32.372  1.00  0.00     0.124 S 
ATOM     88  O   UNL A   1      51.837  24.282  32.681  1.00  0.00    -0.237 OA
ATOM     89  O   UNL A   1      52.757  26.008  31.173  1.00  0.00    -0.237 OA
ATOM     90  O   UNL A   1      52.250  26.564  33.520  1.00  0.00    -0.744 OA
ENDBRANCH  86  87
ENDBRANCH  60  81
ENDBRANCH  34  35
ENDBRANCH  26  29
ENDBRANCH  24  25
ENDBRANCH  23  24
ENDBRANCH   1  23
TORSDOF 17
ENDMDL
