MODEL 1
REMARK VINA RESULT:     -11.6      0.000      0.000
REMARK SMILES C[C@@H](C(=O)NCCCCNC(=O)c1ccc(-c2c3nc(c(-c4ccc(S(=O)(=O)[O-])cc4)c4ccc([nH]4)c(-c4ccc(S(=O)(=O)[O-])cc4)c4nc(c(-c5ccc(S(=O)(=O)[O-])cc5)c5ccc2[nH]5)C=C4)C=C3)cc1)S(=O)(=O)N[C@@]12C[C@@H]3C[C@@](C)(C[C@@](C)(C3)C1)C2
REMARK SMILES IDX 7 1 6 2 5 3 3 4 4 5 2 7 1 8 73 9 74 10 75 11 76 12 77 14
REMARK SMILES IDX 78 15 87 16 88 17 79 18 84 19 81 20 86 21 80 22 83 23 85 24
REMARK SMILES IDX 82 25 8 26 9 27 10 28 11 29 12 31 13 32 14 33 72 34 15 35
REMARK SMILES IDX 71 36 16 37 17 38 18 39 65 40 19 41 70 42 64 43 66 44 20 45
REMARK SMILES IDX 69 46 63 47 62 48 21 50 51 51 32 52 50 53 33 54 36 55 49 56
REMARK SMILES IDX 67 57 34 58 35 59 48 61 68 62 37 63 22 64 23 65 31 66 24 67
REMARK SMILES IDX 30 68 25 69 26 70 27 71 28 72 29 73 52 74 53 75 61 76 54 77
REMARK SMILES IDX 60 78 55 79 56 80 57 81 58 82 59 83 38 84 39 85 47 86 40 87
REMARK SMILES IDX 46 88 41 89 42 90 43 91 44 92 45 93
REMARK H PARENT 5 6 76 13 10 30 66 49 36 60
REMARK Flexibility Score: inf
ROOT
ATOM      1  C   UNL A   1      31.650  27.996  26.121  1.00  0.00     0.023 C 
ENDROOT
BRANCH   1   2
ATOM      2  C   UNL A   1      30.965  26.832  25.395  1.00  0.00     0.116 C 
BRANCH   2   3
ATOM      3  N   UNL A   1      30.524  27.261  24.079  1.00  0.00    -0.355 N 
ATOM      4  C   UNL A   1      31.245  27.569  22.955  1.00  0.00     0.239 C 
ATOM      5  O   UNL A   1      30.634  28.154  22.059  1.00  0.00    -0.274 OA
ATOM      6  H   UNL A   1      29.548  27.342  23.978  1.00  0.00     0.163 HD
BRANCH   4   7
ATOM      7  C   UNL A   1      32.701  27.157  22.846  1.00  0.00     0.209 C 
ATOM      8  C   UNL A   1      33.664  28.202  22.299  1.00  0.00     0.037 C 
BRANCH   7   9
ATOM      9  S   UNL A   1      32.860  25.549  21.987  1.00  0.00     0.223 S 
ATOM     10  O   UNL A   1      31.695  24.752  22.314  1.00  0.00    -0.212 OA
ATOM     11  O   UNL A   1      33.126  25.824  20.586  1.00  0.00    -0.212 OA
BRANCH   9  12
ATOM     12  N   UNL A   1      34.204  24.711  22.526  1.00  0.00    -0.208 NA
ATOM     13  H   UNL A   1      34.903  25.430  22.714  1.00  0.00     0.141 HD
BRANCH  12  14
ATOM     14  C   UNL A   1      34.290  23.789  23.683  1.00  0.00     0.034 C 
ATOM     15  C   UNL A   1      33.686  24.362  24.975  1.00  0.00     0.027 C 
ATOM     16  C   UNL A   1      33.479  22.486  23.409  1.00  0.00     0.030 C 
ATOM     17  C   UNL A   1      35.763  23.350  23.816  1.00  0.00     0.030 C 
ATOM     18  C   UNL A   1      33.943  23.434  26.162  1.00  0.00    -0.008 C 
ATOM     19  C   UNL A   1      33.633  21.484  24.603  1.00  0.00    -0.030 C 
ATOM     20  C   UNL A   1      35.963  22.413  25.016  1.00  0.00    -0.030 C 
ATOM     21  C   UNL A   1      33.161  22.144  25.918  1.00  0.00     0.010 C 
ATOM     22  C   UNL A   1      35.444  23.123  26.286  1.00  0.00     0.010 C 
ATOM     23  C   UNL A   1      35.132  21.134  24.771  1.00  0.00     0.013 C 
ATOM     24  C   UNL A   1      32.814  20.212  24.363  1.00  0.00     0.011 C 
ATOM     25  C   UNL A   1      37.450  22.071  25.161  1.00  0.00     0.011 C 
ENDBRANCH  12  14
ENDBRANCH   9  12
ENDBRANCH   7   9
ENDBRANCH   4   7
ENDBRANCH   2   3
ENDBRANCH   1   2
BRANCH   1  26
ATOM     26  C   UNL A   1      33.101  27.703  26.524  1.00  0.00     0.023 C 
BRANCH  26  27
ATOM     27  C   UNL A   1      34.100  28.793  26.144  1.00  0.00     0.116 C 
BRANCH  27  28
ATOM     28  N   UNL A   1      33.860  30.044  26.844  1.00  0.00    -0.352 N 
ATOM     29  C   UNL A   1      34.638  30.660  27.793  1.00  0.00     0.251 C 
ATOM     30  H   UNL A   1      33.029  30.514  26.605  1.00  0.00     0.163 HD
ATOM     31  O   UNL A   1      34.208  31.647  28.383  1.00  0.00    -0.269 OA
BRANCH  29  32
ATOM     32  C   UNL A   1      35.967  30.107  28.126  1.00  0.00     0.039 A 
ATOM     33  C   UNL A   1      36.989  30.218  27.182  1.00  0.00     0.014 A 
ATOM     34  C   UNL A   1      36.212  29.492  29.358  1.00  0.00     0.014 A 
ATOM     35  C   UNL A   1      38.270  29.765  27.497  1.00  0.00     0.010 A 
ATOM     36  C   UNL A   1      37.507  29.110  29.698  1.00  0.00     0.010 A 
ATOM     37  C   UNL A   1      38.550  29.240  28.771  1.00  0.00    -0.014 A 
BRANCH  37  38
ATOM     38  C   UNL A   1      39.936  28.854  29.136  1.00  0.00     0.031 A 
ATOM     39  C   UNL A   1      40.837  29.812  29.866  1.00  0.00     0.074 A 
ATOM     40  C   UNL A   1      40.386  27.631  28.788  1.00  0.00     0.049 A 
ATOM     41  N   UNL A   1      42.059  29.624  30.296  1.00  0.00    -0.248 NA
ATOM     42  C   UNL A   1      40.309  31.161  30.133  1.00  0.00     0.031 C 
ATOM     43  C   UNL A   1      39.629  26.636  28.024  1.00  0.00     0.029 A 
ATOM     44  N   UNL A   1      41.585  27.013  29.038  1.00  0.00    -0.354 N 
ATOM     45  C   UNL A   1      42.441  30.823  30.888  1.00  0.00     0.074 A 
ATOM     46  C   UNL A   1      41.348  31.752  30.705  1.00  0.00     0.031 C 
ATOM     47  C   UNL A   1      40.365  25.520  27.904  1.00  0.00     0.029 A 
ATOM     48  C   UNL A   1      41.657  25.730  28.547  1.00  0.00     0.049 A 
ATOM     49  H   UNL A   1      42.324  27.445  29.524  1.00  0.00     0.167 HD
ATOM     50  C   UNL A   1      43.587  31.114  31.549  1.00  0.00     0.031 A 
ATOM     51  C   UNL A   1      42.651  24.822  28.607  1.00  0.00     0.031 A 
ATOM     52  C   UNL A   1      44.676  30.188  31.726  1.00  0.00     0.049 A 
ATOM     53  C   UNL A   1      43.914  25.175  29.342  1.00  0.00     0.074 A 
ATOM     54  C   UNL A   1      45.864  30.376  32.411  1.00  0.00     0.029 A 
ATOM     55  N   UNL A   1      44.711  28.899  31.215  1.00  0.00    -0.354 N 
ATOM     56  N   UNL A   1      44.226  26.292  29.958  1.00  0.00    -0.248 NA
ATOM     57  C   UNL A   1      44.952  24.139  29.407  1.00  0.00     0.031 C 
ATOM     58  C   UNL A   1      46.639  29.221  32.269  1.00  0.00     0.029 A 
ATOM     59  C   UNL A   1      45.908  28.288  31.551  1.00  0.00     0.049 A 
ATOM     60  H   UNL A   1      43.991  28.480  30.689  1.00  0.00     0.167 HD
ATOM     61  C   UNL A   1      45.491  26.083  30.498  1.00  0.00     0.074 A 
ATOM     62  C   UNL A   1      45.867  24.723  30.167  1.00  0.00     0.031 C 
ATOM     63  C   UNL A   1      46.274  26.940  31.199  1.00  0.00     0.031 A 
BRANCH  50  64
ATOM     64  C   UNL A   1      43.719  32.492  32.147  1.00  0.00    -0.014 A 
ATOM     65  C   UNL A   1      44.304  33.541  31.414  1.00  0.00     0.010 A 
ATOM     66  C   UNL A   1      43.192  32.761  33.423  1.00  0.00     0.010 A 
ATOM     67  C   UNL A   1      44.386  34.826  31.957  1.00  0.00     0.020 A 
ATOM     68  C   UNL A   1      43.245  34.052  33.958  1.00  0.00     0.020 A 
ATOM     69  C   UNL A   1      43.851  35.075  33.225  1.00  0.00     0.054 A 
BRANCH  69  70
ATOM     70  S   UNL A   1      43.924  36.765  33.879  1.00  0.00     0.124 S 
ATOM     71  O   UNL A   1      43.039  36.677  35.039  1.00  0.00    -0.237 OA
ATOM     72  O   UNL A   1      45.344  36.927  34.184  1.00  0.00    -0.237 OA
ATOM     73  O   UNL A   1      43.427  37.587  32.779  1.00  0.00    -0.744 OA
ENDBRANCH  69  70
ENDBRANCH  50  64
BRANCH  51  74
ATOM     74  C   UNL A   1      42.491  23.494  27.952  1.00  0.00    -0.014 A 
ATOM     75  C   UNL A   1      41.809  22.446  28.598  1.00  0.00     0.010 A 
ATOM     76  C   UNL A   1      43.036  23.268  26.675  1.00  0.00     0.010 A 
ATOM     77  C   UNL A   1      41.709  21.189  27.994  1.00  0.00     0.020 A 
ATOM     78  C   UNL A   1      42.908  22.023  26.054  1.00  0.00     0.020 A 
ATOM     79  C   UNL A   1      42.260  20.985  26.726  1.00  0.00     0.054 A 
BRANCH  79  80
ATOM     80  S   UNL A   1      42.096  19.355  25.948  1.00  0.00     0.124 S 
ATOM     81  O   UNL A   1      42.627  18.472  26.982  1.00  0.00    -0.237 OA
ATOM     82  O   UNL A   1      40.658  19.262  25.711  1.00  0.00    -0.237 OA
ATOM     83  O   UNL A   1      42.913  19.469  24.741  1.00  0.00    -0.744 OA
ENDBRANCH  79  80
ENDBRANCH  51  74
BRANCH  63  84
ATOM     84  C   UNL A   1      47.607  26.417  31.670  1.00  0.00    -0.014 A 
ATOM     85  C   UNL A   1      48.757  26.525  30.866  1.00  0.00     0.010 A 
ATOM     86  C   UNL A   1      47.711  25.817  32.938  1.00  0.00     0.010 A 
ATOM     87  C   UNL A   1      49.972  25.986  31.296  1.00  0.00     0.020 A 
ATOM     88  C   UNL A   1      48.934  25.309  33.385  1.00  0.00     0.020 A 
ATOM     89  C   UNL A   1      50.050  25.375  32.550  1.00  0.00     0.054 A 
BRANCH  89  90
ATOM     90  S   UNL A   1      51.639  24.680  33.084  1.00  0.00     0.124 S 
ATOM     91  O   UNL A   1      52.586  25.671  32.583  1.00  0.00    -0.237 OA
ATOM     92  O   UNL A   1      51.494  24.627  34.537  1.00  0.00    -0.237 OA
ATOM     93  O   UNL A   1      51.689  23.380  32.421  1.00  0.00    -0.744 OA
ENDBRANCH  89  90
ENDBRANCH  63  84
ENDBRANCH  37  38
ENDBRANCH  29  32
ENDBRANCH  27  28
ENDBRANCH  26  27
ENDBRANCH   1  26
TORSDOF 17
ENDMDL
MODEL 2
REMARK VINA RESULT:     -11.4      2.697      9.409
REMARK SMILES C[C@@H](C(=O)NCCCCNC(=O)c1ccc(-c2c3nc(c(-c4ccc(S(=O)(=O)[O-])cc4)c4ccc([nH]4)c(-c4ccc(S(=O)(=O)[O-])cc4)c4nc(c(-c5ccc(S(=O)(=O)[O-])cc5)c5ccc2[nH]5)C=C4)C=C3)cc1)S(=O)(=O)N[C@@]12C[C@@H]3C[C@@](C)(C[C@@](C)(C3)C1)C2
REMARK SMILES IDX 7 1 6 2 5 3 3 4 4 5 2 7 1 8 73 9 74 10 75 11 76 12 77 14
REMARK SMILES IDX 78 15 87 16 88 17 79 18 84 19 81 20 86 21 80 22 83 23 85 24
REMARK SMILES IDX 82 25 8 26 9 27 10 28 11 29 12 31 13 32 14 33 72 34 15 35
REMARK SMILES IDX 71 36 16 37 17 38 18 39 65 40 19 41 70 42 64 43 66 44 20 45
REMARK SMILES IDX 69 46 63 47 62 48 21 50 51 51 32 52 50 53 33 54 36 55 49 56
REMARK SMILES IDX 67 57 34 58 35 59 48 61 68 62 37 63 22 64 23 65 31 66 24 67
REMARK SMILES IDX 30 68 25 69 26 70 27 71 28 72 29 73 52 74 53 75 61 76 54 77
REMARK SMILES IDX 60 78 55 79 56 80 57 81 58 82 59 83 38 84 39 85 47 86 40 87
REMARK SMILES IDX 46 88 41 89 42 90 43 91 44 92 45 93
REMARK H PARENT 5 6 76 13 10 30 66 49 36 60
REMARK Flexibility Score: inf
ROOT
ATOM      1  C   UNL A   1      35.378  22.475  23.939  1.00  0.00     0.023 C 
ENDROOT
BRANCH   1   2
ATOM      2  C   UNL A   1      35.045  21.320  24.891  1.00  0.00     0.116 C 
BRANCH   2   3
ATOM      3  N   UNL A   1      33.628  21.008  24.815  1.00  0.00    -0.355 N 
ATOM      4  C   UNL A   1      32.574  21.469  25.561  1.00  0.00     0.239 C 
ATOM      5  O   UNL A   1      31.519  20.844  25.455  1.00  0.00    -0.274 OA
ATOM      6  H   UNL A   1      33.386  20.363  24.113  1.00  0.00     0.163 HD
BRANCH   4   7
ATOM      7  C   UNL A   1      32.733  22.708  26.422  1.00  0.00     0.209 C 
ATOM      8  C   UNL A   1      33.265  22.491  27.832  1.00  0.00     0.037 C 
BRANCH   7   9
ATOM      9  S   UNL A   1      31.205  23.714  26.404  1.00  0.00     0.223 S 
ATOM     10  O   UNL A   1      30.744  23.800  25.033  1.00  0.00    -0.212 OA
ATOM     11  O   UNL A   1      30.301  23.157  27.394  1.00  0.00    -0.212 OA
BRANCH   9  12
ATOM     12  N   UNL A   1      31.509  25.275  26.925  1.00  0.00    -0.208 NA
ATOM     13  H   UNL A   1      32.227  25.176  27.643  1.00  0.00     0.141 HD
BRANCH  12  14
ATOM     14  C   UNL A   1      31.946  26.432  26.110  1.00  0.00     0.034 C 
ATOM     15  C   UNL A   1      33.193  26.148  25.256  1.00  0.00     0.027 C 
ATOM     16  C   UNL A   1      30.842  26.828  25.082  1.00  0.00     0.030 C 
ATOM     17  C   UNL A   1      32.092  27.639  27.060  1.00  0.00     0.030 C 
ATOM     18  C   UNL A   1      33.684  27.418  24.561  1.00  0.00    -0.008 C 
ATOM     19  C   UNL A   1      31.278  28.096  24.272  1.00  0.00    -0.030 C 
ATOM     20  C   UNL A   1      32.579  28.887  26.309  1.00  0.00    -0.030 C 
ATOM     21  C   UNL A   1      32.618  27.832  23.548  1.00  0.00     0.010 C 
ATOM     22  C   UNL A   1      33.900  28.544  25.587  1.00  0.00     0.010 C 
ATOM     23  C   UNL A   1      31.508  29.266  25.261  1.00  0.00     0.013 C 
ATOM     24  C   UNL A   1      30.219  28.478  23.235  1.00  0.00     0.011 C 
ATOM     25  C   UNL A   1      32.791  30.035  27.302  1.00  0.00     0.011 C 
ENDBRANCH  12  14
ENDBRANCH   9  12
ENDBRANCH   7   9
ENDBRANCH   4   7
ENDBRANCH   2   3
ENDBRANCH   1   2
BRANCH   1  26
ATOM     26  C   UNL A   1      35.994  23.693  24.639  1.00  0.00     0.023 C 
BRANCH  26  27
ATOM     27  C   UNL A   1      36.573  23.407  26.023  1.00  0.00     0.116 C 
BRANCH  27  28
ATOM     28  N   UNL A   1      37.754  22.561  25.975  1.00  0.00    -0.352 N 
ATOM     29  C   UNL A   1      39.048  22.872  26.310  1.00  0.00     0.251 C 
ATOM     30  H   UNL A   1      37.606  21.640  25.661  1.00  0.00     0.163 HD
ATOM     31  O   UNL A   1      39.946  22.071  26.072  1.00  0.00    -0.269 OA
BRANCH  29  32
ATOM     32  C   UNL A   1      39.354  24.185  26.917  1.00  0.00     0.039 A 
ATOM     33  C   UNL A   1      38.966  24.413  28.238  1.00  0.00     0.014 A 
ATOM     34  C   UNL A   1      40.026  25.180  26.200  1.00  0.00     0.014 A 
ATOM     35  C   UNL A   1      39.302  25.617  28.857  1.00  0.00     0.010 A 
ATOM     36  C   UNL A   1      40.426  26.348  26.843  1.00  0.00     0.010 A 
ATOM     37  C   UNL A   1      40.067  26.581  28.177  1.00  0.00    -0.014 A 
BRANCH  37  38
ATOM     38  C   UNL A   1      40.508  27.816  28.873  1.00  0.00     0.031 A 
ATOM     39  C   UNL A   1      41.885  27.913  29.471  1.00  0.00     0.074 A 
ATOM     40  C   UNL A   1      39.649  28.850  28.977  1.00  0.00     0.049 A 
ATOM     41  N   UNL A   1      42.447  28.929  30.077  1.00  0.00    -0.248 NA
ATOM     42  C   UNL A   1      42.737  26.714  29.398  1.00  0.00     0.031 C 
ATOM     43  C   UNL A   1      38.266  28.853  28.493  1.00  0.00     0.029 A 
ATOM     44  N   UNL A   1      39.813  30.101  29.516  1.00  0.00    -0.354 N 
ATOM     45  C   UNL A   1      43.714  28.494  30.449  1.00  0.00     0.074 A 
ATOM     46  C   UNL A   1      43.816  27.106  30.061  1.00  0.00     0.031 C 
ATOM     47  C   UNL A   1      37.723  30.059  28.719  1.00  0.00     0.029 A 
ATOM     48  C   UNL A   1      38.701  30.902  29.397  1.00  0.00     0.049 A 
ATOM     49  H   UNL A   1      40.647  30.397  29.946  1.00  0.00     0.167 HD
ATOM     50  C   UNL A   1      44.713  29.198  31.036  1.00  0.00     0.031 A 
ATOM     51  C   UNL A   1      38.492  32.175  29.788  1.00  0.00     0.031 A 
ATOM     52  C   UNL A   1      44.607  30.580  31.425  1.00  0.00     0.049 A 
ATOM     53  C   UNL A   1      39.616  32.929  30.443  1.00  0.00     0.074 A 
ATOM     54  C   UNL A   1      45.574  31.391  31.994  1.00  0.00     0.029 A 
ATOM     55  N   UNL A   1      43.467  31.357  31.288  1.00  0.00    -0.354 N 
ATOM     56  N   UNL A   1      40.833  32.520  30.720  1.00  0.00    -0.248 NA
ATOM     57  C   UNL A   1      39.346  34.322  30.819  1.00  0.00     0.031 C 
ATOM     58  C   UNL A   1      45.002  32.642  32.249  1.00  0.00     0.029 A 
ATOM     59  C   UNL A   1      43.699  32.631  31.780  1.00  0.00     0.049 A 
ATOM     60  H   UNL A   1      42.616  31.048  30.899  1.00  0.00     0.167 HD
ATOM     61  C   UNL A   1      41.477  33.614  31.288  1.00  0.00     0.074 A 
ATOM     62  C   UNL A   1      40.527  34.708  31.279  1.00  0.00     0.031 C 
ATOM     63  C   UNL A   1      42.738  33.704  31.779  1.00  0.00     0.031 A 
BRANCH  50  64
ATOM     64  C   UNL A   1      46.019  28.486  31.280  1.00  0.00    -0.014 A 
ATOM     65  C   UNL A   1      46.188  27.657  32.405  1.00  0.00     0.010 A 
ATOM     66  C   UNL A   1      47.065  28.588  30.345  1.00  0.00     0.010 A 
ATOM     67  C   UNL A   1      47.386  26.967  32.604  1.00  0.00     0.020 A 
ATOM     68  C   UNL A   1      48.255  27.876  30.525  1.00  0.00     0.020 A 
ATOM     69  C   UNL A   1      48.411  27.077  31.660  1.00  0.00     0.054 A 
BRANCH  69  70
ATOM     70  S   UNL A   1      49.934  26.126  31.920  1.00  0.00     0.124 S 
ATOM     71  O   UNL A   1      49.491  25.099  32.860  1.00  0.00    -0.237 OA
ATOM     72  O   UNL A   1      50.247  25.652  30.574  1.00  0.00    -0.237 OA
ATOM     73  O   UNL A   1      50.868  27.107  32.466  1.00  0.00    -0.744 OA
ENDBRANCH  69  70
ENDBRANCH  50  64
BRANCH  51  74
ATOM     74  C   UNL A   1      37.164  32.814  29.572  1.00  0.00    -0.014 A 
ATOM     75  C   UNL A   1      36.884  33.520  28.387  1.00  0.00     0.010 A 
ATOM     76  C   UNL A   1      36.171  32.729  30.565  1.00  0.00     0.010 A 
ATOM     77  C   UNL A   1      35.652  34.158  28.217  1.00  0.00     0.020 A 
ATOM     78  C   UNL A   1      34.926  33.336  30.385  1.00  0.00     0.020 A 
ATOM     79  C   UNL A   1      34.680  34.062  29.218  1.00  0.00     0.054 A 
BRANCH  79  80
ATOM     80  S   UNL A   1      33.078  34.874  28.967  1.00  0.00     0.124 S 
ATOM     81  O   UNL A   1      33.478  36.174  28.436  1.00  0.00    -0.237 OA
ATOM     82  O   UNL A   1      32.415  33.979  28.022  1.00  0.00    -0.237 OA
ATOM     83  O   UNL A   1      32.494  34.898  30.307  1.00  0.00    -0.744 OA
ENDBRANCH  79  80
ENDBRANCH  51  74
BRANCH  63  84
ATOM     84  C   UNL A   1      43.162  35.042  32.328  1.00  0.00    -0.014 A 
ATOM     85  C   UNL A   1      42.945  35.379  33.677  1.00  0.00     0.010 A 
ATOM     86  C   UNL A   1      43.795  35.972  31.483  1.00  0.00     0.010 A 
ATOM     87  C   UNL A   1      43.296  36.645  34.153  1.00  0.00     0.020 A 
ATOM     88  C   UNL A   1      44.180  37.225  31.967  1.00  0.00     0.020 A 
ATOM     89  C   UNL A   1      43.904  37.562  33.293  1.00  0.00     0.054 A 
BRANCH  89  90
ATOM     90  S   UNL A   1      44.348  39.199  33.936  1.00  0.00     0.124 S 
ATOM     91  O   UNL A   1      44.922  38.868  35.237  1.00  0.00    -0.237 OA
ATOM     92  O   UNL A   1      45.295  39.690  32.938  1.00  0.00    -0.237 OA
ATOM     93  O   UNL A   1      43.073  39.911  33.981  1.00  0.00    -0.744 OA
ENDBRANCH  89  90
ENDBRANCH  63  84
ENDBRANCH  37  38
ENDBRANCH  29  32
ENDBRANCH  27  28
ENDBRANCH  26  27
ENDBRANCH   1  26
TORSDOF 17
ENDMDL
MODEL 3
REMARK VINA RESULT:     -11.4      0.906      8.177
REMARK SMILES C[C@@H](C(=O)NCCCCNC(=O)c1ccc(-c2c3nc(c(-c4ccc(S(=O)(=O)[O-])cc4)c4ccc([nH]4)c(-c4ccc(S(=O)(=O)[O-])cc4)c4nc(c(-c5ccc(S(=O)(=O)[O-])cc5)c5ccc2[nH]5)C=C4)C=C3)cc1)S(=O)(=O)N[C@@]12C[C@@H]3C[C@@](C)(C[C@@](C)(C3)C1)C2
REMARK SMILES IDX 7 1 6 2 5 3 3 4 4 5 2 7 1 8 73 9 74 10 75 11 76 12 77 14
REMARK SMILES IDX 78 15 87 16 88 17 79 18 84 19 81 20 86 21 80 22 83 23 85 24
REMARK SMILES IDX 82 25 8 26 9 27 10 28 11 29 12 31 13 32 14 33 72 34 15 35
REMARK SMILES IDX 71 36 16 37 17 38 18 39 65 40 19 41 70 42 64 43 66 44 20 45
REMARK SMILES IDX 69 46 63 47 62 48 21 50 51 51 32 52 50 53 33 54 36 55 49 56
REMARK SMILES IDX 67 57 34 58 35 59 48 61 68 62 37 63 22 64 23 65 31 66 24 67
REMARK SMILES IDX 30 68 25 69 26 70 27 71 28 72 29 73 52 74 53 75 61 76 54 77
REMARK SMILES IDX 60 78 55 79 56 80 57 81 58 82 59 83 38 84 39 85 47 86 40 87
REMARK SMILES IDX 46 88 41 89 42 90 43 91 44 92 45 93
REMARK H PARENT 5 6 76 13 10 30 66 49 36 60
REMARK Flexibility Score: inf
ROOT
ATOM      1  C   UNL A   1      31.475  27.944  26.074  1.00  0.00     0.023 C 
ENDROOT
BRANCH   1   2
ATOM      2  C   UNL A   1      30.775  26.832  25.284  1.00  0.00     0.116 C 
BRANCH   2   3
ATOM      3  N   UNL A   1      30.447  27.304  23.950  1.00  0.00    -0.355 N 
ATOM      4  C   UNL A   1      31.260  27.607  22.888  1.00  0.00     0.239 C 
ATOM      5  O   UNL A   1      30.738  28.233  21.965  1.00  0.00    -0.274 OA
ATOM      6  H   UNL A   1      29.485  27.424  23.781  1.00  0.00     0.163 HD
BRANCH   4   7
ATOM      7  C   UNL A   1      32.704  27.143  22.876  1.00  0.00     0.209 C 
ATOM      8  C   UNL A   1      33.741  28.161  22.421  1.00  0.00     0.037 C 
BRANCH   7   9
ATOM      9  S   UNL A   1      32.866  25.546  21.996  1.00  0.00     0.223 S 
ATOM     10  O   UNL A   1      31.724  24.727  22.345  1.00  0.00    -0.212 OA
ATOM     11  O   UNL A   1      33.091  25.840  20.592  1.00  0.00    -0.212 OA
BRANCH   9  12
ATOM     12  N   UNL A   1      34.238  24.725  22.492  1.00  0.00    -0.208 NA
ATOM     13  H   UNL A   1      34.947  25.449  22.611  1.00  0.00     0.141 HD
BRANCH  12  14
ATOM     14  C   UNL A   1      34.389  23.850  23.677  1.00  0.00     0.034 C 
ATOM     15  C   UNL A   1      33.934  24.507  24.991  1.00  0.00     0.027 C 
ATOM     16  C   UNL A   1      33.495  22.579  23.538  1.00  0.00     0.030 C 
ATOM     17  C   UNL A   1      35.845  23.343  23.696  1.00  0.00     0.030 C 
ATOM     18  C   UNL A   1      34.257  23.618  26.191  1.00  0.00    -0.008 C 
ATOM     19  C   UNL A   1      33.713  21.621  24.759  1.00  0.00    -0.030 C 
ATOM     20  C   UNL A   1      36.112  22.449  24.916  1.00  0.00    -0.030 C 
ATOM     21  C   UNL A   1      33.397  22.360  26.079  1.00  0.00     0.010 C 
ATOM     22  C   UNL A   1      35.747  23.236  26.193  1.00  0.00     0.010 C 
ATOM     23  C   UNL A   1      35.204  21.204  24.807  1.00  0.00     0.013 C 
ATOM     24  C   UNL A   1      32.817  20.384  24.654  1.00  0.00     0.011 C 
ATOM     25  C   UNL A   1      37.589  22.038  24.940  1.00  0.00     0.011 C 
ENDBRANCH  12  14
ENDBRANCH   9  12
ENDBRANCH   7   9
ENDBRANCH   4   7
ENDBRANCH   2   3
ENDBRANCH   1   2
BRANCH   1  26
ATOM     26  C   UNL A   1      32.746  27.482  26.798  1.00  0.00     0.023 C 
BRANCH  26  27
ATOM     27  C   UNL A   1      33.954  28.395  26.611  1.00  0.00     0.116 C 
BRANCH  27  28
ATOM     28  N   UNL A   1      33.729  29.737  27.121  1.00  0.00    -0.352 N 
ATOM     29  C   UNL A   1      34.552  30.507  27.905  1.00  0.00     0.251 C 
ATOM     30  H   UNL A   1      32.872  30.150  26.871  1.00  0.00     0.163 HD
ATOM     31  O   UNL A   1      34.137  31.568  28.362  1.00  0.00    -0.269 OA
BRANCH  29  32
ATOM     32  C   UNL A   1      35.915  30.034  28.226  1.00  0.00     0.039 A 
ATOM     33  C   UNL A   1      36.889  30.087  27.227  1.00  0.00     0.014 A 
ATOM     34  C   UNL A   1      36.238  29.552  29.498  1.00  0.00     0.014 A 
ATOM     35  C   UNL A   1      38.199  29.710  27.522  1.00  0.00     0.010 A 
ATOM     36  C   UNL A   1      37.561  29.249  29.811  1.00  0.00     0.010 A 
ATOM     37  C   UNL A   1      38.555  29.323  28.826  1.00  0.00    -0.014 A 
BRANCH  37  38
ATOM     38  C   UNL A   1      39.970  29.020  29.159  1.00  0.00     0.031 A 
ATOM     39  C   UNL A   1      40.570  27.681  28.830  1.00  0.00     0.074 A 
ATOM     40  C   UNL A   1      40.711  29.962  29.779  1.00  0.00     0.049 A 
ATOM     41  N   UNL A   1      41.797  27.264  29.014  1.00  0.00    -0.248 NA
ATOM     42  C   UNL A   1      39.678  26.671  28.236  1.00  0.00     0.031 C 
ATOM     43  C   UNL A   1      40.225  31.276  30.206  1.00  0.00     0.029 A 
ATOM     44  N   UNL A   1      42.032  29.962  30.149  1.00  0.00    -0.354 N 
ATOM     45  C   UNL A   1      41.825  25.952  28.553  1.00  0.00     0.074 A 
ATOM     46  C   UNL A   1      40.479  25.620  28.143  1.00  0.00     0.031 C 
ATOM     47  C   UNL A   1      41.242  31.970  30.742  1.00  0.00     0.029 A 
ATOM     48  C   UNL A   1      42.441  31.140  30.732  1.00  0.00     0.049 A 
ATOM     49  H   UNL A   1      42.631  29.193  30.011  1.00  0.00     0.167 HD
ATOM     50  C   UNL A   1      42.882  25.111  28.455  1.00  0.00     0.031 A 
ATOM     51  C   UNL A   1      43.646  31.511  31.204  1.00  0.00     0.031 A 
ATOM     52  C   UNL A   1      44.221  25.443  28.868  1.00  0.00     0.049 A 
ATOM     53  C   UNL A   1      44.800  30.554  31.088  1.00  0.00     0.074 A 
ATOM     54  C   UNL A   1      45.367  24.672  28.776  1.00  0.00     0.029 A 
ATOM     55  N   UNL A   1      44.595  26.644  29.452  1.00  0.00    -0.354 N 
ATOM     56  N   UNL A   1      44.820  29.343  30.582  1.00  0.00    -0.248 NA
ATOM     57  C   UNL A   1      46.099  31.021  31.588  1.00  0.00     0.031 C 
ATOM     58  C   UNL A   1      46.423  25.386  29.353  1.00  0.00     0.029 A 
ATOM     59  C   UNL A   1      45.949  26.627  29.745  1.00  0.00     0.049 A 
ATOM     60  H   UNL A   1      43.987  27.397  29.633  1.00  0.00     0.167 HD
ATOM     61  C   UNL A   1      46.138  28.912  30.688  1.00  0.00     0.074 A 
ATOM     62  C   UNL A   1      46.889  30.005  31.271  1.00  0.00     0.031 C 
ATOM     63  C   UNL A   1      46.678  27.718  30.341  1.00  0.00     0.031 A 
BRANCH  50  64
ATOM     64  C   UNL A   1      42.637  23.747  27.861  1.00  0.00    -0.014 A 
ATOM     65  C   UNL A   1      42.743  23.536  26.473  1.00  0.00     0.010 A 
ATOM     66  C   UNL A   1      42.366  22.650  28.699  1.00  0.00     0.010 A 
ATOM     67  C   UNL A   1      42.556  22.261  25.934  1.00  0.00     0.020 A 
ATOM     68  C   UNL A   1      42.208  21.367  28.166  1.00  0.00     0.020 A 
ATOM     69  C   UNL A   1      42.294  21.183  26.784  1.00  0.00     0.054 A 
BRANCH  69  70
ATOM     70  S   UNL A   1      42.109  19.531  26.057  1.00  0.00     0.124 S 
ATOM     71  O   UNL A   1      43.038  19.592  24.931  1.00  0.00    -0.237 OA
ATOM     72  O   UNL A   1      42.510  18.654  27.154  1.00  0.00    -0.237 OA
ATOM     73  O   UNL A   1      40.696  19.466  25.694  1.00  0.00    -0.744 OA
ENDBRANCH  69  70
ENDBRANCH  50  64
BRANCH  51  74
ATOM     74  C   UNL A   1      43.822  32.851  31.832  1.00  0.00    -0.014 A 
ATOM     75  C   UNL A   1      44.154  33.976  31.056  1.00  0.00     0.010 A 
ATOM     76  C   UNL A   1      43.670  33.003  33.223  1.00  0.00     0.010 A 
ATOM     77  C   UNL A   1      44.366  35.218  31.663  1.00  0.00     0.020 A 
ATOM     78  C   UNL A   1      43.846  34.249  33.829  1.00  0.00     0.020 A 
ATOM     79  C   UNL A   1      44.211  35.346  33.046  1.00  0.00     0.054 A 
BRANCH  79  80
ATOM     80  S   UNL A   1      44.464  36.971  33.812  1.00  0.00     0.124 S 
ATOM     81  O   UNL A   1      45.841  37.273  33.434  1.00  0.00    -0.237 OA
ATOM     82  O   UNL A   1      43.436  37.786  33.168  1.00  0.00    -0.237 OA
ATOM     83  O   UNL A   1      44.246  36.716  35.234  1.00  0.00    -0.744 OA
ENDBRANCH  79  80
ENDBRANCH  51  74
BRANCH  63  84
ATOM     84  C   UNL A   1      48.158  27.546  30.567  1.00  0.00    -0.014 A 
ATOM     85  C   UNL A   1      48.655  27.030  31.779  1.00  0.00     0.010 A 
ATOM     86  C   UNL A   1      49.064  27.899  29.551  1.00  0.00     0.010 A 
ATOM     87  C   UNL A   1      50.032  26.930  31.991  1.00  0.00     0.020 A 
ATOM     88  C   UNL A   1      50.441  27.766  29.747  1.00  0.00     0.020 A 
ATOM     89  C   UNL A   1      50.916  27.305  30.976  1.00  0.00     0.054 A 
BRANCH  89  90
ATOM     90  S   UNL A   1      52.700  27.167  31.277  1.00  0.00     0.124 S 
ATOM     91  O   UNL A   1      52.916  25.728  31.161  1.00  0.00    -0.237 OA
ATOM     92  O   UNL A   1      53.271  27.978  30.205  1.00  0.00    -0.237 OA
ATOM     93  O   UNL A   1      52.867  27.715  32.622  1.00  0.00    -0.744 OA
ENDBRANCH  89  90
ENDBRANCH  63  84
ENDBRANCH  37  38
ENDBRANCH  29  32
ENDBRANCH  27  28
ENDBRANCH  26  27
ENDBRANCH   1  26
TORSDOF 17
ENDMDL
