MODEL 1
REMARK VINA RESULT:     -11.0      0.000      0.000
REMARK SMILES COc1ccc([C@@H]2[C@@H](C(=O)c3cccc4c3CCCC4)[C@H](C(=O)NCCCCNC(=O)c3ccc(-c4c5nc(c(-c6ccc(S(=O)(=O)[O-])cc6)c6ccc([nH]6)c(-c6ccc(S(=O)(=O)[O-])cc6)c6nc(c(-c7ccc(S(=O)(=O)[O-])cc7)c7ccc4[nH]7)C=C6)C=C5)cc3)SC3=NC(=O)S[C@H]32)cc1
REMARK SMILES IDX 27 1 26 2 25 3 24 4 22 5 23 6 21 8 7 9 8 10 98 11 93 12
REMARK SMILES IDX 97 13 92 14 94 15 95 16 96 17 6 18 3 19 4 20 100 21 5 22
REMARK SMILES IDX 99 23 2 24 1 25 9 26 10 27 11 28 12 29 16 30 13 31 15 32
REMARK SMILES IDX 17 33 14 34 20 35 18 36 19 37 28 38 29 39 30 40 31 42 32 43
REMARK SMILES IDX 33 44 91 45 34 46 90 47 35 48 36 49 37 50 84 51 38 52 89 53
REMARK SMILES IDX 83 54 85 55 39 56 88 57 82 58 81 59 40 61 70 62 51 63 69 64
REMARK SMILES IDX 52 65 55 66 68 67 86 68 53 69 54 70 67 72 87 73 56 74 41 75
REMARK SMILES IDX 42 76 50 77 43 78 49 79 44 80 45 81 46 82 47 83 48 84 71 85
REMARK SMILES IDX 72 86 80 87 73 88 79 89 74 90 75 91 76 92 77 93 78 94 57 95
REMARK SMILES IDX 58 96 66 97 59 98 65 99 60 100 61 101 62 102 63 103 64 104
REMARK H PARENT 24 7 29 41 85 60 55 71
REMARK Flexibility Score: inf
ROOT
ATOM      1  C   UNL A   1      35.959  32.663  28.106  1.00  0.00     0.023 C 
ENDROOT
BRANCH   1   2
ATOM      2  C   UNL A   1      34.681  31.832  28.218  1.00  0.00     0.023 C 
BRANCH   2   3
ATOM      3  C   UNL A   1      34.741  30.471  27.524  1.00  0.00     0.116 C 
BRANCH   3   4
ATOM      4  N   UNL A   1      33.742  29.547  28.037  1.00  0.00    -0.355 N 
ATOM      5  C   UNL A   1      32.804  28.780  27.408  1.00  0.00     0.234 C 
ATOM      6  O   UNL A   1      32.120  28.019  28.100  1.00  0.00    -0.274 OA
ATOM      7  H   UNL A   1      33.742  29.460  29.018  1.00  0.00     0.163 HD
BRANCH   5   8
ATOM      8  C   UNL A   1      32.612  28.810  25.883  1.00  0.00     0.153 C 
ATOM      9  C   UNL A   1      31.962  27.308  23.839  1.00  0.00     0.052 C 
ATOM     10  C   UNL A   1      32.597  27.394  25.265  1.00  0.00     0.093 C 
ATOM     11  C   UNL A   1      30.569  27.982  23.770  1.00  0.00     0.121 C 
ATOM     12  C   UNL A   1      30.627  29.452  24.050  1.00  0.00     0.093 C 
ATOM     13  S   UNL A   1      29.803  27.959  22.102  1.00  0.00    -0.052 SA
ATOM     14  S   UNL A   1      31.234  29.982  25.571  1.00  0.00    -0.095 SA
ATOM     15  N   UNL A   1      30.135  30.312  23.227  1.00  0.00    -0.200 NA
ATOM     16  C   UNL A   1      29.604  29.707  22.118  1.00  0.00     0.306 C 
ATOM     17  O   UNL A   1      29.040  30.280  21.210  1.00  0.00    -0.259 OA
BRANCH   9  18
ATOM     18  C   UNL A   1      31.799  25.856  23.371  1.00  0.00    -0.042 A 
ATOM     19  C   UNL A   1      31.523  23.146  22.636  1.00  0.00     0.118 A 
ATOM     20  C   UNL A   1      30.640  23.723  23.543  1.00  0.00     0.047 A 
ATOM     21  C   UNL A   1      32.548  23.917  22.094  1.00  0.00     0.047 A 
ATOM     22  C   UNL A   1      30.806  25.049  23.941  1.00  0.00     0.008 A 
ATOM     23  C   UNL A   1      32.678  25.265  22.449  1.00  0.00     0.008 A 
BRANCH  19  24
ATOM     24  O   UNL A   1      31.264  21.844  22.313  1.00  0.00    -0.497 OA
ATOM     25  C   UNL A   1      32.194  20.900  22.833  1.00  0.00     0.278 C 
ENDBRANCH  19  24
ENDBRANCH   9  18
BRANCH  10  26
ATOM     26  C   UNL A   1      34.022  26.759  25.441  1.00  0.00     0.168 C 
ATOM     27  O   UNL A   1      35.025  27.352  25.047  1.00  0.00    -0.294 OA
BRANCH  26  28
ATOM     28  C   UNL A   1      34.203  25.386  26.000  1.00  0.00     0.021 A 
ATOM     29  C   UNL A   1      33.194  24.863  26.785  1.00  0.00     0.012 A 
ATOM     30  C   UNL A   1      35.070  24.491  25.375  1.00  0.00    -0.034 A 
ATOM     31  C   UNL A   1      32.807  23.539  26.580  1.00  0.00     0.001 A 
ATOM     32  C   UNL A   1      34.541  23.276  24.920  1.00  0.00    -0.044 A 
ATOM     33  C   UNL A   1      36.419  24.221  26.092  1.00  0.00     0.036 C 
ATOM     34  C   UNL A   1      33.399  22.790  25.555  1.00  0.00     0.004 A 
ATOM     35  C   UNL A   1      35.361  22.465  23.953  1.00  0.00     0.036 C 
ATOM     36  C   UNL A   1      37.343  23.252  25.337  1.00  0.00     0.005 C 
ATOM     37  C   UNL A   1      36.832  22.914  23.938  1.00  0.00     0.005 C 
ENDBRANCH  26  28
ENDBRANCH  10  26
ENDBRANCH   5   8
ENDBRANCH   3   4
ENDBRANCH   2   3
ENDBRANCH   1   2
BRANCH   1  38
ATOM     38  C   UNL A   1      36.785  32.755  29.383  1.00  0.00     0.116 C 
BRANCH  38  39
ATOM     39  N   UNL A   1      36.254  31.933  30.461  1.00  0.00    -0.352 N 
ATOM     40  C   UNL A   1      36.711  30.722  30.928  1.00  0.00     0.251 C 
ATOM     41  H   UNL A   1      35.461  32.294  30.920  1.00  0.00     0.163 HD
ATOM     42  O   UNL A   1      36.048  30.096  31.750  1.00  0.00    -0.269 OA
BRANCH  40  43
ATOM     43  C   UNL A   1      37.981  30.167  30.409  1.00  0.00     0.039 A 
ATOM     44  C   UNL A   1      38.139  30.003  29.031  1.00  0.00     0.014 A 
ATOM     45  C   UNL A   1      39.022  29.836  31.279  1.00  0.00     0.014 A 
ATOM     46  C   UNL A   1      39.367  29.573  28.522  1.00  0.00     0.010 A 
ATOM     47  C   UNL A   1      40.269  29.493  30.767  1.00  0.00     0.010 A 
ATOM     48  C   UNL A   1      40.455  29.351  29.383  1.00  0.00    -0.014 A 
BRANCH  48  49
ATOM     49  C   UNL A   1      41.792  28.964  28.862  1.00  0.00     0.031 A 
ATOM     50  C   UNL A   1      42.897  29.984  28.785  1.00  0.00     0.074 A 
ATOM     51  C   UNL A   1      41.998  27.714  28.402  1.00  0.00     0.049 A 
ATOM     52  N   UNL A   1      44.114  29.851  28.324  1.00  0.00    -0.248 NA
ATOM     53  C   UNL A   1      42.582  31.338  29.268  1.00  0.00     0.031 C 
ATOM     54  C   UNL A   1      41.006  26.638  28.394  1.00  0.00     0.029 A 
ATOM     55  N   UNL A   1      43.116  27.136  27.853  1.00  0.00    -0.354 N 
ATOM     56  C   UNL A   1      44.703  31.104  28.448  1.00  0.00     0.074 A 
ATOM     57  C   UNL A   1      43.689  31.997  28.963  1.00  0.00     0.031 C 
ATOM     58  C   UNL A   1      41.571  25.521  27.909  1.00  0.00     0.029 A 
ATOM     59  C   UNL A   1      42.949  25.811  27.526  1.00  0.00     0.049 A 
ATOM     60  H   UNL A   1      43.958  27.625  27.706  1.00  0.00     0.167 HD
ATOM     61  C   UNL A   1      45.980  31.476  28.181  1.00  0.00     0.031 A 
ATOM     62  C   UNL A   1      43.808  24.927  26.983  1.00  0.00     0.031 A 
ATOM     63  C   UNL A   1      46.983  30.588  27.656  1.00  0.00     0.049 A 
ATOM     64  C   UNL A   1      45.205  25.372  26.647  1.00  0.00     0.074 A 
ATOM     65  C   UNL A   1      48.313  30.856  27.385  1.00  0.00     0.029 A 
ATOM     66  N   UNL A   1      46.765  29.262  27.314  1.00  0.00    -0.354 N 
ATOM     67  N   UNL A   1      45.763  26.546  26.823  1.00  0.00    -0.248 NA
ATOM     68  C   UNL A   1      46.093  24.366  26.047  1.00  0.00     0.031 C 
ATOM     69  C   UNL A   1      48.883  29.708  26.821  1.00  0.00     0.029 A 
ATOM     70  C   UNL A   1      47.928  28.704  26.809  1.00  0.00     0.049 A 
ATOM     71  H   UNL A   1      45.909  28.786  27.416  1.00  0.00     0.167 HD
ATOM     72  C   UNL A   1      47.078  26.411  26.390  1.00  0.00     0.074 A 
ATOM     73  C   UNL A   1      47.233  25.039  25.950  1.00  0.00     0.031 C 
ATOM     74  C   UNL A   1      48.068  27.337  26.367  1.00  0.00     0.031 A 
BRANCH  61  75
ATOM     75  C   UNL A   1      46.340  32.919  28.439  1.00  0.00    -0.014 A 
ATOM     76  C   UNL A   1      46.192  33.897  27.438  1.00  0.00     0.010 A 
ATOM     77  C   UNL A   1      46.850  33.301  29.694  1.00  0.00     0.010 A 
ATOM     78  C   UNL A   1      46.618  35.210  27.659  1.00  0.00     0.020 A 
ATOM     79  C   UNL A   1      47.242  34.621  29.932  1.00  0.00     0.020 A 
ATOM     80  C   UNL A   1      47.152  35.560  28.901  1.00  0.00     0.054 A 
BRANCH  80  81
ATOM     81  S   UNL A   1      47.729  37.262  29.150  1.00  0.00     0.124 S 
ATOM     82  O   UNL A   1      48.696  37.095  30.232  1.00  0.00    -0.237 OA
ATOM     83  O   UNL A   1      48.297  37.601  27.848  1.00  0.00    -0.237 OA
ATOM     84  O   UNL A   1      46.515  37.992  29.506  1.00  0.00    -0.744 OA
ENDBRANCH  80  81
ENDBRANCH  61  75
BRANCH  62  85
ATOM     85  C   UNL A   1      43.381  23.517  26.770  1.00  0.00    -0.014 A 
ATOM     86  C   UNL A   1      43.278  23.001  25.466  1.00  0.00     0.010 A 
ATOM     87  C   UNL A   1      43.110  22.671  27.861  1.00  0.00     0.010 A 
ATOM     88  C   UNL A   1      42.911  21.669  25.256  1.00  0.00     0.020 A 
ATOM     89  C   UNL A   1      42.770  21.331  27.656  1.00  0.00     0.020 A 
ATOM     90  C   UNL A   1      42.667  20.840  26.353  1.00  0.00     0.054 A 
BRANCH  90  91
ATOM     91  S   UNL A   1      42.268  19.095  26.054  1.00  0.00     0.124 S 
ATOM     92  O   UNL A   1      40.827  19.147  25.830  1.00  0.00    -0.237 OA
ATOM     93  O   UNL A   1      43.082  18.785  24.881  1.00  0.00    -0.237 OA
ATOM     94  O   UNL A   1      42.687  18.432  27.286  1.00  0.00    -0.744 OA
ENDBRANCH  90  91
ENDBRANCH  62  85
BRANCH  74  95
ATOM     95  C   UNL A   1      49.426  26.892  25.888  1.00  0.00    -0.014 A 
ATOM     96  C   UNL A   1      49.887  27.198  24.595  1.00  0.00     0.010 A 
ATOM     97  C   UNL A   1      50.276  26.200  26.771  1.00  0.00     0.010 A 
ATOM     98  C   UNL A   1      51.160  26.792  24.185  1.00  0.00     0.020 A 
ATOM     99  C   UNL A   1      51.561  25.820  26.376  1.00  0.00     0.020 A 
ATOM    100  C   UNL A   1      51.990  26.107  25.078  1.00  0.00     0.054 A 
BRANCH 100 101
ATOM    101  S   UNL A   1      53.655  25.633  24.537  1.00  0.00     0.124 S 
ATOM    102  O   UNL A   1      53.586  25.868  23.098  1.00  0.00    -0.237 OA
ATOM    103  O   UNL A   1      54.508  26.554  25.283  1.00  0.00    -0.237 OA
ATOM    104  O   UNL A   1      53.764  24.231  24.934  1.00  0.00    -0.744 OA
ENDBRANCH 100 101
ENDBRANCH  74  95
ENDBRANCH  48  49
ENDBRANCH  40  43
ENDBRANCH  38  39
ENDBRANCH   1  38
TORSDOF 18
ENDMDL
MODEL 2
REMARK VINA RESULT:     -10.0      5.814     11.342
REMARK SMILES COc1ccc([C@@H]2[C@@H](C(=O)c3cccc4c3CCCC4)[C@H](C(=O)NCCCCNC(=O)c3ccc(-c4c5nc(c(-c6ccc(S(=O)(=O)[O-])cc6)c6ccc([nH]6)c(-c6ccc(S(=O)(=O)[O-])cc6)c6nc(c(-c7ccc(S(=O)(=O)[O-])cc7)c7ccc4[nH]7)C=C6)C=C5)cc3)SC3=NC(=O)S[C@H]32)cc1
REMARK SMILES IDX 27 1 26 2 25 3 24 4 22 5 23 6 21 8 7 9 8 10 98 11 93 12
REMARK SMILES IDX 97 13 92 14 94 15 95 16 96 17 6 18 3 19 4 20 100 21 5 22
REMARK SMILES IDX 99 23 2 24 1 25 9 26 10 27 11 28 12 29 16 30 13 31 15 32
REMARK SMILES IDX 17 33 14 34 20 35 18 36 19 37 28 38 29 39 30 40 31 42 32 43
REMARK SMILES IDX 33 44 91 45 34 46 90 47 35 48 36 49 37 50 84 51 38 52 89 53
REMARK SMILES IDX 83 54 85 55 39 56 88 57 82 58 81 59 40 61 70 62 51 63 69 64
REMARK SMILES IDX 52 65 55 66 68 67 86 68 53 69 54 70 67 72 87 73 56 74 41 75
REMARK SMILES IDX 42 76 50 77 43 78 49 79 44 80 45 81 46 82 47 83 48 84 71 85
REMARK SMILES IDX 72 86 80 87 73 88 79 89 74 90 75 91 76 92 77 93 78 94 57 95
REMARK SMILES IDX 58 96 66 97 59 98 65 99 60 100 61 101 62 102 63 103 64 104
REMARK H PARENT 24 7 29 41 85 60 55 71
REMARK Flexibility Score: inf
ROOT
ATOM      1  C   UNL A   1      40.453  25.198  26.130  1.00  0.00     0.023 C 
ENDROOT
BRANCH   1   2
ATOM      2  C   UNL A   1      39.299  24.994  27.111  1.00  0.00     0.023 C 
BRANCH   2   3
ATOM      3  C   UNL A   1      38.318  23.888  26.723  1.00  0.00     0.116 C 
BRANCH   3   4
ATOM      4  N   UNL A   1      38.103  23.822  25.286  1.00  0.00    -0.355 N 
ATOM      5  C   UNL A   1      37.074  23.320  24.542  1.00  0.00     0.234 C 
ATOM      6  O   UNL A   1      37.123  23.464  23.316  1.00  0.00    -0.274 OA
ATOM      7  H   UNL A   1      38.835  24.209  24.752  1.00  0.00     0.163 HD
BRANCH   5   8
ATOM      8  C   UNL A   1      35.859  22.632  25.186  1.00  0.00     0.153 C 
ATOM      9  C   UNL A   1      33.241  22.600  25.178  1.00  0.00     0.052 C 
ATOM     10  C   UNL A   1      34.552  23.427  24.972  1.00  0.00     0.093 C 
ATOM     11  C   UNL A   1      33.246  21.273  24.379  1.00  0.00     0.121 C 
ATOM     12  C   UNL A   1      34.333  20.341  24.819  1.00  0.00     0.093 C 
ATOM     13  S   UNL A   1      31.753  20.237  24.630  1.00  0.00    -0.052 SA
ATOM     14  S   UNL A   1      35.969  20.864  24.705  1.00  0.00    -0.095 SA
ATOM     15  N   UNL A   1      34.075  19.130  25.174  1.00  0.00    -0.200 NA
ATOM     16  C   UNL A   1      32.733  18.857  25.109  1.00  0.00     0.306 C 
ATOM     17  O   UNL A   1      32.226  17.781  25.346  1.00  0.00    -0.259 OA
BRANCH   9  18
ATOM     18  C   UNL A   1      31.994  23.389  24.759  1.00  0.00    -0.042 A 
ATOM     19  C   UNL A   1      29.781  24.928  23.925  1.00  0.00     0.118 A 
ATOM     20  C   UNL A   1      30.591  24.295  22.988  1.00  0.00     0.047 A 
ATOM     21  C   UNL A   1      30.071  24.798  25.281  1.00  0.00     0.047 A 
ATOM     22  C   UNL A   1      31.713  23.574  23.399  1.00  0.00     0.008 A 
ATOM     23  C   UNL A   1      31.163  24.025  25.696  1.00  0.00     0.008 A 
BRANCH  19  24
ATOM     24  O   UNL A   1      28.709  25.602  23.412  1.00  0.00    -0.497 OA
ATOM     25  C   UNL A   1      28.642  26.980  23.762  1.00  0.00     0.278 C 
ENDBRANCH  19  24
ENDBRANCH   9  18
BRANCH  10  26
ATOM     26  C   UNL A   1      34.660  24.783  25.756  1.00  0.00     0.168 C 
ATOM     27  O   UNL A   1      34.933  24.793  26.955  1.00  0.00    -0.294 OA
BRANCH  26  28
ATOM     28  C   UNL A   1      34.346  26.090  25.105  1.00  0.00     0.021 A 
ATOM     29  C   UNL A   1      34.331  26.145  23.724  1.00  0.00     0.012 A 
ATOM     30  C   UNL A   1      33.620  27.055  25.800  1.00  0.00    -0.034 A 
ATOM     31  C   UNL A   1      33.293  26.831  23.094  1.00  0.00     0.001 A 
ATOM     32  C   UNL A   1      32.412  27.495  25.243  1.00  0.00    -0.044 A 
ATOM     33  C   UNL A   1      34.418  28.281  26.317  1.00  0.00     0.036 C 
ATOM     34  C   UNL A   1      32.265  27.395  23.860  1.00  0.00     0.004 A 
ATOM     35  C   UNL A   1      31.461  28.258  26.125  1.00  0.00     0.036 C 
ATOM     36  C   UNL A   1      33.567  29.291  27.103  1.00  0.00     0.005 C 
ATOM     37  C   UNL A   1      32.157  28.782  27.393  1.00  0.00     0.005 C 
ENDBRANCH  26  28
ENDBRANCH  10  26
ENDBRANCH   5   8
ENDBRANCH   3   4
ENDBRANCH   2   3
ENDBRANCH   1   2
BRANCH   1  38
ATOM     38  C   UNL A   1      41.721  24.416  26.451  1.00  0.00     0.116 C 
BRANCH  38  39
ATOM     39  N   UNL A   1      42.890  24.920  25.746  1.00  0.00    -0.352 N 
ATOM     40  C   UNL A   1      43.664  26.020  26.036  1.00  0.00     0.251 C 
ATOM     41  H   UNL A   1      43.165  24.404  24.954  1.00  0.00     0.163 HD
ATOM     42  O   UNL A   1      44.528  26.386  25.244  1.00  0.00    -0.269 OA
BRANCH  40  43
ATOM     43  C   UNL A   1      43.428  26.775  27.288  1.00  0.00     0.039 A 
ATOM     44  C   UNL A   1      43.557  28.165  27.278  1.00  0.00     0.014 A 
ATOM     45  C   UNL A   1      43.052  26.112  28.459  1.00  0.00     0.014 A 
ATOM     46  C   UNL A   1      43.242  28.897  28.426  1.00  0.00     0.010 A 
ATOM     47  C   UNL A   1      42.655  26.847  29.572  1.00  0.00     0.010 A 
ATOM     48  C   UNL A   1      42.752  28.247  29.571  1.00  0.00    -0.014 A 
BRANCH  48  49
ATOM     49  C   UNL A   1      42.340  29.007  30.780  1.00  0.00     0.031 A 
ATOM     50  C   UNL A   1      41.091  29.848  30.754  1.00  0.00     0.074 A 
ATOM     51  C   UNL A   1      43.117  28.993  31.881  1.00  0.00     0.049 A 
ATOM     52  N   UNL A   1      40.590  30.614  31.689  1.00  0.00    -0.248 NA
ATOM     53  C   UNL A   1      40.318  29.847  29.501  1.00  0.00     0.031 C 
ATOM     54  C   UNL A   1      44.365  28.242  32.028  1.00  0.00     0.029 A 
ATOM     55  N   UNL A   1      42.969  29.628  33.089  1.00  0.00    -0.354 N 
ATOM     56  C   UNL A   1      39.455  31.194  31.135  1.00  0.00     0.074 A 
ATOM     57  C   UNL A   1      39.381  30.745  29.763  1.00  0.00     0.031 C 
ATOM     58  C   UNL A   1      44.844  28.423  33.269  1.00  0.00     0.029 A 
ATOM     59  C   UNL A   1      43.966  29.340  33.990  1.00  0.00     0.049 A 
ATOM     60  H   UNL A   1      42.219  30.233  33.291  1.00  0.00     0.167 HD
ATOM     61  C   UNL A   1      38.541  32.008  31.719  1.00  0.00     0.031 A 
ATOM     62  C   UNL A   1      44.154  29.763  35.256  1.00  0.00     0.031 A 
ATOM     63  C   UNL A   1      38.625  32.463  33.082  1.00  0.00     0.049 A 
ATOM     64  C   UNL A   1      43.156  30.706  35.870  1.00  0.00     0.074 A 
ATOM     65  C   UNL A   1      37.735  33.260  33.780  1.00  0.00     0.029 A 
ATOM     66  N   UNL A   1      39.665  32.170  33.951  1.00  0.00    -0.354 N 
ATOM     67  N   UNL A   1      42.057  31.200  35.350  1.00  0.00    -0.248 NA
ATOM     68  C   UNL A   1      43.419  31.140  37.249  1.00  0.00     0.031 C 
ATOM     69  C   UNL A   1      38.268  33.498  35.052  1.00  0.00     0.029 A 
ATOM     70  C   UNL A   1      39.454  32.792  35.172  1.00  0.00     0.049 A 
ATOM     71  H   UNL A   1      40.441  31.603  33.734  1.00  0.00     0.167 HD
ATOM     72  C   UNL A   1      41.479  31.974  36.350  1.00  0.00     0.074 A 
ATOM     73  C   UNL A   1      42.346  31.877  37.507  1.00  0.00     0.031 C 
ATOM     74  C   UNL A   1      40.329  32.693  36.315  1.00  0.00     0.031 A 
BRANCH  61  75
ATOM     75  C   UNL A   1      37.386  32.466  30.863  1.00  0.00    -0.014 A 
ATOM     76  C   UNL A   1      37.504  33.588  30.020  1.00  0.00     0.010 A 
ATOM     77  C   UNL A   1      36.160  31.778  30.912  1.00  0.00     0.010 A 
ATOM     78  C   UNL A   1      36.400  34.059  29.305  1.00  0.00     0.020 A 
ATOM     79  C   UNL A   1      35.063  32.223  30.168  1.00  0.00     0.020 A 
ATOM     80  C   UNL A   1      35.182  33.379  29.394  1.00  0.00     0.054 A 
BRANCH  80  81
ATOM     81  S   UNL A   1      33.755  34.031  28.483  1.00  0.00     0.124 S 
ATOM     82  O   UNL A   1      32.917  34.541  29.564  1.00  0.00    -0.237 OA
ATOM     83  O   UNL A   1      34.360  35.047  27.625  1.00  0.00    -0.237 OA
ATOM     84  O   UNL A   1      33.227  32.862  27.783  1.00  0.00    -0.744 OA
ENDBRANCH  80  81
ENDBRANCH  61  75
BRANCH  62  85
ATOM     85  C   UNL A   1      45.312  29.255  36.040  1.00  0.00    -0.014 A 
ATOM     86  C   UNL A   1      46.539  29.942  36.011  1.00  0.00     0.010 A 
ATOM     87  C   UNL A   1      45.191  28.109  36.848  1.00  0.00     0.010 A 
ATOM     88  C   UNL A   1      47.623  29.493  36.770  1.00  0.00     0.020 A 
ATOM     89  C   UNL A   1      46.265  27.674  37.630  1.00  0.00     0.020 A 
ATOM     90  C   UNL A   1      47.476  28.366  37.583  1.00  0.00     0.054 A 
BRANCH  90  91
ATOM     91  S   UNL A   1      48.875  27.851  38.617  1.00  0.00     0.124 S 
ATOM     92  O   UNL A   1      49.595  26.947  37.726  1.00  0.00    -0.237 OA
ATOM     93  O   UNL A   1      49.537  29.122  38.903  1.00  0.00    -0.237 OA
ATOM     94  O   UNL A   1      48.235  27.218  39.768  1.00  0.00    -0.744 OA
ENDBRANCH  90  91
ENDBRANCH  62  85
BRANCH  74  95
ATOM     95  C   UNL A   1      39.913  33.403  37.578  1.00  0.00    -0.014 A 
ATOM     96  C   UNL A   1      40.363  34.701  37.875  1.00  0.00     0.010 A 
ATOM     97  C   UNL A   1      39.011  32.774  38.457  1.00  0.00     0.010 A 
ATOM     98  C   UNL A   1      39.944  35.345  39.043  1.00  0.00     0.020 A 
ATOM     99  C   UNL A   1      38.564  33.426  39.609  1.00  0.00     0.020 A 
ATOM    100  C   UNL A   1      39.046  34.704  39.902  1.00  0.00     0.054 A 
BRANCH 100 101
ATOM    101  S   UNL A   1      38.480  35.579  41.387  1.00  0.00     0.124 S 
ATOM    102  O   UNL A   1      39.538  35.270  42.344  1.00  0.00    -0.237 OA
ATOM    103  O   UNL A   1      38.425  36.967  40.937  1.00  0.00    -0.237 OA
ATOM    104  O   UNL A   1      37.183  34.971  41.675  1.00  0.00    -0.744 OA
ENDBRANCH 100 101
ENDBRANCH  74  95
ENDBRANCH  48  49
ENDBRANCH  40  43
ENDBRANCH  38  39
ENDBRANCH   1  38
TORSDOF 18
ENDMDL
MODEL 3
REMARK VINA RESULT:      -9.7      7.759     13.637
REMARK SMILES COc1ccc([C@@H]2[C@@H](C(=O)c3cccc4c3CCCC4)[C@H](C(=O)NCCCCNC(=O)c3ccc(-c4c5nc(c(-c6ccc(S(=O)(=O)[O-])cc6)c6ccc([nH]6)c(-c6ccc(S(=O)(=O)[O-])cc6)c6nc(c(-c7ccc(S(=O)(=O)[O-])cc7)c7ccc4[nH]7)C=C6)C=C5)cc3)SC3=NC(=O)S[C@H]32)cc1
REMARK SMILES IDX 27 1 26 2 25 3 24 4 22 5 23 6 21 8 7 9 8 10 98 11 93 12
REMARK SMILES IDX 97 13 92 14 94 15 95 16 96 17 6 18 3 19 4 20 100 21 5 22
REMARK SMILES IDX 99 23 2 24 1 25 9 26 10 27 11 28 12 29 16 30 13 31 15 32
REMARK SMILES IDX 17 33 14 34 20 35 18 36 19 37 28 38 29 39 30 40 31 42 32 43
REMARK SMILES IDX 33 44 91 45 34 46 90 47 35 48 36 49 37 50 84 51 38 52 89 53
REMARK SMILES IDX 83 54 85 55 39 56 88 57 82 58 81 59 40 61 70 62 51 63 69 64
REMARK SMILES IDX 52 65 55 66 68 67 86 68 53 69 54 70 67 72 87 73 56 74 41 75
REMARK SMILES IDX 42 76 50 77 43 78 49 79 44 80 45 81 46 82 47 83 48 84 71 85
REMARK SMILES IDX 72 86 80 87 73 88 79 89 74 90 75 91 76 92 77 93 78 94 57 95
REMARK SMILES IDX 58 96 66 97 59 98 65 99 60 100 61 101 62 102 63 103 64 104
REMARK H PARENT 24 7 29 41 85 60 55 71
REMARK Flexibility Score: inf
ROOT
ATOM      1  C   UNL A   1      46.277  25.716  30.284  1.00  0.00     0.023 C 
ENDROOT
BRANCH   1   2
ATOM      2  C   UNL A   1      46.596  27.082  29.678  1.00  0.00     0.023 C 
BRANCH   2   3
ATOM      3  C   UNL A   1      45.375  27.875  29.212  1.00  0.00     0.116 C 
BRANCH   3   4
ATOM      4  N   UNL A   1      45.686  28.763  28.103  1.00  0.00    -0.355 N 
ATOM      5  C   UNL A   1      44.886  29.482  27.261  1.00  0.00     0.234 C 
ATOM      6  O   UNL A   1      45.431  30.222  26.438  1.00  0.00    -0.274 OA
ATOM      7  H   UNL A   1      46.649  28.865  27.927  1.00  0.00     0.163 HD
BRANCH   5   8
ATOM      8  C   UNL A   1      43.352  29.422  27.342  1.00  0.00     0.153 C 
ATOM      9  C   UNL A   1      41.348  27.762  27.637  1.00  0.00     0.052 C 
ATOM     10  C   UNL A   1      42.808  27.992  27.125  1.00  0.00     0.093 C 
ATOM     11  C   UNL A   1      41.150  28.239  29.096  1.00  0.00     0.121 C 
ATOM     12  C   UNL A   1      41.358  29.714  29.253  1.00  0.00     0.093 C 
ATOM     13  S   UNL A   1      39.438  28.043  29.727  1.00  0.00    -0.052 SA
ATOM     14  S   UNL A   1      42.887  30.384  28.834  1.00  0.00    -0.095 SA
ATOM     15  N   UNL A   1      40.460  30.465  29.791  1.00  0.00    -0.200 NA
ATOM     16  C   UNL A   1      39.350  29.747  30.154  1.00  0.00     0.306 C 
ATOM     17  O   UNL A   1      38.377  30.201  30.720  1.00  0.00    -0.259 OA
BRANCH   9  18
ATOM     18  C   UNL A   1      40.945  26.283  27.573  1.00  0.00    -0.042 A 
ATOM     19  C   UNL A   1      40.332  23.533  27.423  1.00  0.00     0.118 A 
ATOM     20  C   UNL A   1      41.231  24.003  28.376  1.00  0.00     0.047 A 
ATOM     21  C   UNL A   1      39.736  24.431  26.542  1.00  0.00     0.047 A 
ATOM     22  C   UNL A   1      41.570  25.355  28.417  1.00  0.00     0.008 A 
ATOM     23  C   UNL A   1      40.031  25.798  26.623  1.00  0.00     0.008 A 
BRANCH  19  24
ATOM     24  O   UNL A   1      40.069  22.193  27.477  1.00  0.00    -0.497 OA
ATOM     25  C   UNL A   1      40.011  21.542  26.212  1.00  0.00     0.278 C 
ENDBRANCH  19  24
ENDBRANCH   9  18
BRANCH  10  26
ATOM     26  C   UNL A   1      43.112  27.562  25.646  1.00  0.00     0.168 C 
ATOM     27  O   UNL A   1      42.406  27.959  24.721  1.00  0.00    -0.294 OA
BRANCH  26  28
ATOM     28  C   UNL A   1      44.198  26.590  25.322  1.00  0.00     0.021 A 
ATOM     29  C   UNL A   1      45.423  27.088  24.924  1.00  0.00     0.012 A 
ATOM     30  C   UNL A   1      44.165  25.306  25.864  1.00  0.00    -0.034 A 
ATOM     31  C   UNL A   1      46.581  26.523  25.459  1.00  0.00     0.001 A 
ATOM     32  C   UNL A   1      45.249  24.899  26.653  1.00  0.00    -0.044 A 
ATOM     33  C   UNL A   1      43.781  24.157  24.895  1.00  0.00     0.036 C 
ATOM     34  C   UNL A   1      46.481  25.512  26.424  1.00  0.00     0.004 A 
ATOM     35  C   UNL A   1      45.078  23.678  27.516  1.00  0.00     0.036 C 
ATOM     36  C   UNL A   1      43.731  22.772  25.561  1.00  0.00     0.005 C 
ATOM     37  C   UNL A   1      43.865  22.838  27.081  1.00  0.00     0.005 C 
ENDBRANCH  26  28
ENDBRANCH  10  26
ENDBRANCH   5   8
ENDBRANCH   3   4
ENDBRANCH   2   3
ENDBRANCH   1   2
BRANCH   1  38
ATOM     38  C   UNL A   1      44.829  25.520  30.714  1.00  0.00     0.116 C 
BRANCH  38  39
ATOM     39  N   UNL A   1      44.634  24.323  31.519  1.00  0.00    -0.352 N 
ATOM     40  C   UNL A   1      44.380  24.223  32.868  1.00  0.00     0.251 C 
ATOM     41  H   UNL A   1      44.692  23.469  31.033  1.00  0.00     0.163 HD
ATOM     42  O   UNL A   1      44.393  23.122  33.411  1.00  0.00    -0.269 OA
BRANCH  40  43
ATOM     43  C   UNL A   1      44.126  25.447  33.660  1.00  0.00     0.039 A 
ATOM     44  C   UNL A   1      44.919  26.575  33.441  1.00  0.00     0.014 A 
ATOM     45  C   UNL A   1      43.089  25.487  34.595  1.00  0.00     0.014 A 
ATOM     46  C   UNL A   1      44.627  27.766  34.112  1.00  0.00     0.010 A 
ATOM     47  C   UNL A   1      42.745  26.696  35.195  1.00  0.00     0.010 A 
ATOM     48  C   UNL A   1      43.514  27.847  34.966  1.00  0.00    -0.014 A 
BRANCH  48  49
ATOM     49  C   UNL A   1      43.138  29.120  35.634  1.00  0.00     0.031 A 
ATOM     50  C   UNL A   1      43.895  29.588  36.848  1.00  0.00     0.074 A 
ATOM     51  C   UNL A   1      42.080  29.826  35.189  1.00  0.00     0.049 A 
ATOM     52  N   UNL A   1      43.693  30.644  37.593  1.00  0.00    -0.248 NA
ATOM     53  C   UNL A   1      45.011  28.741  37.299  1.00  0.00     0.031 C 
ATOM     54  C   UNL A   1      41.245  29.470  34.041  1.00  0.00     0.029 A 
ATOM     55  N   UNL A   1      41.526  30.994  35.650  1.00  0.00    -0.354 N 
ATOM     56  C   UNL A   1      44.644  30.582  38.605  1.00  0.00     0.074 A 
ATOM     57  C   UNL A   1      45.377  29.350  38.417  1.00  0.00     0.031 C 
ATOM     58  C   UNL A   1      40.316  30.422  33.859  1.00  0.00     0.029 A 
ATOM     59  C   UNL A   1      40.456  31.430  34.906  1.00  0.00     0.049 A 
ATOM     60  H   UNL A   1      41.864  31.475  36.440  1.00  0.00     0.167 HD
ATOM     61  C   UNL A   1      44.903  31.479  39.588  1.00  0.00     0.031 A 
ATOM     62  C   UNL A   1      39.675  32.520  35.046  1.00  0.00     0.031 A 
ATOM     63  C   UNL A   1      44.163  32.698  39.780  1.00  0.00     0.049 A 
ATOM     64  C   UNL A   1      39.947  33.477  36.174  1.00  0.00     0.074 A 
ATOM     65  C   UNL A   1      44.367  33.690  40.722  1.00  0.00     0.029 A 
ATOM     66  N   UNL A   1      43.070  33.088  39.020  1.00  0.00    -0.354 N 
ATOM     67  N   UNL A   1      40.887  33.432  37.088  1.00  0.00    -0.248 NA
ATOM     68  C   UNL A   1      39.056  34.641  36.282  1.00  0.00     0.031 C 
ATOM     69  C   UNL A   1      43.360  34.649  40.571  1.00  0.00     0.029 A 
ATOM     70  C   UNL A   1      42.571  34.292  39.489  1.00  0.00     0.049 A 
ATOM     71  H   UNL A   1      42.702  32.582  38.259  1.00  0.00     0.167 HD
ATOM     72  C   UNL A   1      40.723  34.578  37.858  1.00  0.00     0.074 A 
ATOM     73  C   UNL A   1      39.599  35.300  37.297  1.00  0.00     0.031 C 
ATOM     74  C   UNL A   1      41.445  34.999  38.926  1.00  0.00     0.031 A 
BRANCH  61  75
ATOM     75  C   UNL A   1      46.027  31.146  40.539  1.00  0.00    -0.014 A 
ATOM     76  C   UNL A   1      47.352  31.536  40.266  1.00  0.00     0.010 A 
ATOM     77  C   UNL A   1      45.759  30.420  41.714  1.00  0.00     0.010 A 
ATOM     78  C   UNL A   1      48.396  31.141  41.106  1.00  0.00     0.020 A 
ATOM     79  C   UNL A   1      46.797  30.054  42.577  1.00  0.00     0.020 A 
ATOM     80  C   UNL A   1      48.113  30.391  42.251  1.00  0.00     0.054 A 
BRANCH  80  81
ATOM     81  S   UNL A   1      49.490  29.861  43.305  1.00  0.00     0.124 S 
ATOM     82  O   UNL A   1      50.147  31.131  43.600  1.00  0.00    -0.237 OA
ATOM     83  O   UNL A   1      48.806  29.231  44.432  1.00  0.00    -0.237 OA
ATOM     84  O   UNL A   1      50.249  28.949  42.453  1.00  0.00    -0.744 OA
ENDBRANCH  80  81
ENDBRANCH  61  75
BRANCH  62  85
ATOM     85  C   UNL A   1      38.593  32.785  34.059  1.00  0.00    -0.014 A 
ATOM     86  C   UNL A   1      38.846  33.591  32.936  1.00  0.00     0.010 A 
ATOM     87  C   UNL A   1      37.318  32.208  34.211  1.00  0.00     0.010 A 
ATOM     88  C   UNL A   1      37.847  33.819  31.985  1.00  0.00     0.020 A 
ATOM     89  C   UNL A   1      36.326  32.410  33.248  1.00  0.00     0.020 A 
ATOM     90  C   UNL A   1      36.595  33.219  32.143  1.00  0.00     0.054 A 
BRANCH  90  91
ATOM     91  S   UNL A   1      35.342  33.469  30.855  1.00  0.00     0.124 S 
ATOM     92  O   UNL A   1      34.717  34.719  31.276  1.00  0.00    -0.237 OA
ATOM     93  O   UNL A   1      36.152  33.542  29.641  1.00  0.00    -0.237 OA
ATOM     94  O   UNL A   1      34.499  32.280  30.962  1.00  0.00    -0.744 OA
ENDBRANCH  90  91
ENDBRANCH  62  85
BRANCH  74  95
ATOM     95  C   UNL A   1      41.071  36.323  39.541  1.00  0.00    -0.014 A 
ATOM     96  C   UNL A   1      39.959  36.452  40.390  1.00  0.00     0.010 A 
ATOM     97  C   UNL A   1      41.885  37.447  39.303  1.00  0.00     0.010 A 
ATOM     98  C   UNL A   1      39.648  37.689  40.965  1.00  0.00     0.020 A 
ATOM     99  C   UNL A   1      41.597  38.677  39.900  1.00  0.00     0.020 A 
ATOM    100  C   UNL A   1      40.470  38.793  40.718  1.00  0.00     0.054 A 
BRANCH 100 101
ATOM    101  S   UNL A   1      40.073  40.374  41.513  1.00  0.00     0.124 S 
ATOM    102  O   UNL A   1      39.447  41.115  40.421  1.00  0.00    -0.237 OA
ATOM    103  O   UNL A   1      39.176  39.971  42.593  1.00  0.00    -0.237 OA
ATOM    104  O   UNL A   1      41.372  40.882  41.945  1.00  0.00    -0.744 OA
ENDBRANCH 100 101
ENDBRANCH  74  95
ENDBRANCH  48  49
ENDBRANCH  40  43
ENDBRANCH  38  39
ENDBRANCH   1  38
TORSDOF 18
ENDMDL
