MODEL 1
REMARK VINA RESULT:      -9.4      0.000      0.000
REMARK SMILES CCOCCC(=O)Nc1cc(C(=O)NCCCCNC(=O)c2ccc(-c3c4nc(c(-c5ccc(S(=O)(=O)[O-])cc5)c5ccc([nH]5)c(-c5ccc(S(=O)(=O)[O-])cc5)c5nc(c(-c6ccc(S(=O)(=O)[O-])cc6)c6ccc3[nH]6)C=C5)C=C4)cc2)ccc1Cl
REMARK SMILES IDX 15 1 14 2 12 3 13 4 11 6 9 7 10 8 84 9 83 10 85 11 82 12
REMARK SMILES IDX 8 13 6 14 7 15 5 17 4 18 3 19 2 20 1 21 16 22 17 23 18 24
REMARK SMILES IDX 19 25 20 26 21 28 22 29 23 30 81 31 24 32 80 33 25 34 26 35
REMARK SMILES IDX 27 36 74 37 28 38 79 39 73 40 75 41 29 42 78 43 72 44 71 45
REMARK SMILES IDX 30 47 60 48 41 49 59 50 42 51 45 52 58 53 76 54 43 55 44 56
REMARK SMILES IDX 57 58 77 59 46 60 31 61 32 62 40 63 33 64 39 65 34 66 35 67
REMARK SMILES IDX 36 68 37 69 38 70 61 71 62 72 70 73 63 74 69 75 64 76 65 77
REMARK SMILES IDX 66 78 67 79 68 80 47 81 48 82 56 83 49 84 55 85 50 86 51 87
REMARK SMILES IDX 52 88 53 89 54 90
REMARK H PARENT 14 5 8 16 19 27 75 46 45 57
REMARK Flexibility Score: inf
ROOT
ATOM      1  C   UNL A   1      34.203  24.809  25.045  1.00  0.00     0.116 C 
ENDROOT
BRANCH   1   2
ATOM      2  N   UNL A   1      34.378  25.227  23.662  1.00  0.00    -0.352 N 
ATOM      3  C   UNL A   1      33.527  25.985  22.884  1.00  0.00     0.251 C 
ATOM      4  O   UNL A   1      33.779  26.211  21.706  1.00  0.00    -0.269 OA
ATOM      5  H   UNL A   1      35.210  24.931  23.225  1.00  0.00     0.163 HD
BRANCH   3   6
ATOM      6  C   UNL A   1      32.245  26.449  23.463  1.00  0.00     0.041 A 
ATOM      7  C   UNL A   1      30.795  28.324  23.993  1.00  0.00     0.060 A 
ATOM      8  C   UNL A   1      32.067  27.816  23.694  1.00  0.00     0.041 A 
ATOM      9  C   UNL A   1      29.709  27.452  23.832  1.00  0.00     0.064 A 
ATOM     10  C   UNL A   1      29.909  26.070  23.793  1.00  0.00     0.023 A 
ATOM     11  Cl  UNL A   1      28.151  27.959  23.277  1.00  0.00    -0.082 Cl
ATOM     12  C   UNL A   1      31.194  25.563  23.690  1.00  0.00     0.015 A 
BRANCH   7  13
ATOM     13  N   UNL A   1      30.785  29.658  24.452  1.00  0.00    -0.325 N 
ATOM     14  C   UNL A   1      31.269  30.278  25.566  1.00  0.00     0.226 C 
ATOM     15  O   UNL A   1      31.206  31.514  25.590  1.00  0.00    -0.275 OA
ATOM     16  H   UNL A   1      30.330  30.275  23.835  1.00  0.00     0.169 HD
BRANCH  14  17
ATOM     17  C   UNL A   1      31.899  29.557  26.724  1.00  0.00     0.129 C 
BRANCH  17  18
ATOM     18  C   UNL A   1      33.423  29.697  26.722  1.00  0.00     0.170 C 
BRANCH  18  19
ATOM     19  O   UNL A   1      33.961  30.962  27.112  1.00  0.00    -0.381 OA
BRANCH  19  20
ATOM     20  C   UNL A   1      35.240  30.898  27.744  1.00  0.00     0.156 C 
ATOM     21  C   UNL A   1      35.572  29.456  28.068  1.00  0.00     0.035 C 
ENDBRANCH  19  20
ENDBRANCH  18  19
ENDBRANCH  17  18
ENDBRANCH  14  17
ENDBRANCH   7  13
ENDBRANCH   3   6
ENDBRANCH   1   2
BRANCH   1  22
ATOM     22  C   UNL A   1      34.397  23.322  25.299  1.00  0.00     0.023 C 
BRANCH  22  23
ATOM     23  C   UNL A   1      35.788  22.778  25.007  1.00  0.00     0.023 C 
BRANCH  23  24
ATOM     24  C   UNL A   1      36.849  23.071  26.058  1.00  0.00     0.116 C 
BRANCH  24  25
ATOM     25  N   UNL A   1      37.985  22.161  26.019  1.00  0.00    -0.352 N 
ATOM     26  C   UNL A   1      39.305  22.420  26.330  1.00  0.00     0.251 C 
ATOM     27  H   UNL A   1      37.786  21.240  25.735  1.00  0.00     0.163 HD
ATOM     28  O   UNL A   1      40.156  21.560  26.187  1.00  0.00    -0.269 OA
BRANCH  26  29
ATOM     29  C   UNL A   1      39.669  23.777  26.793  1.00  0.00     0.039 A 
ATOM     30  C   UNL A   1      39.910  23.982  28.153  1.00  0.00     0.014 A 
ATOM     31  C   UNL A   1      39.853  24.813  25.875  1.00  0.00     0.014 A 
ATOM     32  C   UNL A   1      40.422  25.208  28.583  1.00  0.00     0.010 A 
ATOM     33  C   UNL A   1      40.441  26.002  26.293  1.00  0.00     0.010 A 
ATOM     34  C   UNL A   1      40.735  26.211  27.650  1.00  0.00    -0.014 A 
BRANCH  34  35
ATOM     35  C   UNL A   1      41.367  27.487  28.070  1.00  0.00     0.031 A 
ATOM     36  C   UNL A   1      42.861  27.648  27.976  1.00  0.00     0.074 A 
ATOM     37  C   UNL A   1      40.613  28.470  28.603  1.00  0.00     0.049 A 
ATOM     38  N   UNL A   1      43.608  28.651  28.360  1.00  0.00    -0.248 NA
ATOM     39  C   UNL A   1      43.616  26.520  27.407  1.00  0.00     0.031 C 
ATOM     40  C   UNL A   1      39.162  28.417  28.796  1.00  0.00     0.029 A 
ATOM     41  N   UNL A   1      40.965  29.704  29.089  1.00  0.00    -0.354 N 
ATOM     42  C   UNL A   1      44.918  28.265  28.101  1.00  0.00     0.074 A 
ATOM     43  C   UNL A   1      44.868  26.918  27.579  1.00  0.00     0.031 C 
ATOM     44  C   UNL A   1      38.745  29.577  29.331  1.00  0.00     0.029 A 
ATOM     45  C   UNL A   1      39.900  30.441  29.553  1.00  0.00     0.049 A 
ATOM     46  H   UNL A   1      41.894  30.031  29.103  1.00  0.00     0.167 HD
ATOM     47  C   UNL A   1      46.060  28.975  28.261  1.00  0.00     0.031 A 
ATOM     48  C   UNL A   1      39.859  31.673  30.098  1.00  0.00     0.031 A 
ATOM     49  C   UNL A   1      46.105  30.324  28.760  1.00  0.00     0.049 A 
ATOM     50  C   UNL A   1      41.138  32.450  30.249  1.00  0.00     0.074 A 
ATOM     51  C   UNL A   1      47.205  31.151  28.904  1.00  0.00     0.029 A 
ATOM     52  N   UNL A   1      45.001  31.044  29.189  1.00  0.00    -0.354 N 
ATOM     53  N   UNL A   1      42.360  32.092  29.940  1.00  0.00    -0.248 NA
ATOM     54  C   UNL A   1      41.028  33.805  30.808  1.00  0.00     0.031 C 
ATOM     55  C   UNL A   1      46.771  32.359  29.459  1.00  0.00     0.029 A 
ATOM     56  C   UNL A   1      45.395  32.302  29.611  1.00  0.00     0.049 A 
ATOM     57  H   UNL A   1      44.075  30.711  29.193  1.00  0.00     0.167 HD
ATOM     58  C   UNL A   1      43.163  33.187  30.239  1.00  0.00     0.074 A 
ATOM     59  C   UNL A   1      42.285  34.223  30.742  1.00  0.00     0.031 C 
ATOM     60  C   UNL A   1      44.506  33.323  30.105  1.00  0.00     0.031 A 
BRANCH  47  61
ATOM     61  C   UNL A   1      47.352  28.298  27.890  1.00  0.00    -0.014 A 
ATOM     62  C   UNL A   1      47.876  28.400  26.589  1.00  0.00     0.010 A 
ATOM     63  C   UNL A   1      48.061  27.564  28.857  1.00  0.00     0.010 A 
ATOM     64  C   UNL A   1      49.058  27.740  26.247  1.00  0.00     0.020 A 
ATOM     65  C   UNL A   1      49.261  26.925  28.527  1.00  0.00     0.020 A 
ATOM     66  C   UNL A   1      49.739  27.000  27.218  1.00  0.00     0.054 A 
BRANCH  66  67
ATOM     67  S   UNL A   1      51.277  26.159  26.750  1.00  0.00     0.124 S 
ATOM     68  O   UNL A   1      51.002  24.783  27.157  1.00  0.00    -0.237 OA
ATOM     69  O   UNL A   1      51.341  26.385  25.309  1.00  0.00    -0.237 OA
ATOM     70  O   UNL A   1      52.300  26.847  27.533  1.00  0.00    -0.744 OA
ENDBRANCH  66  67
ENDBRANCH  47  61
BRANCH  48  71
ATOM     71  C   UNL A   1      38.555  32.259  30.512  1.00  0.00    -0.014 A 
ATOM     72  C   UNL A   1      37.777  32.985  29.590  1.00  0.00     0.010 A 
ATOM     73  C   UNL A   1      38.075  32.085  31.821  1.00  0.00     0.010 A 
ATOM     74  C   UNL A   1      36.553  33.538  29.975  1.00  0.00     0.020 A 
ATOM     75  C   UNL A   1      36.839  32.615  32.205  1.00  0.00     0.020 A 
ATOM     76  C   UNL A   1      36.090  33.348  31.281  1.00  0.00     0.054 A 
BRANCH  76  77
ATOM     77  S   UNL A   1      34.472  34.028  31.743  1.00  0.00     0.124 S 
ATOM     78  O   UNL A   1      33.929  32.969  32.588  1.00  0.00    -0.237 OA
ATOM     79  O   UNL A   1      34.833  35.265  32.430  1.00  0.00    -0.237 OA
ATOM     80  O   UNL A   1      33.801  34.212  30.458  1.00  0.00    -0.744 OA
ENDBRANCH  76  77
ENDBRANCH  48  71
BRANCH  60  81
ATOM     81  C   UNL A   1      45.107  34.654  30.469  1.00  0.00    -0.014 A 
ATOM     82  C   UNL A   1      45.591  34.907  31.764  1.00  0.00     0.010 A 
ATOM     83  C   UNL A   1      45.240  35.645  29.479  1.00  0.00     0.010 A 
ATOM     84  C   UNL A   1      46.172  36.140  32.070  1.00  0.00     0.020 A 
ATOM     85  C   UNL A   1      45.844  36.868  29.775  1.00  0.00     0.020 A 
ATOM     86  C   UNL A   1      46.294  37.114  31.074  1.00  0.00     0.054 A 
BRANCH  86  87
ATOM     87  S   UNL A   1      47.094  38.689  31.484  1.00  0.00     0.124 S 
ATOM     88  O   UNL A   1      47.100  38.655  32.944  1.00  0.00    -0.237 OA
ATOM     89  O   UNL A   1      48.403  38.561  30.847  1.00  0.00    -0.237 OA
ATOM     90  O   UNL A   1      46.214  39.690  30.886  1.00  0.00    -0.744 OA
ENDBRANCH  86  87
ENDBRANCH  60  81
ENDBRANCH  34  35
ENDBRANCH  26  29
ENDBRANCH  24  25
ENDBRANCH  23  24
ENDBRANCH  22  23
ENDBRANCH   1  22
TORSDOF 19
ENDMDL
MODEL 2
REMARK VINA RESULT:      -9.1      5.352     10.608
REMARK SMILES CCOCCC(=O)Nc1cc(C(=O)NCCCCNC(=O)c2ccc(-c3c4nc(c(-c5ccc(S(=O)(=O)[O-])cc5)c5ccc([nH]5)c(-c5ccc(S(=O)(=O)[O-])cc5)c5nc(c(-c6ccc(S(=O)(=O)[O-])cc6)c6ccc3[nH]6)C=C5)C=C4)cc2)ccc1Cl
REMARK SMILES IDX 15 1 14 2 12 3 13 4 11 6 9 7 10 8 84 9 83 10 85 11 82 12
REMARK SMILES IDX 8 13 6 14 7 15 5 17 4 18 3 19 2 20 1 21 16 22 17 23 18 24
REMARK SMILES IDX 19 25 20 26 21 28 22 29 23 30 81 31 24 32 80 33 25 34 26 35
REMARK SMILES IDX 27 36 74 37 28 38 79 39 73 40 75 41 29 42 78 43 72 44 71 45
REMARK SMILES IDX 30 47 60 48 41 49 59 50 42 51 45 52 58 53 76 54 43 55 44 56
REMARK SMILES IDX 57 58 77 59 46 60 31 61 32 62 40 63 33 64 39 65 34 66 35 67
REMARK SMILES IDX 36 68 37 69 38 70 61 71 62 72 70 73 63 74 69 75 64 76 65 77
REMARK SMILES IDX 66 78 67 79 68 80 47 81 48 82 56 83 49 84 55 85 50 86 51 87
REMARK SMILES IDX 52 88 53 89 54 90
REMARK H PARENT 14 5 8 16 19 27 75 46 45 57
REMARK Flexibility Score: inf
ROOT
ATOM      1  C   UNL A   1      32.765  29.446  25.787  1.00  0.00     0.116 C 
ENDROOT
BRANCH   1   2
ATOM      2  N   UNL A   1      31.772  28.529  26.326  1.00  0.00    -0.352 N 
ATOM      3  C   UNL A   1      31.580  27.198  26.016  1.00  0.00     0.251 C 
ATOM      4  O   UNL A   1      30.657  26.560  26.510  1.00  0.00    -0.269 OA
ATOM      5  H   UNL A   1      31.158  28.906  26.998  1.00  0.00     0.163 HD
BRANCH   3   6
ATOM      6  C   UNL A   1      32.450  26.564  24.999  1.00  0.00     0.041 A 
ATOM      7  C   UNL A   1      34.220  24.971  24.521  1.00  0.00     0.060 A 
ATOM      8  C   UNL A   1      33.533  25.790  25.428  1.00  0.00     0.041 A 
ATOM      9  C   UNL A   1      33.642  24.801  23.255  1.00  0.00     0.064 A 
ATOM     10  C   UNL A   1      32.693  25.709  22.781  1.00  0.00     0.023 A 
ATOM     11  Cl  UNL A   1      33.718  23.321  22.363  1.00  0.00    -0.082 Cl
ATOM     12  C   UNL A   1      32.152  26.651  23.641  1.00  0.00     0.015 A 
BRANCH   7  13
ATOM     13  N   UNL A   1      35.435  24.443  25.007  1.00  0.00    -0.325 N 
ATOM     14  C   UNL A   1      35.751  23.515  25.955  1.00  0.00     0.226 C 
ATOM     15  O   UNL A   1      36.940  23.181  26.037  1.00  0.00    -0.275 OA
ATOM     16  H   UNL A   1      36.227  24.829  24.567  1.00  0.00     0.169 HD
BRANCH  14  17
ATOM     17  C   UNL A   1      34.746  22.860  26.859  1.00  0.00     0.129 C 
BRANCH  17  18
ATOM     18  C   UNL A   1      33.985  21.739  26.149  1.00  0.00     0.170 C 
BRANCH  18  19
ATOM     19  O   UNL A   1      32.568  21.693  26.335  1.00  0.00    -0.381 OA
BRANCH  19  20
ATOM     20  C   UNL A   1      31.818  21.435  25.147  1.00  0.00     0.156 C 
ATOM     21  C   UNL A   1      32.602  20.503  24.247  1.00  0.00     0.035 C 
ENDBRANCH  19  20
ENDBRANCH  18  19
ENDBRANCH  17  18
ENDBRANCH  14  17
ENDBRANCH   7  13
ENDBRANCH   3   6
ENDBRANCH   1   2
BRANCH   1  22
ATOM     22  C   UNL A   1      33.845  29.877  26.766  1.00  0.00     0.023 C 
BRANCH  22  23
ATOM     23  C   UNL A   1      33.484  31.045  27.674  1.00  0.00     0.023 C 
BRANCH  23  24
ATOM     24  C   UNL A   1      34.047  32.399  27.268  1.00  0.00     0.116 C 
BRANCH  24  25
ATOM     25  N   UNL A   1      33.308  33.532  27.806  1.00  0.00    -0.352 N 
ATOM     26  C   UNL A   1      33.515  34.209  28.991  1.00  0.00     0.251 C 
ATOM     27  H   UNL A   1      32.562  33.858  27.253  1.00  0.00     0.163 HD
ATOM     28  O   UNL A   1      32.764  35.105  29.333  1.00  0.00    -0.269 OA
BRANCH  26  29
ATOM     29  C   UNL A   1      34.639  33.790  29.858  1.00  0.00     0.039 A 
ATOM     30  C   UNL A   1      34.394  32.870  30.879  1.00  0.00     0.014 A 
ATOM     31  C   UNL A   1      35.936  34.239  29.602  1.00  0.00     0.014 A 
ATOM     32  C   UNL A   1      35.468  32.332  31.591  1.00  0.00     0.010 A 
ATOM     33  C   UNL A   1      37.009  33.641  30.254  1.00  0.00     0.010 A 
ATOM     34  C   UNL A   1      36.787  32.679  31.252  1.00  0.00    -0.014 A 
BRANCH  34  35
ATOM     35  C   UNL A   1      37.950  32.052  31.930  1.00  0.00     0.031 A 
ATOM     36  C   UNL A   1      38.389  32.554  33.279  1.00  0.00     0.074 A 
ATOM     37  C   UNL A   1      38.654  31.088  31.304  1.00  0.00     0.049 A 
ATOM     38  N   UNL A   1      39.420  32.190  33.999  1.00  0.00    -0.248 NA
ATOM     39  C   UNL A   1      37.582  33.626  33.885  1.00  0.00     0.031 C 
ATOM     40  C   UNL A   1      38.363  30.550  29.973  1.00  0.00     0.029 A 
ATOM     41  N   UNL A   1      39.770  30.393  31.703  1.00  0.00    -0.354 N 
ATOM     42  C   UNL A   1      39.398  33.005  35.125  1.00  0.00     0.074 A 
ATOM     43  C   UNL A   1      38.286  33.914  34.969  1.00  0.00     0.031 C 
ATOM     44  C   UNL A   1      39.256  29.591  29.679  1.00  0.00     0.029 A 
ATOM     45  C   UNL A   1      40.205  29.470  30.781  1.00  0.00     0.049 A 
ATOM     46  H   UNL A   1      40.215  30.542  32.568  1.00  0.00     0.167 HD
ATOM     47  C   UNL A   1      40.216  32.983  36.205  1.00  0.00     0.031 A 
ATOM     48  C   UNL A   1      41.251  28.622  30.819  1.00  0.00     0.031 A 
ATOM     49  C   UNL A   1      41.308  32.062  36.368  1.00  0.00     0.049 A 
ATOM     50  C   UNL A   1      42.136  28.602  32.036  1.00  0.00     0.074 A 
ATOM     51  C   UNL A   1      42.158  31.919  37.450  1.00  0.00     0.029 A 
ATOM     52  N   UNL A   1      41.696  31.122  35.425  1.00  0.00    -0.354 N 
ATOM     53  N   UNL A   1      42.061  29.337  33.119  1.00  0.00    -0.248 NA
ATOM     54  C   UNL A   1      43.235  27.627  32.042  1.00  0.00     0.031 C 
ATOM     55  C   UNL A   1      43.087  30.919  37.144  1.00  0.00     0.029 A 
ATOM     56  C   UNL A   1      42.782  30.404  35.894  1.00  0.00     0.049 A 
ATOM     57  H   UNL A   1      41.262  30.985  34.552  1.00  0.00     0.167 HD
ATOM     58  C   UNL A   1      43.084  28.894  33.949  1.00  0.00     0.074 A 
ATOM     59  C   UNL A   1      43.756  27.820  33.246  1.00  0.00     0.031 C 
ATOM     60  C   UNL A   1      43.434  29.334  35.183  1.00  0.00     0.031 A 
BRANCH  47  61
ATOM     61  C   UNL A   1      39.952  33.991  37.292  1.00  0.00    -0.014 A 
ATOM     62  C   UNL A   1      39.090  33.693  38.362  1.00  0.00     0.010 A 
ATOM     63  C   UNL A   1      40.585  35.246  37.252  1.00  0.00     0.010 A 
ATOM     64  C   UNL A   1      38.826  34.648  39.346  1.00  0.00     0.020 A 
ATOM     65  C   UNL A   1      40.347  36.195  38.251  1.00  0.00     0.020 A 
ATOM     66  C   UNL A   1      39.452  35.896  39.280  1.00  0.00     0.054 A 
BRANCH  66  67
ATOM     67  S   UNL A   1      39.098  37.116  40.576  1.00  0.00     0.124 S 
ATOM     68  O   UNL A   1      40.424  37.672  40.833  1.00  0.00    -0.237 OA
ATOM     69  O   UNL A   1      38.156  38.018  39.920  1.00  0.00    -0.237 OA
ATOM     70  O   UNL A   1      38.537  36.314  41.661  1.00  0.00    -0.744 OA
ENDBRANCH  66  67
ENDBRANCH  47  61
BRANCH  48  71
ATOM     71  C   UNL A   1      41.502  27.698  29.678  1.00  0.00    -0.014 A 
ATOM     72  C   UNL A   1      40.639  26.612  29.441  1.00  0.00     0.010 A 
ATOM     73  C   UNL A   1      42.592  27.905  28.815  1.00  0.00     0.010 A 
ATOM     74  C   UNL A   1      40.872  25.742  28.372  1.00  0.00     0.020 A 
ATOM     75  C   UNL A   1      42.814  27.052  27.730  1.00  0.00     0.020 A 
ATOM     76  C   UNL A   1      41.957  25.969  27.521  1.00  0.00     0.054 A 
BRANCH  76  77
ATOM     77  S   UNL A   1      42.208  24.859  26.107  1.00  0.00     0.124 S 
ATOM     78  O   UNL A   1      41.672  25.650  25.003  1.00  0.00    -0.237 OA
ATOM     79  O   UNL A   1      43.656  24.669  26.106  1.00  0.00    -0.237 OA
ATOM     80  O   UNL A   1      41.433  23.673  26.464  1.00  0.00    -0.744 OA
ENDBRANCH  76  77
ENDBRANCH  48  71
BRANCH  60  81
ATOM     81  C   UNL A   1      44.570  28.629  35.874  1.00  0.00    -0.014 A 
ATOM     82  C   UNL A   1      44.348  27.493  36.671  1.00  0.00     0.010 A 
ATOM     83  C   UNL A   1      45.887  29.081  35.672  1.00  0.00     0.010 A 
ATOM     84  C   UNL A   1      45.422  26.838  37.278  1.00  0.00     0.020 A 
ATOM     85  C   UNL A   1      46.965  28.412  36.256  1.00  0.00     0.020 A 
ATOM     86  C   UNL A   1      46.725  27.302  37.068  1.00  0.00     0.054 A 
BRANCH  86  87
ATOM     87  S   UNL A   1      48.106  26.407  37.828  1.00  0.00     0.124 S 
ATOM     88  O   UNL A   1      48.162  25.192  37.020  1.00  0.00    -0.237 OA
ATOM     89  O   UNL A   1      49.224  27.330  37.653  1.00  0.00    -0.237 OA
ATOM     90  O   UNL A   1      47.675  26.217  39.212  1.00  0.00    -0.744 OA
ENDBRANCH  86  87
ENDBRANCH  60  81
ENDBRANCH  34  35
ENDBRANCH  26  29
ENDBRANCH  24  25
ENDBRANCH  23  24
ENDBRANCH  22  23
ENDBRANCH   1  22
TORSDOF 19
ENDMDL
MODEL 3
REMARK VINA RESULT:      -9.0      3.930     10.412
REMARK SMILES CCOCCC(=O)Nc1cc(C(=O)NCCCCNC(=O)c2ccc(-c3c4nc(c(-c5ccc(S(=O)(=O)[O-])cc5)c5ccc([nH]5)c(-c5ccc(S(=O)(=O)[O-])cc5)c5nc(c(-c6ccc(S(=O)(=O)[O-])cc6)c6ccc3[nH]6)C=C5)C=C4)cc2)ccc1Cl
REMARK SMILES IDX 15 1 14 2 12 3 13 4 11 6 9 7 10 8 84 9 83 10 85 11 82 12
REMARK SMILES IDX 8 13 6 14 7 15 5 17 4 18 3 19 2 20 1 21 16 22 17 23 18 24
REMARK SMILES IDX 19 25 20 26 21 28 22 29 23 30 81 31 24 32 80 33 25 34 26 35
REMARK SMILES IDX 27 36 74 37 28 38 79 39 73 40 75 41 29 42 78 43 72 44 71 45
REMARK SMILES IDX 30 47 60 48 41 49 59 50 42 51 45 52 58 53 76 54 43 55 44 56
REMARK SMILES IDX 57 58 77 59 46 60 31 61 32 62 40 63 33 64 39 65 34 66 35 67
REMARK SMILES IDX 36 68 37 69 38 70 61 71 62 72 70 73 63 74 69 75 64 76 65 77
REMARK SMILES IDX 66 78 67 79 68 80 47 81 48 82 56 83 49 84 55 85 50 86 51 87
REMARK SMILES IDX 52 88 53 89 54 90
REMARK H PARENT 14 5 8 16 19 27 75 46 45 57
REMARK Flexibility Score: inf
ROOT
ATOM      1  C   UNL A   1      37.040  33.220  29.078  1.00  0.00     0.116 C 
ENDROOT
BRANCH   1   2
ATOM      2  N   UNL A   1      38.128  34.187  29.073  1.00  0.00    -0.352 N 
ATOM      3  C   UNL A   1      38.890  34.622  30.139  1.00  0.00     0.251 C 
ATOM      4  O   UNL A   1      39.740  35.492  29.994  1.00  0.00    -0.269 OA
ATOM      5  H   UNL A   1      38.349  34.581  28.197  1.00  0.00     0.163 HD
BRANCH   3   6
ATOM      6  C   UNL A   1      38.603  34.091  31.491  1.00  0.00     0.041 A 
ATOM      7  C   UNL A   1      37.068  32.885  32.937  1.00  0.00     0.060 A 
ATOM      8  C   UNL A   1      37.315  33.624  31.771  1.00  0.00     0.041 A 
ATOM      9  C   UNL A   1      38.187  32.460  33.668  1.00  0.00     0.064 A 
ATOM     10  C   UNL A   1      39.425  33.083  33.495  1.00  0.00     0.023 A 
ATOM     11  Cl  UNL A   1      38.262  30.948  34.504  1.00  0.00    -0.082 Cl
ATOM     12  C   UNL A   1      39.610  33.968  32.445  1.00  0.00     0.015 A 
BRANCH   7  13
ATOM     13  N   UNL A   1      35.703  32.691  33.234  1.00  0.00    -0.325 N 
ATOM     14  C   UNL A   1      34.600  33.491  33.176  1.00  0.00     0.226 C 
ATOM     15  O   UNL A   1      33.506  32.951  33.384  1.00  0.00    -0.275 OA
ATOM     16  H   UNL A   1      35.502  31.782  33.554  1.00  0.00     0.169 HD
BRANCH  14  17
ATOM     17  C   UNL A   1      34.639  34.954  32.840  1.00  0.00     0.129 C 
BRANCH  17  18
ATOM     18  C   UNL A   1      34.187  35.823  34.016  1.00  0.00     0.170 C 
BRANCH  18  19
ATOM     19  O   UNL A   1      33.591  37.084  33.704  1.00  0.00    -0.381 OA
BRANCH  19  20
ATOM     20  C   UNL A   1      33.900  37.584  32.403  1.00  0.00     0.156 C 
ATOM     21  C   UNL A   1      33.709  39.086  32.380  1.00  0.00     0.035 C 
ENDBRANCH  19  20
ENDBRANCH  18  19
ENDBRANCH  17  18
ENDBRANCH  14  17
ENDBRANCH   7  13
ENDBRANCH   3   6
ENDBRANCH   1   2
BRANCH   1  22
ATOM     22  C   UNL A   1      35.658  33.806  29.322  1.00  0.00     0.023 C 
BRANCH  22  23
ATOM     23  C   UNL A   1      34.486  32.891  28.996  1.00  0.00     0.023 C 
BRANCH  23  24
ATOM     24  C   UNL A   1      34.489  32.278  27.603  1.00  0.00     0.116 C 
BRANCH  24  25
ATOM     25  N   UNL A   1      33.856  30.970  27.532  1.00  0.00    -0.352 N 
ATOM     26  C   UNL A   1      34.421  29.728  27.745  1.00  0.00     0.251 C 
ATOM     27  H   UNL A   1      32.899  30.969  27.301  1.00  0.00     0.163 HD
ATOM     28  O   UNL A   1      33.767  28.713  27.585  1.00  0.00    -0.269 OA
BRANCH  26  29
ATOM     29  C   UNL A   1      35.849  29.658  28.125  1.00  0.00     0.039 A 
ATOM     30  C   UNL A   1      36.180  29.342  29.444  1.00  0.00     0.014 A 
ATOM     31  C   UNL A   1      36.847  29.817  27.161  1.00  0.00     0.014 A 
ATOM     32  C   UNL A   1      37.514  29.100  29.778  1.00  0.00     0.010 A 
ATOM     33  C   UNL A   1      38.162  29.494  27.476  1.00  0.00     0.010 A 
ATOM     34  C   UNL A   1      38.509  29.129  28.787  1.00  0.00    -0.014 A 
BRANCH  34  35
ATOM     35  C   UNL A   1      39.920  28.784  29.097  1.00  0.00     0.031 A 
ATOM     36  C   UNL A   1      40.818  29.810  29.733  1.00  0.00     0.074 A 
ATOM     37  C   UNL A   1      40.413  27.580  28.741  1.00  0.00     0.049 A 
ATOM     38  N   UNL A   1      42.094  29.729  30.013  1.00  0.00    -0.248 NA
ATOM     39  C   UNL A   1      40.211  31.108  30.069  1.00  0.00     0.031 C 
ATOM     40  C   UNL A   1      39.659  26.517  28.071  1.00  0.00     0.029 A 
ATOM     41  N   UNL A   1      41.672  27.051  28.884  1.00  0.00    -0.354 N 
ATOM     42  C   UNL A   1      42.445  30.970  30.533  1.00  0.00     0.074 A 
ATOM     43  C   UNL A   1      41.263  31.801  30.480  1.00  0.00     0.031 C 
ATOM     44  C   UNL A   1      40.461  25.455  27.890  1.00  0.00     0.029 A 
ATOM     45  C   UNL A   1      41.793  25.771  28.395  1.00  0.00     0.049 A 
ATOM     46  H   UNL A   1      42.417  27.542  29.300  1.00  0.00     0.167 HD
ATOM     47  C   UNL A   1      43.636  31.376  31.031  1.00  0.00     0.031 A 
ATOM     48  C   UNL A   1      42.857  24.946  28.356  1.00  0.00     0.031 A 
ATOM     49  C   UNL A   1      44.804  30.540  31.104  1.00  0.00     0.049 A 
ATOM     50  C   UNL A   1      44.167  25.412  28.932  1.00  0.00     0.074 A 
ATOM     51  C   UNL A   1      46.043  30.837  31.645  1.00  0.00     0.029 A 
ATOM     52  N   UNL A   1      44.876  29.240  30.625  1.00  0.00    -0.354 N 
ATOM     53  N   UNL A   1      44.462  26.567  29.477  1.00  0.00    -0.248 NA
ATOM     54  C   UNL A   1      45.282  24.455  28.903  1.00  0.00     0.031 C 
ATOM     55  C   UNL A   1      46.876  29.730  31.458  1.00  0.00     0.029 A 
ATOM     56  C   UNL A   1      46.142  28.726  30.847  1.00  0.00     0.049 A 
ATOM     57  H   UNL A   1      44.136  28.755  30.194  1.00  0.00     0.167 HD
ATOM     58  C   UNL A   1      45.788  26.467  29.883  1.00  0.00     0.074 A 
ATOM     59  C   UNL A   1      46.233  25.135  29.530  1.00  0.00     0.031 C 
ATOM     60  C   UNL A   1      46.566  27.395  30.495  1.00  0.00     0.031 A 
BRANCH  47  61
ATOM     61  C   UNL A   1      43.728  32.791  31.537  1.00  0.00    -0.014 A 
ATOM     62  C   UNL A   1      44.008  33.856  30.662  1.00  0.00     0.010 A 
ATOM     63  C   UNL A   1      43.515  33.063  32.900  1.00  0.00     0.010 A 
ATOM     64  C   UNL A   1      44.125  35.160  31.148  1.00  0.00     0.020 A 
ATOM     65  C   UNL A   1      43.602  34.371  33.387  1.00  0.00     0.020 A 
ATOM     66  C   UNL A   1      43.927  35.407  32.510  1.00  0.00     0.054 A 
BRANCH  66  67
ATOM     67  S   UNL A   1      44.075  37.112  33.114  1.00  0.00     0.124 S 
ATOM     68  O   UNL A   1      42.818  37.284  33.836  1.00  0.00    -0.237 OA
ATOM     69  O   UNL A   1      45.274  37.055  33.946  1.00  0.00    -0.237 OA
ATOM     70  O   UNL A   1      44.205  37.901  31.892  1.00  0.00    -0.744 OA
ENDBRANCH  66  67
ENDBRANCH  47  61
BRANCH  48  71
ATOM     71  C   UNL A   1      42.720  23.582  27.776  1.00  0.00    -0.014 A 
ATOM     72  C   UNL A   1      42.197  22.530  28.551  1.00  0.00     0.010 A 
ATOM     73  C   UNL A   1      43.096  23.328  26.446  1.00  0.00     0.010 A 
ATOM     74  C   UNL A   1      42.069  21.248  28.011  1.00  0.00     0.020 A 
ATOM     75  C   UNL A   1      42.945  22.053  25.893  1.00  0.00     0.020 A 
ATOM     76  C   UNL A   1      42.442  21.017  26.683  1.00  0.00     0.054 A 
BRANCH  76  77
ATOM     77  S   UNL A   1      42.213  19.357  25.985  1.00  0.00     0.124 S 
ATOM     78  O   UNL A   1      40.767  19.305  25.795  1.00  0.00    -0.237 OA
ATOM     79  O   UNL A   1      43.011  19.415  24.763  1.00  0.00    -0.237 OA
ATOM     80  O   UNL A   1      42.742  18.476  27.023  1.00  0.00    -0.744 OA
ENDBRANCH  76  77
ENDBRANCH  48  71
BRANCH  60  81
ATOM     81  C   UNL A   1      47.968  26.989  30.862  1.00  0.00    -0.014 A 
ATOM     82  C   UNL A   1      48.243  26.318  32.066  1.00  0.00     0.010 A 
ATOM     83  C   UNL A   1      49.016  27.235  29.957  1.00  0.00     0.010 A 
ATOM     84  C   UNL A   1      49.548  25.925  32.371  1.00  0.00     0.020 A 
ATOM     85  C   UNL A   1      50.317  26.821  30.247  1.00  0.00     0.020 A 
ATOM     86  C   UNL A   1      50.578  26.180  31.460  1.00  0.00     0.054 A 
BRANCH  86  87
ATOM     87  S   UNL A   1      52.256  25.619  31.858  1.00  0.00     0.124 S 
ATOM     88  O   UNL A   1      52.969  25.888  30.612  1.00  0.00    -0.237 OA
ATOM     89  O   UNL A   1      52.622  26.471  32.986  1.00  0.00    -0.237 OA
ATOM     90  O   UNL A   1      52.080  24.206  32.183  1.00  0.00    -0.744 OA
ENDBRANCH  86  87
ENDBRANCH  60  81
ENDBRANCH  34  35
ENDBRANCH  26  29
ENDBRANCH  24  25
ENDBRANCH  23  24
ENDBRANCH  22  23
ENDBRANCH   1  22
TORSDOF 19
ENDMDL
