MODEL 1
REMARK VINA RESULT:      -8.7      0.000      0.000
REMARK SMILES COCCCC(=O)N1CCCC[C@@H]1CCC(=O)NCCCCNC(=O)c1ccc(-c2c3nc(c(-c4ccc(S(=O)(=O)[O-])cc4)c4ccc([nH]4)c(-c4ccc(S(=O)(=O)[O-])cc4)c4nc(c(-c5ccc(S(=O)(=O)[O-])cc5)c5ccc2[nH]5)C=C4)C=C3)cc1
REMARK SMILES IDX 16 1 17 2 18 3 15 5 14 6 13 7 8 8 9 9 10 10 12 11 11 12 6 13
REMARK SMILES IDX 7 14 5 15 4 16 3 17 2 18 1 19 19 20 20 21 21 22 22 23 23 24
REMARK SMILES IDX 24 25 25 27 26 28 27 29 85 30 28 31 84 32 29 33 30 34 31 35
REMARK SMILES IDX 78 36 32 37 83 38 77 39 79 40 33 41 82 42 76 43 75 44 34 46
REMARK SMILES IDX 64 47 45 48 63 49 46 50 49 51 62 52 80 53 47 54 48 55 61 57
REMARK SMILES IDX 81 58 50 59 35 60 36 61 44 62 37 63 43 64 38 65 39 66 40 67
REMARK SMILES IDX 41 68 42 69 65 70 66 71 74 72 67 73 73 74 68 75 69 76 70 77
REMARK SMILES IDX 71 78 72 79 51 80 52 81 60 82 53 83 59 84 54 85 55 86 56 87
REMARK SMILES IDX 57 88 58 89
REMARK H PARENT 18 4 23 26 79 45 49 56
REMARK Flexibility Score: inf
ROOT
ATOM      1  C   UNL A   1      35.785  23.182  26.095  1.00  0.00     0.220 C 
ATOM      2  O   UNL A   1      34.927  22.702  26.839  1.00  0.00    -0.275 OA
ATOM      3  N   UNL A   1      37.015  23.434  26.622  1.00  0.00    -0.356 N 
ATOM      4  H   UNL A   1      37.128  23.127  27.550  1.00  0.00     0.163 HD
ENDROOT
BRANCH   1   5
ATOM      5  C   UNL A   1      35.455  23.495  24.644  1.00  0.00     0.102 C 
BRANCH   5   6
ATOM      6  C   UNL A   1      34.637  24.785  24.492  1.00  0.00     0.035 C 
BRANCH   6   7
ATOM      7  C   UNL A   1      33.247  24.523  23.890  1.00  0.00     0.085 C 
ATOM      8  N   UNL A   1      32.603  25.642  23.207  1.00  0.00    -0.340 N 
ATOM      9  C   UNL A   1      31.371  25.330  22.483  1.00  0.00     0.120 C 
ATOM     10  C   UNL A   1      30.385  24.548  23.365  1.00  0.00     0.022 C 
ATOM     11  C   UNL A   1      32.288  23.831  24.856  1.00  0.00     0.025 C 
ATOM     12  C   UNL A   1      31.041  23.375  24.098  1.00  0.00     0.004 C 
BRANCH   8  13
ATOM     13  C   UNL A   1      32.913  26.951  23.521  1.00  0.00     0.222 C 
ATOM     14  O   UNL A   1      33.943  27.502  23.141  1.00  0.00    -0.275 OA
BRANCH  13  15
ATOM     15  C   UNL A   1      31.774  27.729  24.164  1.00  0.00     0.102 C 
BRANCH  15  16
ATOM     16  C   UNL A   1      31.673  27.363  25.654  1.00  0.00     0.038 C 
BRANCH  16  17
ATOM     17  C   UNL A   1      32.955  27.592  26.460  1.00  0.00     0.160 C 
BRANCH  17  18
ATOM     18  O   UNL A   1      32.667  28.419  27.583  1.00  0.00    -0.385 OA
ATOM     19  C   UNL A   1      32.392  29.773  27.265  1.00  0.00     0.194 C 
ENDBRANCH  17  18
ENDBRANCH  16  17
ENDBRANCH  15  16
ENDBRANCH  13  15
ENDBRANCH   8  13
ENDBRANCH   6   7
ENDBRANCH   5   6
ENDBRANCH   1   5
BRANCH   3  20
ATOM     20  C   UNL A   1      38.192  24.072  26.056  1.00  0.00     0.116 C 
BRANCH  20  21
ATOM     21  C   UNL A   1      39.456  23.642  26.811  1.00  0.00     0.023 C 
BRANCH  21  22
ATOM     22  C   UNL A   1      39.588  22.156  27.098  1.00  0.00     0.023 C 
BRANCH  22  23
ATOM     23  C   UNL A   1      39.700  21.285  25.854  1.00  0.00     0.116 C 
BRANCH  23  24
ATOM     24  N   UNL A   1      40.415  20.034  26.056  1.00  0.00    -0.352 N 
ATOM     25  C   UNL A   1      41.746  19.855  26.397  1.00  0.00     0.251 C 
ATOM     26  H   UNL A   1      39.886  19.212  25.936  1.00  0.00     0.163 HD
ATOM     27  O   UNL A   1      42.218  18.731  26.484  1.00  0.00    -0.269 OA
BRANCH  25  28
ATOM     28  C   UNL A   1      42.588  21.053  26.592  1.00  0.00     0.039 A 
ATOM     29  C   UNL A   1      42.993  21.782  25.472  1.00  0.00     0.014 A 
ATOM     30  C   UNL A   1      42.854  21.522  27.878  1.00  0.00     0.014 A 
ATOM     31  C   UNL A   1      43.566  23.043  25.647  1.00  0.00     0.010 A 
ATOM     32  C   UNL A   1      43.330  22.815  28.048  1.00  0.00     0.010 A 
ATOM     33  C   UNL A   1      43.675  23.595  26.935  1.00  0.00    -0.014 A 
BRANCH  33  34
ATOM     34  C   UNL A   1      44.105  25.001  27.146  1.00  0.00     0.031 A 
ATOM     35  C   UNL A   1      45.543  25.391  26.936  1.00  0.00     0.074 A 
ATOM     36  C   UNL A   1      43.228  25.899  27.638  1.00  0.00     0.049 A 
ATOM     37  N   UNL A   1      46.127  26.538  27.164  1.00  0.00    -0.248 NA
ATOM     38  C   UNL A   1      46.450  24.339  26.446  1.00  0.00     0.031 C 
ATOM     39  C   UNL A   1      41.824  25.627  27.963  1.00  0.00     0.029 A 
ATOM     40  N   UNL A   1      43.392  27.221  27.969  1.00  0.00    -0.354 N 
ATOM     41  C   UNL A   1      47.473  26.336  26.883  1.00  0.00     0.074 A 
ATOM     42  C   UNL A   1      47.625  24.946  26.513  1.00  0.00     0.031 C 
ATOM     43  C   UNL A   1      41.251  26.752  28.419  1.00  0.00     0.029 A 
ATOM     44  C   UNL A   1      42.251  27.814  28.455  1.00  0.00     0.049 A 
ATOM     45  H   UNL A   1      44.246  27.700  27.867  1.00  0.00     0.167 HD
ATOM     46  C   UNL A   1      48.489  27.232  26.909  1.00  0.00     0.031 A 
ATOM     47  C   UNL A   1      42.031  29.070  28.889  1.00  0.00     0.031 A 
ATOM     48  C   UNL A   1      48.328  28.620  27.244  1.00  0.00     0.049 A 
ATOM     49  C   UNL A   1      43.159  30.061  28.864  1.00  0.00     0.074 A 
ATOM     50  C   UNL A   1      49.272  29.631  27.204  1.00  0.00     0.029 A 
ATOM     51  N   UNL A   1      47.144  29.194  27.686  1.00  0.00    -0.354 N 
ATOM     52  N   UNL A   1      44.406  29.877  28.501  1.00  0.00    -0.248 NA
ATOM     53  C   UNL A   1      42.849  31.431  29.295  1.00  0.00     0.031 C 
ATOM     54  C   UNL A   1      48.669  30.807  27.663  1.00  0.00     0.029 A 
ATOM     55  C   UNL A   1      47.340  30.539  27.946  1.00  0.00     0.049 A 
ATOM     56  H   UNL A   1      46.292  28.714  27.797  1.00  0.00     0.167 HD
ATOM     57  C   UNL A   1      45.029  31.110  28.651  1.00  0.00     0.074 A 
ATOM     58  C   UNL A   1      44.017  32.037  29.117  1.00  0.00     0.031 C 
ATOM     59  C   UNL A   1      46.324  31.442  28.425  1.00  0.00     0.031 A 
BRANCH  46  60
ATOM     60  C   UNL A   1      49.863  26.720  26.567  1.00  0.00    -0.014 A 
ATOM     61  C   UNL A   1      50.748  26.286  27.571  1.00  0.00     0.010 A 
ATOM     62  C   UNL A   1      50.278  26.680  25.225  1.00  0.00     0.010 A 
ATOM     63  C   UNL A   1      52.045  25.885  27.244  1.00  0.00     0.020 A 
ATOM     64  C   UNL A   1      51.566  26.252  24.891  1.00  0.00     0.020 A 
ATOM     65  C   UNL A   1      52.450  25.881  25.907  1.00  0.00     0.054 A 
BRANCH  65  66
ATOM     66  S   UNL A   1      54.145  25.373  25.510  1.00  0.00     0.124 S 
ATOM     67  O   UNL A   1      54.801  26.660  25.300  1.00  0.00    -0.237 OA
ATOM     68  O   UNL A   1      54.554  24.648  26.710  1.00  0.00    -0.237 OA
ATOM     69  O   UNL A   1      53.987  24.550  24.313  1.00  0.00    -0.744 OA
ENDBRANCH  65  66
ENDBRANCH  46  60
BRANCH  47  70
ATOM     70  C   UNL A   1      40.673  29.457  29.357  1.00  0.00    -0.014 A 
ATOM     71  C   UNL A   1      40.433  29.693  30.721  1.00  0.00     0.010 A 
ATOM     72  C   UNL A   1      39.630  29.651  28.433  1.00  0.00     0.010 A 
ATOM     73  C   UNL A   1      39.175  30.122  31.155  1.00  0.00     0.020 A 
ATOM     74  C   UNL A   1      38.376  30.100  28.861  1.00  0.00     0.020 A 
ATOM     75  C   UNL A   1      38.157  30.329  30.221  1.00  0.00     0.054 A 
BRANCH  75  76
ATOM     76  S   UNL A   1      36.561  30.979  30.794  1.00  0.00     0.124 S 
ATOM     77  O   UNL A   1      35.842  31.167  29.539  1.00  0.00    -0.237 OA
ATOM     78  O   UNL A   1      36.071  29.902  31.651  1.00  0.00    -0.237 OA
ATOM     79  O   UNL A   1      36.927  32.205  31.500  1.00  0.00    -0.744 OA
ENDBRANCH  75  76
ENDBRANCH  47  70
BRANCH  59  80
ATOM     80  C   UNL A   1      46.721  32.871  28.676  1.00  0.00    -0.014 A 
ATOM     81  C   UNL A   1      47.231  33.269  29.924  1.00  0.00     0.010 A 
ATOM     82  C   UNL A   1      46.637  33.813  27.634  1.00  0.00     0.010 A 
ATOM     83  C   UNL A   1      47.629  34.592  30.134  1.00  0.00     0.020 A 
ATOM     84  C   UNL A   1      47.056  35.130  27.833  1.00  0.00     0.020 A 
ATOM     85  C   UNL A   1      47.537  35.514  29.087  1.00  0.00     0.054 A 
BRANCH  85  86
ATOM     86  S   UNL A   1      48.106  37.214  29.366  1.00  0.00     0.124 S 
ATOM     87  O   UNL A   1      48.247  37.715  28.001  1.00  0.00    -0.237 OA
ATOM     88  O   UNL A   1      47.011  37.797  30.139  1.00  0.00    -0.237 OA
ATOM     89  O   UNL A   1      49.357  37.043  30.101  1.00  0.00    -0.744 OA
ENDBRANCH  85  86
ENDBRANCH  59  80
ENDBRANCH  33  34
ENDBRANCH  25  28
ENDBRANCH  23  24
ENDBRANCH  22  23
ENDBRANCH  21  22
ENDBRANCH  20  21
ENDBRANCH   3  20
TORSDOF 21
ENDMDL
MODEL 2
REMARK VINA RESULT:      -8.3      2.665      3.992
REMARK SMILES COCCCC(=O)N1CCCC[C@@H]1CCC(=O)NCCCCNC(=O)c1ccc(-c2c3nc(c(-c4ccc(S(=O)(=O)[O-])cc4)c4ccc([nH]4)c(-c4ccc(S(=O)(=O)[O-])cc4)c4nc(c(-c5ccc(S(=O)(=O)[O-])cc5)c5ccc2[nH]5)C=C4)C=C3)cc1
REMARK SMILES IDX 16 1 17 2 18 3 15 5 14 6 13 7 8 8 9 9 10 10 12 11 11 12 6 13
REMARK SMILES IDX 7 14 5 15 4 16 3 17 2 18 1 19 19 20 20 21 21 22 22 23 23 24
REMARK SMILES IDX 24 25 25 27 26 28 27 29 85 30 28 31 84 32 29 33 30 34 31 35
REMARK SMILES IDX 78 36 32 37 83 38 77 39 79 40 33 41 82 42 76 43 75 44 34 46
REMARK SMILES IDX 64 47 45 48 63 49 46 50 49 51 62 52 80 53 47 54 48 55 61 57
REMARK SMILES IDX 81 58 50 59 35 60 36 61 44 62 37 63 43 64 38 65 39 66 40 67
REMARK SMILES IDX 41 68 42 69 65 70 66 71 74 72 67 73 73 74 68 75 69 76 70 77
REMARK SMILES IDX 71 78 72 79 51 80 52 81 60 82 53 83 59 84 54 85 55 86 56 87
REMARK SMILES IDX 57 88 58 89
REMARK H PARENT 18 4 23 26 79 45 49 56
REMARK Flexibility Score: inf
ROOT
ATOM      1  C   UNL A   1      32.594  22.544  26.009  1.00  0.00     0.220 C 
ATOM      2  O   UNL A   1      32.105  21.423  26.160  1.00  0.00    -0.275 OA
ATOM      3  N   UNL A   1      33.827  22.629  25.438  1.00  0.00    -0.356 N 
ATOM      4  H   UNL A   1      34.187  21.770  25.123  1.00  0.00     0.163 HD
ENDROOT
BRANCH   1   5
ATOM      5  C   UNL A   1      31.837  23.780  26.468  1.00  0.00     0.102 C 
BRANCH   5   6
ATOM      6  C   UNL A   1      31.077  24.464  25.323  1.00  0.00     0.035 C 
BRANCH   6   7
ATOM      7  C   UNL A   1      32.025  25.100  24.296  1.00  0.00     0.085 C 
ATOM      8  N   UNL A   1      32.237  26.542  24.397  1.00  0.00    -0.340 N 
ATOM      9  C   UNL A   1      33.278  27.102  23.536  1.00  0.00     0.120 C 
ATOM     10  C   UNL A   1      33.106  26.645  22.079  1.00  0.00     0.022 C 
ATOM     11  C   UNL A   1      31.733  24.679  22.857  1.00  0.00     0.025 C 
ATOM     12  C   UNL A   1      32.874  25.138  21.949  1.00  0.00     0.004 C 
BRANCH   8  13
ATOM     13  C   UNL A   1      31.291  27.369  24.973  1.00  0.00     0.222 C 
ATOM     14  O   UNL A   1      31.164  27.492  26.188  1.00  0.00    -0.275 OA
BRANCH  13  15
ATOM     15  C   UNL A   1      30.587  28.294  23.992  1.00  0.00     0.102 C 
BRANCH  15  16
ATOM     16  C   UNL A   1      29.345  27.594  23.418  1.00  0.00     0.038 C 
BRANCH  16  17
ATOM     17  C   UNL A   1      28.313  28.533  22.785  1.00  0.00     0.160 C 
BRANCH  17  18
ATOM     18  O   UNL A   1      28.985  29.539  22.035  1.00  0.00    -0.385 OA
ATOM     19  C   UNL A   1      28.133  30.362  21.255  1.00  0.00     0.194 C 
ENDBRANCH  17  18
ENDBRANCH  16  17
ENDBRANCH  15  16
ENDBRANCH  13  15
ENDBRANCH   8  13
ENDBRANCH   6   7
ENDBRANCH   5   6
ENDBRANCH   1   5
BRANCH   3  20
ATOM     20  C   UNL A   1      34.707  23.764  25.211  1.00  0.00     0.116 C 
BRANCH  20  21
ATOM     21  C   UNL A   1      36.011  23.313  24.542  1.00  0.00     0.023 C 
BRANCH  21  22
ATOM     22  C   UNL A   1      36.824  22.275  25.298  1.00  0.00     0.023 C 
BRANCH  22  23
ATOM     23  C   UNL A   1      37.957  22.855  26.135  1.00  0.00     0.116 C 
BRANCH  23  24
ATOM     24  N   UNL A   1      39.254  22.235  25.905  1.00  0.00    -0.352 N 
ATOM     25  C   UNL A   1      40.510  22.754  26.174  1.00  0.00     0.251 C 
ATOM     26  H   UNL A   1      39.235  21.333  25.509  1.00  0.00     0.163 HD
ATOM     27  O   UNL A   1      41.516  22.127  25.878  1.00  0.00    -0.269 OA
BRANCH  25  28
ATOM     28  C   UNL A   1      40.599  24.103  26.771  1.00  0.00     0.039 A 
ATOM     29  C   UNL A   1      40.903  24.221  28.128  1.00  0.00     0.014 A 
ATOM     30  C   UNL A   1      40.515  25.235  25.960  1.00  0.00     0.014 A 
ATOM     31  C   UNL A   1      41.238  25.473  28.648  1.00  0.00     0.010 A 
ATOM     32  C   UNL A   1      40.946  26.459  26.453  1.00  0.00     0.010 A 
ATOM     33  C   UNL A   1      41.328  26.588  27.797  1.00  0.00    -0.014 A 
BRANCH  33  34
ATOM     34  C   UNL A   1      41.860  27.890  28.273  1.00  0.00     0.031 A 
ATOM     35  C   UNL A   1      43.344  28.127  28.324  1.00  0.00     0.074 A 
ATOM     36  C   UNL A   1      41.012  28.815  28.768  1.00  0.00     0.049 A 
ATOM     37  N   UNL A   1      43.999  29.154  28.799  1.00  0.00    -0.248 NA
ATOM     38  C   UNL A   1      44.205  27.048  27.812  1.00  0.00     0.031 C 
ATOM     39  C   UNL A   1      39.555  28.674  28.851  1.00  0.00     0.029 A 
ATOM     40  N   UNL A   1      41.255  30.051  29.312  1.00  0.00    -0.354 N 
ATOM     41  C   UNL A   1      45.344  28.830  28.679  1.00  0.00     0.074 A 
ATOM     42  C   UNL A   1      45.411  27.493  28.131  1.00  0.00     0.031 C 
ATOM     43  C   UNL A   1      39.034  29.790  29.387  1.00  0.00     0.029 A 
ATOM     44  C   UNL A   1      40.118  30.709  29.719  1.00  0.00     0.049 A 
ATOM     45  H   UNL A   1      42.158  30.432  29.402  1.00  0.00     0.167 HD
ATOM     46  C   UNL A   1      46.429  29.584  28.979  1.00  0.00     0.031 A 
ATOM     47  C   UNL A   1      39.961  31.913  30.301  1.00  0.00     0.031 A 
ATOM     48  C   UNL A   1      46.359  30.925  29.492  1.00  0.00     0.049 A 
ATOM     49  C   UNL A   1      41.173  32.755  30.580  1.00  0.00     0.074 A 
ATOM     50  C   UNL A   1      47.395  31.810  29.735  1.00  0.00     0.029 A 
ATOM     51  N   UNL A   1      45.185  31.574  29.848  1.00  0.00    -0.354 N 
ATOM     52  N   UNL A   1      42.436  32.470  30.370  1.00  0.00    -0.248 NA
ATOM     53  C   UNL A   1      40.940  34.082  31.164  1.00  0.00     0.031 C 
ATOM     54  C   UNL A   1      46.850  32.980  30.276  1.00  0.00     0.029 A 
ATOM     55  C   UNL A   1      45.472  32.840  30.330  1.00  0.00     0.049 A 
ATOM     56  H   UNL A   1      44.282  31.191  29.767  1.00  0.00     0.167 HD
ATOM     57  C   UNL A   1      43.150  33.588  30.787  1.00  0.00     0.074 A 
ATOM     58  C   UNL A   1      42.176  34.560  31.242  1.00  0.00     0.031 C 
ATOM     59  C   UNL A   1      44.491  33.788  30.793  1.00  0.00     0.031 A 
BRANCH  46  60
ATOM     60  C   UNL A   1      47.781  28.960  28.758  1.00  0.00    -0.014 A 
ATOM     61  C   UNL A   1      48.420  29.032  27.506  1.00  0.00     0.010 A 
ATOM     62  C   UNL A   1      48.418  28.285  29.813  1.00  0.00     0.010 A 
ATOM     63  C   UNL A   1      49.639  28.384  27.296  1.00  0.00     0.020 A 
ATOM     64  C   UNL A   1      49.653  27.660  29.615  1.00  0.00     0.020 A 
ATOM     65  C   UNL A   1      50.242  27.692  28.349  1.00  0.00     0.054 A 
BRANCH  65  66
ATOM     66  S   UNL A   1      51.817  26.844  28.047  1.00  0.00     0.124 S 
ATOM     67  O   UNL A   1      52.596  27.889  27.387  1.00  0.00    -0.237 OA
ATOM     68  O   UNL A   1      52.256  26.489  29.393  1.00  0.00    -0.237 OA
ATOM     69  O   UNL A   1      51.443  25.715  27.199  1.00  0.00    -0.744 OA
ENDBRANCH  65  66
ENDBRANCH  46  60
BRANCH  47  70
ATOM     70  C   UNL A   1      38.593  32.397  30.629  1.00  0.00    -0.014 A 
ATOM     71  C   UNL A   1      38.079  32.241  31.927  1.00  0.00     0.010 A 
ATOM     72  C   UNL A   1      37.824  33.069  29.662  1.00  0.00     0.010 A 
ATOM     73  C   UNL A   1      36.820  32.754  32.256  1.00  0.00     0.020 A 
ATOM     74  C   UNL A   1      36.574  33.602  29.993  1.00  0.00     0.020 A 
ATOM     75  C   UNL A   1      36.079  33.437  31.288  1.00  0.00     0.054 A 
BRANCH  75  76
ATOM     76  S   UNL A   1      34.491  34.179  31.763  1.00  0.00     0.124 S 
ATOM     77  O   UNL A   1      33.875  33.107  32.537  1.00  0.00    -0.237 OA
ATOM     78  O   UNL A   1      34.907  35.355  32.524  1.00  0.00    -0.237 OA
ATOM     79  O   UNL A   1      33.857  34.473  30.480  1.00  0.00    -0.744 OA
ENDBRANCH  75  76
ENDBRANCH  47  70
BRANCH  59  80
ATOM     80  C   UNL A   1      44.986  35.111  31.307  1.00  0.00    -0.014 A 
ATOM     81  C   UNL A   1      45.107  36.219  30.449  1.00  0.00     0.010 A 
ATOM     82  C   UNL A   1      45.280  35.264  32.674  1.00  0.00     0.010 A 
ATOM     83  C   UNL A   1      45.536  37.452  30.946  1.00  0.00     0.020 A 
ATOM     84  C   UNL A   1      45.686  36.501  33.179  1.00  0.00     0.020 A 
ATOM     85  C   UNL A   1      45.824  37.585  32.308  1.00  0.00     0.054 A 
BRANCH  85  86
ATOM     86  S   UNL A   1      46.332  39.207  32.940  1.00  0.00     0.124 S 
ATOM     87  O   UNL A   1      45.058  39.919  33.005  1.00  0.00    -0.237 OA
ATOM     88  O   UNL A   1      46.934  38.877  34.229  1.00  0.00    -0.237 OA
ATOM     89  O   UNL A   1      47.267  39.695  31.929  1.00  0.00    -0.744 OA
ENDBRANCH  85  86
ENDBRANCH  59  80
ENDBRANCH  33  34
ENDBRANCH  25  28
ENDBRANCH  23  24
ENDBRANCH  22  23
ENDBRANCH  21  22
ENDBRANCH  20  21
ENDBRANCH   3  20
TORSDOF 21
ENDMDL
MODEL 3
REMARK VINA RESULT:      -8.3      6.120     10.714
REMARK SMILES COCCCC(=O)N1CCCC[C@@H]1CCC(=O)NCCCCNC(=O)c1ccc(-c2c3nc(c(-c4ccc(S(=O)(=O)[O-])cc4)c4ccc([nH]4)c(-c4ccc(S(=O)(=O)[O-])cc4)c4nc(c(-c5ccc(S(=O)(=O)[O-])cc5)c5ccc2[nH]5)C=C4)C=C3)cc1
REMARK SMILES IDX 16 1 17 2 18 3 15 5 14 6 13 7 8 8 9 9 10 10 12 11 11 12 6 13
REMARK SMILES IDX 7 14 5 15 4 16 3 17 2 18 1 19 19 20 20 21 21 22 22 23 23 24
REMARK SMILES IDX 24 25 25 27 26 28 27 29 85 30 28 31 84 32 29 33 30 34 31 35
REMARK SMILES IDX 78 36 32 37 83 38 77 39 79 40 33 41 82 42 76 43 75 44 34 46
REMARK SMILES IDX 64 47 45 48 63 49 46 50 49 51 62 52 80 53 47 54 48 55 61 57
REMARK SMILES IDX 81 58 50 59 35 60 36 61 44 62 37 63 43 64 38 65 39 66 40 67
REMARK SMILES IDX 41 68 42 69 65 70 66 71 74 72 67 73 73 74 68 75 69 76 70 77
REMARK SMILES IDX 71 78 72 79 51 80 52 81 60 82 53 83 59 84 54 85 55 86 56 87
REMARK SMILES IDX 57 88 58 89
REMARK H PARENT 18 4 23 26 79 45 49 56
REMARK Flexibility Score: inf
ROOT
ATOM      1  C   UNL A   1      45.183  31.062  26.394  1.00  0.00     0.220 C 
ATOM      2  O   UNL A   1      46.186  31.150  25.683  1.00  0.00    -0.275 OA
ATOM      3  N   UNL A   1      44.612  29.834  26.541  1.00  0.00    -0.356 N 
ATOM      4  H   UNL A   1      45.115  29.102  26.118  1.00  0.00     0.163 HD
ENDROOT
BRANCH   1   5
ATOM      5  C   UNL A   1      44.603  32.299  27.061  1.00  0.00     0.102 C 
BRANCH   5   6
ATOM      6  C   UNL A   1      45.321  32.653  28.371  1.00  0.00     0.035 C 
BRANCH   6   7
ATOM      7  C   UNL A   1      44.335  32.910  29.521  1.00  0.00     0.085 C 
ATOM      8  N   UNL A   1      44.806  32.614  30.872  1.00  0.00    -0.340 N 
ATOM      9  C   UNL A   1      43.930  33.035  31.965  1.00  0.00     0.120 C 
ATOM     10  C   UNL A   1      42.486  32.559  31.740  1.00  0.00     0.022 C 
ATOM     11  C   UNL A   1      42.947  32.324  29.273  1.00  0.00     0.025 C 
ATOM     12  C   UNL A   1      41.974  32.851  30.328  1.00  0.00     0.004 C 
BRANCH   8  13
ATOM     13  C   UNL A   1      45.805  31.687  31.098  1.00  0.00     0.222 C 
ATOM     14  O   UNL A   1      46.994  31.989  31.154  1.00  0.00    -0.275 OA
BRANCH  13  15
ATOM     15  C   UNL A   1      45.303  30.312  31.512  1.00  0.00     0.102 C 
BRANCH  15  16
ATOM     16  C   UNL A   1      46.053  29.227  30.722  1.00  0.00     0.038 C 
BRANCH  16  17
ATOM     17  C   UNL A   1      46.910  28.287  31.576  1.00  0.00     0.160 C 
BRANCH  17  18
ATOM     18  O   UNL A   1      46.634  26.937  31.218  1.00  0.00    -0.385 OA
ATOM     19  C   UNL A   1      46.877  25.992  32.246  1.00  0.00     0.194 C 
ENDBRANCH  17  18
ENDBRANCH  16  17
ENDBRANCH  15  16
ENDBRANCH  13  15
ENDBRANCH   8  13
ENDBRANCH   6   7
ENDBRANCH   5   6
ENDBRANCH   1   5
BRANCH   3  20
ATOM     20  C   UNL A   1      43.395  29.412  27.214  1.00  0.00     0.116 C 
BRANCH  20  21
ATOM     21  C   UNL A   1      42.222  29.358  26.227  1.00  0.00     0.023 C 
BRANCH  21  22
ATOM     22  C   UNL A   1      41.823  27.975  25.741  1.00  0.00     0.023 C 
BRANCH  22  23
ATOM     23  C   UNL A   1      42.998  27.071  25.391  1.00  0.00     0.116 C 
BRANCH  23  24
ATOM     24  N   UNL A   1      42.693  25.648  25.421  1.00  0.00    -0.352 N 
ATOM     25  C   UNL A   1      42.265  24.887  26.497  1.00  0.00     0.251 C 
ATOM     26  H   UNL A   1      42.804  25.166  24.569  1.00  0.00     0.163 HD
ATOM     27  O   UNL A   1      42.097  23.683  26.376  1.00  0.00    -0.269 OA
BRANCH  25  28
ATOM     28  C   UNL A   1      42.080  25.557  27.801  1.00  0.00     0.039 A 
ATOM     29  C   UNL A   1      43.192  26.106  28.441  1.00  0.00     0.014 A 
ATOM     30  C   UNL A   1      40.797  25.755  28.311  1.00  0.00     0.014 A 
ATOM     31  C   UNL A   1      43.003  26.955  29.534  1.00  0.00     0.010 A 
ATOM     32  C   UNL A   1      40.604  26.677  29.332  1.00  0.00     0.010 A 
ATOM     33  C   UNL A   1      41.703  27.299  29.943  1.00  0.00    -0.014 A 
BRANCH  33  34
ATOM     34  C   UNL A   1      41.461  28.338  30.975  1.00  0.00     0.031 A 
ATOM     35  C   UNL A   1      42.252  28.331  32.254  1.00  0.00     0.074 A 
ATOM     36  C   UNL A   1      40.450  29.215  30.812  1.00  0.00     0.049 A 
ATOM     37  N   UNL A   1      42.117  29.089  33.311  1.00  0.00    -0.248 NA
ATOM     38  C   UNL A   1      43.304  27.308  32.377  1.00  0.00     0.031 C 
ATOM     39  C   UNL A   1      39.554  29.275  29.653  1.00  0.00     0.029 A 
ATOM     40  N   UNL A   1      39.993  30.217  31.633  1.00  0.00    -0.354 N 
ATOM     41  C   UNL A   1      43.038  28.613  34.236  1.00  0.00     0.074 A 
ATOM     42  C   UNL A   1      43.691  27.471  33.633  1.00  0.00     0.031 C 
ATOM     43  C   UNL A   1      38.676  30.276  29.826  1.00  0.00     0.029 A 
ATOM     44  C   UNL A   1      38.919  30.905  31.120  1.00  0.00     0.049 A 
ATOM     45  H   UNL A   1      40.397  30.423  32.507  1.00  0.00     0.167 HD
ATOM     46  C   UNL A   1      43.330  29.093  35.468  1.00  0.00     0.031 A 
ATOM     47  C   UNL A   1      38.204  31.924  31.632  1.00  0.00     0.031 A 
ATOM     48  C   UNL A   1      42.702  30.248  36.050  1.00  0.00     0.049 A 
ATOM     49  C   UNL A   1      38.576  32.475  32.979  1.00  0.00     0.074 A 
ATOM     50  C   UNL A   1      42.995  30.875  37.248  1.00  0.00     0.029 A 
ATOM     51  N   UNL A   1      41.650  30.947  35.477  1.00  0.00    -0.354 N 
ATOM     52  N   UNL A   1      39.516  32.072  33.800  1.00  0.00    -0.248 NA
ATOM     53  C   UNL A   1      37.799  33.623  33.465  1.00  0.00     0.031 C 
ATOM     54  C   UNL A   1      42.091  31.929  37.419  1.00  0.00     0.029 A 
ATOM     55  C   UNL A   1      41.265  31.985  36.308  1.00  0.00     0.049 A 
ATOM     56  H   UNL A   1      41.239  30.736  34.607  1.00  0.00     0.167 HD
ATOM     57  C   UNL A   1      39.450  32.923  34.897  1.00  0.00     0.074 A 
ATOM     58  C   UNL A   1      38.392  33.875  34.625  1.00  0.00     0.031 C 
ATOM     59  C   UNL A   1      40.199  32.914  36.027  1.00  0.00     0.031 A 
BRANCH  46  60
ATOM     60  C   UNL A   1      44.375  28.355  36.262  1.00  0.00    -0.014 A 
ATOM     61  C   UNL A   1      45.744  28.638  36.103  1.00  0.00     0.010 A 
ATOM     62  C   UNL A   1      43.983  27.360  37.174  1.00  0.00     0.010 A 
ATOM     63  C   UNL A   1      46.705  27.894  36.791  1.00  0.00     0.020 A 
ATOM     64  C   UNL A   1      44.941  26.632  37.887  1.00  0.00     0.020 A 
ATOM     65  C   UNL A   1      46.297  26.888  37.670  1.00  0.00     0.054 A 
BRANCH  65  66
ATOM     66  S   UNL A   1      47.564  25.924  38.539  1.00  0.00     0.124 S 
ATOM     67  O   UNL A   1      48.154  26.930  39.418  1.00  0.00    -0.237 OA
ATOM     68  O   UNL A   1      46.780  24.889  39.208  1.00  0.00    -0.237 OA
ATOM     69  O   UNL A   1      48.432  25.447  37.465  1.00  0.00    -0.744 OA
ENDBRANCH  65  66
ENDBRANCH  46  60
BRANCH  47  70
ATOM     70  C   UNL A   1      37.082  32.503  30.845  1.00  0.00    -0.014 A 
ATOM     71  C   UNL A   1      35.755  32.148  31.136  1.00  0.00     0.010 A 
ATOM     72  C   UNL A   1      37.334  33.457  29.841  1.00  0.00     0.010 A 
ATOM     73  C   UNL A   1      34.695  32.739  30.442  1.00  0.00     0.020 A 
ATOM     74  C   UNL A   1      36.275  34.066  29.160  1.00  0.00     0.020 A 
ATOM     75  C   UNL A   1      34.962  33.700  29.463  1.00  0.00     0.054 A 
BRANCH  75  76
ATOM     76  S   UNL A   1      33.568  34.526  28.643  1.00  0.00     0.124 S 
ATOM     77  O   UNL A   1      33.124  33.506  27.700  1.00  0.00    -0.237 OA
ATOM     78  O   UNL A   1      32.663  34.799  29.757  1.00  0.00    -0.237 OA
ATOM     79  O   UNL A   1      34.180  35.711  28.046  1.00  0.00    -0.744 OA
ENDBRANCH  75  76
ENDBRANCH  47  70
BRANCH  59  80
ATOM     80  C   UNL A   1      39.902  33.968  37.058  1.00  0.00    -0.014 A 
ATOM     81  C   UNL A   1      39.178  33.656  38.222  1.00  0.00     0.010 A 
ATOM     82  C   UNL A   1      40.402  35.272  36.887  1.00  0.00     0.010 A 
ATOM     83  C   UNL A   1      38.938  34.637  39.188  1.00  0.00     0.020 A 
ATOM     84  C   UNL A   1      40.185  36.249  37.861  1.00  0.00     0.020 A 
ATOM     85  C   UNL A   1      39.442  35.927  39.000  1.00  0.00     0.054 A 
BRANCH  85  86
ATOM     86  S   UNL A   1      39.162  37.172  40.290  1.00  0.00     0.124 S 
ATOM     87  O   UNL A   1      38.258  36.469  41.197  1.00  0.00    -0.237 OA
ATOM     88  O   UNL A   1      40.508  37.412  40.804  1.00  0.00    -0.237 OA
ATOM     89  O   UNL A   1      38.569  38.293  39.564  1.00  0.00    -0.744 OA
ENDBRANCH  85  86
ENDBRANCH  59  80
ENDBRANCH  33  34
ENDBRANCH  25  28
ENDBRANCH  23  24
ENDBRANCH  22  23
ENDBRANCH  21  22
ENDBRANCH  20  21
ENDBRANCH   3  20
TORSDOF 21
ENDMDL
