MODEL 1
REMARK VINA RESULT:     -10.9      0.000      0.000
REMARK SMILES O=C(NCCCCNC(=O)c1cccc(CS(=O)(=O)NCc2ccccc2)c1)c1ccc(-c2c3nc(c(-c4ccc(S(=O)(=O)[O-])cc4)c4ccc([nH]4)c(-c4ccc(S(=O)(=O)[O-])cc4)c4nc(c(-c5ccc(S(=O)(=O)[O-])cc5)c5ccc2[nH]5)C=C4)C=C3)cc1
REMARK SMILES IDX 6 1 5 2 4 3 3 4 1 5 2 6 29 8 30 9 88 10 31 11 87 12 32 13
REMARK SMILES IDX 33 14 34 15 81 16 35 17 86 18 80 19 82 20 36 21 85 22 79 23
REMARK SMILES IDX 78 24 37 26 67 27 48 28 66 29 49 30 52 31 65 32 83 33 50 34
REMARK SMILES IDX 51 35 64 37 84 38 53 39 38 40 39 41 47 42 40 43 46 44 41 45
REMARK SMILES IDX 42 46 43 47 44 48 45 49 68 50 69 51 77 52 70 53 76 54 71 55
REMARK SMILES IDX 72 56 73 57 74 58 75 59 54 60 55 61 63 62 56 63 62 64 57 65
REMARK SMILES IDX 58 66 59 67 60 68 61 69 7 70 8 71 9 72 10 74 11 75 12 76
REMARK SMILES IDX 28 77 13 78 15 79 14 80 16 81 17 82 18 83 19 84 20 85 21 87
REMARK SMILES IDX 22 88 23 89 27 90 24 91 26 92 25 93
REMARK H PARENT 3 7 82 25 52 36 8 73 20 86
REMARK Flexibility Score: inf
ROOT
ATOM      1  C   UNL A   1      34.189  28.747  24.167  1.00  0.00     0.023 C 
ENDROOT
BRANCH   1   2
ATOM      2  C   UNL A   1      33.798  27.654  25.152  1.00  0.00     0.023 C 
BRANCH   2   3
ATOM      3  C   UNL A   1      34.078  27.987  26.610  1.00  0.00     0.116 C 
BRANCH   3   4
ATOM      4  N   UNL A   1      33.628  29.320  26.987  1.00  0.00    -0.352 N 
ATOM      5  O   UNL A   1      33.712  31.296  28.081  1.00  0.00    -0.269 OA
ATOM      6  C   UNL A   1      34.290  30.275  27.724  1.00  0.00     0.251 C 
ATOM      7  H   UNL A   1      32.729  29.571  26.673  1.00  0.00     0.163 HD
BRANCH   6   8
ATOM      8  C   UNL A   1      35.698  30.035  28.102  1.00  0.00     0.039 A 
ATOM      9  C   UNL A   1      36.714  30.241  27.167  1.00  0.00     0.014 A 
ATOM     10  C   UNL A   1      35.999  29.551  29.377  1.00  0.00     0.014 A 
ATOM     11  C   UNL A   1      37.998  29.799  27.443  1.00  0.00     0.010 A 
ATOM     12  C   UNL A   1      37.319  29.216  29.693  1.00  0.00     0.010 A 
ATOM     13  C   UNL A   1      38.325  29.308  28.719  1.00  0.00    -0.014 A 
BRANCH  13  14
ATOM     14  C   UNL A   1      39.743  28.993  29.021  1.00  0.00     0.031 A 
ATOM     15  C   UNL A   1      40.355  27.668  28.656  1.00  0.00     0.074 A 
ATOM     16  C   UNL A   1      40.491  29.950  29.607  1.00  0.00     0.049 A 
ATOM     17  N   UNL A   1      41.586  27.261  28.833  1.00  0.00    -0.248 NA
ATOM     18  C   UNL A   1      39.480  26.670  28.021  1.00  0.00     0.031 C 
ATOM     19  C   UNL A   1      40.001  31.273  30.010  1.00  0.00     0.029 A 
ATOM     20  N   UNL A   1      41.819  29.976  29.945  1.00  0.00    -0.354 N 
ATOM     21  C   UNL A   1      41.633  25.958  28.348  1.00  0.00     0.074 A 
ATOM     22  C   UNL A   1      40.298  25.633  27.893  1.00  0.00     0.031 C 
ATOM     23  C   UNL A   1      41.023  31.998  30.482  1.00  0.00     0.029 A 
ATOM     24  C   UNL A   1      42.220  31.168  30.497  1.00  0.00     0.049 A 
ATOM     25  H   UNL A   1      42.426  29.213  29.805  1.00  0.00     0.167 HD
ATOM     26  C   UNL A   1      42.694  25.116  28.288  1.00  0.00     0.031 A 
ATOM     27  C   UNL A   1      43.412  31.551  30.989  1.00  0.00     0.031 A 
ATOM     28  C   UNL A   1      44.018  25.450  28.752  1.00  0.00     0.049 A 
ATOM     29  C   UNL A   1      44.554  30.580  30.951  1.00  0.00     0.074 A 
ATOM     30  C   UNL A   1      45.165  24.675  28.711  1.00  0.00     0.029 A 
ATOM     31  N   UNL A   1      44.373  26.651  29.349  1.00  0.00    -0.354 N 
ATOM     32  N   UNL A   1      44.584  29.366  30.457  1.00  0.00    -0.248 NA
ATOM     33  C   UNL A   1      45.822  31.031  31.536  1.00  0.00     0.031 C 
ATOM     34  C   UNL A   1      46.195  25.381  29.339  1.00  0.00     0.029 A 
ATOM     35  C   UNL A   1      45.712  26.627  29.708  1.00  0.00     0.049 A 
ATOM     36  H   UNL A   1      43.763  27.411  29.496  1.00  0.00     0.167 HD
ATOM     37  C   UNL A   1      45.882  28.913  30.655  1.00  0.00     0.074 A 
ATOM     38  C   UNL A   1      46.610  29.994  31.287  1.00  0.00     0.031 C 
ATOM     39  C   UNL A   1      46.421  27.708  30.345  1.00  0.00     0.031 A 
BRANCH  26  40
ATOM     40  C   UNL A   1      42.470  23.734  27.725  1.00  0.00    -0.014 A 
ATOM     41  C   UNL A   1      42.719  23.446  26.371  1.00  0.00     0.010 A 
ATOM     42  C   UNL A   1      42.075  22.689  28.582  1.00  0.00     0.010 A 
ATOM     43  C   UNL A   1      42.548  22.149  25.878  1.00  0.00     0.020 A 
ATOM     44  C   UNL A   1      41.929  21.384  28.099  1.00  0.00     0.020 A 
ATOM     45  C   UNL A   1      42.155  21.125  26.746  1.00  0.00     0.054 A 
BRANCH  45  46
ATOM     46  S   UNL A   1      41.975  19.445  26.085  1.00  0.00     0.124 S 
ATOM     47  O   UNL A   1      40.534  19.364  25.856  1.00  0.00    -0.237 OA
ATOM     48  O   UNL A   1      42.799  19.487  24.879  1.00  0.00    -0.237 OA
ATOM     49  O   UNL A   1      42.484  18.592  27.155  1.00  0.00    -0.744 OA
ENDBRANCH  45  46
ENDBRANCH  26  40
BRANCH  27  50
ATOM     50  C   UNL A   1      43.566  32.905  31.587  1.00  0.00    -0.014 A 
ATOM     51  C   UNL A   1      43.924  34.008  30.793  1.00  0.00     0.010 A 
ATOM     52  C   UNL A   1      43.337  33.099  32.963  1.00  0.00     0.010 A 
ATOM     53  C   UNL A   1      44.077  35.272  31.369  1.00  0.00     0.020 A 
ATOM     54  C   UNL A   1      43.452  34.367  33.535  1.00  0.00     0.020 A 
ATOM     55  C   UNL A   1      43.839  35.443  32.736  1.00  0.00     0.054 A 
BRANCH  55  56
ATOM     56  S   UNL A   1      44.010  37.099  33.453  1.00  0.00     0.124 S 
ATOM     57  O   UNL A   1      42.842  37.173  34.326  1.00  0.00    -0.237 OA
ATOM     58  O   UNL A   1      45.302  37.017  34.129  1.00  0.00    -0.237 OA
ATOM     59  O   UNL A   1      43.980  37.982  32.289  1.00  0.00    -0.744 OA
ENDBRANCH  55  56
ENDBRANCH  27  50
BRANCH  39  60
ATOM     60  C   UNL A   1      47.881  27.510  30.658  1.00  0.00    -0.014 A 
ATOM     61  C   UNL A   1      48.294  26.865  31.837  1.00  0.00     0.010 A 
ATOM     62  C   UNL A   1      48.853  27.954  29.743  1.00  0.00     0.010 A 
ATOM     63  C   UNL A   1      49.654  26.704  32.115  1.00  0.00     0.020 A 
ATOM     64  C   UNL A   1      50.212  27.765  30.000  1.00  0.00     0.020 A 
ATOM     65  C   UNL A   1      50.604  27.155  31.194  1.00  0.00     0.054 A 
BRANCH  65  66
ATOM     66  S   UNL A   1      52.362  26.905  31.562  1.00  0.00     0.124 S 
ATOM     67  O   UNL A   1      52.444  25.451  31.679  1.00  0.00    -0.237 OA
ATOM     68  O   UNL A   1      53.019  27.478  30.390  1.00  0.00    -0.237 OA
ATOM     69  O   UNL A   1      52.564  27.642  32.807  1.00  0.00    -0.744 OA
ENDBRANCH  65  66
ENDBRANCH  39  60
ENDBRANCH  13  14
ENDBRANCH   6   8
ENDBRANCH   3   4
ENDBRANCH   2   3
ENDBRANCH   1   2
BRANCH   1  70
ATOM     70  C   UNL A   1      33.256  28.878  22.970  1.00  0.00     0.116 C 
BRANCH  70  71
ATOM     71  N   UNL A   1      33.497  27.861  21.957  1.00  0.00    -0.352 N 
ATOM     72  C   UNL A   1      32.916  26.621  21.840  1.00  0.00     0.251 C 
ATOM     73  H   UNL A   1      34.159  28.090  21.266  1.00  0.00     0.163 HD
ATOM     74  O   UNL A   1      33.311  25.801  21.021  1.00  0.00    -0.269 OA
BRANCH  72  75
ATOM     75  C   UNL A   1      31.789  26.288  22.729  1.00  0.00     0.040 A 
ATOM     76  C   UNL A   1      30.671  27.117  22.767  1.00  0.00     0.014 A 
ATOM     77  C   UNL A   1      31.844  25.122  23.499  1.00  0.00     0.018 A 
ATOM     78  C   UNL A   1      29.570  26.732  23.530  1.00  0.00     0.001 A 
ATOM     79  C   UNL A   1      30.737  24.718  24.251  1.00  0.00    -0.031 A 
ATOM     80  C   UNL A   1      29.594  25.532  24.251  1.00  0.00     0.005 A 
BRANCH  79  81
ATOM     81  C   UNL A   1      30.795  23.406  24.978  1.00  0.00     0.189 C 
BRANCH  81  82
ATOM     82  S   UNL A   1      31.274  23.580  26.696  1.00  0.00     0.216 S 
ATOM     83  O   UNL A   1      31.693  24.940  26.937  1.00  0.00    -0.212 OA
ATOM     84  O   UNL A   1      30.180  23.034  27.481  1.00  0.00    -0.212 OA
BRANCH  82  85
ATOM     85  N   UNL A   1      32.519  22.518  26.981  1.00  0.00    -0.211 NA
ATOM     86  H   UNL A   1      32.519  21.892  26.175  1.00  0.00     0.141 HD
BRANCH  85  87
ATOM     87  C   UNL A   1      33.929  22.846  27.202  1.00  0.00     0.134 C 
BRANCH  87  88
ATOM     88  C   UNL A   1      34.832  22.984  26.006  1.00  0.00    -0.033 A 
ATOM     89  C   UNL A   1      36.149  23.442  26.177  1.00  0.00     0.005 A 
ATOM     90  C   UNL A   1      34.388  22.703  24.708  1.00  0.00     0.005 A 
ATOM     91  C   UNL A   1      37.027  23.511  25.094  1.00  0.00     0.000 A 
ATOM     92  C   UNL A   1      35.270  22.753  23.629  1.00  0.00     0.000 A 
ATOM     93  C   UNL A   1      36.592  23.146  23.823  1.00  0.00     0.000 A 
ENDBRANCH  87  88
ENDBRANCH  85  87
ENDBRANCH  82  85
ENDBRANCH  81  82
ENDBRANCH  79  81
ENDBRANCH  72  75
ENDBRANCH  70  71
ENDBRANCH   1  70
TORSDOF 19
ENDMDL
MODEL 2
REMARK VINA RESULT:     -10.3      2.940      8.705
REMARK SMILES O=C(NCCCCNC(=O)c1cccc(CS(=O)(=O)NCc2ccccc2)c1)c1ccc(-c2c3nc(c(-c4ccc(S(=O)(=O)[O-])cc4)c4ccc([nH]4)c(-c4ccc(S(=O)(=O)[O-])cc4)c4nc(c(-c5ccc(S(=O)(=O)[O-])cc5)c5ccc2[nH]5)C=C4)C=C3)cc1
REMARK SMILES IDX 6 1 5 2 4 3 3 4 1 5 2 6 29 8 30 9 88 10 31 11 87 12 32 13
REMARK SMILES IDX 33 14 34 15 81 16 35 17 86 18 80 19 82 20 36 21 85 22 79 23
REMARK SMILES IDX 78 24 37 26 67 27 48 28 66 29 49 30 52 31 65 32 83 33 50 34
REMARK SMILES IDX 51 35 64 37 84 38 53 39 38 40 39 41 47 42 40 43 46 44 41 45
REMARK SMILES IDX 42 46 43 47 44 48 45 49 68 50 69 51 77 52 70 53 76 54 71 55
REMARK SMILES IDX 72 56 73 57 74 58 75 59 54 60 55 61 63 62 56 63 62 64 57 65
REMARK SMILES IDX 58 66 59 67 60 68 61 69 7 70 8 71 9 72 10 74 11 75 12 76
REMARK SMILES IDX 28 77 13 78 15 79 14 80 16 81 17 82 18 83 19 84 20 85 21 87
REMARK SMILES IDX 22 88 23 89 27 90 24 91 26 92 25 93
REMARK H PARENT 3 7 82 25 52 36 8 73 20 86
REMARK Flexibility Score: inf
ROOT
ATOM      1  C   UNL A   1      33.816  28.996  25.734  1.00  0.00     0.023 C 
ENDROOT
BRANCH   1   2
ATOM      2  C   UNL A   1      33.978  29.112  27.243  1.00  0.00     0.023 C 
BRANCH   2   3
ATOM      3  C   UNL A   1      35.349  29.588  27.698  1.00  0.00     0.116 C 
BRANCH   3   4
ATOM      4  N   UNL A   1      35.341  30.143  29.045  1.00  0.00    -0.352 N 
ATOM      5  O   UNL A   1      36.158  30.563  31.110  1.00  0.00    -0.269 OA
ATOM      6  C   UNL A   1      36.368  30.194  29.960  1.00  0.00     0.251 C 
ATOM      7  H   UNL A   1      34.487  30.533  29.341  1.00  0.00     0.163 HD
BRANCH   6   8
ATOM      8  C   UNL A   1      37.719  29.768  29.540  1.00  0.00     0.039 A 
ATOM      9  C   UNL A   1      38.619  29.278  30.487  1.00  0.00     0.014 A 
ATOM     10  C   UNL A   1      38.105  29.910  28.206  1.00  0.00     0.014 A 
ATOM     11  C   UNL A   1      39.949  29.098  30.139  1.00  0.00     0.010 A 
ATOM     12  C   UNL A   1      39.420  29.616  27.834  1.00  0.00     0.010 A 
ATOM     13  C   UNL A   1      40.361  29.237  28.803  1.00  0.00    -0.014 A 
BRANCH  13  14
ATOM     14  C   UNL A   1      41.758  28.884  28.446  1.00  0.00     0.031 A 
ATOM     15  C   UNL A   1      42.864  29.903  28.478  1.00  0.00     0.074 A 
ATOM     16  C   UNL A   1      42.022  27.602  28.123  1.00  0.00     0.049 A 
ATOM     17  N   UNL A   1      44.136  29.735  28.218  1.00  0.00    -0.248 NA
ATOM     18  C   UNL A   1      42.504  31.283  28.837  1.00  0.00     0.031 C 
ATOM     19  C   UNL A   1      41.025  26.528  28.056  1.00  0.00     0.029 A 
ATOM     20  N   UNL A   1      43.201  26.974  27.816  1.00  0.00    -0.354 N 
ATOM     21  C   UNL A   1      44.726  30.986  28.366  1.00  0.00     0.074 A 
ATOM     22  C   UNL A   1      43.667  31.909  28.712  1.00  0.00     0.031 C 
ATOM     23  C   UNL A   1      41.640  25.369  27.788  1.00  0.00     0.029 A 
ATOM     24  C   UNL A   1      43.058  25.627  27.580  1.00  0.00     0.049 A 
ATOM     25  H   UNL A   1      44.066  27.442  27.769  1.00  0.00     0.167 HD
ATOM     26  C   UNL A   1      46.031  31.327  28.225  1.00  0.00     0.031 A 
ATOM     27  C   UNL A   1      43.961  24.700  27.210  1.00  0.00     0.031 A 
ATOM     28  C   UNL A   1      47.075  30.397  27.872  1.00  0.00     0.049 A 
ATOM     29  C   UNL A   1      45.388  25.119  27.018  1.00  0.00     0.074 A 
ATOM     30  C   UNL A   1      48.432  30.641  27.732  1.00  0.00     0.029 A 
ATOM     31  N   UNL A   1      46.884  29.051  27.595  1.00  0.00    -0.354 N 
ATOM     32  N   UNL A   1      45.930  26.300  27.196  1.00  0.00    -0.248 NA
ATOM     33  C   UNL A   1      46.325  24.080  26.576  1.00  0.00     0.031 C 
ATOM     34  C   UNL A   1      49.048  29.459  27.309  1.00  0.00     0.029 A 
ATOM     35  C   UNL A   1      48.090  28.459  27.255  1.00  0.00     0.049 A 
ATOM     36  H   UNL A   1      46.017  28.585  27.635  1.00  0.00     0.167 HD
ATOM     37  C   UNL A   1      47.278  26.142  26.905  1.00  0.00     0.074 A 
ATOM     38  C   UNL A   1      47.472  24.746  26.568  1.00  0.00     0.031 C 
ATOM     39  C   UNL A   1      48.267  27.070  26.913  1.00  0.00     0.031 A 
BRANCH  26  40
ATOM     40  C   UNL A   1      46.410  32.774  28.426  1.00  0.00    -0.014 A 
ATOM     41  C   UNL A   1      46.373  33.694  27.363  1.00  0.00     0.010 A 
ATOM     42  C   UNL A   1      46.737  33.235  29.715  1.00  0.00     0.010 A 
ATOM     43  C   UNL A   1      46.685  35.040  27.579  1.00  0.00     0.020 A 
ATOM     44  C   UNL A   1      47.023  34.586  29.941  1.00  0.00     0.020 A 
ATOM     45  C   UNL A   1      47.008  35.478  28.867  1.00  0.00     0.054 A 
BRANCH  45  46
ATOM     46  S   UNL A   1      47.375  37.237  29.123  1.00  0.00     0.124 S 
ATOM     47  O   UNL A   1      46.848  37.835  27.899  1.00  0.00    -0.237 OA
ATOM     48  O   UNL A   1      46.630  37.544  30.341  1.00  0.00    -0.237 OA
ATOM     49  O   UNL A   1      48.828  37.273  29.258  1.00  0.00    -0.744 OA
ENDBRANCH  45  46
ENDBRANCH  26  40
BRANCH  27  50
ATOM     50  C   UNL A   1      43.525  23.298  26.968  1.00  0.00    -0.014 A 
ATOM     51  C   UNL A   1      43.203  22.448  28.039  1.00  0.00     0.010 A 
ATOM     52  C   UNL A   1      43.417  22.811  25.651  1.00  0.00     0.010 A 
ATOM     53  C   UNL A   1      42.806  21.130  27.799  1.00  0.00     0.020 A 
ATOM     54  C   UNL A   1      42.985  21.506  25.406  1.00  0.00     0.020 A 
ATOM     55  C   UNL A   1      42.699  20.669  26.483  1.00  0.00     0.054 A 
BRANCH  55  56
ATOM     56  S   UNL A   1      42.149  18.965  26.196  1.00  0.00     0.124 S 
ATOM     57  O   UNL A   1      40.790  19.164  25.702  1.00  0.00    -0.237 OA
ATOM     58  O   UNL A   1      43.117  18.484  25.213  1.00  0.00    -0.237 OA
ATOM     59  O   UNL A   1      42.253  18.345  27.515  1.00  0.00    -0.744 OA
ENDBRANCH  55  56
ENDBRANCH  27  50
BRANCH  39  60
ATOM     60  C   UNL A   1      49.654  26.594  26.575  1.00  0.00    -0.014 A 
ATOM     61  C   UNL A   1      50.481  26.002  27.546  1.00  0.00     0.010 A 
ATOM     62  C   UNL A   1      50.127  26.719  25.255  1.00  0.00     0.010 A 
ATOM     63  C   UNL A   1      51.771  25.580  27.213  1.00  0.00     0.020 A 
ATOM     64  C   UNL A   1      51.403  26.267  24.910  1.00  0.00     0.020 A 
ATOM     65  C   UNL A   1      52.223  25.716  25.897  1.00  0.00     0.054 A 
BRANCH  65  66
ATOM     66  S   UNL A   1      53.888  25.130  25.483  1.00  0.00     0.124 S 
ATOM     67  O   UNL A   1      54.406  26.230  24.674  1.00  0.00    -0.237 OA
ATOM     68  O   UNL A   1      54.507  24.971  26.796  1.00  0.00    -0.237 OA
ATOM     69  O   UNL A   1      53.648  23.884  24.758  1.00  0.00    -0.744 OA
ENDBRANCH  65  66
ENDBRANCH  39  60
ENDBRANCH  13  14
ENDBRANCH   6   8
ENDBRANCH   3   4
ENDBRANCH   2   3
ENDBRANCH   1   2
BRANCH   1  70
ATOM     70  C   UNL A   1      33.564  27.580  25.234  1.00  0.00     0.116 C 
BRANCH  70  71
ATOM     71  N   UNL A   1      33.855  27.425  23.816  1.00  0.00    -0.352 N 
ATOM     72  C   UNL A   1      33.520  26.382  22.987  1.00  0.00     0.251 C 
ATOM     73  H   UNL A   1      34.356  28.161  23.397  1.00  0.00     0.163 HD
ATOM     74  O   UNL A   1      33.949  26.307  21.842  1.00  0.00    -0.269 OA
BRANCH  72  75
ATOM     75  C   UNL A   1      32.617  25.338  23.503  1.00  0.00     0.040 A 
ATOM     76  C   UNL A   1      31.307  25.266  23.037  1.00  0.00     0.014 A 
ATOM     77  C   UNL A   1      33.100  24.410  24.432  1.00  0.00     0.018 A 
ATOM     78  C   UNL A   1      30.499  24.208  23.453  1.00  0.00     0.001 A 
ATOM     79  C   UNL A   1      32.303  23.336  24.839  1.00  0.00    -0.031 A 
ATOM     80  C   UNL A   1      30.999  23.240  24.331  1.00  0.00     0.005 A 
BRANCH  79  81
ATOM     81  C   UNL A   1      32.894  22.303  25.753  1.00  0.00     0.189 C 
BRANCH  81  82
ATOM     82  S   UNL A   1      33.387  20.810  24.894  1.00  0.00     0.216 S 
ATOM     83  O   UNL A   1      32.942  19.661  25.644  1.00  0.00    -0.212 OA
ATOM     84  O   UNL A   1      32.941  20.965  23.519  1.00  0.00    -0.212 OA
BRANCH  82  85
ATOM     85  N   UNL A   1      35.043  20.826  24.765  1.00  0.00    -0.211 NA
ATOM     86  H   UNL A   1      35.267  20.031  24.166  1.00  0.00     0.141 HD
BRANCH  85  87
ATOM     87  C   UNL A   1      35.881  21.919  24.267  1.00  0.00     0.134 C 
BRANCH  87  88
ATOM     88  C   UNL A   1      36.997  22.425  25.140  1.00  0.00    -0.033 A 
ATOM     89  C   UNL A   1      38.105  21.603  25.401  1.00  0.00     0.005 A 
ATOM     90  C   UNL A   1      36.951  23.690  25.739  1.00  0.00     0.005 A 
ATOM     91  C   UNL A   1      39.184  22.075  26.150  1.00  0.00     0.000 A 
ATOM     92  C   UNL A   1      38.037  24.170  26.472  1.00  0.00     0.000 A 
ATOM     93  C   UNL A   1      39.158  23.367  26.668  1.00  0.00     0.000 A 
ENDBRANCH  87  88
ENDBRANCH  85  87
ENDBRANCH  82  85
ENDBRANCH  81  82
ENDBRANCH  79  81
ENDBRANCH  72  75
ENDBRANCH  70  71
ENDBRANCH   1  70
TORSDOF 19
ENDMDL
MODEL 3
REMARK VINA RESULT:     -10.3      0.978      8.214
REMARK SMILES O=C(NCCCCNC(=O)c1cccc(CS(=O)(=O)NCc2ccccc2)c1)c1ccc(-c2c3nc(c(-c4ccc(S(=O)(=O)[O-])cc4)c4ccc([nH]4)c(-c4ccc(S(=O)(=O)[O-])cc4)c4nc(c(-c5ccc(S(=O)(=O)[O-])cc5)c5ccc2[nH]5)C=C4)C=C3)cc1
REMARK SMILES IDX 6 1 5 2 4 3 3 4 1 5 2 6 29 8 30 9 88 10 31 11 87 12 32 13
REMARK SMILES IDX 33 14 34 15 81 16 35 17 86 18 80 19 82 20 36 21 85 22 79 23
REMARK SMILES IDX 78 24 37 26 67 27 48 28 66 29 49 30 52 31 65 32 83 33 50 34
REMARK SMILES IDX 51 35 64 37 84 38 53 39 38 40 39 41 47 42 40 43 46 44 41 45
REMARK SMILES IDX 42 46 43 47 44 48 45 49 68 50 69 51 77 52 70 53 76 54 71 55
REMARK SMILES IDX 72 56 73 57 74 58 75 59 54 60 55 61 63 62 56 63 62 64 57 65
REMARK SMILES IDX 58 66 59 67 60 68 61 69 7 70 8 71 9 72 10 74 11 75 12 76
REMARK SMILES IDX 28 77 13 78 15 79 14 80 16 81 17 82 18 83 19 84 20 85 21 87
REMARK SMILES IDX 22 88 23 89 27 90 24 91 26 92 25 93
REMARK H PARENT 3 7 82 25 52 36 8 73 20 86
REMARK Flexibility Score: inf
ROOT
ATOM      1  C   UNL A   1      33.288  29.188  24.634  1.00  0.00     0.023 C 
ENDROOT
BRANCH   1   2
ATOM      2  C   UNL A   1      33.671  27.917  25.379  1.00  0.00     0.023 C 
BRANCH   2   3
ATOM      3  C   UNL A   1      33.890  28.101  26.873  1.00  0.00     0.116 C 
BRANCH   3   4
ATOM      4  N   UNL A   1      33.618  29.458  27.326  1.00  0.00    -0.352 N 
ATOM      5  O   UNL A   1      34.011  31.376  28.456  1.00  0.00    -0.269 OA
ATOM      6  C   UNL A   1      34.443  30.315  28.020  1.00  0.00     0.251 C 
ATOM      7  H   UNL A   1      32.725  29.811  27.107  1.00  0.00     0.163 HD
BRANCH   6   8
ATOM      8  C   UNL A   1      35.847  29.920  28.253  1.00  0.00     0.039 A 
ATOM      9  C   UNL A   1      36.237  29.444  29.505  1.00  0.00     0.014 A 
ATOM     10  C   UNL A   1      36.788  30.076  27.232  1.00  0.00     0.014 A 
ATOM     11  C   UNL A   1      37.585  29.294  29.792  1.00  0.00     0.010 A 
ATOM     12  C   UNL A   1      38.136  29.810  27.491  1.00  0.00     0.010 A 
ATOM     13  C   UNL A   1      38.550  29.447  28.782  1.00  0.00    -0.014 A 
BRANCH  13  14
ATOM     14  C   UNL A   1      39.965  29.125  29.091  1.00  0.00     0.031 A 
ATOM     15  C   UNL A   1      40.870  30.113  29.775  1.00  0.00     0.074 A 
ATOM     16  C   UNL A   1      40.417  27.896  28.772  1.00  0.00     0.049 A 
ATOM     17  N   UNL A   1      42.120  29.964  30.134  1.00  0.00    -0.248 NA
ATOM     18  C   UNL A   1      40.311  31.437  30.092  1.00  0.00     0.031 C 
ATOM     19  C   UNL A   1      39.628  26.856  28.102  1.00  0.00     0.029 A 
ATOM     20  N   UNL A   1      41.632  27.298  28.986  1.00  0.00    -0.354 N 
ATOM     21  C   UNL A   1      42.504  31.173  30.702  1.00  0.00     0.074 A 
ATOM     22  C   UNL A   1      41.361  32.056  30.617  1.00  0.00     0.031 C 
ATOM     23  C   UNL A   1      40.356  25.735  28.014  1.00  0.00     0.029 A 
ATOM     24  C   UNL A   1      41.688  25.998  28.542  1.00  0.00     0.049 A 
ATOM     25  H   UNL A   1      42.390  27.755  29.417  1.00  0.00     0.167 HD
ATOM     26  C   UNL A   1      43.700  31.511  31.245  1.00  0.00     0.031 A 
ATOM     27  C   UNL A   1      42.705  25.117  28.531  1.00  0.00     0.031 A 
ATOM     28  C   UNL A   1      44.834  30.622  31.316  1.00  0.00     0.049 A 
ATOM     29  C   UNL A   1      44.029  25.537  29.097  1.00  0.00     0.074 A 
ATOM     30  C   UNL A   1      46.080  30.862  31.871  1.00  0.00     0.029 A 
ATOM     31  N   UNL A   1      44.866  29.330  30.813  1.00  0.00    -0.354 N 
ATOM     32  N   UNL A   1      44.359  26.674  29.661  1.00  0.00    -0.248 NA
ATOM     33  C   UNL A   1      45.116  24.554  29.026  1.00  0.00     0.031 C 
ATOM     34  C   UNL A   1      46.884  29.741  31.646  1.00  0.00     0.029 A 
ATOM     35  C   UNL A   1      46.119  28.772  31.016  1.00  0.00     0.049 A 
ATOM     36  H   UNL A   1      44.110  28.875  30.375  1.00  0.00     0.167 HD
ATOM     37  C   UNL A   1      45.691  26.536  30.029  1.00  0.00     0.074 A 
ATOM     38  C   UNL A   1      46.094  25.198  29.650  1.00  0.00     0.031 C 
ATOM     39  C   UNL A   1      46.508  27.440  30.625  1.00  0.00     0.031 A 
BRANCH  26  40
ATOM     40  C   UNL A   1      43.863  32.910  31.784  1.00  0.00    -0.014 A 
ATOM     41  C   UNL A   1      44.198  33.985  30.941  1.00  0.00     0.010 A 
ATOM     42  C   UNL A   1      43.604  33.167  33.144  1.00  0.00     0.010 A 
ATOM     43  C   UNL A   1      44.301  35.283  31.452  1.00  0.00     0.020 A 
ATOM     44  C   UNL A   1      43.679  34.467  33.654  1.00  0.00     0.020 A 
ATOM     45  C   UNL A   1      44.040  35.516  32.806  1.00  0.00     0.054 A 
BRANCH  45  46
ATOM     46  S   UNL A   1      44.148  37.215  33.434  1.00  0.00     0.124 S 
ATOM     47  O   UNL A   1      42.815  37.414  33.997  1.00  0.00    -0.237 OA
ATOM     48  O   UNL A   1      45.233  37.126  34.408  1.00  0.00    -0.237 OA
ATOM     49  O   UNL A   1      44.445  38.008  32.244  1.00  0.00    -0.744 OA
ENDBRANCH  45  46
ENDBRANCH  26  40
BRANCH  27  50
ATOM     50  C   UNL A   1      42.509  23.768  27.934  1.00  0.00    -0.014 A 
ATOM     51  C   UNL A   1      42.065  22.691  28.718  1.00  0.00     0.010 A 
ATOM     52  C   UNL A   1      42.756  23.561  26.563  1.00  0.00     0.010 A 
ATOM     53  C   UNL A   1      41.896  21.425  28.148  1.00  0.00     0.020 A 
ATOM     54  C   UNL A   1      42.553  22.308  25.983  1.00  0.00     0.020 A 
ATOM     55  C   UNL A   1      42.140  21.244  26.784  1.00  0.00     0.054 A 
BRANCH  55  56
ATOM     56  S   UNL A   1      41.882  19.602  26.060  1.00  0.00     0.124 S 
ATOM     57  O   UNL A   1      42.794  19.626  24.921  1.00  0.00    -0.237 OA
ATOM     58  O   UNL A   1      42.260  18.712  27.156  1.00  0.00    -0.237 OA
ATOM     59  O   UNL A   1      40.460  19.595  25.725  1.00  0.00    -0.744 OA
ENDBRANCH  55  56
ENDBRANCH  27  50
BRANCH  39  60
ATOM     60  C   UNL A   1      47.913  26.994  30.931  1.00  0.00    -0.014 A 
ATOM     61  C   UNL A   1      48.962  27.204  30.018  1.00  0.00     0.010 A 
ATOM     62  C   UNL A   1      48.192  26.379  32.166  1.00  0.00     0.010 A 
ATOM     63  C   UNL A   1      50.256  26.770  30.317  1.00  0.00     0.020 A 
ATOM     64  C   UNL A   1      49.490  25.974  32.483  1.00  0.00     0.020 A 
ATOM     65  C   UNL A   1      50.511  26.158  31.548  1.00  0.00     0.054 A 
BRANCH  65  66
ATOM     66  S   UNL A   1      52.205  25.634  31.925  1.00  0.00     0.124 S 
ATOM     67  O   UNL A   1      52.030  24.209  32.198  1.00  0.00    -0.237 OA
ATOM     68  O   UNL A   1      52.922  25.954  30.693  1.00  0.00    -0.237 OA
ATOM     69  O   UNL A   1      52.571  26.448  33.082  1.00  0.00    -0.744 OA
ENDBRANCH  65  66
ENDBRANCH  39  60
ENDBRANCH  13  14
ENDBRANCH   6   8
ENDBRANCH   3   4
ENDBRANCH   2   3
ENDBRANCH   1   2
BRANCH   1  70
ATOM     70  C   UNL A   1      33.090  29.004  23.136  1.00  0.00     0.116 C 
BRANCH  70  71
ATOM     71  N   UNL A   1      31.736  29.325  22.705  1.00  0.00    -0.352 N 
ATOM     72  C   UNL A   1      30.721  28.461  22.374  1.00  0.00     0.251 C 
ATOM     73  H   UNL A   1      31.520  30.283  22.644  1.00  0.00     0.163 HD
ATOM     74  O   UNL A   1      29.669  28.860  21.889  1.00  0.00    -0.269 OA
BRANCH  72  75
ATOM     75  C   UNL A   1      30.918  27.021  22.618  1.00  0.00     0.040 A 
ATOM     76  C   UNL A   1      31.558  26.239  21.660  1.00  0.00     0.014 A 
ATOM     77  C   UNL A   1      30.489  26.465  23.828  1.00  0.00     0.018 A 
ATOM     78  C   UNL A   1      31.833  24.904  21.951  1.00  0.00     0.001 A 
ATOM     79  C   UNL A   1      30.778  25.132  24.136  1.00  0.00    -0.031 A 
ATOM     80  C   UNL A   1      31.464  24.360  23.187  1.00  0.00     0.005 A 
BRANCH  79  81
ATOM     81  C   UNL A   1      30.396  24.603  25.488  1.00  0.00     0.189 C 
BRANCH  81  82
ATOM     82  S   UNL A   1      31.623  23.495  26.176  1.00  0.00     0.216 S 
ATOM     83  O   UNL A   1      31.685  23.683  27.606  1.00  0.00    -0.212 OA
ATOM     84  O   UNL A   1      31.317  22.173  25.656  1.00  0.00    -0.212 OA
BRANCH  82  85
ATOM     85  N   UNL A   1      33.082  23.858  25.469  1.00  0.00    -0.211 NA
ATOM     86  H   UNL A   1      32.890  24.662  24.871  1.00  0.00     0.141 HD
BRANCH  85  87
ATOM     87  C   UNL A   1      34.337  24.186  26.148  1.00  0.00     0.134 C 
BRANCH  87  88
ATOM     88  C   UNL A   1      35.537  23.311  25.905  1.00  0.00    -0.033 A 
ATOM     89  C   UNL A   1      35.356  21.974  25.514  1.00  0.00     0.005 A 
ATOM     90  C   UNL A   1      36.843  23.778  26.095  1.00  0.00     0.005 A 
ATOM     91  C   UNL A   1      36.453  21.163  25.215  1.00  0.00     0.000 A 
ATOM     92  C   UNL A   1      37.939  22.975  25.779  1.00  0.00     0.000 A 
ATOM     93  C   UNL A   1      37.743  21.671  25.328  1.00  0.00     0.000 A 
ENDBRANCH  87  88
ENDBRANCH  85  87
ENDBRANCH  82  85
ENDBRANCH  81  82
ENDBRANCH  79  81
ENDBRANCH  72  75
ENDBRANCH  70  71
ENDBRANCH   1  70
TORSDOF 19
ENDMDL
