MODEL 1
REMARK VINA RESULT:      -9.5      0.000      0.000
REMARK SMILES CSc1cccc(N2C[C@@H](C(=O)NCCCCNC(=O)c3ccc(-c4c5nc(c(-c6ccc(S(=O)(=O)[O-])cc6)c6ccc([nH]6)c(-c6ccc(S(=O)(=O)[O-])cc6)c6nc(c(-c7ccc(S(=O)(=O)[O-])cc7)c7ccc4[nH]7)C=C6)C=C5)cc3)CC2=O)c1
REMARK SMILES IDX 16 1 15 2 14 3 13 4 11 5 12 6 10 8 8 9 9 10 82 11 81 12
REMARK SMILES IDX 83 13 7 14 3 15 4 16 84 17 5 18 6 19 2 20 1 21 17 22 18 23
REMARK SMILES IDX 19 24 20 26 21 27 22 28 80 29 23 30 79 31 24 32 25 33 26 34
REMARK SMILES IDX 73 35 27 36 78 37 72 38 74 39 28 40 77 41 71 42 70 43 29 45
REMARK SMILES IDX 59 46 40 47 58 48 41 49 44 50 57 51 75 52 42 53 43 54 56 56
REMARK SMILES IDX 76 57 45 58 30 59 31 60 39 61 32 62 38 63 33 64 34 65 35 66
REMARK SMILES IDX 36 67 37 68 60 69 61 70 69 71 62 72 68 73 63 74 64 75 65 76
REMARK SMILES IDX 66 77 67 78 46 79 47 80 55 81 48 82 54 83 49 84 50 85 51 86
REMARK SMILES IDX 52 87 53 88
REMARK H PARENT 13 7 18 25 74 44 44 55
REMARK Flexibility Score: inf
ROOT
ATOM      1  C   UNL A   1      35.178  32.443  30.740  1.00  0.00     0.023 C 
ENDROOT
BRANCH   1   2
ATOM      2  C   UNL A   1      36.597  32.508  31.311  1.00  0.00     0.023 C 
BRANCH   2   3
ATOM      3  C   UNL A   1      36.733  32.043  32.759  1.00  0.00     0.116 C 
BRANCH   3   4
ATOM      4  N   UNL A   1      36.655  30.598  32.880  1.00  0.00    -0.356 N 
ATOM      5  C   UNL A   1      37.606  29.661  33.127  1.00  0.00     0.225 C 
ATOM      6  O   UNL A   1      37.238  28.486  33.211  1.00  0.00    -0.275 OA
ATOM      7  H   UNL A   1      35.749  30.231  32.762  1.00  0.00     0.163 HD
BRANCH   5   8
ATOM      8  C   UNL A   1      39.068  30.001  33.331  1.00  0.00     0.107 C 
ATOM      9  N   UNL A   1      40.932  28.801  34.145  1.00  0.00    -0.312 N 
ATOM     10  C   UNL A   1      39.994  28.835  33.048  1.00  0.00     0.139 C 
ATOM     11  C   UNL A   1      40.607  29.708  35.152  1.00  0.00     0.227 C 
ATOM     12  C   UNL A   1      39.420  30.522  34.713  1.00  0.00     0.116 C 
ATOM     13  O   UNL A   1      41.180  29.899  36.217  1.00  0.00    -0.274 OA
BRANCH   9  14
ATOM     14  C   UNL A   1      42.028  27.901  34.185  1.00  0.00     0.045 A 
ATOM     15  C   UNL A   1      42.970  25.715  34.747  1.00  0.00     0.009 A 
ATOM     16  C   UNL A   1      44.231  26.161  34.347  1.00  0.00     0.015 A 
ATOM     17  C   UNL A   1      41.883  26.601  34.694  1.00  0.00     0.041 A 
ATOM     18  C   UNL A   1      44.390  27.449  33.840  1.00  0.00     0.003 A 
ATOM     19  C   UNL A   1      43.291  28.303  33.733  1.00  0.00     0.026 A 
BRANCH  15  20
ATOM     20  S   UNL A   1      42.705  24.064  35.380  1.00  0.00    -0.130 SA
ATOM     21  C   UNL A   1      44.140  23.190  34.692  1.00  0.00     0.091 C 
ENDBRANCH  15  20
ENDBRANCH   9  14
ENDBRANCH   5   8
ENDBRANCH   3   4
ENDBRANCH   2   3
ENDBRANCH   1   2
BRANCH   1  22
ATOM     22  C   UNL A   1      35.061  32.725  29.246  1.00  0.00     0.116 C 
BRANCH  22  23
ATOM     23  N   UNL A   1      34.220  31.763  28.550  1.00  0.00    -0.352 N 
ATOM     24  C   UNL A   1      34.555  30.532  28.035  1.00  0.00     0.251 C 
ATOM     25  H   UNL A   1      33.279  32.030  28.431  1.00  0.00     0.163 HD
ATOM     26  O   UNL A   1      33.741  29.909  27.360  1.00  0.00    -0.269 OA
BRANCH  24  27
ATOM     27  C   UNL A   1      35.906  29.981  28.270  1.00  0.00     0.039 A 
ATOM     28  C   UNL A   1      36.883  30.146  27.285  1.00  0.00     0.014 A 
ATOM     29  C   UNL A   1      36.216  29.328  29.465  1.00  0.00     0.014 A 
ATOM     30  C   UNL A   1      38.190  29.720  27.531  1.00  0.00     0.010 A 
ATOM     31  C   UNL A   1      37.535  28.975  29.738  1.00  0.00     0.010 A 
ATOM     32  C   UNL A   1      38.537  29.168  28.776  1.00  0.00    -0.014 A 
BRANCH  32  33
ATOM     33  C   UNL A   1      39.941  28.795  29.091  1.00  0.00     0.031 A 
ATOM     34  C   UNL A   1      40.865  29.796  29.731  1.00  0.00     0.074 A 
ATOM     35  C   UNL A   1      40.401  27.575  28.746  1.00  0.00     0.049 A 
ATOM     36  N   UNL A   1      42.135  29.677  30.022  1.00  0.00    -0.248 NA
ATOM     37  C   UNL A   1      40.294  31.111  30.069  1.00  0.00     0.031 C 
ATOM     38  C   UNL A   1      39.618  26.527  28.087  1.00  0.00     0.029 A 
ATOM     39  N   UNL A   1      41.644  27.010  28.896  1.00  0.00    -0.354 N 
ATOM     40  C   UNL A   1      42.516  30.899  30.564  1.00  0.00     0.074 A 
ATOM     41  C   UNL A   1      41.359  31.765  30.513  1.00  0.00     0.031 C 
ATOM     42  C   UNL A   1      40.389  25.440  27.917  1.00  0.00     0.029 A 
ATOM     43  C   UNL A   1      41.731  25.726  28.411  1.00  0.00     0.049 A 
ATOM     44  H   UNL A   1      42.402  27.480  29.314  1.00  0.00     0.167 HD
ATOM     45  C   UNL A   1      43.715  31.262  31.080  1.00  0.00     0.031 A 
ATOM     46  C   UNL A   1      42.776  24.876  28.359  1.00  0.00     0.031 A 
ATOM     47  C   UNL A   1      44.863  30.396  31.139  1.00  0.00     0.049 A 
ATOM     48  C   UNL A   1      44.106  25.315  28.916  1.00  0.00     0.074 A 
ATOM     49  C   UNL A   1      46.108  30.658  31.684  1.00  0.00     0.029 A 
ATOM     50  N   UNL A   1      44.908  29.103  30.641  1.00  0.00    -0.354 N 
ATOM     51  N   UNL A   1      44.427  26.455  29.479  1.00  0.00    -0.248 NA
ATOM     52  C   UNL A   1      45.209  24.348  28.838  1.00  0.00     0.031 C 
ATOM     53  C   UNL A   1      46.923  29.543  31.466  1.00  0.00     0.029 A 
ATOM     54  C   UNL A   1      46.167  28.563  30.845  1.00  0.00     0.049 A 
ATOM     55  H   UNL A   1      44.157  28.639  30.207  1.00  0.00     0.167 HD
ATOM     56  C   UNL A   1      45.761  26.328  29.853  1.00  0.00     0.074 A 
ATOM     57  C   UNL A   1      46.179  24.996  29.468  1.00  0.00     0.031 C 
ATOM     58  C   UNL A   1      46.566  27.232  30.464  1.00  0.00     0.031 A 
BRANCH  45  59
ATOM     59  C   UNL A   1      43.847  32.659  31.628  1.00  0.00    -0.014 A 
ATOM     60  C   UNL A   1      44.308  33.714  30.819  1.00  0.00     0.010 A 
ATOM     61  C   UNL A   1      43.447  32.936  32.948  1.00  0.00     0.010 A 
ATOM     62  C   UNL A   1      44.398  35.011  31.329  1.00  0.00     0.020 A 
ATOM     63  C   UNL A   1      43.506  34.237  33.453  1.00  0.00     0.020 A 
ATOM     64  C   UNL A   1      43.994  35.265  32.644  1.00  0.00     0.054 A 
BRANCH  64  65
ATOM     65  S   UNL A   1      44.082  36.967  33.263  1.00  0.00     0.124 S 
ATOM     66  O   UNL A   1      43.915  37.743  32.035  1.00  0.00    -0.237 OA
ATOM     67  O   UNL A   1      42.961  37.026  34.198  1.00  0.00    -0.237 OA
ATOM     68  O   UNL A   1      45.406  37.048  33.874  1.00  0.00    -0.744 OA
ENDBRANCH  64  65
ENDBRANCH  45  59
BRANCH  46  69
ATOM     69  C   UNL A   1      42.614  23.521  27.763  1.00  0.00    -0.014 A 
ATOM     70  C   UNL A   1      42.154  22.445  28.544  1.00  0.00     0.010 A 
ATOM     71  C   UNL A   1      42.940  23.292  26.414  1.00  0.00     0.010 A 
ATOM     72  C   UNL A   1      42.057  21.161  27.998  1.00  0.00     0.020 A 
ATOM     73  C   UNL A   1      42.811  22.017  25.855  1.00  0.00     0.020 A 
ATOM     74  C   UNL A   1      42.388  20.956  26.656  1.00  0.00     0.054 A 
BRANCH  74  75
ATOM     75  S   UNL A   1      42.233  19.287  25.962  1.00  0.00     0.124 S 
ATOM     76  O   UNL A   1      42.728  18.457  27.057  1.00  0.00    -0.237 OA
ATOM     77  O   UNL A   1      40.802  19.190  25.689  1.00  0.00    -0.237 OA
ATOM     78  O   UNL A   1      43.085  19.330  24.775  1.00  0.00    -0.744 OA
ENDBRANCH  74  75
ENDBRANCH  46  69
BRANCH  58  79
ATOM     79  C   UNL A   1      47.970  26.800  30.796  1.00  0.00    -0.014 A 
ATOM     80  C   UNL A   1      49.019  26.939  29.869  1.00  0.00     0.010 A 
ATOM     81  C   UNL A   1      48.253  26.299  32.080  1.00  0.00     0.010 A 
ATOM     82  C   UNL A   1      50.318  26.552  30.210  1.00  0.00     0.020 A 
ATOM     83  C   UNL A   1      49.556  25.941  32.435  1.00  0.00     0.020 A 
ATOM     84  C   UNL A   1      50.579  26.056  31.491  1.00  0.00     0.054 A 
BRANCH  84  85
ATOM     85  S   UNL A   1      52.281  25.605  31.922  1.00  0.00     0.124 S 
ATOM     86  O   UNL A   1      52.162  24.171  32.170  1.00  0.00    -0.237 OA
ATOM     87  O   UNL A   1      53.024  25.976  30.722  1.00  0.00    -0.237 OA
ATOM     88  O   UNL A   1      52.568  26.419  33.102  1.00  0.00    -0.744 OA
ENDBRANCH  84  85
ENDBRANCH  58  79
ENDBRANCH  32  33
ENDBRANCH  24  27
ENDBRANCH  22  23
ENDBRANCH   1  22
TORSDOF 16
ENDMDL
MODEL 2
REMARK VINA RESULT:      -9.4      4.253      6.919
REMARK SMILES CSc1cccc(N2C[C@@H](C(=O)NCCCCNC(=O)c3ccc(-c4c5nc(c(-c6ccc(S(=O)(=O)[O-])cc6)c6ccc([nH]6)c(-c6ccc(S(=O)(=O)[O-])cc6)c6nc(c(-c7ccc(S(=O)(=O)[O-])cc7)c7ccc4[nH]7)C=C6)C=C5)cc3)CC2=O)c1
REMARK SMILES IDX 16 1 15 2 14 3 13 4 11 5 12 6 10 8 8 9 9 10 82 11 81 12
REMARK SMILES IDX 83 13 7 14 3 15 4 16 84 17 5 18 6 19 2 20 1 21 17 22 18 23
REMARK SMILES IDX 19 24 20 26 21 27 22 28 80 29 23 30 79 31 24 32 25 33 26 34
REMARK SMILES IDX 73 35 27 36 78 37 72 38 74 39 28 40 77 41 71 42 70 43 29 45
REMARK SMILES IDX 59 46 40 47 58 48 41 49 44 50 57 51 75 52 42 53 43 54 56 56
REMARK SMILES IDX 76 57 45 58 30 59 31 60 39 61 32 62 38 63 33 64 34 65 35 66
REMARK SMILES IDX 36 67 37 68 60 69 61 70 69 71 62 72 68 73 63 74 64 75 65 76
REMARK SMILES IDX 66 77 67 78 46 79 47 80 55 81 48 82 54 83 49 84 50 85 51 86
REMARK SMILES IDX 52 87 53 88
REMARK H PARENT 13 7 18 25 74 44 44 55
REMARK Flexibility Score: inf
ROOT
ATOM      1  C   UNL A   1      32.592  27.710  26.929  1.00  0.00     0.023 C 
ENDROOT
BRANCH   1   2
ATOM      2  C   UNL A   1      31.392  27.832  25.988  1.00  0.00     0.023 C 
BRANCH   2   3
ATOM      3  C   UNL A   1      30.781  26.503  25.545  1.00  0.00     0.116 C 
BRANCH   3   4
ATOM      4  N   UNL A   1      30.933  25.468  26.551  1.00  0.00    -0.356 N 
ATOM      5  C   UNL A   1      31.482  24.227  26.494  1.00  0.00     0.225 C 
ATOM      6  O   UNL A   1      31.504  23.566  27.535  1.00  0.00    -0.275 OA
ATOM      7  H   UNL A   1      30.574  25.708  27.436  1.00  0.00     0.163 HD
BRANCH   5   8
ATOM      8  C   UNL A   1      32.084  23.648  25.230  1.00  0.00     0.107 C 
ATOM      9  N   UNL A   1      32.730  21.475  24.568  1.00  0.00    -0.312 N 
ATOM     10  C   UNL A   1      31.567  22.260  24.907  1.00  0.00     0.139 C 
ATOM     11  C   UNL A   1      33.921  22.164  24.789  1.00  0.00     0.227 C 
ATOM     12  C   UNL A   1      33.600  23.571  25.218  1.00  0.00     0.116 C 
ATOM     13  O   UNL A   1      35.069  21.768  24.632  1.00  0.00    -0.274 OA
BRANCH   9  14
ATOM     14  C   UNL A   1      32.640  20.137  24.106  1.00  0.00     0.045 A 
ATOM     15  C   UNL A   1      32.794  17.729  24.507  1.00  0.00     0.009 A 
ATOM     16  C   UNL A   1      32.551  17.493  23.153  1.00  0.00     0.015 A 
ATOM     17  C   UNL A   1      32.869  19.053  24.967  1.00  0.00     0.041 A 
ATOM     18  C   UNL A   1      32.322  18.559  22.285  1.00  0.00     0.003 A 
ATOM     19  C   UNL A   1      32.338  19.870  22.765  1.00  0.00     0.026 A 
BRANCH  15  20
ATOM     20  S   UNL A   1      33.069  16.397  25.668  1.00  0.00    -0.130 SA
ATOM     21  C   UNL A   1      34.734  15.853  25.190  1.00  0.00     0.091 C 
ENDBRANCH  15  20
ENDBRANCH   9  14
ENDBRANCH   5   8
ENDBRANCH   3   4
ENDBRANCH   2   3
ENDBRANCH   1   2
BRANCH   1  22
ATOM     22  C   UNL A   1      33.775  28.615  26.601  1.00  0.00     0.116 C 
BRANCH  22  23
ATOM     23  N   UNL A   1      33.648  29.946  27.174  1.00  0.00    -0.352 N 
ATOM     24  C   UNL A   1      34.537  30.637  27.966  1.00  0.00     0.251 C 
ATOM     25  H   UNL A   1      32.810  30.419  26.967  1.00  0.00     0.163 HD
ATOM     26  O   UNL A   1      34.205  31.706  28.469  1.00  0.00    -0.269 OA
BRANCH  24  27
ATOM     27  C   UNL A   1      35.877  30.072  28.231  1.00  0.00     0.039 A 
ATOM     28  C   UNL A   1      36.849  30.142  27.231  1.00  0.00     0.014 A 
ATOM     29  C   UNL A   1      36.181  29.500  29.469  1.00  0.00     0.014 A 
ATOM     30  C   UNL A   1      38.148  29.703  27.498  1.00  0.00     0.010 A 
ATOM     31  C   UNL A   1      37.494  29.136  29.759  1.00  0.00     0.010 A 
ATOM     32  C   UNL A   1      38.492  29.236  28.778  1.00  0.00    -0.014 A 
BRANCH  32  33
ATOM     33  C   UNL A   1      39.889  28.853  29.111  1.00  0.00     0.031 A 
ATOM     34  C   UNL A   1      40.811  29.847  29.765  1.00  0.00     0.074 A 
ATOM     35  C   UNL A   1      40.346  27.630  28.769  1.00  0.00     0.049 A 
ATOM     36  N   UNL A   1      42.077  29.719  30.072  1.00  0.00    -0.248 NA
ATOM     37  C   UNL A   1      40.244  31.165  30.098  1.00  0.00     0.031 C 
ATOM     38  C   UNL A   1      39.565  26.589  28.098  1.00  0.00     0.029 A 
ATOM     39  N   UNL A   1      41.583  27.058  28.934  1.00  0.00    -0.354 N 
ATOM     40  C   UNL A   1      42.459  30.937  30.620  1.00  0.00     0.074 A 
ATOM     41  C   UNL A   1      41.308  31.810  30.556  1.00  0.00     0.031 C 
ATOM     42  C   UNL A   1      40.330  25.497  27.936  1.00  0.00     0.029 A 
ATOM     43  C   UNL A   1      41.669  25.774  28.447  1.00  0.00     0.049 A 
ATOM     44  H   UNL A   1      42.339  27.522  29.362  1.00  0.00     0.167 HD
ATOM     45  C   UNL A   1      43.653  31.292  31.153  1.00  0.00     0.031 A 
ATOM     46  C   UNL A   1      42.708  24.917  28.407  1.00  0.00     0.031 A 
ATOM     47  C   UNL A   1      44.794  30.418  31.225  1.00  0.00     0.049 A 
ATOM     48  C   UNL A   1      44.033  25.347  28.982  1.00  0.00     0.074 A 
ATOM     49  C   UNL A   1      46.034  30.671  31.787  1.00  0.00     0.029 A 
ATOM     50  N   UNL A   1      44.838  29.126  30.725  1.00  0.00    -0.354 N 
ATOM     51  N   UNL A   1      44.355  26.484  29.551  1.00  0.00    -0.248 NA
ATOM     52  C   UNL A   1      45.131  24.373  28.917  1.00  0.00     0.031 C 
ATOM     53  C   UNL A   1      46.845  29.551  31.577  1.00  0.00     0.029 A 
ATOM     54  C   UNL A   1      46.090  28.577  30.944  1.00  0.00     0.049 A 
ATOM     55  H   UNL A   1      44.089  28.668  30.280  1.00  0.00     0.167 HD
ATOM     56  C   UNL A   1      45.683  26.347  29.943  1.00  0.00     0.074 A 
ATOM     57  C   UNL A   1      46.098  25.013  29.560  1.00  0.00     0.031 C 
ATOM     58  C   UNL A   1      46.486  27.245  30.565  1.00  0.00     0.031 A 
BRANCH  45  59
ATOM     59  C   UNL A   1      43.787  32.687  31.705  1.00  0.00    -0.014 A 
ATOM     60  C   UNL A   1      44.268  33.739  30.905  1.00  0.00     0.010 A 
ATOM     61  C   UNL A   1      43.368  32.965  33.019  1.00  0.00     0.010 A 
ATOM     62  C   UNL A   1      44.360  35.035  31.419  1.00  0.00     0.020 A 
ATOM     63  C   UNL A   1      43.430  34.265  33.527  1.00  0.00     0.020 A 
ATOM     64  C   UNL A   1      43.938  35.290  32.727  1.00  0.00     0.054 A 
BRANCH  64  65
ATOM     65  S   UNL A   1      44.028  36.991  33.351  1.00  0.00     0.124 S 
ATOM     66  O   UNL A   1      45.162  36.914  34.270  1.00  0.00    -0.237 OA
ATOM     67  O   UNL A   1      44.258  37.766  32.134  1.00  0.00    -0.237 OA
ATOM     68  O   UNL A   1      42.729  37.199  33.984  1.00  0.00    -0.744 OA
ENDBRANCH  64  65
ENDBRANCH  45  59
BRANCH  46  69
ATOM     69  C   UNL A   1      42.546  23.564  27.806  1.00  0.00    -0.014 A 
ATOM     70  C   UNL A   1      42.049  22.494  28.574  1.00  0.00     0.010 A 
ATOM     71  C   UNL A   1      42.907  23.330  26.467  1.00  0.00     0.010 A 
ATOM     72  C   UNL A   1      41.950  21.212  28.025  1.00  0.00     0.020 A 
ATOM     73  C   UNL A   1      42.777  22.058  25.904  1.00  0.00     0.020 A 
ATOM     74  C   UNL A   1      42.317  21.002  26.693  1.00  0.00     0.054 A 
BRANCH  74  75
ATOM     75  S   UNL A   1      42.160  19.335  25.994  1.00  0.00     0.124 S 
ATOM     76  O   UNL A   1      43.014  19.421  24.814  1.00  0.00    -0.237 OA
ATOM     77  O   UNL A   1      42.657  18.491  27.077  1.00  0.00    -0.237 OA
ATOM     78  O   UNL A   1      40.729  19.212  25.725  1.00  0.00    -0.744 OA
ENDBRANCH  74  75
ENDBRANCH  46  69
BRANCH  58  79
ATOM     79  C   UNL A   1      47.883  26.803  30.914  1.00  0.00    -0.014 A 
ATOM     80  C   UNL A   1      48.964  27.031  30.043  1.00  0.00     0.010 A 
ATOM     81  C   UNL A   1      48.125  26.201  32.163  1.00  0.00     0.010 A 
ATOM     82  C   UNL A   1      50.255  26.632  30.401  1.00  0.00     0.020 A 
ATOM     83  C   UNL A   1      49.419  25.830  32.537  1.00  0.00     0.020 A 
ATOM     84  C   UNL A   1      50.474  26.035  31.646  1.00  0.00     0.054 A 
BRANCH  84  85
ATOM     85  S   UNL A   1      52.166  25.569  32.104  1.00  0.00     0.124 S 
ATOM     86  O   UNL A   1      52.049  24.124  32.270  1.00  0.00    -0.237 OA
ATOM     87  O   UNL A   1      52.942  26.009  30.948  1.00  0.00    -0.237 OA
ATOM     88  O   UNL A   1      52.412  26.320  33.334  1.00  0.00    -0.744 OA
ENDBRANCH  84  85
ENDBRANCH  58  79
ENDBRANCH  32  33
ENDBRANCH  24  27
ENDBRANCH  22  23
ENDBRANCH   1  22
TORSDOF 16
ENDMDL
MODEL 3
REMARK VINA RESULT:      -9.1      3.517      6.336
REMARK SMILES CSc1cccc(N2C[C@@H](C(=O)NCCCCNC(=O)c3ccc(-c4c5nc(c(-c6ccc(S(=O)(=O)[O-])cc6)c6ccc([nH]6)c(-c6ccc(S(=O)(=O)[O-])cc6)c6nc(c(-c7ccc(S(=O)(=O)[O-])cc7)c7ccc4[nH]7)C=C6)C=C5)cc3)CC2=O)c1
REMARK SMILES IDX 16 1 15 2 14 3 13 4 11 5 12 6 10 8 8 9 9 10 82 11 81 12
REMARK SMILES IDX 83 13 7 14 3 15 4 16 84 17 5 18 6 19 2 20 1 21 17 22 18 23
REMARK SMILES IDX 19 24 20 26 21 27 22 28 80 29 23 30 79 31 24 32 25 33 26 34
REMARK SMILES IDX 73 35 27 36 78 37 72 38 74 39 28 40 77 41 71 42 70 43 29 45
REMARK SMILES IDX 59 46 40 47 58 48 41 49 44 50 57 51 75 52 42 53 43 54 56 56
REMARK SMILES IDX 76 57 45 58 30 59 31 60 39 61 32 62 38 63 33 64 34 65 35 66
REMARK SMILES IDX 36 67 37 68 60 69 61 70 69 71 62 72 68 73 63 74 64 75 65 76
REMARK SMILES IDX 66 77 67 78 46 79 47 80 55 81 48 82 54 83 49 84 50 85 51 86
REMARK SMILES IDX 52 87 53 88
REMARK H PARENT 13 7 18 25 74 44 44 55
REMARK Flexibility Score: inf
ROOT
ATOM      1  C   UNL A   1      33.879  28.504  25.459  1.00  0.00     0.023 C 
ENDROOT
BRANCH   1   2
ATOM      2  C   UNL A   1      32.927  29.343  24.603  1.00  0.00     0.023 C 
BRANCH   2   3
ATOM      3  C   UNL A   1      31.455  29.260  25.004  1.00  0.00     0.116 C 
BRANCH   3   4
ATOM      4  N   UNL A   1      30.721  28.303  24.195  1.00  0.00    -0.356 N 
ATOM      5  C   UNL A   1      30.597  26.954  24.284  1.00  0.00     0.225 C 
ATOM      6  O   UNL A   1      29.864  26.395  23.463  1.00  0.00    -0.275 OA
ATOM      7  H   UNL A   1      30.223  28.705  23.447  1.00  0.00     0.163 HD
BRANCH   5   8
ATOM      8  C   UNL A   1      31.286  26.130  25.352  1.00  0.00     0.107 C 
ATOM      9  N   UNL A   1      31.832  23.841  25.558  1.00  0.00    -0.312 N 
ATOM     10  C   UNL A   1      32.145  25.018  24.782  1.00  0.00     0.139 C 
ATOM     11  C   UNL A   1      30.773  24.049  26.439  1.00  0.00     0.227 C 
ATOM     12  C   UNL A   1      30.358  25.495  26.372  1.00  0.00     0.116 C 
ATOM     13  O   UNL A   1      30.252  23.249  27.205  1.00  0.00    -0.274 OA
BRANCH   9  14
ATOM     14  C   UNL A   1      32.517  22.610  25.388  1.00  0.00     0.045 A 
ATOM     15  C   UNL A   1      34.596  21.327  25.272  1.00  0.00     0.009 A 
ATOM     16  C   UNL A   1      33.866  20.182  24.952  1.00  0.00     0.015 A 
ATOM     17  C   UNL A   1      33.917  22.542  25.455  1.00  0.00     0.041 A 
ATOM     18  C   UNL A   1      32.475  20.234  24.882  1.00  0.00     0.003 A 
ATOM     19  C   UNL A   1      31.804  21.434  25.125  1.00  0.00     0.026 A 
BRANCH  15  20
ATOM     20  S   UNL A   1      36.379  21.310  25.402  1.00  0.00    -0.130 SA
ATOM     21  C   UNL A   1      36.770  23.059  25.108  1.00  0.00     0.091 C 
ENDBRANCH  15  20
ENDBRANCH   9  14
ENDBRANCH   5   8
ENDBRANCH   3   4
ENDBRANCH   2   3
ENDBRANCH   1   2
BRANCH   1  22
ATOM     22  C   UNL A   1      33.646  28.580  26.964  1.00  0.00     0.116 C 
BRANCH  22  23
ATOM     23  N   UNL A   1      33.551  29.945  27.457  1.00  0.00    -0.352 N 
ATOM     24  C   UNL A   1      34.482  30.681  28.152  1.00  0.00     0.251 C 
ATOM     25  H   UNL A   1      32.703  30.407  27.266  1.00  0.00     0.163 HD
ATOM     26  O   UNL A   1      34.179  31.781  28.604  1.00  0.00    -0.269 OA
BRANCH  24  27
ATOM     27  C   UNL A   1      35.834  30.129  28.380  1.00  0.00     0.039 A 
ATOM     28  C   UNL A   1      36.769  30.184  27.344  1.00  0.00     0.014 A 
ATOM     29  C   UNL A   1      36.187  29.583  29.617  1.00  0.00     0.014 A 
ATOM     30  C   UNL A   1      38.080  29.758  27.572  1.00  0.00     0.010 A 
ATOM     31  C   UNL A   1      37.511  29.233  29.866  1.00  0.00     0.010 A 
ATOM     32  C   UNL A   1      38.473  29.318  28.848  1.00  0.00    -0.014 A 
BRANCH  32  33
ATOM     33  C   UNL A   1      39.884  28.949  29.136  1.00  0.00     0.031 A 
ATOM     34  C   UNL A   1      40.818  29.956  29.751  1.00  0.00     0.074 A 
ATOM     35  C   UNL A   1      40.339  27.728  28.790  1.00  0.00     0.049 A 
ATOM     36  N   UNL A   1      42.095  29.842  30.017  1.00  0.00    -0.248 NA
ATOM     37  C   UNL A   1      40.252  31.272  30.093  1.00  0.00     0.031 C 
ATOM     38  C   UNL A   1      39.545  26.674  28.153  1.00  0.00     0.029 A 
ATOM     39  N   UNL A   1      41.586  27.167  28.918  1.00  0.00    -0.354 N 
ATOM     40  C   UNL A   1      42.484  31.067  30.543  1.00  0.00     0.074 A 
ATOM     41  C   UNL A   1      41.324  31.930  30.510  1.00  0.00     0.031 C 
ATOM     42  C   UNL A   1      40.314  25.588  27.974  1.00  0.00     0.029 A 
ATOM     43  C   UNL A   1      41.666  25.880  28.438  1.00  0.00     0.049 A 
ATOM     44  H   UNL A   1      42.352  27.641  29.316  1.00  0.00     0.167 HD
ATOM     45  C   UNL A   1      43.692  31.436  31.032  1.00  0.00     0.031 A 
ATOM     46  C   UNL A   1      42.711  25.031  28.371  1.00  0.00     0.031 A 
ATOM     47  C   UNL A   1      44.843  30.573  31.074  1.00  0.00     0.049 A 
ATOM     48  C   UNL A   1      44.051  25.477  28.897  1.00  0.00     0.074 A 
ATOM     49  C   UNL A   1      46.098  30.840  31.592  1.00  0.00     0.029 A 
ATOM     50  N   UNL A   1      44.881  29.276  30.583  1.00  0.00    -0.354 N 
ATOM     51  N   UNL A   1      44.382  26.621  29.446  1.00  0.00    -0.248 NA
ATOM     52  C   UNL A   1      45.154  24.511  28.803  1.00  0.00     0.031 C 
ATOM     53  C   UNL A   1      46.911  29.725  31.364  1.00  0.00     0.029 A 
ATOM     54  C   UNL A   1      46.145  28.740  30.764  1.00  0.00     0.049 A 
ATOM     55  H   UNL A   1      44.122  28.809  30.166  1.00  0.00     0.167 HD
ATOM     56  C   UNL A   1      45.723  26.499  29.794  1.00  0.00     0.074 A 
ATOM     57  C   UNL A   1      46.136  25.165  29.409  1.00  0.00     0.031 C 
ATOM     58  C   UNL A   1      46.539  27.408  30.383  1.00  0.00     0.031 A 
BRANCH  45  59
ATOM     59  C   UNL A   1      43.833  32.837  31.569  1.00  0.00    -0.014 A 
ATOM     60  C   UNL A   1      44.278  33.886  30.745  1.00  0.00     0.010 A 
ATOM     61  C   UNL A   1      43.456  33.122  32.894  1.00  0.00     0.010 A 
ATOM     62  C   UNL A   1      44.376  35.187  31.245  1.00  0.00     0.020 A 
ATOM     63  C   UNL A   1      43.523  34.426  33.390  1.00  0.00     0.020 A 
ATOM     64  C   UNL A   1      43.995  35.449  32.565  1.00  0.00     0.054 A 
BRANCH  64  65
ATOM     65  S   UNL A   1      44.092  37.156  33.172  1.00  0.00     0.124 S 
ATOM     66  O   UNL A   1      43.918  37.923  31.941  1.00  0.00    -0.237 OA
ATOM     67  O   UNL A   1      42.978  37.223  34.115  1.00  0.00    -0.237 OA
ATOM     68  O   UNL A   1      45.421  37.237  33.773  1.00  0.00    -0.744 OA
ENDBRANCH  64  65
ENDBRANCH  45  59
BRANCH  46  69
ATOM     69  C   UNL A   1      42.540  23.672  27.786  1.00  0.00    -0.014 A 
ATOM     70  C   UNL A   1      42.147  22.589  28.594  1.00  0.00     0.010 A 
ATOM     71  C   UNL A   1      42.791  23.446  26.420  1.00  0.00     0.010 A 
ATOM     72  C   UNL A   1      42.041  21.303  28.056  1.00  0.00     0.020 A 
ATOM     73  C   UNL A   1      42.653  22.169  25.871  1.00  0.00     0.020 A 
ATOM     74  C   UNL A   1      42.298  21.101  26.697  1.00  0.00     0.054 A 
BRANCH  74  75
ATOM     75  S   UNL A   1      42.134  19.428  26.014  1.00  0.00     0.124 S 
ATOM     76  O   UNL A   1      40.690  19.320  25.823  1.00  0.00    -0.237 OA
ATOM     77  O   UNL A   1      42.931  19.505  24.794  1.00  0.00    -0.237 OA
ATOM     78  O   UNL A   1      42.692  18.576  27.062  1.00  0.00    -0.744 OA
ENDBRANCH  74  75
ENDBRANCH  46  69
BRANCH  58  79
ATOM     79  C   UNL A   1      47.950  26.981  30.689  1.00  0.00    -0.014 A 
ATOM     80  C   UNL A   1      49.023  27.342  29.854  1.00  0.00     0.010 A 
ATOM     81  C   UNL A   1      48.212  26.253  31.864  1.00  0.00     0.010 A 
ATOM     82  C   UNL A   1      50.327  26.953  30.173  1.00  0.00     0.020 A 
ATOM     83  C   UNL A   1      49.518  25.889  32.203  1.00  0.00     0.020 A 
ATOM     84  C   UNL A   1      50.567  26.230  31.346  1.00  0.00     0.054 A 
BRANCH  84  85
ATOM     85  S   UNL A   1      52.273  25.777  31.758  1.00  0.00     0.124 S 
ATOM     86  O   UNL A   1      52.605  26.752  32.793  1.00  0.00    -0.237 OA
ATOM     87  O   UNL A   1      52.136  24.397  32.215  1.00  0.00    -0.237 OA
ATOM     88  O   UNL A   1      52.991  25.941  30.495  1.00  0.00    -0.744 OA
ENDBRANCH  84  85
ENDBRANCH  58  79
ENDBRANCH  32  33
ENDBRANCH  24  27
ENDBRANCH  22  23
ENDBRANCH   1  22
TORSDOF 16
ENDMDL
