MODEL 1
REMARK VINA RESULT:     -12.1      0.000      0.000
REMARK SMILES O=C(NCCCCNC(=O)[C@H](c1c[nH]c2cc(F)ccc12)[NH+]1CC[NH+](CC(=O)N2CCOCC2)CC1)c1ccc(-c2c3nc(c(-c4ccc(S(=O)(=O)[O-])cc4)c4ccc([nH]4)c(-c4ccc(S(=O)(=O)[O-])cc4)c4nc(c(-c5ccc(S(=O)(=O)[O-])cc5)c5ccc2[nH]5)C=C4)C=C3)cc1
REMARK SMILES IDX 5 1 4 2 3 3 1 4 2 5 37 7 38 8 96 9 39 10 95 11 40 12 41 13
REMARK SMILES IDX 42 14 89 15 43 16 94 17 88 18 90 19 44 20 93 21 87 22 86 23
REMARK SMILES IDX 45 25 75 26 56 27 74 28 57 29 60 30 73 31 91 32 58 33 59 34
REMARK SMILES IDX 72 36 92 37 61 38 46 39 47 40 55 41 48 42 54 43 49 44 50 45
REMARK SMILES IDX 51 46 52 47 53 48 76 49 77 50 85 51 78 52 84 53 79 54 80 55
REMARK SMILES IDX 81 56 82 57 83 58 62 59 63 60 71 61 64 62 70 63 65 64 66 65
REMARK SMILES IDX 67 66 68 67 69 68 6 69 7 70 8 71 9 72 10 74 11 75 22 76
REMARK SMILES IDX 23 77 36 78 24 80 35 81 25 82 26 84 27 85 28 86 29 87 30 88
REMARK SMILES IDX 34 89 31 90 33 91 32 92 12 93 13 94 21 95 14 96 15 97 20 98
REMARK SMILES IDX 16 100 19 101 17 102 18 103
REMARK H PARENT 3 6 90 24 60 35 8 73 22 79 25 83 14 99
REMARK Flexibility Score: inf
ROOT
ATOM      1  C   UNL A   1      39.274  22.238  26.769  1.00  0.00     0.023 C 
ENDROOT
BRANCH   1   2
ATOM      2  C   UNL A   1      39.284  21.118  25.729  1.00  0.00     0.116 C 
BRANCH   2   3
ATOM      3  N   UNL A   1      40.156  19.994  26.050  1.00  0.00    -0.352 N 
ATOM      4  O   UNL A   1      42.014  18.883  26.676  1.00  0.00    -0.269 OA
ATOM      5  C   UNL A   1      41.475  19.968  26.462  1.00  0.00     0.251 C 
ATOM      6  H   UNL A   1      39.736  19.107  25.957  1.00  0.00     0.163 HD
BRANCH   5   7
ATOM      7  C   UNL A   1      42.258  21.221  26.582  1.00  0.00     0.039 A 
ATOM      8  C   UNL A   1      42.672  21.695  27.825  1.00  0.00     0.014 A 
ATOM      9  C   UNL A   1      42.546  21.963  25.430  1.00  0.00     0.014 A 
ATOM     10  C   UNL A   1      43.149  22.998  27.940  1.00  0.00     0.010 A 
ATOM     11  C   UNL A   1      43.127  23.234  25.538  1.00  0.00     0.010 A 
ATOM     12  C   UNL A   1      43.372  23.793  26.801  1.00  0.00    -0.014 A 
BRANCH  12  13
ATOM     13  C   UNL A   1      43.870  25.187  26.977  1.00  0.00     0.031 A 
ATOM     14  C   UNL A   1      43.008  26.261  27.598  1.00  0.00     0.074 A 
ATOM     15  C   UNL A   1      45.147  25.466  26.648  1.00  0.00     0.049 A 
ATOM     16  N   UNL A   1      43.322  27.498  27.895  1.00  0.00    -0.248 NA
ATOM     17  C   UNL A   1      41.616  25.909  27.924  1.00  0.00     0.031 C 
ATOM     18  C   UNL A   1      46.082  24.521  26.027  1.00  0.00     0.029 A 
ATOM     19  N   UNL A   1      45.896  26.603  26.821  1.00  0.00    -0.354 N 
ATOM     20  C   UNL A   1      42.172  28.074  28.426  1.00  0.00     0.074 A 
ATOM     21  C   UNL A   1      41.142  27.059  28.388  1.00  0.00     0.031 C 
ATOM     22  C   UNL A   1      47.290  25.093  25.933  1.00  0.00     0.029 A 
ATOM     23  C   UNL A   1      47.206  26.463  26.426  1.00  0.00     0.049 A 
ATOM     24  H   UNL A   1      45.530  27.438  27.192  1.00  0.00     0.167 HD
ATOM     25  C   UNL A   1      41.991  29.329  28.909  1.00  0.00     0.031 A 
ATOM     26  C   UNL A   1      48.229  27.338  26.443  1.00  0.00     0.031 A 
ATOM     27  C   UNL A   1      43.019  30.339  28.952  1.00  0.00     0.049 A 
ATOM     28  C   UNL A   1      48.001  28.718  26.982  1.00  0.00     0.074 A 
ATOM     29  C   UNL A   1      42.932  31.637  29.430  1.00  0.00     0.029 A 
ATOM     30  N   UNL A   1      44.322  30.166  28.510  1.00  0.00    -0.354 N 
ATOM     31  N   UNL A   1      46.904  29.234  27.485  1.00  0.00    -0.248 NA
ATOM     32  C   UNL A   1      49.147  29.635  26.958  1.00  0.00     0.031 C 
ATOM     33  C   UNL A   1      44.171  32.260  29.238  1.00  0.00     0.029 A 
ATOM     34  C   UNL A   1      45.043  31.336  28.689  1.00  0.00     0.049 A 
ATOM     35  H   UNL A   1      44.682  29.334  28.124  1.00  0.00     0.167 HD
ATOM     36  C   UNL A   1      47.229  30.538  27.836  1.00  0.00     0.074 A 
ATOM     37  C   UNL A   1      48.633  30.718  27.524  1.00  0.00     0.031 C 
ATOM     38  C   UNL A   1      46.434  31.505  28.356  1.00  0.00     0.031 A 
BRANCH  25  39
ATOM     39  C   UNL A   1      40.624  29.697  29.427  1.00  0.00    -0.014 A 
ATOM     40  C   UNL A   1      40.381  29.824  30.806  1.00  0.00     0.010 A 
ATOM     41  C   UNL A   1      39.590  30.001  28.522  1.00  0.00     0.010 A 
ATOM     42  C   UNL A   1      39.125  30.226  31.272  1.00  0.00     0.020 A 
ATOM     43  C   UNL A   1      38.338  30.425  28.982  1.00  0.00     0.020 A 
ATOM     44  C   UNL A   1      38.110  30.524  30.356  1.00  0.00     0.054 A 
BRANCH  44  45
ATOM     45  S   UNL A   1      36.503  31.084  30.987  1.00  0.00     0.124 S 
ATOM     46  O   UNL A   1      36.124  29.980  31.865  1.00  0.00    -0.237 OA
ATOM     47  O   UNL A   1      36.841  32.335  31.660  1.00  0.00    -0.237 OA
ATOM     48  O   UNL A   1      35.689  31.229  29.782  1.00  0.00    -0.744 OA
ENDBRANCH  44  45
ENDBRANCH  25  39
BRANCH  26  49
ATOM     49  C   UNL A   1      49.554  26.934  25.899  1.00  0.00    -0.014 A 
ATOM     50  C   UNL A   1      49.907  27.215  24.568  1.00  0.00     0.010 A 
ATOM     51  C   UNL A   1      50.479  26.275  26.729  1.00  0.00     0.010 A 
ATOM     52  C   UNL A   1      51.155  26.825  24.072  1.00  0.00     0.020 A 
ATOM     53  C   UNL A   1      51.738  25.913  26.247  1.00  0.00     0.020 A 
ATOM     54  C   UNL A   1      52.062  26.177  24.916  1.00  0.00     0.054 A 
BRANCH  54  55
ATOM     55  S   UNL A   1      53.697  25.723  24.273  1.00  0.00     0.124 S 
ATOM     56  O   UNL A   1      53.747  24.293  24.562  1.00  0.00    -0.237 OA
ATOM     57  O   UNL A   1      53.596  26.080  22.860  1.00  0.00    -0.237 OA
ATOM     58  O   UNL A   1      54.611  26.553  25.054  1.00  0.00    -0.744 OA
ENDBRANCH  54  55
ENDBRANCH  26  49
BRANCH  38  59
ATOM     59  C   UNL A   1      47.075  32.839  28.620  1.00  0.00    -0.014 A 
ATOM     60  C   UNL A   1      47.040  33.862  27.654  1.00  0.00     0.010 A 
ATOM     61  C   UNL A   1      47.722  33.073  29.846  1.00  0.00     0.010 A 
ATOM     62  C   UNL A   1      47.685  35.078  27.891  1.00  0.00     0.020 A 
ATOM     63  C   UNL A   1      48.346  34.299  30.096  1.00  0.00     0.020 A 
ATOM     64  C   UNL A   1      48.343  35.285  29.107  1.00  0.00     0.054 A 
BRANCH  64  65
ATOM     65  S   UNL A   1      49.173  36.871  29.393  1.00  0.00     0.124 S 
ATOM     66  O   UNL A   1      50.529  36.447  29.728  1.00  0.00    -0.237 OA
ATOM     67  O   UNL A   1      49.026  37.551  28.108  1.00  0.00    -0.237 OA
ATOM     68  O   UNL A   1      48.415  37.463  30.493  1.00  0.00    -0.744 OA
ENDBRANCH  64  65
ENDBRANCH  38  59
ENDBRANCH  12  13
ENDBRANCH   5   7
ENDBRANCH   2   3
ENDBRANCH   1   2
BRANCH   1  69
ATOM     69  C   UNL A   1      38.883  23.638  26.293  1.00  0.00     0.023 C 
BRANCH  69  70
ATOM     70  C   UNL A   1      37.415  23.869  25.947  1.00  0.00     0.116 C 
BRANCH  70  71
ATOM     71  N   UNL A   1      36.986  23.473  24.620  1.00  0.00    -0.351 N 
ATOM     72  C   UNL A   1      35.744  23.540  24.012  1.00  0.00     0.283 C 
ATOM     73  H   UNL A   1      37.698  23.092  24.056  1.00  0.00     0.163 HD
ATOM     74  O   UNL A   1      35.761  23.369  22.787  1.00  0.00    -0.268 OA
BRANCH  72  75
ATOM     75  C   UNL A   1      34.402  23.822  24.830  1.00  0.00     0.308 C 
BRANCH  75  76
ATOM     76  N   UNL A   1      33.286  24.222  23.916  1.00  0.00    -0.312 N 
ATOM     77  C   UNL A   1      31.937  24.417  24.515  1.00  0.00     0.325 C 
ATOM     78  C   UNL A   1      33.587  25.427  23.160  1.00  0.00     0.325 C 
ATOM     79  H   UNL A   1      33.231  23.392  23.326  1.00  0.00     0.349 HD
ATOM     80  C   UNL A   1      31.476  25.854  24.965  1.00  0.00     0.325 C 
ATOM     81  C   UNL A   1      33.542  26.677  24.070  1.00  0.00     0.325 C 
ATOM     82  N   UNL A   1      32.191  27.033  24.448  1.00  0.00    -0.318 N 
ATOM     83  H   UNL A   1      32.233  27.676  25.239  1.00  0.00     0.348 HD
BRANCH  82  84
ATOM     84  C   UNL A   1      31.487  27.913  23.496  1.00  0.00     0.364 C 
BRANCH  84  85
ATOM     85  C   UNL A   1      30.965  29.253  24.044  1.00  0.00     0.277 C 
ATOM     86  O   UNL A   1      31.497  29.733  25.052  1.00  0.00    -0.268 OA
ATOM     87  N   UNL A   1      29.910  29.912  23.396  1.00  0.00    -0.333 N 
ATOM     88  C   UNL A   1      28.988  29.303  22.424  1.00  0.00     0.148 C 
ATOM     89  C   UNL A   1      29.399  31.133  24.033  1.00  0.00     0.148 C 
ATOM     90  C   UNL A   1      28.196  30.295  21.570  1.00  0.00     0.181 C 
ATOM     91  C   UNL A   1      28.634  32.038  23.065  1.00  0.00     0.181 C 
ATOM     92  O   UNL A   1      27.606  31.308  22.386  1.00  0.00    -0.378 OA
ENDBRANCH  84  85
ENDBRANCH  82  84
ENDBRANCH  75  76
BRANCH  75  93
ATOM     93  C   UNL A   1      33.982  22.551  25.558  1.00  0.00     0.044 A 
ATOM     94  C   UNL A   1      34.139  22.279  26.908  1.00  0.00     0.094 A 
ATOM     95  C   UNL A   1      33.417  21.365  24.975  1.00  0.00     0.009 A 
ATOM     96  N   UNL A   1      33.720  21.006  27.158  1.00  0.00    -0.361 N 
ATOM     97  C   UNL A   1      33.297  20.413  25.993  1.00  0.00     0.049 A 
ATOM     98  C   UNL A   1      33.025  21.002  23.667  1.00  0.00     0.014 A 
ATOM     99  H   UNL A   1      33.719  20.575  28.043  1.00  0.00     0.166 HD
ATOM    100  C   UNL A   1      32.828  19.114  25.766  1.00  0.00     0.065 A 
ATOM    101  C   UNL A   1      32.546  19.708  23.426  1.00  0.00     0.040 A 
ATOM    102  C   UNL A   1      32.461  18.789  24.462  1.00  0.00     0.125 A 
ATOM    103  F   UNL A   1      32.017  17.551  24.201  1.00  0.00    -0.207 F 
ENDBRANCH  75  93
ENDBRANCH  72  75
ENDBRANCH  70  71
ENDBRANCH  69  70
ENDBRANCH   1  69
TORSDOF 18
ENDMDL
MODEL 2
REMARK VINA RESULT:     -12.0      5.824     11.889
REMARK SMILES O=C(NCCCCNC(=O)[C@H](c1c[nH]c2cc(F)ccc12)[NH+]1CC[NH+](CC(=O)N2CCOCC2)CC1)c1ccc(-c2c3nc(c(-c4ccc(S(=O)(=O)[O-])cc4)c4ccc([nH]4)c(-c4ccc(S(=O)(=O)[O-])cc4)c4nc(c(-c5ccc(S(=O)(=O)[O-])cc5)c5ccc2[nH]5)C=C4)C=C3)cc1
REMARK SMILES IDX 5 1 4 2 3 3 1 4 2 5 37 7 38 8 96 9 39 10 95 11 40 12 41 13
REMARK SMILES IDX 42 14 89 15 43 16 94 17 88 18 90 19 44 20 93 21 87 22 86 23
REMARK SMILES IDX 45 25 75 26 56 27 74 28 57 29 60 30 73 31 91 32 58 33 59 34
REMARK SMILES IDX 72 36 92 37 61 38 46 39 47 40 55 41 48 42 54 43 49 44 50 45
REMARK SMILES IDX 51 46 52 47 53 48 76 49 77 50 85 51 78 52 84 53 79 54 80 55
REMARK SMILES IDX 81 56 82 57 83 58 62 59 63 60 71 61 64 62 70 63 65 64 66 65
REMARK SMILES IDX 67 66 68 67 69 68 6 69 7 70 8 71 9 72 10 74 11 75 22 76
REMARK SMILES IDX 23 77 36 78 24 80 35 81 25 82 26 84 27 85 28 86 29 87 30 88
REMARK SMILES IDX 34 89 31 90 33 91 32 92 12 93 13 94 21 95 14 96 15 97 20 98
REMARK SMILES IDX 16 100 19 101 17 102 18 103
REMARK H PARENT 3 6 90 24 60 35 8 73 22 79 25 83 14 99
REMARK Flexibility Score: inf
ROOT
ATOM      1  C   UNL A   1      34.618  31.182  27.324  1.00  0.00     0.023 C 
ENDROOT
BRANCH   1   2
ATOM      2  C   UNL A   1      33.196  31.638  27.649  1.00  0.00     0.116 C 
BRANCH   2   3
ATOM      3  N   UNL A   1      33.018  33.084  27.715  1.00  0.00    -0.352 N 
ATOM      4  O   UNL A   1      33.360  35.220  28.345  1.00  0.00    -0.269 OA
ATOM      5  C   UNL A   1      33.690  34.040  28.452  1.00  0.00     0.251 C 
ATOM      6  H   UNL A   1      32.300  33.437  27.140  1.00  0.00     0.163 HD
BRANCH   5   7
ATOM      7  C   UNL A   1      34.751  33.652  29.412  1.00  0.00     0.039 A 
ATOM      8  C   UNL A   1      36.072  34.052  29.226  1.00  0.00     0.014 A 
ATOM      9  C   UNL A   1      34.425  32.831  30.499  1.00  0.00     0.014 A 
ATOM     10  C   UNL A   1      37.084  33.449  29.969  1.00  0.00     0.010 A 
ATOM     11  C   UNL A   1      35.438  32.308  31.315  1.00  0.00     0.010 A 
ATOM     12  C   UNL A   1      36.786  32.558  31.016  1.00  0.00    -0.014 A 
BRANCH  12  13
ATOM     13  C   UNL A   1      37.904  31.927  31.771  1.00  0.00     0.031 A 
ATOM     14  C   UNL A   1      38.795  30.885  31.138  1.00  0.00     0.074 A 
ATOM     15  C   UNL A   1      38.171  32.363  33.019  1.00  0.00     0.049 A 
ATOM     16  N   UNL A   1      39.859  30.301  31.635  1.00  0.00    -0.248 NA
ATOM     17  C   UNL A   1      38.451  30.432  29.780  1.00  0.00     0.031 C 
ATOM     18  C   UNL A   1      37.379  33.356  33.751  1.00  0.00     0.029 A 
ATOM     19  N   UNL A   1      39.197  32.062  33.880  1.00  0.00    -0.354 N 
ATOM     20  C   UNL A   1      40.301  29.409  30.663  1.00  0.00     0.074 A 
ATOM     21  C   UNL A   1      39.375  29.506  29.555  1.00  0.00     0.031 C 
ATOM     22  C   UNL A   1      37.982  33.631  34.916  1.00  0.00     0.029 A 
ATOM     23  C   UNL A   1      39.166  32.790  35.046  1.00  0.00     0.049 A 
ATOM     24  H   UNL A   1      39.888  31.390  33.681  1.00  0.00     0.167 HD
ATOM     25  C   UNL A   1      41.382  28.589  30.686  1.00  0.00     0.031 A 
ATOM     26  C   UNL A   1      39.989  32.781  36.112  1.00  0.00     0.031 A 
ATOM     27  C   UNL A   1      42.308  28.496  31.787  1.00  0.00     0.049 A 
ATOM     28  C   UNL A   1      41.176  31.865  36.110  1.00  0.00     0.074 A 
ATOM     29  C   UNL A   1      43.436  27.699  31.899  1.00  0.00     0.029 A 
ATOM     30  N   UNL A   1      42.220  29.226  32.963  1.00  0.00    -0.354 N 
ATOM     31  N   UNL A   1      41.574  31.037  35.174  1.00  0.00    -0.248 NA
ATOM     32  C   UNL A   1      42.026  31.883  37.307  1.00  0.00     0.031 C 
ATOM     33  C   UNL A   1      44.007  27.919  33.158  1.00  0.00     0.029 A 
ATOM     34  C   UNL A   1      43.264  28.888  33.810  1.00  0.00     0.049 A 
ATOM     35  H   UNL A   1      41.519  29.886  33.166  1.00  0.00     0.167 HD
ATOM     36  C   UNL A   1      42.722  30.432  35.671  1.00  0.00     0.074 A 
ATOM     37  C   UNL A   1      42.974  31.019  36.972  1.00  0.00     0.031 C 
ATOM     38  C   UNL A   1      43.490  29.467  35.108  1.00  0.00     0.031 A 
BRANCH  25  39
ATOM     39  C   UNL A   1      41.629  27.710  29.485  1.00  0.00    -0.014 A 
ATOM     40  C   UNL A   1      42.714  27.949  28.623  1.00  0.00     0.010 A 
ATOM     41  C   UNL A   1      40.816  26.583  29.263  1.00  0.00     0.010 A 
ATOM     42  C   UNL A   1      42.968  27.091  27.548  1.00  0.00     0.020 A 
ATOM     43  C   UNL A   1      41.080  25.710  28.202  1.00  0.00     0.020 A 
ATOM     44  C   UNL A   1      42.149  25.976  27.344  1.00  0.00     0.054 A 
BRANCH  44  45
ATOM     45  S   UNL A   1      42.528  24.855  25.968  1.00  0.00     0.124 S 
ATOM     46  O   UNL A   1      43.868  24.390  26.320  1.00  0.00    -0.237 OA
ATOM     47  O   UNL A   1      41.469  23.854  26.068  1.00  0.00    -0.237 OA
ATOM     48  O   UNL A   1      42.457  25.716  24.789  1.00  0.00    -0.744 OA
ENDBRANCH  44  45
ENDBRANCH  25  39
BRANCH  26  49
ATOM     49  C   UNL A   1      39.689  33.649  37.282  1.00  0.00    -0.014 A 
ATOM     50  C   UNL A   1      38.936  33.170  38.367  1.00  0.00     0.010 A 
ATOM     51  C   UNL A   1      40.179  34.968  37.317  1.00  0.00     0.010 A 
ATOM     52  C   UNL A   1      38.661  34.001  39.457  1.00  0.00     0.020 A 
ATOM     53  C   UNL A   1      39.934  35.791  38.418  1.00  0.00     0.020 A 
ATOM     54  C   UNL A   1      39.163  35.306  39.475  1.00  0.00     0.054 A 
BRANCH  54  55
ATOM     55  S   UNL A   1      38.841  36.357  40.919  1.00  0.00     0.124 S 
ATOM     56  O   UNL A   1      40.139  36.356  41.586  1.00  0.00    -0.237 OA
ATOM     57  O   UNL A   1      38.442  37.624  40.310  1.00  0.00    -0.237 OA
ATOM     58  O   UNL A   1      37.773  35.649  41.622  1.00  0.00    -0.744 OA
ENDBRANCH  54  55
ENDBRANCH  26  49
BRANCH  38  59
ATOM     59  C   UNL A   1      44.676  28.997  35.904  1.00  0.00    -0.014 A 
ATOM     60  C   UNL A   1      44.550  27.958  36.845  1.00  0.00     0.010 A 
ATOM     61  C   UNL A   1      45.931  29.600  35.711  1.00  0.00     0.010 A 
ATOM     62  C   UNL A   1      45.647  27.567  37.615  1.00  0.00     0.020 A 
ATOM     63  C   UNL A   1      47.037  29.192  36.462  1.00  0.00     0.020 A 
ATOM     64  C   UNL A   1      46.882  28.193  37.426  1.00  0.00     0.054 A 
BRANCH  64  65
ATOM     65  S   UNL A   1      48.293  27.669  38.436  1.00  0.00     0.124 S 
ATOM     66  O   UNL A   1      48.684  28.918  39.082  1.00  0.00    -0.237 OA
ATOM     67  O   UNL A   1      47.705  26.662  39.317  1.00  0.00    -0.237 OA
ATOM     68  O   UNL A   1      49.245  27.150  37.456  1.00  0.00    -0.744 OA
ENDBRANCH  64  65
ENDBRANCH  38  59
ENDBRANCH  12  13
ENDBRANCH   5   7
ENDBRANCH   2   3
ENDBRANCH   1   2
BRANCH   1  69
ATOM     69  C   UNL A   1      34.994  29.742  27.676  1.00  0.00     0.023 C 
BRANCH  69  70
ATOM     70  C   UNL A   1      34.450  28.641  26.770  1.00  0.00     0.116 C 
BRANCH  70  71
ATOM     71  N   UNL A   1      33.113  28.158  27.059  1.00  0.00    -0.351 N 
ATOM     72  C   UNL A   1      32.349  27.185  26.439  1.00  0.00     0.283 C 
ATOM     73  H   UNL A   1      32.677  28.596  27.825  1.00  0.00     0.163 HD
ATOM     74  O   UNL A   1      31.358  26.821  27.084  1.00  0.00    -0.268 OA
BRANCH  72  75
ATOM     75  C   UNL A   1      32.723  26.580  25.010  1.00  0.00     0.308 C 
BRANCH  75  76
ATOM     76  N   UNL A   1      31.966  25.317  24.742  1.00  0.00    -0.312 N 
ATOM     77  C   UNL A   1      32.208  24.626  23.446  1.00  0.00     0.325 C 
ATOM     78  C   UNL A   1      32.148  24.324  25.788  1.00  0.00     0.325 C 
ATOM     79  H   UNL A   1      31.014  25.683  24.710  1.00  0.00     0.349 HD
ATOM     80  C   UNL A   1      33.273  23.468  23.359  1.00  0.00     0.325 C 
ATOM     81  C   UNL A   1      33.565  23.708  25.726  1.00  0.00     0.325 C 
ATOM     82  N   UNL A   1      33.729  22.816  24.598  1.00  0.00    -0.318 N 
ATOM     83  H   UNL A   1      34.726  22.655  24.452  1.00  0.00     0.348 HD
BRANCH  82  84
ATOM     84  C   UNL A   1      33.321  21.419  24.841  1.00  0.00     0.364 C 
BRANCH  84  85
ATOM     85  C   UNL A   1      34.444  20.370  24.907  1.00  0.00     0.277 C 
ATOM     86  O   UNL A   1      35.577  20.728  25.250  1.00  0.00    -0.268 OA
ATOM     87  N   UNL A   1      34.171  19.031  24.590  1.00  0.00    -0.333 N 
ATOM     88  C   UNL A   1      32.990  18.548  23.856  1.00  0.00     0.148 C 
ATOM     89  C   UNL A   1      35.312  18.105  24.576  1.00  0.00     0.148 C 
ATOM     90  C   UNL A   1      32.715  17.048  23.982  1.00  0.00     0.181 C 
ATOM     91  C   UNL A   1      34.896  16.640  24.718  1.00  0.00     0.181 C 
ATOM     92  O   UNL A   1      33.904  16.293  23.745  1.00  0.00    -0.378 OA
ENDBRANCH  84  85
ENDBRANCH  82  84
ENDBRANCH  75  76
BRANCH  75  93
ATOM     93  C   UNL A   1      32.357  27.587  23.927  1.00  0.00     0.044 A 
ATOM     94  C   UNL A   1      33.234  28.379  23.202  1.00  0.00     0.094 A 
ATOM     95  C   UNL A   1      31.036  27.965  23.506  1.00  0.00     0.009 A 
ATOM     96  N   UNL A   1      32.517  29.211  22.393  1.00  0.00    -0.361 N 
ATOM     97  C   UNL A   1      31.172  29.001  22.575  1.00  0.00     0.049 A 
ATOM     98  C   UNL A   1      29.733  27.544  23.855  1.00  0.00     0.014 A 
ATOM     99  H   UNL A   1      32.906  29.866  21.769  1.00  0.00     0.166 HD
ATOM    100  C   UNL A   1      30.075  29.648  21.994  1.00  0.00     0.065 A 
ATOM    101  C   UNL A   1      28.626  28.176  23.277  1.00  0.00     0.040 A 
ATOM    102  C   UNL A   1      28.807  29.212  22.370  1.00  0.00     0.125 A 
ATOM    103  F   UNL A   1      27.730  29.814  21.845  1.00  0.00    -0.207 F 
ENDBRANCH  75  93
ENDBRANCH  72  75
ENDBRANCH  70  71
ENDBRANCH  69  70
ENDBRANCH   1  69
TORSDOF 18
ENDMDL
MODEL 3
REMARK VINA RESULT:     -11.9      5.974     10.344
REMARK SMILES O=C(NCCCCNC(=O)[C@H](c1c[nH]c2cc(F)ccc12)[NH+]1CC[NH+](CC(=O)N2CCOCC2)CC1)c1ccc(-c2c3nc(c(-c4ccc(S(=O)(=O)[O-])cc4)c4ccc([nH]4)c(-c4ccc(S(=O)(=O)[O-])cc4)c4nc(c(-c5ccc(S(=O)(=O)[O-])cc5)c5ccc2[nH]5)C=C4)C=C3)cc1
REMARK SMILES IDX 5 1 4 2 3 3 1 4 2 5 37 7 38 8 96 9 39 10 95 11 40 12 41 13
REMARK SMILES IDX 42 14 89 15 43 16 94 17 88 18 90 19 44 20 93 21 87 22 86 23
REMARK SMILES IDX 45 25 75 26 56 27 74 28 57 29 60 30 73 31 91 32 58 33 59 34
REMARK SMILES IDX 72 36 92 37 61 38 46 39 47 40 55 41 48 42 54 43 49 44 50 45
REMARK SMILES IDX 51 46 52 47 53 48 76 49 77 50 85 51 78 52 84 53 79 54 80 55
REMARK SMILES IDX 81 56 82 57 83 58 62 59 63 60 71 61 64 62 70 63 65 64 66 65
REMARK SMILES IDX 67 66 68 67 69 68 6 69 7 70 8 71 9 72 10 74 11 75 22 76
REMARK SMILES IDX 23 77 36 78 24 80 35 81 25 82 26 84 27 85 28 86 29 87 30 88
REMARK SMILES IDX 34 89 31 90 33 91 32 92 12 93 13 94 21 95 14 96 15 97 20 98
REMARK SMILES IDX 16 100 19 101 17 102 18 103
REMARK H PARENT 3 6 90 24 60 35 8 73 22 79 25 83 14 99
REMARK Flexibility Score: inf
ROOT
ATOM      1  C   UNL A   1      34.574  31.134  27.248  1.00  0.00     0.023 C 
ENDROOT
BRANCH   1   2
ATOM      2  C   UNL A   1      33.145  31.513  27.633  1.00  0.00     0.116 C 
BRANCH   2   3
ATOM      3  N   UNL A   1      32.873  32.946  27.640  1.00  0.00    -0.352 N 
ATOM      4  O   UNL A   1      33.100  35.129  28.150  1.00  0.00    -0.269 OA
ATOM      5  C   UNL A   1      33.513  33.980  28.296  1.00  0.00     0.251 C 
ATOM      6  H   UNL A   1      32.107  33.223  27.086  1.00  0.00     0.163 HD
BRANCH   5   7
ATOM      7  C   UNL A   1      34.642  33.710  29.219  1.00  0.00     0.039 A 
ATOM      8  C   UNL A   1      35.920  34.198  28.956  1.00  0.00     0.014 A 
ATOM      9  C   UNL A   1      34.427  32.912  30.350  1.00  0.00     0.014 A 
ATOM     10  C   UNL A   1      37.006  33.702  29.672  1.00  0.00     0.010 A 
ATOM     11  C   UNL A   1      35.511  32.499  31.137  1.00  0.00     0.010 A 
ATOM     12  C   UNL A   1      36.822  32.835  30.765  1.00  0.00    -0.014 A 
BRANCH  12  13
ATOM     13  C   UNL A   1      38.017  32.319  31.490  1.00  0.00     0.031 A 
ATOM     14  C   UNL A   1      38.401  32.843  32.854  1.00  0.00     0.074 A 
ATOM     15  C   UNL A   1      38.717  31.304  30.945  1.00  0.00     0.049 A 
ATOM     16  N   UNL A   1      39.362  32.440  33.649  1.00  0.00    -0.248 NA
ATOM     17  C   UNL A   1      37.613  33.962  33.397  1.00  0.00     0.031 C 
ATOM     18  C   UNL A   1      38.459  30.716  29.626  1.00  0.00     0.029 A 
ATOM     19  N   UNL A   1      39.759  30.560  31.438  1.00  0.00    -0.354 N 
ATOM     20  C   UNL A   1      39.305  33.259  34.772  1.00  0.00     0.074 A 
ATOM     21  C   UNL A   1      38.231  34.202  34.547  1.00  0.00     0.031 C 
ATOM     22  C   UNL A   1      39.271  29.665  29.446  1.00  0.00     0.029 A 
ATOM     23  C   UNL A   1      40.151  29.541  30.602  1.00  0.00     0.049 A 
ATOM     24  H   UNL A   1      40.186  30.739  32.307  1.00  0.00     0.167 HD
ATOM     25  C   UNL A   1      40.071  33.226  35.892  1.00  0.00     0.031 A 
ATOM     26  C   UNL A   1      41.117  28.613  30.736  1.00  0.00     0.031 A 
ATOM     27  C   UNL A   1      41.138  32.284  36.119  1.00  0.00     0.049 A 
ATOM     28  C   UNL A   1      41.948  28.599  31.985  1.00  0.00     0.074 A 
ATOM     29  C   UNL A   1      41.964  32.168  37.225  1.00  0.00     0.029 A 
ATOM     30  N   UNL A   1      41.523  31.291  35.231  1.00  0.00    -0.354 N 
ATOM     31  N   UNL A   1      41.868  29.382  33.034  1.00  0.00    -0.248 NA
ATOM     32  C   UNL A   1      42.999  27.577  32.068  1.00  0.00     0.031 C 
ATOM     33  C   UNL A   1      42.875  31.131  36.987  1.00  0.00     0.029 A 
ATOM     34  C   UNL A   1      42.583  30.569  35.757  1.00  0.00     0.049 A 
ATOM     35  H   UNL A   1      41.105  31.124  34.355  1.00  0.00     0.167 HD
ATOM     36  C   UNL A   1      42.861  28.947  33.903  1.00  0.00     0.074 A 
ATOM     37  C   UNL A   1      43.500  27.810  33.272  1.00  0.00     0.031 C 
ATOM     38  C   UNL A   1      43.221  29.453  35.108  1.00  0.00     0.031 A 
BRANCH  25  39
ATOM     39  C   UNL A   1      39.796  34.247  36.967  1.00  0.00    -0.014 A 
ATOM     40  C   UNL A   1      38.987  33.933  38.075  1.00  0.00     0.010 A 
ATOM     41  C   UNL A   1      40.420  35.507  36.914  1.00  0.00     0.010 A 
ATOM     42  C   UNL A   1      38.789  34.868  39.096  1.00  0.00     0.020 A 
ATOM     43  C   UNL A   1      40.242  36.437  37.944  1.00  0.00     0.020 A 
ATOM     44  C   UNL A   1      39.418  36.115  39.024  1.00  0.00     0.054 A 
BRANCH  44  45
ATOM     45  S   UNL A   1      39.179  37.292  40.385  1.00  0.00     0.124 S 
ATOM     46  O   UNL A   1      40.535  37.796  40.587  1.00  0.00    -0.237 OA
ATOM     47  O   UNL A   1      38.232  38.249  39.818  1.00  0.00    -0.237 OA
ATOM     48  O   UNL A   1      38.652  36.467  41.469  1.00  0.00    -0.744 OA
ENDBRANCH  44  45
ENDBRANCH  25  39
BRANCH  26  49
ATOM     49  C   UNL A   1      41.365  27.642  29.636  1.00  0.00    -0.014 A 
ATOM     50  C   UNL A   1      40.543  26.516  29.463  1.00  0.00     0.010 A 
ATOM     51  C   UNL A   1      42.429  27.858  28.741  1.00  0.00     0.010 A 
ATOM     52  C   UNL A   1      40.792  25.613  28.426  1.00  0.00     0.020 A 
ATOM     53  C   UNL A   1      42.662  26.976  27.684  1.00  0.00     0.020 A 
ATOM     54  C   UNL A   1      41.851  25.849  27.544  1.00  0.00     0.054 A 
BRANCH  54  55
ATOM     55  S   UNL A   1      42.132  24.695  26.172  1.00  0.00     0.124 S 
ATOM     56  O   UNL A   1      42.146  25.594  25.021  1.00  0.00    -0.237 OA
ATOM     57  O   UNL A   1      43.416  24.091  26.520  1.00  0.00    -0.237 OA
ATOM     58  O   UNL A   1      40.986  23.791  26.249  1.00  0.00    -0.744 OA
ENDBRANCH  54  55
ENDBRANCH  26  49
BRANCH  38  59
ATOM     59  C   UNL A   1      44.357  28.769  35.817  1.00  0.00    -0.014 A 
ATOM     60  C   UNL A   1      45.688  29.174  35.608  1.00  0.00     0.010 A 
ATOM     61  C   UNL A   1      44.092  27.707  36.700  1.00  0.00     0.010 A 
ATOM     62  C   UNL A   1      46.738  28.496  36.231  1.00  0.00     0.020 A 
ATOM     63  C   UNL A   1      45.139  27.043  37.345  1.00  0.00     0.020 A 
ATOM     64  C   UNL A   1      46.458  27.428  37.088  1.00  0.00     0.054 A 
BRANCH  64  65
ATOM     65  S   UNL A   1      47.835  26.562  37.888  1.00  0.00     0.124 S 
ATOM     66  O   UNL A   1      47.183  25.961  39.048  1.00  0.00    -0.237 OA
ATOM     67  O   UNL A   1      48.272  25.625  36.856  1.00  0.00    -0.237 OA
ATOM     68  O   UNL A   1      48.785  27.631  38.191  1.00  0.00    -0.744 OA
ENDBRANCH  64  65
ENDBRANCH  38  59
ENDBRANCH  12  13
ENDBRANCH   5   7
ENDBRANCH   2   3
ENDBRANCH   1   2
BRANCH   1  69
ATOM     69  C   UNL A   1      35.030  29.706  27.550  1.00  0.00     0.023 C 
BRANCH  69  70
ATOM     70  C   UNL A   1      34.378  28.584  26.747  1.00  0.00     0.116 C 
BRANCH  70  71
ATOM     71  N   UNL A   1      32.993  28.283  27.053  1.00  0.00    -0.351 N 
ATOM     72  C   UNL A   1      32.110  27.393  26.466  1.00  0.00     0.283 C 
ATOM     73  H   UNL A   1      32.617  28.797  27.804  1.00  0.00     0.163 HD
ATOM     74  O   UNL A   1      31.083  27.178  27.123  1.00  0.00    -0.268 OA
BRANCH  72  75
ATOM     75  C   UNL A   1      32.399  26.698  25.058  1.00  0.00     0.308 C 
BRANCH  75  76
ATOM     76  N   UNL A   1      31.539  25.489  24.865  1.00  0.00    -0.312 N 
ATOM     77  C   UNL A   1      31.699  24.719  23.601  1.00  0.00     0.325 C 
ATOM     78  C   UNL A   1      31.661  24.535  25.955  1.00  0.00     0.325 C 
ATOM     79  H   UNL A   1      30.618  25.928  24.830  1.00  0.00     0.349 HD
ATOM     80  C   UNL A   1      32.667  23.477  23.554  1.00  0.00     0.325 C 
ATOM     81  C   UNL A   1      33.024  23.805  25.901  1.00  0.00     0.325 C 
ATOM     82  N   UNL A   1      33.094  22.850  24.816  1.00  0.00    -0.318 N 
ATOM     83  H   UNL A   1      34.072  22.603  24.663  1.00  0.00     0.348 HD
BRANCH  82  84
ATOM     84  C   UNL A   1      32.581  21.504  25.135  1.00  0.00     0.364 C 
BRANCH  84  85
ATOM     85  C   UNL A   1      32.529  20.490  23.979  1.00  0.00     0.277 C 
ATOM     86  O   UNL A   1      32.312  20.901  22.833  1.00  0.00    -0.268 OA
ATOM     87  N   UNL A   1      32.736  19.126  24.233  1.00  0.00    -0.333 N 
ATOM     88  C   UNL A   1      32.663  18.480  25.553  1.00  0.00     0.148 C 
ATOM     89  C   UNL A   1      32.571  18.206  23.099  1.00  0.00     0.148 C 
ATOM     90  C   UNL A   1      33.309  17.096  25.637  1.00  0.00     0.181 C 
ATOM     91  C   UNL A   1      33.273  16.863  23.311  1.00  0.00     0.181 C 
ATOM     92  O   UNL A   1      32.880  16.270  24.554  1.00  0.00    -0.378 OA
ENDBRANCH  84  85
ENDBRANCH  82  84
ENDBRANCH  75  76
BRANCH  75  93
ATOM     93  C   UNL A   1      32.086  27.683  23.938  1.00  0.00     0.044 A 
ATOM     94  C   UNL A   1      32.999  28.440  23.222  1.00  0.00     0.094 A 
ATOM     95  C   UNL A   1      30.786  28.072  23.466  1.00  0.00     0.009 A 
ATOM     96  N   UNL A   1      32.324  29.262  22.369  1.00  0.00    -0.361 N 
ATOM     97  C   UNL A   1      30.970  29.080  22.514  1.00  0.00     0.049 A 
ATOM     98  C   UNL A   1      29.465  27.683  23.784  1.00  0.00     0.014 A 
ATOM     99  H   UNL A   1      32.744  29.894  21.742  1.00  0.00     0.166 HD
ATOM    100  C   UNL A   1      29.904  29.731  21.881  1.00  0.00     0.065 A 
ATOM    101  C   UNL A   1      28.389  28.319  23.154  1.00  0.00     0.040 A 
ATOM    102  C   UNL A   1      28.617  29.328  22.228  1.00  0.00     0.125 A 
ATOM    103  F   UNL A   1      27.568  29.935  21.653  1.00  0.00    -0.207 F 
ENDBRANCH  75  93
ENDBRANCH  72  75
ENDBRANCH  70  71
ENDBRANCH  69  70
ENDBRANCH   1  69
TORSDOF 18
ENDMDL
