MODEL 1
REMARK VINA RESULT:     -12.2      0.000      0.000
REMARK SMILES [NH3+]Cc1c(-c2ccccc2)c(C(=O)NCCCCNC(=O)c2ccc(-c3c4nc(c(-c5ccc(S(=O)(=O)[O-])cc5)c5ccc([nH]5)c(-c5ccc(S(=O)(=O)[O-])cc5)c5nc(c(-c6ccc(S(=O)(=O)[O-])cc6)c6ccc3[nH]6)C=C5)C=C4)cc2)c2ccccn12
REMARK SMILES IDX 17 1 16 2 15 3 14 4 12 5 13 6 11 8 3 9 4 10 87 11 82 12
REMARK SMILES IDX 86 13 83 14 85 15 84 16 2 17 1 18 5 22 6 23 10 24 7 25 9 26
REMARK SMILES IDX 8 27 18 28 19 29 20 30 21 32 22 33 23 34 81 35 24 36 80 37
REMARK SMILES IDX 25 38 26 39 27 40 74 41 28 42 79 43 73 44 75 45 29 46 78 47
REMARK SMILES IDX 72 48 71 49 30 51 60 52 41 53 59 54 42 55 45 56 58 57 76 58
REMARK SMILES IDX 43 59 44 60 57 62 77 63 46 64 31 65 32 66 40 67 33 68 39 69
REMARK SMILES IDX 34 70 35 71 36 72 37 73 38 74 61 75 62 76 70 77 63 78 69 79
REMARK SMILES IDX 64 80 65 81 66 82 67 83 68 84 47 85 48 86 56 87 49 88 55 89
REMARK SMILES IDX 50 90 51 91 52 92 53 93 54 94
REMARK H PARENT 14 7 1 19 1 20 1 21 19 31 75 50 45 61
REMARK Flexibility Score: inf
ROOT
ATOM      1  C   UNL A   1      34.474  28.915  27.233  1.00  0.00     0.023 C 
ENDROOT
BRANCH   1   2
ATOM      2  C   UNL A   1      33.112  29.595  27.357  1.00  0.00     0.023 C 
BRANCH   2   3
ATOM      3  C   UNL A   1      32.590  30.347  26.135  1.00  0.00     0.116 C 
BRANCH   3   4
ATOM      4  N   UNL A   1      33.211  30.002  24.872  1.00  0.00    -0.352 N 
ATOM      5  C   UNL A   1      32.803  29.136  23.875  1.00  0.00     0.254 C 
ATOM      6  O   UNL A   1      33.500  29.094  22.863  1.00  0.00    -0.269 OA
ATOM      7  H   UNL A   1      34.065  30.459  24.695  1.00  0.00     0.163 HD
BRANCH   5   8
ATOM      8  C   UNL A   1      31.648  28.249  24.056  1.00  0.00     0.073 A 
ATOM      9  C   UNL A   1      29.514  27.382  23.842  1.00  0.00     0.086 A 
ATOM     10  C   UNL A   1      30.298  28.525  23.649  1.00  0.00     0.022 A 
ATOM     11  N   UNL A   1      30.356  26.425  24.393  1.00  0.00    -0.314 N 
ATOM     12  C   UNL A   1      31.560  27.045  24.742  1.00  0.00     0.059 A 
ATOM     13  C   UNL A   1      30.156  25.056  24.619  1.00  0.00     0.092 A 
ATOM     14  C   UNL A   1      32.431  26.324  25.618  1.00  0.00     0.027 A 
ATOM     15  C   UNL A   1      31.062  24.340  25.305  1.00  0.00     0.018 A 
ATOM     16  C   UNL A   1      32.207  25.023  25.869  1.00  0.00     0.004 A 
BRANCH   9  17
ATOM     17  C   UNL A   1      28.067  27.214  23.470  1.00  0.00     0.315 C 
BRANCH  17  18
ATOM     18  N   UNL A   1      27.322  26.209  24.210  1.00  0.00    -0.353 N 
ATOM     19  H   UNL A   1      26.485  25.951  23.687  1.00  0.00     0.344 HD
ATOM     20  H   UNL A   1      27.052  26.586  25.119  1.00  0.00     0.344 HD
ATOM     21  H   UNL A   1      27.907  25.384  24.346  1.00  0.00     0.344 HD
ENDBRANCH  17  18
ENDBRANCH   9  17
BRANCH  10  22
ATOM     22  C   UNL A   1      29.743  29.756  23.102  1.00  0.00    -0.016 A 
ATOM     23  C   UNL A   1      29.509  29.897  21.733  1.00  0.00     0.009 A 
ATOM     24  C   UNL A   1      29.427  30.813  23.969  1.00  0.00     0.009 A 
ATOM     25  C   UNL A   1      28.950  31.079  21.238  1.00  0.00     0.001 A 
ATOM     26  C   UNL A   1      28.862  31.989  23.474  1.00  0.00     0.001 A 
ATOM     27  C   UNL A   1      28.623  32.122  22.108  1.00  0.00     0.000 A 
ENDBRANCH  10  22
ENDBRANCH   5   8
ENDBRANCH   3   4
ENDBRANCH   2   3
ENDBRANCH   1   2
BRANCH   1  28
ATOM     28  C   UNL A   1      35.658  29.606  27.904  1.00  0.00     0.116 C 
BRANCH  28  29
ATOM     29  N   UNL A   1      35.544  29.717  29.350  1.00  0.00    -0.352 N 
ATOM     30  C   UNL A   1      36.512  29.696  30.330  1.00  0.00     0.251 C 
ATOM     31  H   UNL A   1      34.623  29.825  29.684  1.00  0.00     0.163 HD
ATOM     32  O   UNL A   1      36.174  29.750  31.511  1.00  0.00    -0.269 OA
BRANCH  30  33
ATOM     33  C   UNL A   1      37.945  29.559  29.979  1.00  0.00     0.039 A 
ATOM     34  C   UNL A   1      38.798  28.921  30.885  1.00  0.00     0.014 A 
ATOM     35  C   UNL A   1      38.451  30.036  28.769  1.00  0.00     0.014 A 
ATOM     36  C   UNL A   1      40.129  28.670  30.531  1.00  0.00     0.010 A 
ATOM     37  C   UNL A   1      39.751  29.709  28.383  1.00  0.00     0.010 A 
ATOM     38  C   UNL A   1      40.602  29.014  29.255  1.00  0.00    -0.014 A 
BRANCH  38  39
ATOM     39  C   UNL A   1      41.970  28.634  28.808  1.00  0.00     0.031 A 
ATOM     40  C   UNL A   1      43.067  29.663  28.745  1.00  0.00     0.074 A 
ATOM     41  C   UNL A   1      42.210  27.374  28.389  1.00  0.00     0.049 A 
ATOM     42  N   UNL A   1      44.302  29.529  28.329  1.00  0.00    -0.248 NA
ATOM     43  C   UNL A   1      42.727  31.028  29.178  1.00  0.00     0.031 C 
ATOM     44  C   UNL A   1      41.223  26.291  28.344  1.00  0.00     0.029 A 
ATOM     45  N   UNL A   1      43.358  26.790  27.913  1.00  0.00    -0.354 N 
ATOM     46  C   UNL A   1      44.876  30.790  28.431  1.00  0.00     0.074 A 
ATOM     47  C   UNL A   1      43.842  31.687  28.898  1.00  0.00     0.031 C 
ATOM     48  C   UNL A   1      41.815  25.171  27.898  1.00  0.00     0.029 A 
ATOM     49  C   UNL A   1      43.212  25.461  27.589  1.00  0.00     0.049 A 
ATOM     50  H   UNL A   1      44.208  27.277  27.813  1.00  0.00     0.167 HD
ATOM     51  C   UNL A   1      46.153  31.168  28.180  1.00  0.00     0.031 A 
ATOM     52  C   UNL A   1      44.097  24.572  27.097  1.00  0.00     0.031 A 
ATOM     53  C   UNL A   1      47.188  30.273  27.733  1.00  0.00     0.049 A 
ATOM     54  C   UNL A   1      45.512  25.011  26.837  1.00  0.00     0.074 A 
ATOM     55  C   UNL A   1      48.527  30.547  27.514  1.00  0.00     0.029 A 
ATOM     56  N   UNL A   1      47.001  28.931  27.438  1.00  0.00    -0.354 N 
ATOM     57  N   UNL A   1      46.051  26.194  27.010  1.00  0.00    -0.248 NA
ATOM     58  C   UNL A   1      46.439  23.992  26.327  1.00  0.00     0.031 C 
ATOM     59  C   UNL A   1      49.141  29.382  27.045  1.00  0.00     0.029 A 
ATOM     60  C   UNL A   1      48.196  28.369  27.020  1.00  0.00     0.049 A 
ATOM     61  H   UNL A   1      46.146  28.450  27.514  1.00  0.00     0.167 HD
ATOM     62  C   UNL A   1      47.388  26.054  26.651  1.00  0.00     0.074 A 
ATOM     63  C   UNL A   1      47.578  24.670  26.269  1.00  0.00     0.031 C 
ATOM     64  C   UNL A   1      48.369  26.990  26.639  1.00  0.00     0.031 A 
BRANCH  51  65
ATOM     65  C   UNL A   1      46.500  32.618  28.386  1.00  0.00    -0.014 A 
ATOM     66  C   UNL A   1      47.089  33.059  29.586  1.00  0.00     0.010 A 
ATOM     67  C   UNL A   1      46.263  33.550  27.359  1.00  0.00     0.010 A 
ATOM     68  C   UNL A   1      47.391  34.409  29.774  1.00  0.00     0.020 A 
ATOM     69  C   UNL A   1      46.591  34.899  27.531  1.00  0.00     0.020 A 
ATOM     70  C   UNL A   1      47.135  35.323  28.746  1.00  0.00     0.054 A 
BRANCH  70  71
ATOM     71  S   UNL A   1      47.549  37.069  29.012  1.00  0.00     0.124 S 
ATOM     72  O   UNL A   1      48.503  36.985  30.115  1.00  0.00    -0.237 OA
ATOM     73  O   UNL A   1      48.113  37.465  27.724  1.00  0.00    -0.237 OA
ATOM     74  O   UNL A   1      46.266  37.683  29.341  1.00  0.00    -0.744 OA
ENDBRANCH  70  71
ENDBRANCH  51  65
BRANCH  52  75
ATOM     75  C   UNL A   1      43.677  23.167  26.840  1.00  0.00    -0.014 A 
ATOM     76  C   UNL A   1      43.901  22.577  25.584  1.00  0.00     0.010 A 
ATOM     77  C   UNL A   1      43.063  22.407  27.853  1.00  0.00     0.010 A 
ATOM     78  C   UNL A   1      43.503  21.259  25.339  1.00  0.00     0.020 A 
ATOM     79  C   UNL A   1      42.688  21.081  27.619  1.00  0.00     0.020 A 
ATOM     80  C   UNL A   1      42.900  20.519  26.359  1.00  0.00     0.054 A 
BRANCH  80  81
ATOM     81  S   UNL A   1      42.441  18.793  26.036  1.00  0.00     0.124 S 
ATOM     82  O   UNL A   1      43.370  18.426  24.972  1.00  0.00    -0.237 OA
ATOM     83  O   UNL A   1      42.677  18.155  27.330  1.00  0.00    -0.237 OA
ATOM     84  O   UNL A   1      41.037  18.882  25.642  1.00  0.00    -0.744 OA
ENDBRANCH  80  81
ENDBRANCH  52  75
BRANCH  64  85
ATOM     85  C   UNL A   1      49.745  26.543  26.224  1.00  0.00    -0.014 A 
ATOM     86  C   UNL A   1      50.229  26.787  24.926  1.00  0.00     0.010 A 
ATOM     87  C   UNL A   1      50.584  25.916  27.163  1.00  0.00     0.010 A 
ATOM     88  C   UNL A   1      51.516  26.379  24.566  1.00  0.00     0.020 A 
ATOM     89  C   UNL A   1      51.880  25.531  26.813  1.00  0.00     0.020 A 
ATOM     90  C   UNL A   1      52.333  25.754  25.511  1.00  0.00     0.054 A 
BRANCH  90  91
ATOM     91  S   UNL A   1      54.016  25.272  25.031  1.00  0.00     0.124 S 
ATOM     92  O   UNL A   1      54.170  25.950  23.746  1.00  0.00    -0.237 OA
ATOM     93  O   UNL A   1      54.826  25.804  26.123  1.00  0.00    -0.237 OA
ATOM     94  O   UNL A   1      53.952  23.814  24.964  1.00  0.00    -0.744 OA
ENDBRANCH  90  91
ENDBRANCH  64  85
ENDBRANCH  38  39
ENDBRANCH  30  33
ENDBRANCH  28  29
ENDBRANCH   1  28
TORSDOF 17
ENDMDL
MODEL 2
REMARK VINA RESULT:     -12.1      6.482     11.913
REMARK SMILES [NH3+]Cc1c(-c2ccccc2)c(C(=O)NCCCCNC(=O)c2ccc(-c3c4nc(c(-c5ccc(S(=O)(=O)[O-])cc5)c5ccc([nH]5)c(-c5ccc(S(=O)(=O)[O-])cc5)c5nc(c(-c6ccc(S(=O)(=O)[O-])cc6)c6ccc3[nH]6)C=C5)C=C4)cc2)c2ccccn12
REMARK SMILES IDX 17 1 16 2 15 3 14 4 12 5 13 6 11 8 3 9 4 10 87 11 82 12
REMARK SMILES IDX 86 13 83 14 85 15 84 16 2 17 1 18 5 22 6 23 10 24 7 25 9 26
REMARK SMILES IDX 8 27 18 28 19 29 20 30 21 32 22 33 23 34 81 35 24 36 80 37
REMARK SMILES IDX 25 38 26 39 27 40 74 41 28 42 79 43 73 44 75 45 29 46 78 47
REMARK SMILES IDX 72 48 71 49 30 51 60 52 41 53 59 54 42 55 45 56 58 57 76 58
REMARK SMILES IDX 43 59 44 60 57 62 77 63 46 64 31 65 32 66 40 67 33 68 39 69
REMARK SMILES IDX 34 70 35 71 36 72 37 73 38 74 61 75 62 76 70 77 63 78 69 79
REMARK SMILES IDX 64 80 65 81 66 82 67 83 68 84 47 85 48 86 56 87 49 88 55 89
REMARK SMILES IDX 50 90 51 91 52 92 53 93 54 94
REMARK H PARENT 14 7 1 19 1 20 1 21 19 31 75 50 45 61
REMARK Flexibility Score: inf
ROOT
ATOM      1  C   UNL A   1      38.909  22.613  26.284  1.00  0.00     0.023 C 
ENDROOT
BRANCH   1   2
ATOM      2  C   UNL A   1      37.793  23.644  26.129  1.00  0.00     0.023 C 
BRANCH   2   3
ATOM      3  C   UNL A   1      36.403  23.126  25.769  1.00  0.00     0.116 C 
BRANCH   3   4
ATOM      4  N   UNL A   1      35.493  22.944  26.883  1.00  0.00    -0.352 N 
ATOM      5  C   UNL A   1      34.128  22.731  26.905  1.00  0.00     0.254 C 
ATOM      6  O   UNL A   1      33.618  22.533  28.005  1.00  0.00    -0.269 OA
ATOM      7  H   UNL A   1      35.918  22.977  27.771  1.00  0.00     0.163 HD
BRANCH   5   8
ATOM      8  C   UNL A   1      33.318  22.827  25.684  1.00  0.00     0.073 A 
ATOM      9  C   UNL A   1      32.206  23.746  23.876  1.00  0.00     0.086 A 
ATOM     10  C   UNL A   1      32.777  24.033  25.120  1.00  0.00     0.022 A 
ATOM     11  N   UNL A   1      32.357  22.378  23.687  1.00  0.00    -0.314 N 
ATOM     12  C   UNL A   1      32.800  21.814  24.889  1.00  0.00     0.059 A 
ATOM     13  C   UNL A   1      32.137  21.584  22.553  1.00  0.00     0.092 A 
ATOM     14  C   UNL A   1      32.702  20.393  25.011  1.00  0.00     0.027 A 
ATOM     15  C   UNL A   1      32.210  20.245  22.636  1.00  0.00     0.018 A 
ATOM     16  C   UNL A   1      32.443  19.639  23.929  1.00  0.00     0.004 A 
BRANCH   9  17
ATOM     17  C   UNL A   1      31.603  24.734  22.916  1.00  0.00     0.315 C 
BRANCH  17  18
ATOM     18  N   UNL A   1      32.302  24.918  21.655  1.00  0.00    -0.353 N 
ATOM     19  H   UNL A   1      33.115  25.517  21.800  1.00  0.00     0.344 HD
ATOM     20  H   UNL A   1      31.675  25.356  20.979  1.00  0.00     0.344 HD
ATOM     21  H   UNL A   1      32.605  24.012  21.299  1.00  0.00     0.344 HD
ENDBRANCH  17  18
ENDBRANCH   9  17
BRANCH  10  22
ATOM     22  C   UNL A   1      32.785  25.382  25.671  1.00  0.00    -0.016 A 
ATOM     23  C   UNL A   1      33.891  26.220  25.515  1.00  0.00     0.009 A 
ATOM     24  C   UNL A   1      31.656  25.850  26.360  1.00  0.00     0.009 A 
ATOM     25  C   UNL A   1      33.862  27.518  26.031  1.00  0.00     0.001 A 
ATOM     26  C   UNL A   1      31.626  27.149  26.867  1.00  0.00     0.001 A 
ATOM     27  C   UNL A   1      32.728  27.984  26.702  1.00  0.00     0.000 A 
ENDBRANCH  10  22
ENDBRANCH   5   8
ENDBRANCH   3   4
ENDBRANCH   2   3
ENDBRANCH   1   2
BRANCH   1  28
ATOM     28  C   UNL A   1      40.161  23.053  27.036  1.00  0.00     0.116 C 
BRANCH  28  29
ATOM     29  N   UNL A   1      41.232  23.542  26.179  1.00  0.00    -0.352 N 
ATOM     30  C   UNL A   1      41.887  24.754  26.165  1.00  0.00     0.251 C 
ATOM     31  H   UNL A   1      41.539  22.900  25.497  1.00  0.00     0.163 HD
ATOM     32  O   UNL A   1      42.733  24.970  25.301  1.00  0.00    -0.269 OA
BRANCH  30  33
ATOM     33  C   UNL A   1      41.546  25.812  27.144  1.00  0.00     0.039 A 
ATOM     34  C   UNL A   1      40.561  25.548  28.101  1.00  0.00     0.014 A 
ATOM     35  C   UNL A   1      42.194  27.049  27.141  1.00  0.00     0.014 A 
ATOM     36  C   UNL A   1      40.302  26.481  29.112  1.00  0.00     0.010 A 
ATOM     37  C   UNL A   1      41.997  27.939  28.196  1.00  0.00     0.010 A 
ATOM     38  C   UNL A   1      41.058  27.661  29.200  1.00  0.00    -0.014 A 
BRANCH  38  39
ATOM     39  C   UNL A   1      40.895  28.601  30.343  1.00  0.00     0.031 A 
ATOM     40  C   UNL A   1      41.762  28.474  31.567  1.00  0.00     0.074 A 
ATOM     41  C   UNL A   1      39.915  29.528  30.310  1.00  0.00     0.049 A 
ATOM     42  N   UNL A   1      41.726  29.165  32.679  1.00  0.00    -0.248 NA
ATOM     43  C   UNL A   1      42.783  27.415  31.553  1.00  0.00     0.031 C 
ATOM     44  C   UNL A   1      38.967  29.724  29.210  1.00  0.00     0.029 A 
ATOM     45  N   UNL A   1      39.548  30.478  31.232  1.00  0.00    -0.354 N 
ATOM     46  C   UNL A   1      42.701  28.612  33.500  1.00  0.00     0.074 A 
ATOM     47  C   UNL A   1      43.277  27.497  32.781  1.00  0.00     0.031 C 
ATOM     48  C   UNL A   1      38.150  30.749  29.506  1.00  0.00     0.029 A 
ATOM     49  C   UNL A   1      38.488  31.259  30.831  1.00  0.00     0.049 A 
ATOM     50  H   UNL A   1      40.000  30.590  32.098  1.00  0.00     0.167 HD
ATOM     51  C   UNL A   1      43.099  29.007  34.734  1.00  0.00     0.031 A 
ATOM     52  C   UNL A   1      37.856  32.271  31.455  1.00  0.00     0.031 A 
ATOM     53  C   UNL A   1      42.541  30.127  35.444  1.00  0.00     0.049 A 
ATOM     54  C   UNL A   1      38.323  32.700  32.819  1.00  0.00     0.074 A 
ATOM     55  C   UNL A   1      42.922  30.646  36.670  1.00  0.00     0.029 A 
ATOM     56  N   UNL A   1      41.484  30.904  34.993  1.00  0.00    -0.354 N 
ATOM     57  N   UNL A   1      39.296  32.209  33.548  1.00  0.00    -0.248 NA
ATOM     58  C   UNL A   1      37.613  33.827  33.440  1.00  0.00     0.031 C 
ATOM     59  C   UNL A   1      42.068  31.708  36.980  1.00  0.00     0.029 A 
ATOM     60  C   UNL A   1      41.187  31.884  35.925  1.00  0.00     0.049 A 
ATOM     61  H   UNL A   1      41.015  30.776  34.137  1.00  0.00     0.167 HD
ATOM     62  C   UNL A   1      39.330  32.983  34.704  1.00  0.00     0.074 A 
ATOM     63  C   UNL A   1      38.292  33.983  34.569  1.00  0.00     0.031 C 
ATOM     64  C   UNL A   1      40.149  32.872  35.779  1.00  0.00     0.031 A 
BRANCH  51  65
ATOM     65  C   UNL A   1      44.198  28.216  35.394  1.00  0.00    -0.014 A 
ATOM     66  C   UNL A   1      45.544  28.607  35.274  1.00  0.00     0.010 A 
ATOM     67  C   UNL A   1      43.881  27.085  36.168  1.00  0.00     0.010 A 
ATOM     68  C   UNL A   1      46.557  27.857  35.876  1.00  0.00     0.020 A 
ATOM     69  C   UNL A   1      44.890  26.347  36.796  1.00  0.00     0.020 A 
ATOM     70  C   UNL A   1      46.223  26.727  36.629  1.00  0.00     0.054 A 
BRANCH  70  71
ATOM     71  S   UNL A   1      47.557  25.778  37.410  1.00  0.00     0.124 S 
ATOM     72  O   UNL A   1      47.197  25.864  38.824  1.00  0.00    -0.237 OA
ATOM     73  O   UNL A   1      47.411  24.457  36.804  1.00  0.00    -0.237 OA
ATOM     74  O   UNL A   1      48.766  26.504  37.030  1.00  0.00    -0.744 OA
ENDBRANCH  70  71
ENDBRANCH  51  65
BRANCH  52  75
ATOM     75  C   UNL A   1      36.724  32.969  30.786  1.00  0.00    -0.014 A 
ATOM     76  C   UNL A   1      35.402  32.758  31.218  1.00  0.00     0.010 A 
ATOM     77  C   UNL A   1      36.961  33.857  29.721  1.00  0.00     0.010 A 
ATOM     78  C   UNL A   1      34.338  33.408  30.587  1.00  0.00     0.020 A 
ATOM     79  C   UNL A   1      35.901  34.529  29.104  1.00  0.00     0.020 A 
ATOM     80  C   UNL A   1      34.595  34.291  29.534  1.00  0.00     0.054 A 
BRANCH  80  81
ATOM     81  S   UNL A   1      33.202  35.166  28.766  1.00  0.00     0.124 S 
ATOM     82  O   UNL A   1      33.882  36.201  27.994  1.00  0.00    -0.237 OA
ATOM     83  O   UNL A   1      32.559  34.113  27.984  1.00  0.00    -0.237 OA
ATOM     84  O   UNL A   1      32.428  35.643  29.910  1.00  0.00    -0.744 OA
ENDBRANCH  80  81
ENDBRANCH  52  75
BRANCH  64  85
ATOM     85  C   UNL A   1      39.972  33.876  36.887  1.00  0.00    -0.014 A 
ATOM     86  C   UNL A   1      40.642  35.112  36.861  1.00  0.00     0.010 A 
ATOM     87  C   UNL A   1      39.083  33.599  37.941  1.00  0.00     0.010 A 
ATOM     88  C   UNL A   1      40.451  36.039  37.889  1.00  0.00     0.020 A 
ATOM     89  C   UNL A   1      38.870  34.533  38.956  1.00  0.00     0.020 A 
ATOM     90  C   UNL A   1      39.567  35.743  38.931  1.00  0.00     0.054 A 
BRANCH  90  91
ATOM     91  S   UNL A   1      39.304  36.980  40.232  1.00  0.00     0.124 S 
ATOM     92  O   UNL A   1      38.592  38.032  39.511  1.00  0.00    -0.237 OA
ATOM     93  O   UNL A   1      38.513  36.247  41.217  1.00  0.00    -0.237 OA
ATOM     94  O   UNL A   1      40.658  37.324  40.661  1.00  0.00    -0.744 OA
ENDBRANCH  90  91
ENDBRANCH  64  85
ENDBRANCH  38  39
ENDBRANCH  30  33
ENDBRANCH  28  29
ENDBRANCH   1  28
TORSDOF 17
ENDMDL
MODEL 3
REMARK VINA RESULT:     -12.0      1.480      3.201
REMARK SMILES [NH3+]Cc1c(-c2ccccc2)c(C(=O)NCCCCNC(=O)c2ccc(-c3c4nc(c(-c5ccc(S(=O)(=O)[O-])cc5)c5ccc([nH]5)c(-c5ccc(S(=O)(=O)[O-])cc5)c5nc(c(-c6ccc(S(=O)(=O)[O-])cc6)c6ccc3[nH]6)C=C5)C=C4)cc2)c2ccccn12
REMARK SMILES IDX 17 1 16 2 15 3 14 4 12 5 13 6 11 8 3 9 4 10 87 11 82 12
REMARK SMILES IDX 86 13 83 14 85 15 84 16 2 17 1 18 5 22 6 23 10 24 7 25 9 26
REMARK SMILES IDX 8 27 18 28 19 29 20 30 21 32 22 33 23 34 81 35 24 36 80 37
REMARK SMILES IDX 25 38 26 39 27 40 74 41 28 42 79 43 73 44 75 45 29 46 78 47
REMARK SMILES IDX 72 48 71 49 30 51 60 52 41 53 59 54 42 55 45 56 58 57 76 58
REMARK SMILES IDX 43 59 44 60 57 62 77 63 46 64 31 65 32 66 40 67 33 68 39 69
REMARK SMILES IDX 34 70 35 71 36 72 37 73 38 74 61 75 62 76 70 77 63 78 69 79
REMARK SMILES IDX 64 80 65 81 66 82 67 83 68 84 47 85 48 86 56 87 49 88 55 89
REMARK SMILES IDX 50 90 51 91 52 92 53 93 54 94
REMARK H PARENT 14 7 1 19 1 20 1 21 19 31 75 50 45 61
REMARK Flexibility Score: inf
ROOT
ATOM      1  C   UNL A   1      34.843  30.396  27.437  1.00  0.00     0.023 C 
ENDROOT
BRANCH   1   2
ATOM      2  C   UNL A   1      33.674  29.495  27.041  1.00  0.00     0.023 C 
BRANCH   2   3
ATOM      3  C   UNL A   1      32.918  29.848  25.764  1.00  0.00     0.116 C 
BRANCH   3   4
ATOM      4  N   UNL A   1      33.630  29.606  24.525  1.00  0.00    -0.352 N 
ATOM      5  C   UNL A   1      33.284  28.851  23.420  1.00  0.00     0.254 C 
ATOM      6  O   UNL A   1      34.058  28.884  22.466  1.00  0.00    -0.269 OA
ATOM      7  H   UNL A   1      34.505  30.052  24.460  1.00  0.00     0.163 HD
BRANCH   5   8
ATOM      8  C   UNL A   1      32.098  27.986  23.424  1.00  0.00     0.073 A 
ATOM      9  C   UNL A   1      30.740  26.156  23.822  1.00  0.00     0.086 A 
ATOM     10  C   UNL A   1      32.068  26.594  23.783  1.00  0.00     0.022 A 
ATOM     11  N   UNL A   1      29.962  27.247  23.458  1.00  0.00    -0.314 N 
ATOM     12  C   UNL A   1      30.810  28.254  22.984  1.00  0.00     0.059 A 
ATOM     13  C   UNL A   1      28.573  27.432  23.501  1.00  0.00     0.092 A 
ATOM     14  C   UNL A   1      30.201  29.323  22.255  1.00  0.00     0.027 A 
ATOM     15  C   UNL A   1      28.016  28.527  22.957  1.00  0.00     0.018 A 
ATOM     16  C   UNL A   1      28.866  29.468  22.261  1.00  0.00     0.004 A 
BRANCH   9  17
ATOM     17  C   UNL A   1      30.258  24.793  24.234  1.00  0.00     0.315 C 
BRANCH  17  18
ATOM     18  N   UNL A   1      29.978  24.606  25.648  1.00  0.00    -0.353 N 
ATOM     19  H   UNL A   1      30.708  24.031  26.067  1.00  0.00     0.344 HD
ATOM     20  H   UNL A   1      29.076  24.142  25.758  1.00  0.00     0.344 HD
ATOM     21  H   UNL A   1      29.951  25.514  26.112  1.00  0.00     0.344 HD
ENDBRANCH  17  18
ENDBRANCH   9  17
BRANCH  10  22
ATOM     22  C   UNL A   1      33.182  25.706  24.089  1.00  0.00    -0.016 A 
ATOM     23  C   UNL A   1      33.735  25.654  25.370  1.00  0.00     0.009 A 
ATOM     24  C   UNL A   1      33.698  24.879  23.080  1.00  0.00     0.009 A 
ATOM     25  C   UNL A   1      34.786  24.773  25.642  1.00  0.00     0.001 A 
ATOM     26  C   UNL A   1      34.742  23.995  23.356  1.00  0.00     0.001 A 
ATOM     27  C   UNL A   1      35.285  23.941  24.637  1.00  0.00     0.000 A 
ENDBRANCH  10  22
ENDBRANCH   5   8
ENDBRANCH   3   4
ENDBRANCH   2   3
ENDBRANCH   1   2
BRANCH   1  28
ATOM     28  C   UNL A   1      36.097  29.710  27.970  1.00  0.00     0.116 C 
BRANCH  28  29
ATOM     29  N   UNL A   1      36.109  29.523  29.413  1.00  0.00    -0.352 N 
ATOM     30  C   UNL A   1      37.118  29.115  30.257  1.00  0.00     0.251 C 
ATOM     31  H   UNL A   1      35.253  29.722  29.861  1.00  0.00     0.163 HD
ATOM     32  O   UNL A   1      36.881  28.972  31.454  1.00  0.00    -0.269 OA
BRANCH  30  33
ATOM     33  C   UNL A   1      38.466  28.799  29.730  1.00  0.00     0.039 A 
ATOM     34  C   UNL A   1      38.808  29.249  28.451  1.00  0.00     0.014 A 
ATOM     35  C   UNL A   1      39.398  28.083  30.484  1.00  0.00     0.014 A 
ATOM     36  C   UNL A   1      40.112  29.071  27.973  1.00  0.00     0.010 A 
ATOM     37  C   UNL A   1      40.718  27.983  30.044  1.00  0.00     0.010 A 
ATOM     38  C   UNL A   1      41.093  28.484  28.789  1.00  0.00    -0.014 A 
BRANCH  38  39
ATOM     39  C   UNL A   1      42.515  28.409  28.356  1.00  0.00     0.031 A 
ATOM     40  C   UNL A   1      43.426  29.598  28.513  1.00  0.00     0.074 A 
ATOM     41  C   UNL A   1      42.972  27.292  27.754  1.00  0.00     0.049 A 
ATOM     42  N   UNL A   1      44.675  29.735  28.143  1.00  0.00    -0.248 NA
ATOM     43  C   UNL A   1      42.852  30.799  29.140  1.00  0.00     0.031 C 
ATOM     44  C   UNL A   1      42.181  26.087  27.488  1.00  0.00     0.029 A 
ATOM     45  N   UNL A   1      44.212  26.988  27.248  1.00  0.00    -0.354 N 
ATOM     46  C   UNL A   1      45.027  31.039  28.473  1.00  0.00     0.074 A 
ATOM     47  C   UNL A   1      43.848  31.667  29.026  1.00  0.00     0.031 C 
ATOM     48  C   UNL A   1      42.962  25.166  26.899  1.00  0.00     0.029 A 
ATOM     49  C   UNL A   1      44.297  25.724  26.710  1.00  0.00     0.049 A 
ATOM     50  H   UNL A   1      44.970  27.615  27.270  1.00  0.00     0.167 HD
ATOM     51  C   UNL A   1      46.229  31.653  28.349  1.00  0.00     0.031 A 
ATOM     52  C   UNL A   1      45.329  25.084  26.127  1.00  0.00     0.031 A 
ATOM     53  C   UNL A   1      47.408  31.024  27.817  1.00  0.00     0.049 A 
ATOM     54  C   UNL A   1      46.657  25.782  26.011  1.00  0.00     0.074 A 
ATOM     55  C   UNL A   1      48.687  31.542  27.712  1.00  0.00     0.029 A 
ATOM     56  N   UNL A   1      47.456  29.737  27.303  1.00  0.00    -0.354 N 
ATOM     57  N   UNL A   1      46.987  26.991  26.396  1.00  0.00    -0.248 NA
ATOM     58  C   UNL A   1      47.753  25.025  25.392  1.00  0.00     0.031 C 
ATOM     59  C   UNL A   1      49.498  30.585  27.094  1.00  0.00     0.029 A 
ATOM     60  C   UNL A   1      48.736  29.452  26.860  1.00  0.00     0.049 A 
ATOM     61  H   UNL A   1      46.691  29.118  27.259  1.00  0.00     0.167 HD
ATOM     62  C   UNL A   1      48.336  27.131  26.087  1.00  0.00     0.074 A 
ATOM     63  C   UNL A   1      48.763  25.878  25.499  1.00  0.00     0.031 C 
ATOM     64  C   UNL A   1      49.147  28.202  26.273  1.00  0.00     0.031 A 
BRANCH  51  65
ATOM     65  C   UNL A   1      46.324  33.086  28.801  1.00  0.00    -0.014 A 
ATOM     66  C   UNL A   1      46.697  33.407  30.120  1.00  0.00     0.010 A 
ATOM     67  C   UNL A   1      46.066  34.128  27.892  1.00  0.00     0.010 A 
ATOM     68  C   UNL A   1      46.765  34.739  30.534  1.00  0.00     0.020 A 
ATOM     69  C   UNL A   1      46.161  35.464  28.294  1.00  0.00     0.020 A 
ATOM     70  C   UNL A   1      46.491  35.760  29.618  1.00  0.00     0.054 A 
BRANCH  70  71
ATOM     71  S   UNL A   1      46.599  37.482  30.179  1.00  0.00     0.124 S 
ATOM     72  O   UNL A   1      45.673  37.487  31.309  1.00  0.00    -0.237 OA
ATOM     73  O   UNL A   1      48.012  37.619  30.526  1.00  0.00    -0.237 OA
ATOM     74  O   UNL A   1      46.170  38.253  29.016  1.00  0.00    -0.744 OA
ENDBRANCH  70  71
ENDBRANCH  51  65
BRANCH  52  75
ATOM     75  C   UNL A   1      45.157  23.692  25.628  1.00  0.00    -0.014 A 
ATOM     76  C   UNL A   1      45.344  22.598  26.492  1.00  0.00     0.010 A 
ATOM     77  C   UNL A   1      44.792  23.451  24.291  1.00  0.00     0.010 A 
ATOM     78  C   UNL A   1      45.187  21.291  26.024  1.00  0.00     0.020 A 
ATOM     79  C   UNL A   1      44.609  22.146  23.826  1.00  0.00     0.020 A 
ATOM     80  C   UNL A   1      44.820  21.073  24.694  1.00  0.00     0.054 A 
BRANCH  80  81
ATOM     81  S   UNL A   1      44.568  19.368  24.123  1.00  0.00     0.124 S 
ATOM     82  O   UNL A   1      43.285  19.031  24.730  1.00  0.00    -0.237 OA
ATOM     83  O   UNL A   1      44.560  19.519  22.670  1.00  0.00    -0.237 OA
ATOM     84  O   UNL A   1      45.724  18.655  24.661  1.00  0.00    -0.744 OA
ENDBRANCH  80  81
ENDBRANCH  52  75
BRANCH  64  85
ATOM     85  C   UNL A   1      50.587  28.057  25.861  1.00  0.00    -0.014 A 
ATOM     86  C   UNL A   1      51.561  27.605  26.768  1.00  0.00     0.010 A 
ATOM     87  C   UNL A   1      50.960  28.329  24.532  1.00  0.00     0.010 A 
ATOM     88  C   UNL A   1      52.890  27.460  26.361  1.00  0.00     0.020 A 
ATOM     89  C   UNL A   1      52.281  28.159  24.115  1.00  0.00     0.020 A 
ATOM     90  C   UNL A   1      53.242  27.739  25.037  1.00  0.00     0.054 A 
BRANCH  90  91
ATOM     91  S   UNL A   1      54.965  27.502  24.521  1.00  0.00     0.124 S 
ATOM     92  O   UNL A   1      55.698  28.145  25.610  1.00  0.00    -0.237 OA
ATOM     93  O   UNL A   1      55.085  26.048  24.456  1.00  0.00    -0.237 OA
ATOM     94  O   UNL A   1      55.038  28.186  23.232  1.00  0.00    -0.744 OA
ENDBRANCH  90  91
ENDBRANCH  64  85
ENDBRANCH  38  39
ENDBRANCH  30  33
ENDBRANCH  28  29
ENDBRANCH   1  28
TORSDOF 17
ENDMDL
