MODEL 1
REMARK VINA RESULT:     -11.2      0.000      0.000
REMARK SMILES CC[C@](C)(C(=O)NCCCCNC(=O)c1ccc(-c2c3nc(c(-c4ccc(S(=O)(=O)[O-])cc4)c4ccc([nH]4)c(-c4ccc(S(=O)(=O)[O-])cc4)c4nc(c(-c5ccc(S(=O)(=O)[O-])cc5)c5ccc2[nH]5)C=C4)C=C3)cc1)n1nnnc1-c1ccc(C)cc1C
REMARK SMILES IDX 10 1 9 2 8 3 7 4 5 5 6 6 3 8 4 9 2 10 1 11 75 12 76 13 79 14
REMARK SMILES IDX 77 15 78 16 80 17 81 18 86 19 82 20 85 21 87 22 83 23 84 24
REMARK SMILES IDX 11 25 12 26 13 27 14 29 15 30 16 31 74 32 17 33 73 34 18 35
REMARK SMILES IDX 19 36 20 37 67 38 21 39 72 40 66 41 68 42 22 43 71 44 65 45
REMARK SMILES IDX 64 46 23 48 53 49 34 50 52 51 35 52 38 53 51 54 69 55 36 56
REMARK SMILES IDX 37 57 50 59 70 60 39 61 24 62 25 63 33 64 26 65 32 66 27 67
REMARK SMILES IDX 28 68 29 69 30 70 31 71 54 72 55 73 63 74 56 75 62 76 57 77
REMARK SMILES IDX 58 78 59 79 60 80 61 81 40 82 41 83 49 84 42 85 48 86 43 87
REMARK SMILES IDX 44 88 45 89 46 90 47 91
REMARK H PARENT 7 7 12 28 68 47 38 58
REMARK Flexibility Score: inf
ROOT
ATOM      1  C   UNL A   1      33.226  27.719  26.677  1.00  0.00     0.023 C 
ENDROOT
BRANCH   1   2
ATOM      2  C   UNL A   1      31.719  27.806  26.434  1.00  0.00     0.023 C 
BRANCH   2   3
ATOM      3  C   UNL A   1      31.206  26.934  25.292  1.00  0.00     0.116 C 
BRANCH   3   4
ATOM      4  N   UNL A   1      32.231  26.702  24.290  1.00  0.00    -0.354 N 
ATOM      5  C   UNL A   1      32.649  25.572  23.648  1.00  0.00     0.247 C 
ATOM      6  O   UNL A   1      33.669  25.711  22.965  1.00  0.00    -0.272 OA
ATOM      7  H   UNL A   1      32.717  27.515  24.021  1.00  0.00     0.163 HD
BRANCH   5   8
ATOM      8  C   UNL A   1      31.959  24.194  23.817  1.00  0.00     0.142 C 
ATOM      9  C   UNL A   1      30.522  24.414  23.253  1.00  0.00     0.048 C 
BRANCH   8  10
ATOM     10  C   UNL A   1      32.713  23.052  23.057  1.00  0.00     0.037 C 
ATOM     11  C   UNL A   1      31.976  21.727  22.890  1.00  0.00     0.007 C 
ENDBRANCH   8  10
BRANCH   8  12
ATOM     12  N   UNL A   1      31.880  23.902  25.273  1.00  0.00    -0.210 N 
ATOM     13  N   UNL A   1      30.678  23.982  25.899  1.00  0.00    -0.044 NA
ATOM     14  C   UNL A   1      32.832  23.515  26.213  1.00  0.00     0.183 A 
ATOM     15  N   UNL A   1      30.901  23.695  27.168  1.00  0.00    -0.023 NA
ATOM     16  N   UNL A   1      32.211  23.384  27.374  1.00  0.00    -0.108 NA
BRANCH  14  17
ATOM     17  C   UNL A   1      34.211  23.082  25.987  1.00  0.00     0.024 A 
ATOM     18  C   UNL A   1      35.172  24.102  25.841  1.00  0.00     0.012 A 
ATOM     19  C   UNL A   1      34.631  21.744  25.908  1.00  0.00    -0.040 A 
ATOM     20  C   UNL A   1      36.533  23.809  25.727  1.00  0.00     0.004 A 
ATOM     21  C   UNL A   1      36.009  21.463  25.822  1.00  0.00     0.007 A 
ATOM     22  C   UNL A   1      33.690  20.573  25.898  1.00  0.00     0.045 C 
ATOM     23  C   UNL A   1      36.963  22.484  25.749  1.00  0.00    -0.051 A 
ATOM     24  C   UNL A   1      38.426  22.168  25.655  1.00  0.00     0.044 C 
ENDBRANCH  14  17
ENDBRANCH   8  12
ENDBRANCH   5   8
ENDBRANCH   3   4
ENDBRANCH   2   3
ENDBRANCH   1   2
BRANCH   1  25
ATOM     25  C   UNL A   1      34.034  28.918  26.188  1.00  0.00     0.116 C 
BRANCH  25  26
ATOM     26  N   UNL A   1      33.815  30.114  26.988  1.00  0.00    -0.352 N 
ATOM     27  C   UNL A   1      34.609  30.659  27.969  1.00  0.00     0.251 C 
ATOM     28  H   UNL A   1      32.981  30.601  26.801  1.00  0.00     0.163 HD
ATOM     29  O   UNL A   1      34.193  31.599  28.640  1.00  0.00    -0.269 OA
BRANCH  27  30
ATOM     30  C   UNL A   1      35.946  30.088  28.229  1.00  0.00     0.039 A 
ATOM     31  C   UNL A   1      36.917  30.153  27.226  1.00  0.00     0.014 A 
ATOM     32  C   UNL A   1      36.248  29.517  29.468  1.00  0.00     0.014 A 
ATOM     33  C   UNL A   1      38.215  29.711  27.495  1.00  0.00     0.010 A 
ATOM     34  C   UNL A   1      37.558  29.148  29.757  1.00  0.00     0.010 A 
ATOM     35  C   UNL A   1      38.556  29.243  28.774  1.00  0.00    -0.014 A 
BRANCH  35  36
ATOM     36  C   UNL A   1      39.950  28.856  29.111  1.00  0.00     0.031 A 
ATOM     37  C   UNL A   1      40.874  29.851  29.760  1.00  0.00     0.074 A 
ATOM     38  C   UNL A   1      40.406  27.634  28.769  1.00  0.00     0.049 A 
ATOM     39  N   UNL A   1      42.141  29.723  30.064  1.00  0.00    -0.248 NA
ATOM     40  C   UNL A   1      40.310  31.171  30.084  1.00  0.00     0.031 C 
ATOM     41  C   UNL A   1      39.622  26.594  28.097  1.00  0.00     0.029 A 
ATOM     42  N   UNL A   1      41.643  27.063  28.931  1.00  0.00    -0.354 N 
ATOM     43  C   UNL A   1      42.527  30.947  30.598  1.00  0.00     0.074 A 
ATOM     44  C   UNL A   1      41.376  31.820  30.529  1.00  0.00     0.031 C 
ATOM     45  C   UNL A   1      40.388  25.504  27.932  1.00  0.00     0.029 A 
ATOM     46  C   UNL A   1      41.726  25.779  28.444  1.00  0.00     0.049 A 
ATOM     47  H   UNL A   1      42.398  27.527  29.357  1.00  0.00     0.167 HD
ATOM     48  C   UNL A   1      43.725  31.307  31.117  1.00  0.00     0.031 A 
ATOM     49  C   UNL A   1      42.765  24.922  28.408  1.00  0.00     0.031 A 
ATOM     50  C   UNL A   1      44.865  30.431  31.196  1.00  0.00     0.049 A 
ATOM     51  C   UNL A   1      44.088  25.345  28.984  1.00  0.00     0.074 A 
ATOM     52  C   UNL A   1      46.105  30.684  31.755  1.00  0.00     0.029 A 
ATOM     53  N   UNL A   1      44.904  29.136  30.703  1.00  0.00    -0.354 N 
ATOM     54  N   UNL A   1      44.415  26.487  29.541  1.00  0.00    -0.248 NA
ATOM     55  C   UNL A   1      45.179  24.362  28.936  1.00  0.00     0.031 C 
ATOM     56  C   UNL A   1      46.911  29.558  31.556  1.00  0.00     0.029 A 
ATOM     57  C   UNL A   1      46.154  28.584  30.925  1.00  0.00     0.049 A 
ATOM     58  H   UNL A   1      44.154  28.676  30.261  1.00  0.00     0.167 HD
ATOM     59  C   UNL A   1      45.741  26.348  29.935  1.00  0.00     0.074 A 
ATOM     60  C   UNL A   1      46.150  25.008  29.566  1.00  0.00     0.031 C 
ATOM     61  C   UNL A   1      46.547  27.249  30.551  1.00  0.00     0.031 A 
BRANCH  48  62
ATOM     62  C   UNL A   1      43.864  32.713  31.637  1.00  0.00    -0.014 A 
ATOM     63  C   UNL A   1      44.288  33.760  30.799  1.00  0.00     0.010 A 
ATOM     64  C   UNL A   1      43.535  32.999  32.975  1.00  0.00     0.010 A 
ATOM     65  C   UNL A   1      44.422  35.058  31.297  1.00  0.00     0.020 A 
ATOM     66  C   UNL A   1      43.640  34.302  33.471  1.00  0.00     0.020 A 
ATOM     67  C   UNL A   1      44.101  35.319  32.632  1.00  0.00     0.054 A 
BRANCH  67  68
ATOM     68  S   UNL A   1      44.269  37.017  33.248  1.00  0.00     0.124 S 
ATOM     69  O   UNL A   1      42.948  37.261  33.821  1.00  0.00    -0.237 OA
ATOM     70  O   UNL A   1      45.359  36.902  34.213  1.00  0.00    -0.237 OA
ATOM     71  O   UNL A   1      44.581  37.792  32.049  1.00  0.00    -0.744 OA
ENDBRANCH  67  68
ENDBRANCH  48  62
BRANCH  49  72
ATOM     72  C   UNL A   1      42.589  23.565  27.818  1.00  0.00    -0.014 A 
ATOM     73  C   UNL A   1      42.852  23.342  26.455  1.00  0.00     0.010 A 
ATOM     74  C   UNL A   1      42.169  22.488  28.618  1.00  0.00     0.010 A 
ATOM     75  C   UNL A   1      42.682  22.072  25.898  1.00  0.00     0.020 A 
ATOM     76  C   UNL A   1      42.025  21.209  28.072  1.00  0.00     0.020 A 
ATOM     77  C   UNL A   1      42.271  21.012  26.712  1.00  0.00     0.054 A 
BRANCH  77  78
ATOM     78  S   UNL A   1      42.108  19.360  25.980  1.00  0.00     0.124 S 
ATOM     79  O   UNL A   1      42.581  18.501  27.061  1.00  0.00    -0.237 OA
ATOM     80  O   UNL A   1      40.678  19.283  25.691  1.00  0.00    -0.237 OA
ATOM     81  O   UNL A   1      42.970  19.422  24.802  1.00  0.00    -0.744 OA
ENDBRANCH  77  78
ENDBRANCH  49  72
BRANCH  61  82
ATOM     82  C   UNL A   1      47.944  26.807  30.898  1.00  0.00    -0.014 A 
ATOM     83  C   UNL A   1      49.030  27.093  30.053  1.00  0.00     0.010 A 
ATOM     84  C   UNL A   1      48.177  26.145  32.118  1.00  0.00     0.010 A 
ATOM     85  C   UNL A   1      50.323  26.698  30.410  1.00  0.00     0.020 A 
ATOM     86  C   UNL A   1      49.471  25.773  32.490  1.00  0.00     0.020 A 
ATOM     87  C   UNL A   1      50.535  26.041  31.625  1.00  0.00     0.054 A 
BRANCH  87  88
ATOM     88  S   UNL A   1      52.228  25.580  32.086  1.00  0.00     0.124 S 
ATOM     89  O   UNL A   1      52.968  25.879  30.863  1.00  0.00    -0.237 OA
ATOM     90  O   UNL A   1      52.503  26.462  33.218  1.00  0.00    -0.237 OA
ATOM     91  O   UNL A   1      52.123  24.162  32.421  1.00  0.00    -0.744 OA
ENDBRANCH  87  88
ENDBRANCH  61  82
ENDBRANCH  35  36
ENDBRANCH  27  30
ENDBRANCH  25  26
ENDBRANCH   1  25
TORSDOF 17
ENDMDL
MODEL 2
REMARK VINA RESULT:     -10.8      2.779      3.489
REMARK SMILES CC[C@](C)(C(=O)NCCCCNC(=O)c1ccc(-c2c3nc(c(-c4ccc(S(=O)(=O)[O-])cc4)c4ccc([nH]4)c(-c4ccc(S(=O)(=O)[O-])cc4)c4nc(c(-c5ccc(S(=O)(=O)[O-])cc5)c5ccc2[nH]5)C=C4)C=C3)cc1)n1nnnc1-c1ccc(C)cc1C
REMARK SMILES IDX 10 1 9 2 8 3 7 4 5 5 6 6 3 8 4 9 2 10 1 11 75 12 76 13 79 14
REMARK SMILES IDX 77 15 78 16 80 17 81 18 86 19 82 20 85 21 87 22 83 23 84 24
REMARK SMILES IDX 11 25 12 26 13 27 14 29 15 30 16 31 74 32 17 33 73 34 18 35
REMARK SMILES IDX 19 36 20 37 67 38 21 39 72 40 66 41 68 42 22 43 71 44 65 45
REMARK SMILES IDX 64 46 23 48 53 49 34 50 52 51 35 52 38 53 51 54 69 55 36 56
REMARK SMILES IDX 37 57 50 59 70 60 39 61 24 62 25 63 33 64 26 65 32 66 27 67
REMARK SMILES IDX 28 68 29 69 30 70 31 71 54 72 55 73 63 74 56 75 62 76 57 77
REMARK SMILES IDX 58 78 59 79 60 80 61 81 40 82 41 83 49 84 42 85 48 86 43 87
REMARK SMILES IDX 44 88 45 89 46 90 47 91
REMARK H PARENT 7 7 12 28 68 47 38 58
REMARK Flexibility Score: inf
ROOT
ATOM      1  C   UNL A   1      34.750  28.923  27.356  1.00  0.00     0.023 C 
ENDROOT
BRANCH   1   2
ATOM      2  C   UNL A   1      33.241  29.017  27.130  1.00  0.00     0.023 C 
BRANCH   2   3
ATOM      3  C   UNL A   1      32.557  27.686  26.832  1.00  0.00     0.116 C 
BRANCH   3   4
ATOM      4  N   UNL A   1      31.473  27.840  25.878  1.00  0.00    -0.354 N 
ATOM      5  C   UNL A   1      31.071  27.085  24.814  1.00  0.00     0.247 C 
ATOM      6  O   UNL A   1      30.197  27.602  24.112  1.00  0.00    -0.272 OA
ATOM      7  H   UNL A   1      30.921  28.642  26.027  1.00  0.00     0.163 HD
BRANCH   5   8
ATOM      8  C   UNL A   1      31.709  25.718  24.453  1.00  0.00     0.142 C 
ATOM      9  C   UNL A   1      30.910  25.241  23.202  1.00  0.00     0.048 C 
BRANCH   8  10
ATOM     10  C   UNL A   1      33.241  25.836  24.153  1.00  0.00     0.037 C 
ATOM     11  C   UNL A   1      33.694  25.519  22.732  1.00  0.00     0.007 C 
ENDBRANCH   8  10
BRANCH   8  12
ATOM     12  N   UNL A   1      31.459  24.787  25.586  1.00  0.00    -0.210 N 
ATOM     13  N   UNL A   1      30.275  24.857  26.248  1.00  0.00    -0.044 NA
ATOM     14  C   UNL A   1      32.214  23.766  26.155  1.00  0.00     0.183 A 
ATOM     15  N   UNL A   1      30.330  23.945  27.201  1.00  0.00    -0.023 NA
ATOM     16  N   UNL A   1      31.501  23.251  27.144  1.00  0.00    -0.108 NA
BRANCH  14  17
ATOM     17  C   UNL A   1      33.451  23.163  25.660  1.00  0.00     0.024 A 
ATOM     18  C   UNL A   1      34.643  23.561  26.298  1.00  0.00     0.012 A 
ATOM     19  C   UNL A   1      33.527  22.233  24.609  1.00  0.00    -0.040 A 
ATOM     20  C   UNL A   1      35.869  22.974  25.981  1.00  0.00     0.004 A 
ATOM     21  C   UNL A   1      34.767  21.628  24.319  1.00  0.00     0.007 A 
ATOM     22  C   UNL A   1      32.356  21.842  23.754  1.00  0.00     0.045 C 
ATOM     23  C   UNL A   1      35.933  21.978  25.008  1.00  0.00    -0.051 A 
ATOM     24  C   UNL A   1      37.245  21.326  24.686  1.00  0.00     0.044 C 
ENDBRANCH  14  17
ENDBRANCH   8  12
ENDBRANCH   5   8
ENDBRANCH   3   4
ENDBRANCH   2   3
ENDBRANCH   1   2
BRANCH   1  25
ATOM     25  C   UNL A   1      35.421  30.216  27.811  1.00  0.00     0.116 C 
BRANCH  25  26
ATOM     26  N   UNL A   1      35.383  30.397  29.255  1.00  0.00    -0.352 N 
ATOM     27  C   UNL A   1      36.326  30.058  30.196  1.00  0.00     0.251 C 
ATOM     28  H   UNL A   1      34.568  30.822  29.606  1.00  0.00     0.163 HD
ATOM     29  O   UNL A   1      36.060  30.157  31.391  1.00  0.00    -0.269 OA
BRANCH  27  30
ATOM     30  C   UNL A   1      37.641  29.545  29.763  1.00  0.00     0.039 A 
ATOM     31  C   UNL A   1      38.076  29.810  28.462  1.00  0.00     0.014 A 
ATOM     32  C   UNL A   1      38.455  28.831  30.647  1.00  0.00     0.014 A 
ATOM     33  C   UNL A   1      39.361  29.423  28.072  1.00  0.00     0.010 A 
ATOM     34  C   UNL A   1      39.758  28.512  30.281  1.00  0.00     0.010 A 
ATOM     35  C   UNL A   1      40.226  28.807  28.991  1.00  0.00    -0.014 A 
BRANCH  35  36
ATOM     36  C   UNL A   1      41.627  28.470  28.628  1.00  0.00     0.031 A 
ATOM     37  C   UNL A   1      42.680  29.545  28.603  1.00  0.00     0.074 A 
ATOM     38  C   UNL A   1      41.937  27.212  28.255  1.00  0.00     0.049 A 
ATOM     39  N   UNL A   1      43.936  29.460  28.246  1.00  0.00    -0.248 NA
ATOM     40  C   UNL A   1      42.260  30.898  29.004  1.00  0.00     0.031 C 
ATOM     41  C   UNL A   1      40.997  26.089  28.197  1.00  0.00     0.029 A 
ATOM     42  N   UNL A   1      43.128  26.668  27.844  1.00  0.00    -0.354 N 
ATOM     43  C   UNL A   1      44.451  30.746  28.363  1.00  0.00     0.074 A 
ATOM     44  C   UNL A   1      43.359  31.602  28.773  1.00  0.00     0.031 C 
ATOM     45  C   UNL A   1      41.654  24.986  27.803  1.00  0.00     0.029 A 
ATOM     46  C   UNL A   1      43.048  25.329  27.540  1.00  0.00     0.049 A 
ATOM     47  H   UNL A   1      43.961  27.187  27.775  1.00  0.00     0.167 HD
ATOM     48  C   UNL A   1      45.720  31.174  28.164  1.00  0.00     0.031 A 
ATOM     49  C   UNL A   1      43.989  24.474  27.092  1.00  0.00     0.031 A 
ATOM     50  C   UNL A   1      46.807  30.317  27.768  1.00  0.00     0.049 A 
ATOM     51  C   UNL A   1      45.390  24.974  26.874  1.00  0.00     0.074 A 
ATOM     52  C   UNL A   1      48.140  30.645  27.596  1.00  0.00     0.029 A 
ATOM     53  N   UNL A   1      46.686  28.966  27.482  1.00  0.00    -0.354 N 
ATOM     54  N   UNL A   1      45.870  26.182  27.050  1.00  0.00    -0.248 NA
ATOM     55  C   UNL A   1      46.379  23.992  26.405  1.00  0.00     0.031 C 
ATOM     56  C   UNL A   1      48.817  29.502  27.158  1.00  0.00     0.029 A 
ATOM     57  C   UNL A   1      47.916  28.450  27.114  1.00  0.00     0.049 A 
ATOM     58  H   UNL A   1      45.849  28.449  27.533  1.00  0.00     0.167 HD
ATOM     59  C   UNL A   1      47.223  26.098  26.741  1.00  0.00     0.074 A 
ATOM     60  C   UNL A   1      47.487  24.720  26.382  1.00  0.00     0.031 C 
ATOM     61  C   UNL A   1      48.164  27.075  26.758  1.00  0.00     0.031 A 
BRANCH  48  62
ATOM     62  C   UNL A   1      46.001  32.638  28.372  1.00  0.00    -0.014 A 
ATOM     63  C   UNL A   1      46.395  33.132  29.629  1.00  0.00     0.010 A 
ATOM     64  C   UNL A   1      45.903  33.530  27.289  1.00  0.00     0.010 A 
ATOM     65  C   UNL A   1      46.643  34.494  29.810  1.00  0.00     0.020 A 
ATOM     66  C   UNL A   1      46.178  34.890  27.458  1.00  0.00     0.020 A 
ATOM     67  C   UNL A   1      46.529  35.366  28.724  1.00  0.00     0.054 A 
BRANCH  67  68
ATOM     68  S   UNL A   1      46.872  37.127  28.984  1.00  0.00     0.124 S 
ATOM     69  O   UNL A   1      48.224  37.092  29.535  1.00  0.00    -0.237 OA
ATOM     70  O   UNL A   1      46.758  37.680  27.637  1.00  0.00    -0.237 OA
ATOM     71  O   UNL A   1      45.831  37.550  29.918  1.00  0.00    -0.744 OA
ENDBRANCH  67  68
ENDBRANCH  48  62
BRANCH  49  72
ATOM     72  C   UNL A   1      43.638  23.049  26.838  1.00  0.00    -0.014 A 
ATOM     73  C   UNL A   1      42.992  22.288  27.829  1.00  0.00     0.010 A 
ATOM     74  C   UNL A   1      43.936  22.450  25.602  1.00  0.00     0.010 A 
ATOM     75  C   UNL A   1      42.666  20.949  27.594  1.00  0.00     0.020 A 
ATOM     76  C   UNL A   1      43.587  21.119  25.353  1.00  0.00     0.020 A 
ATOM     77  C   UNL A   1      42.965  20.373  26.356  1.00  0.00     0.054 A 
BRANCH  77  78
ATOM     78  S   UNL A   1      42.486  18.650  26.055  1.00  0.00     0.124 S 
ATOM     79  O   UNL A   1      43.391  18.268  24.975  1.00  0.00    -0.237 OA
ATOM     80  O   UNL A   1      42.742  18.021  27.348  1.00  0.00    -0.237 OA
ATOM     81  O   UNL A   1      41.075  18.747  25.687  1.00  0.00    -0.744 OA
ENDBRANCH  77  78
ENDBRANCH  49  72
BRANCH  61  82
ATOM     82  C   UNL A   1      49.576  26.685  26.409  1.00  0.00    -0.014 A 
ATOM     83  C   UNL A   1      50.076  26.844  25.106  1.00  0.00     0.010 A 
ATOM     84  C   UNL A   1      50.430  26.205  27.420  1.00  0.00     0.010 A 
ATOM     85  C   UNL A   1      51.400  26.502  24.812  1.00  0.00     0.020 A 
ATOM     86  C   UNL A   1      51.760  25.888  27.136  1.00  0.00     0.020 A 
ATOM     87  C   UNL A   1      52.233  26.027  25.829  1.00  0.00     0.054 A 
BRANCH  87  88
ATOM     88  S   UNL A   1      53.959  25.635  25.433  1.00  0.00     0.124 S 
ATOM     89  O   UNL A   1      53.932  25.585  23.974  1.00  0.00    -0.237 OA
ATOM     90  O   UNL A   1      54.685  26.763  26.010  1.00  0.00    -0.237 OA
ATOM     91  O   UNL A   1      54.184  24.352  26.096  1.00  0.00    -0.744 OA
ENDBRANCH  87  88
ENDBRANCH  61  82
ENDBRANCH  35  36
ENDBRANCH  27  30
ENDBRANCH  25  26
ENDBRANCH   1  25
TORSDOF 17
ENDMDL
MODEL 3
REMARK VINA RESULT:     -10.7      3.383      7.963
REMARK SMILES CC[C@](C)(C(=O)NCCCCNC(=O)c1ccc(-c2c3nc(c(-c4ccc(S(=O)(=O)[O-])cc4)c4ccc([nH]4)c(-c4ccc(S(=O)(=O)[O-])cc4)c4nc(c(-c5ccc(S(=O)(=O)[O-])cc5)c5ccc2[nH]5)C=C4)C=C3)cc1)n1nnnc1-c1ccc(C)cc1C
REMARK SMILES IDX 10 1 9 2 8 3 7 4 5 5 6 6 3 8 4 9 2 10 1 11 75 12 76 13 79 14
REMARK SMILES IDX 77 15 78 16 80 17 81 18 86 19 82 20 85 21 87 22 83 23 84 24
REMARK SMILES IDX 11 25 12 26 13 27 14 29 15 30 16 31 74 32 17 33 73 34 18 35
REMARK SMILES IDX 19 36 20 37 67 38 21 39 72 40 66 41 68 42 22 43 71 44 65 45
REMARK SMILES IDX 64 46 23 48 53 49 34 50 52 51 35 52 38 53 51 54 69 55 36 56
REMARK SMILES IDX 37 57 50 59 70 60 39 61 24 62 25 63 33 64 26 65 32 66 27 67
REMARK SMILES IDX 28 68 29 69 30 70 31 71 54 72 55 73 63 74 56 75 62 76 57 77
REMARK SMILES IDX 58 78 59 79 60 80 61 81 40 82 41 83 49 84 42 85 48 86 43 87
REMARK SMILES IDX 44 88 45 89 46 90 47 91
REMARK H PARENT 7 7 12 28 68 47 38 58
REMARK Flexibility Score: inf
ROOT
ATOM      1  C   UNL A   1      38.039  21.351  24.931  1.00  0.00     0.023 C 
ENDROOT
BRANCH   1   2
ATOM      2  C   UNL A   1      36.786  20.474  24.966  1.00  0.00     0.023 C 
BRANCH   2   3
ATOM      3  C   UNL A   1      35.605  21.080  25.718  1.00  0.00     0.116 C 
BRANCH   3   4
ATOM      4  N   UNL A   1      34.344  20.488  25.304  1.00  0.00    -0.354 N 
ATOM      5  C   UNL A   1      33.083  20.999  25.192  1.00  0.00     0.247 C 
ATOM      6  O   UNL A   1      32.204  20.162  24.963  1.00  0.00    -0.272 OA
ATOM      7  H   UNL A   1      34.412  19.538  25.056  1.00  0.00     0.163 HD
BRANCH   5   8
ATOM      8  C   UNL A   1      32.750  22.497  25.414  1.00  0.00     0.142 C 
ATOM      9  C   UNL A   1      31.191  22.540  25.458  1.00  0.00     0.048 C 
BRANCH   8  10
ATOM     10  C   UNL A   1      33.384  23.060  26.731  1.00  0.00     0.037 C 
ATOM     11  C   UNL A   1      32.977  22.386  28.037  1.00  0.00     0.007 C 
ENDBRANCH   8  10
BRANCH   8  12
ATOM     12  N   UNL A   1      33.234  23.250  24.227  1.00  0.00    -0.210 N 
ATOM     13  N   UNL A   1      33.640  22.562  23.129  1.00  0.00    -0.044 NA
ATOM     14  C   UNL A   1      33.357  24.610  23.955  1.00  0.00     0.183 A 
ATOM     15  N   UNL A   1      34.028  23.465  22.248  1.00  0.00    -0.023 NA
ATOM     16  N   UNL A   1      33.840  24.726  22.729  1.00  0.00    -0.108 NA
BRANCH  14  17
ATOM     17  C   UNL A   1      32.846  25.743  24.726  1.00  0.00     0.024 A 
ATOM     18  C   UNL A   1      33.741  26.336  25.639  1.00  0.00     0.012 A 
ATOM     19  C   UNL A   1      31.547  26.267  24.620  1.00  0.00    -0.040 A 
ATOM     20  C   UNL A   1      33.399  27.487  26.350  1.00  0.00     0.004 A 
ATOM     21  C   UNL A   1      31.224  27.445  25.322  1.00  0.00     0.007 A 
ATOM     22  C   UNL A   1      30.457  25.637  23.800  1.00  0.00     0.045 C 
ATOM     23  C   UNL A   1      32.144  28.069  26.172  1.00  0.00    -0.051 A 
ATOM     24  C   UNL A   1      31.785  29.321  26.915  1.00  0.00     0.044 C 
ENDBRANCH  14  17
ENDBRANCH   8  12
ENDBRANCH   5   8
ENDBRANCH   3   4
ENDBRANCH   2   3
ENDBRANCH   1   2
BRANCH   1  25
ATOM     25  C   UNL A   1      38.958  21.222  26.142  1.00  0.00     0.116 C 
BRANCH  25  26
ATOM     26  N   UNL A   1      39.824  20.055  26.075  1.00  0.00    -0.352 N 
ATOM     27  C   UNL A   1      41.196  19.989  26.128  1.00  0.00     0.251 C 
ATOM     28  H   UNL A   1      39.362  19.191  25.980  1.00  0.00     0.163 HD
ATOM     29  O   UNL A   1      41.765  18.923  25.913  1.00  0.00    -0.269 OA
BRANCH  27  30
ATOM     30  C   UNL A   1      41.977  21.210  26.412  1.00  0.00     0.039 A 
ATOM     31  C   UNL A   1      42.319  22.056  25.355  1.00  0.00     0.014 A 
ATOM     32  C   UNL A   1      42.344  21.532  27.722  1.00  0.00     0.014 A 
ATOM     33  C   UNL A   1      42.966  23.266  25.623  1.00  0.00     0.010 A 
ATOM     34  C   UNL A   1      42.919  22.769  27.993  1.00  0.00     0.010 A 
ATOM     35  C   UNL A   1      43.235  23.650  26.946  1.00  0.00    -0.014 A 
BRANCH  35  36
ATOM     36  C   UNL A   1      43.836  24.971  27.261  1.00  0.00     0.031 A 
ATOM     37  C   UNL A   1      42.971  26.094  27.768  1.00  0.00     0.074 A 
ATOM     38  C   UNL A   1      45.147  25.182  27.026  1.00  0.00     0.049 A 
ATOM     39  N   UNL A   1      43.299  27.333  28.030  1.00  0.00    -0.248 NA
ATOM     40  C   UNL A   1      41.546  25.792  27.980  1.00  0.00     0.031 C 
ATOM     41  C   UNL A   1      46.084  24.188  26.495  1.00  0.00     0.029 A 
ATOM     42  N   UNL A   1      45.917  26.306  27.193  1.00  0.00    -0.354 N 
ATOM     43  C   UNL A   1      42.122  27.961  28.422  1.00  0.00     0.074 A 
ATOM     44  C   UNL A   1      41.064  26.981  28.313  1.00  0.00     0.031 C 
ATOM     45  C   UNL A   1      47.306  24.738  26.409  1.00  0.00     0.029 A 
ATOM     46  C   UNL A   1      47.233  26.132  26.835  1.00  0.00     0.049 A 
ATOM     47  H   UNL A   1      45.560  27.156  27.537  1.00  0.00     0.167 HD
ATOM     48  C   UNL A   1      41.940  29.232  28.850  1.00  0.00     0.031 A 
ATOM     49  C   UNL A   1      48.265  26.999  26.841  1.00  0.00     0.031 A 
ATOM     50  C   UNL A   1      42.998  30.202  28.970  1.00  0.00     0.049 A 
ATOM     51  C   UNL A   1      48.038  28.407  27.316  1.00  0.00     0.074 A 
ATOM     52  C   UNL A   1      42.925  31.499  29.448  1.00  0.00     0.029 A 
ATOM     53  N   UNL A   1      44.318  29.982  28.609  1.00  0.00    -0.354 N 
ATOM     54  N   UNL A   1      46.929  28.964  27.741  1.00  0.00    -0.248 NA
ATOM     55  C   UNL A   1      49.204  29.302  27.322  1.00  0.00     0.031 C 
ATOM     56  C   UNL A   1      44.191  32.079  29.330  1.00  0.00     0.029 A 
ATOM     57  C   UNL A   1      45.065  31.125  28.833  1.00  0.00     0.049 A 
ATOM     58  H   UNL A   1      44.672  29.138  28.247  1.00  0.00     0.167 HD
ATOM     59  C   UNL A   1      47.270  30.265  28.092  1.00  0.00     0.074 A 
ATOM     60  C   UNL A   1      48.690  30.408  27.842  1.00  0.00     0.031 C 
ATOM     61  C   UNL A   1      46.478  31.253  28.579  1.00  0.00     0.031 A 
BRANCH  48  62
ATOM     62  C   UNL A   1      40.541  29.649  29.221  1.00  0.00    -0.014 A 
ATOM     63  C   UNL A   1      40.192  29.912  30.558  1.00  0.00     0.010 A 
ATOM     64  C   UNL A   1      39.571  29.812  28.216  1.00  0.00     0.010 A 
ATOM     65  C   UNL A   1      38.888  30.288  30.889  1.00  0.00     0.020 A 
ATOM     66  C   UNL A   1      38.272  30.215  28.539  1.00  0.00     0.020 A 
ATOM     67  C   UNL A   1      37.935  30.433  29.877  1.00  0.00     0.054 A 
BRANCH  67  68
ATOM     68  S   UNL A   1      36.254  30.937  30.334  1.00  0.00     0.124 S 
ATOM     69  O   UNL A   1      35.923  29.970  31.377  1.00  0.00    -0.237 OA
ATOM     70  O   UNL A   1      36.443  32.311  30.790  1.00  0.00    -0.237 OA
ATOM     71  O   UNL A   1      35.498  30.795  29.091  1.00  0.00    -0.744 OA
ENDBRANCH  67  68
ENDBRANCH  48  62
BRANCH  49  72
ATOM     72  C   UNL A   1      49.615  26.551  26.399  1.00  0.00    -0.014 A 
ATOM     73  C   UNL A   1      50.518  25.994  27.322  1.00  0.00     0.010 A 
ATOM     74  C   UNL A   1      49.999  26.666  25.051  1.00  0.00     0.010 A 
ATOM     75  C   UNL A   1      51.787  25.578  26.910  1.00  0.00     0.020 A 
ATOM     76  C   UNL A   1      51.258  26.225  24.630  1.00  0.00     0.020 A 
ATOM     77  C   UNL A   1      52.148  25.695  25.565  1.00  0.00     0.054 A 
BRANCH  77  78
ATOM     78  S   UNL A   1      53.780  25.100  25.042  1.00  0.00     0.124 S 
ATOM     79  O   UNL A   1      54.581  25.316  26.244  1.00  0.00    -0.237 OA
ATOM     80  O   UNL A   1      53.513  23.705  24.702  1.00  0.00    -0.237 OA
ATOM     81  O   UNL A   1      54.108  25.958  23.906  1.00  0.00    -0.744 OA
ENDBRANCH  77  78
ENDBRANCH  49  72
BRANCH  61  82
ATOM     82  C   UNL A   1      47.133  32.567  28.910  1.00  0.00    -0.014 A 
ATOM     83  C   UNL A   1      47.200  33.607  27.967  1.00  0.00     0.010 A 
ATOM     84  C   UNL A   1      47.638  32.782  30.206  1.00  0.00     0.010 A 
ATOM     85  C   UNL A   1      47.788  34.830  28.305  1.00  0.00     0.020 A 
ATOM     86  C   UNL A   1      48.201  34.012  30.556  1.00  0.00     0.020 A 
ATOM     87  C   UNL A   1      48.284  35.024  29.598  1.00  0.00     0.054 A 
BRANCH  87  88
ATOM     88  S   UNL A   1      48.999  36.636  30.027  1.00  0.00     0.124 S 
ATOM     89  O   UNL A   1      50.359  36.271  30.413  1.00  0.00    -0.237 OA
ATOM     90  O   UNL A   1      48.879  37.382  28.777  1.00  0.00    -0.237 OA
ATOM     91  O   UNL A   1      48.148  37.114  31.114  1.00  0.00    -0.744 OA
ENDBRANCH  87  88
ENDBRANCH  61  82
ENDBRANCH  35  36
ENDBRANCH  27  30
ENDBRANCH  25  26
ENDBRANCH   1  25
TORSDOF 17
ENDMDL
