MODEL 1
REMARK VINA RESULT:     -11.3      0.000      0.000
REMARK SMILES Cc1ccc(OCCn2ccnc2)c(/C=C/C(=O)NCCCCNC(=O)c2ccc(-c3c4nc(c(-c5ccc(S(=O)(=O)[O-])cc5)c5ccc([nH]5)c(-c5ccc(S(=O)(=O)[O-])cc5)c5nc(c(-c6ccc(S(=O)(=O)[O-])cc6)c6ccc3[nH]6)C=C5)C=C4)cc2)n1
REMARK SMILES IDX 20 1 19 2 17 3 18 4 16 6 15 7 14 8 1 9 2 10 3 11 87 12 4 13
REMARK SMILES IDX 5 14 6 15 7 16 8 17 9 18 10 19 13 20 11 21 12 22 21 23 22 24
REMARK SMILES IDX 23 25 24 26 25 27 26 29 27 30 28 31 86 32 29 33 85 34 30 35
REMARK SMILES IDX 31 36 32 37 79 38 33 39 84 40 78 41 80 42 34 43 83 44 77 45
REMARK SMILES IDX 76 46 35 48 65 49 46 50 64 51 47 52 50 53 63 54 81 55 48 56
REMARK SMILES IDX 49 57 62 59 82 60 51 61 36 62 37 63 45 64 38 65 44 66 39 67
REMARK SMILES IDX 40 68 41 69 42 70 43 71 66 72 67 73 75 74 68 75 74 76 69 77
REMARK SMILES IDX 70 78 71 79 72 80 73 81 52 82 53 83 61 84 54 85 60 86 55 87
REMARK SMILES IDX 56 88 57 89 58 90 59 91
REMARK H PARENT 19 5 24 28 80 47 50 58
REMARK Flexibility Score: inf
ROOT
ATOM      1  C   UNL A   1      37.007  21.294  25.187  1.00  0.00     0.116 C 
ENDROOT
BRANCH   1   2
ATOM      2  N   UNL A   1      36.187  20.139  24.875  1.00  0.00    -0.353 N 
ATOM      3  C   UNL A   1      34.853  19.895  24.898  1.00  0.00     0.244 C 
ATOM      4  O   UNL A   1      34.474  18.782  24.527  1.00  0.00    -0.270 OA
ATOM      5  H   UNL A   1      36.715  19.362  24.584  1.00  0.00     0.163 HD
BRANCH   3   6
ATOM      6  C   UNL A   1      33.819  20.869  25.336  1.00  0.00     0.073 C 
ATOM      7  C   UNL A   1      32.908  21.506  24.590  1.00  0.00     0.038 C 
BRANCH   7   8
ATOM      8  C   UNL A   1      31.960  22.535  25.050  1.00  0.00     0.105 A 
ATOM      9  C   UNL A   1      29.166  22.701  27.440  1.00  0.00     0.067 C 
ATOM     10  C   UNL A   1      30.251  23.134  26.501  1.00  0.00     0.038 A 
ATOM     11  C   UNL A   1      30.395  24.474  26.165  1.00  0.00     0.027 A 
ATOM     12  N   UNL A   1      31.064  22.172  26.003  1.00  0.00    -0.250 NA
ATOM     13  C   UNL A   1      31.311  24.830  25.179  1.00  0.00     0.050 A 
ATOM     14  C   UNL A   1      32.046  23.841  24.536  1.00  0.00     0.145 A 
BRANCH  14  15
ATOM     15  O   UNL A   1      32.834  24.048  23.434  1.00  0.00    -0.489 OA
BRANCH  15  16
ATOM     16  C   UNL A   1      33.713  25.179  23.402  1.00  0.00     0.251 C 
BRANCH  16  17
ATOM     17  C   UNL A   1      33.381  26.227  22.327  1.00  0.00     0.164 C 
BRANCH  17  18
ATOM     18  N   UNL A   1      32.354  27.173  22.716  1.00  0.00    -0.334 N 
ATOM     19  C   UNL A   1      31.073  27.214  22.242  1.00  0.00     0.107 A 
ATOM     20  C   UNL A   1      32.478  28.157  23.656  1.00  0.00     0.199 A 
ATOM     21  C   UNL A   1      30.443  28.163  23.010  1.00  0.00     0.130 A 
ATOM     22  N   UNL A   1      31.325  28.747  23.886  1.00  0.00    -0.245 NA
ENDBRANCH  17  18
ENDBRANCH  16  17
ENDBRANCH  15  16
ENDBRANCH  14  15
ENDBRANCH   7   8
ENDBRANCH   3   6
ENDBRANCH   1   2
BRANCH   1  23
ATOM     23  C   UNL A   1      38.473  20.923  25.447  1.00  0.00     0.023 C 
BRANCH  23  24
ATOM     24  C   UNL A   1      39.281  21.956  26.252  1.00  0.00     0.023 C 
BRANCH  24  25
ATOM     25  C   UNL A   1      40.584  21.444  26.861  1.00  0.00     0.116 C 
BRANCH  25  26
ATOM     26  N   UNL A   1      41.769  21.728  26.045  1.00  0.00    -0.352 N 
ATOM     27  C   UNL A   1      42.272  22.973  25.689  1.00  0.00     0.251 C 
ATOM     28  H   UNL A   1      42.266  20.946  25.712  1.00  0.00     0.163 HD
ATOM     29  O   UNL A   1      42.982  23.113  24.708  1.00  0.00    -0.269 OA
BRANCH  27  30
ATOM     30  C   UNL A   1      41.951  24.116  26.565  1.00  0.00     0.039 A 
ATOM     31  C   UNL A   1      42.535  24.305  27.818  1.00  0.00     0.014 A 
ATOM     32  C   UNL A   1      41.079  25.058  26.035  1.00  0.00     0.014 A 
ATOM     33  C   UNL A   1      42.298  25.508  28.486  1.00  0.00     0.010 A 
ATOM     34  C   UNL A   1      41.017  26.307  26.590  1.00  0.00     0.010 A 
ATOM     35  C   UNL A   1      41.556  26.522  27.850  1.00  0.00    -0.014 A 
BRANCH  35  36
ATOM     36  C   UNL A   1      41.403  27.851  28.433  1.00  0.00     0.031 A 
ATOM     37  C   UNL A   1      42.482  28.813  28.083  1.00  0.00     0.074 A 
ATOM     38  C   UNL A   1      40.285  28.251  29.084  1.00  0.00     0.049 A 
ATOM     39  N   UNL A   1      43.416  29.249  28.859  1.00  0.00    -0.248 NA
ATOM     40  C   UNL A   1      42.640  29.227  26.678  1.00  0.00     0.031 C 
ATOM     41  C   UNL A   1      39.009  27.542  29.266  1.00  0.00     0.029 A 
ATOM     42  N   UNL A   1      40.021  29.456  29.650  1.00  0.00    -0.354 N 
ATOM     43  C   UNL A   1      44.155  30.162  28.112  1.00  0.00     0.074 A 
ATOM     44  C   UNL A   1      43.743  29.980  26.742  1.00  0.00     0.031 C 
ATOM     45  C   UNL A   1      38.052  28.410  29.667  1.00  0.00     0.029 A 
ATOM     46  C   UNL A   1      38.684  29.679  29.967  1.00  0.00     0.049 A 
ATOM     47  H   UNL A   1      40.724  30.125  29.824  1.00  0.00     0.167 HD
ATOM     48  C   UNL A   1      44.887  31.141  28.712  1.00  0.00     0.031 A 
ATOM     49  C   UNL A   1      38.139  30.821  30.457  1.00  0.00     0.031 A 
ATOM     50  C   UNL A   1      45.005  30.912  30.130  1.00  0.00     0.049 A 
ATOM     51  C   UNL A   1      39.253  31.580  31.078  1.00  0.00     0.074 A 
ATOM     52  C   UNL A   1      45.562  29.918  30.908  1.00  0.00     0.029 A 
ATOM     53  N   UNL A   1      44.117  31.581  30.942  1.00  0.00    -0.354 N 
ATOM     54  N   UNL A   1      39.914  31.150  32.119  1.00  0.00    -0.248 NA
ATOM     55  C   UNL A   1      39.947  32.557  30.255  1.00  0.00     0.031 C 
ATOM     56  C   UNL A   1      44.629  29.725  31.970  1.00  0.00     0.029 A 
ATOM     57  C   UNL A   1      43.608  30.671  31.833  1.00  0.00     0.049 A 
ATOM     58  H   UNL A   1      43.888  32.537  30.890  1.00  0.00     0.167 HD
ATOM     59  C   UNL A   1      41.240  31.456  31.847  1.00  0.00     0.074 A 
ATOM     60  C   UNL A   1      41.188  32.392  30.723  1.00  0.00     0.031 C 
ATOM     61  C   UNL A   1      42.263  30.717  32.369  1.00  0.00     0.031 A 
BRANCH  48  62
ATOM     62  C   UNL A   1      45.166  32.494  28.110  1.00  0.00    -0.014 A 
ATOM     63  C   UNL A   1      46.507  32.917  27.988  1.00  0.00     0.010 A 
ATOM     64  C   UNL A   1      44.167  33.469  27.918  1.00  0.00     0.010 A 
ATOM     65  C   UNL A   1      46.829  34.260  27.762  1.00  0.00     0.020 A 
ATOM     66  C   UNL A   1      44.478  34.805  27.654  1.00  0.00     0.020 A 
ATOM     67  C   UNL A   1      45.809  35.199  27.611  1.00  0.00     0.054 A 
BRANCH  67  68
ATOM     68  S   UNL A   1      46.240  36.946  27.424  1.00  0.00     0.124 S 
ATOM     69  O   UNL A   1      47.356  36.882  26.485  1.00  0.00    -0.237 OA
ATOM     70  O   UNL A   1      45.002  37.514  26.899  1.00  0.00    -0.237 OA
ATOM     71  O   UNL A   1      46.585  37.361  28.781  1.00  0.00    -0.744 OA
ENDBRANCH  67  68
ENDBRANCH  48  62
BRANCH  49  72
ATOM     72  C   UNL A   1      36.836  31.447  30.105  1.00  0.00    -0.014 A 
ATOM     73  C   UNL A   1      36.029  32.056  31.086  1.00  0.00     0.010 A 
ATOM     74  C   UNL A   1      36.530  31.713  28.754  1.00  0.00     0.010 A 
ATOM     75  C   UNL A   1      34.999  32.948  30.731  1.00  0.00     0.020 A 
ATOM     76  C   UNL A   1      35.505  32.599  28.393  1.00  0.00     0.020 A 
ATOM     77  C   UNL A   1      34.759  33.232  29.384  1.00  0.00     0.054 A 
BRANCH  77  78
ATOM     78  S   UNL A   1      33.552  34.522  28.941  1.00  0.00     0.124 S 
ATOM     79  O   UNL A   1      34.405  35.570  28.387  1.00  0.00    -0.237 OA
ATOM     80  O   UNL A   1      32.691  33.836  27.980  1.00  0.00    -0.237 OA
ATOM     81  O   UNL A   1      32.914  34.849  30.215  1.00  0.00    -0.744 OA
ENDBRANCH  77  78
ENDBRANCH  49  72
BRANCH  61  82
ATOM     82  C   UNL A   1      41.958  29.713  33.461  1.00  0.00    -0.014 A 
ATOM     83  C   UNL A   1      41.423  28.429  33.231  1.00  0.00     0.010 A 
ATOM     84  C   UNL A   1      42.424  30.021  34.750  1.00  0.00     0.010 A 
ATOM     85  C   UNL A   1      41.361  27.483  34.270  1.00  0.00     0.020 A 
ATOM     86  C   UNL A   1      42.381  29.081  35.781  1.00  0.00     0.020 A 
ATOM     87  C   UNL A   1      41.848  27.817  35.539  1.00  0.00     0.054 A 
BRANCH  87  88
ATOM     88  S   UNL A   1      41.843  26.573  36.864  1.00  0.00     0.124 S 
ATOM     89  O   UNL A   1      41.939  25.319  36.123  1.00  0.00    -0.237 OA
ATOM     90  O   UNL A   1      43.019  26.931  37.652  1.00  0.00    -0.237 OA
ATOM     91  O   UNL A   1      40.565  26.793  37.542  1.00  0.00    -0.744 OA
ENDBRANCH  87  88
ENDBRANCH  61  82
ENDBRANCH  35  36
ENDBRANCH  27  30
ENDBRANCH  25  26
ENDBRANCH  24  25
ENDBRANCH  23  24
ENDBRANCH   1  23
TORSDOF 19
ENDMDL
MODEL 2
REMARK VINA RESULT:     -10.8      2.961      9.275
REMARK SMILES Cc1ccc(OCCn2ccnc2)c(/C=C/C(=O)NCCCCNC(=O)c2ccc(-c3c4nc(c(-c5ccc(S(=O)(=O)[O-])cc5)c5ccc([nH]5)c(-c5ccc(S(=O)(=O)[O-])cc5)c5nc(c(-c6ccc(S(=O)(=O)[O-])cc6)c6ccc3[nH]6)C=C5)C=C4)cc2)n1
REMARK SMILES IDX 20 1 19 2 17 3 18 4 16 6 15 7 14 8 1 9 2 10 3 11 87 12 4 13
REMARK SMILES IDX 5 14 6 15 7 16 8 17 9 18 10 19 13 20 11 21 12 22 21 23 22 24
REMARK SMILES IDX 23 25 24 26 25 27 26 29 27 30 28 31 86 32 29 33 85 34 30 35
REMARK SMILES IDX 31 36 32 37 79 38 33 39 84 40 78 41 80 42 34 43 83 44 77 45
REMARK SMILES IDX 76 46 35 48 65 49 46 50 64 51 47 52 50 53 63 54 81 55 48 56
REMARK SMILES IDX 49 57 62 59 82 60 51 61 36 62 37 63 45 64 38 65 44 66 39 67
REMARK SMILES IDX 40 68 41 69 42 70 43 71 66 72 67 73 75 74 68 75 74 76 69 77
REMARK SMILES IDX 70 78 71 79 72 80 73 81 52 82 53 83 61 84 54 85 60 86 55 87
REMARK SMILES IDX 56 88 57 89 58 90 59 91
REMARK H PARENT 19 5 24 28 80 47 50 58
REMARK Flexibility Score: inf
ROOT
ATOM      1  C   UNL A   1      34.345  28.712  27.342  1.00  0.00     0.116 C 
ENDROOT
BRANCH   1   2
ATOM      2  N   UNL A   1      32.942  28.350  27.397  1.00  0.00    -0.353 N 
ATOM      3  C   UNL A   1      32.216  27.309  26.919  1.00  0.00     0.244 C 
ATOM      4  O   UNL A   1      31.012  27.288  27.183  1.00  0.00    -0.270 OA
ATOM      5  H   UNL A   1      32.396  29.003  27.891  1.00  0.00     0.163 HD
BRANCH   3   6
ATOM      6  C   UNL A   1      32.766  26.196  26.101  1.00  0.00     0.073 C 
ATOM      7  C   UNL A   1      33.055  24.947  26.485  1.00  0.00     0.038 C 
BRANCH   7   8
ATOM      8  C   UNL A   1      33.687  23.898  25.664  1.00  0.00     0.105 A 
ATOM      9  C   UNL A   1      37.037  23.259  24.283  1.00  0.00     0.067 C 
ATOM     10  C   UNL A   1      35.620  23.034  24.716  1.00  0.00     0.038 A 
ATOM     11  C   UNL A   1      34.978  21.838  24.424  1.00  0.00     0.027 A 
ATOM     12  N   UNL A   1      35.008  24.038  25.389  1.00  0.00    -0.250 NA
ATOM     13  C   UNL A   1      33.620  21.713  24.704  1.00  0.00     0.050 A 
ATOM     14  C   UNL A   1      32.930  22.789  25.249  1.00  0.00     0.145 A 
BRANCH  14  15
ATOM     15  O   UNL A   1      31.568  22.848  25.395  1.00  0.00    -0.489 OA
BRANCH  15  16
ATOM     16  C   UNL A   1      30.791  23.576  24.436  1.00  0.00     0.251 C 
BRANCH  16  17
ATOM     17  C   UNL A   1      31.311  23.503  22.992  1.00  0.00     0.164 C 
BRANCH  17  18
ATOM     18  N   UNL A   1      31.956  24.716  22.531  1.00  0.00    -0.334 N 
ATOM     19  C   UNL A   1      31.474  25.988  22.663  1.00  0.00     0.107 A 
ATOM     20  C   UNL A   1      33.178  24.800  21.924  1.00  0.00     0.199 A 
ATOM     21  C   UNL A   1      32.493  26.800  22.225  1.00  0.00     0.130 A 
ATOM     22  N   UNL A   1      33.549  26.051  21.764  1.00  0.00    -0.245 NA
ENDBRANCH  17  18
ENDBRANCH  16  17
ENDBRANCH  15  16
ENDBRANCH  14  15
ENDBRANCH   7   8
ENDBRANCH   3   6
ENDBRANCH   1   2
BRANCH   1  23
ATOM     23  C   UNL A   1      34.570  30.107  26.742  1.00  0.00     0.023 C 
BRANCH  23  24
ATOM     24  C   UNL A   1      34.183  31.285  27.652  1.00  0.00     0.023 C 
BRANCH  24  25
ATOM     25  C   UNL A   1      35.350  32.041  28.283  1.00  0.00     0.116 C 
BRANCH  25  26
ATOM     26  N   UNL A   1      35.016  32.687  29.556  1.00  0.00    -0.352 N 
ATOM     27  C   UNL A   1      35.275  32.218  30.838  1.00  0.00     0.251 C 
ATOM     28  H   UNL A   1      34.554  33.555  29.496  1.00  0.00     0.163 HD
ATOM     29  O   UNL A   1      34.622  32.595  31.795  1.00  0.00    -0.269 OA
BRANCH  27  30
ATOM     30  C   UNL A   1      36.399  31.277  31.006  1.00  0.00     0.039 A 
ATOM     31  C   UNL A   1      36.235  29.891  31.040  1.00  0.00     0.014 A 
ATOM     32  C   UNL A   1      37.665  31.847  31.046  1.00  0.00     0.014 A 
ATOM     33  C   UNL A   1      37.377  29.088  31.021  1.00  0.00     0.010 A 
ATOM     34  C   UNL A   1      38.764  31.065  30.819  1.00  0.00     0.010 A 
ATOM     35  C   UNL A   1      38.644  29.684  30.881  1.00  0.00    -0.014 A 
BRANCH  35  36
ATOM     36  C   UNL A   1      39.857  28.892  30.704  1.00  0.00     0.031 A 
ATOM     37  C   UNL A   1      40.653  28.684  31.944  1.00  0.00     0.074 A 
ATOM     38  C   UNL A   1      40.153  28.233  29.559  1.00  0.00     0.049 A 
ATOM     39  N   UNL A   1      41.785  29.228  32.241  1.00  0.00    -0.248 NA
ATOM     40  C   UNL A   1      40.063  27.906  33.048  1.00  0.00     0.031 C 
ATOM     41  C   UNL A   1      39.345  28.079  28.338  1.00  0.00     0.029 A 
ATOM     42  N   UNL A   1      41.232  27.458  29.282  1.00  0.00    -0.354 N 
ATOM     43  C   UNL A   1      42.165  28.698  33.471  1.00  0.00     0.074 A 
ATOM     44  C   UNL A   1      40.999  28.030  33.994  1.00  0.00     0.031 C 
ATOM     45  C   UNL A   1      39.845  27.078  27.578  1.00  0.00     0.029 A 
ATOM     46  C   UNL A   1      41.112  26.663  28.146  1.00  0.00     0.049 A 
ATOM     47  H   UNL A   1      42.041  27.458  29.844  1.00  0.00     0.167 HD
ATOM     48  C   UNL A   1      43.472  28.669  33.855  1.00  0.00     0.031 A 
ATOM     49  C   UNL A   1      42.000  25.740  27.696  1.00  0.00     0.031 A 
ATOM     50  C   UNL A   1      44.291  29.479  32.990  1.00  0.00     0.049 A 
ATOM     51  C   UNL A   1      43.309  26.094  28.298  1.00  0.00     0.074 A 
ATOM     52  C   UNL A   1      44.337  30.822  32.678  1.00  0.00     0.029 A 
ATOM     53  N   UNL A   1      44.952  28.827  31.973  1.00  0.00    -0.354 N 
ATOM     54  N   UNL A   1      43.940  27.204  28.026  1.00  0.00    -0.248 NA
ATOM     55  C   UNL A   1      43.667  25.462  29.557  1.00  0.00     0.031 C 
ATOM     56  C   UNL A   1      44.573  30.858  31.271  1.00  0.00     0.029 A 
ATOM     57  C   UNL A   1      44.750  29.546  30.823  1.00  0.00     0.049 A 
ATOM     58  H   UNL A   1      45.473  27.996  32.057  1.00  0.00     0.167 HD
ATOM     59  C   UNL A   1      44.437  27.637  29.247  1.00  0.00     0.074 A 
ATOM     60  C   UNL A   1      44.306  26.483  30.138  1.00  0.00     0.031 C 
ATOM     61  C   UNL A   1      44.653  28.961  29.501  1.00  0.00     0.031 A 
BRANCH  48  62
ATOM     62  C   UNL A   1      44.077  27.622  34.754  1.00  0.00    -0.014 A 
ATOM     63  C   UNL A   1      45.084  28.011  35.663  1.00  0.00     0.010 A 
ATOM     64  C   UNL A   1      43.897  26.240  34.552  1.00  0.00     0.010 A 
ATOM     65  C   UNL A   1      45.916  27.068  36.277  1.00  0.00     0.020 A 
ATOM     66  C   UNL A   1      44.697  25.288  35.189  1.00  0.00     0.020 A 
ATOM     67  C   UNL A   1      45.724  25.710  36.023  1.00  0.00     0.054 A 
BRANCH  67  68
ATOM     68  S   UNL A   1      46.872  24.509  36.740  1.00  0.00     0.124 S 
ATOM     69  O   UNL A   1      47.260  23.728  35.569  1.00  0.00    -0.237 OA
ATOM     70  O   UNL A   1      47.909  25.369  37.300  1.00  0.00    -0.237 OA
ATOM     71  O   UNL A   1      46.056  23.801  37.724  1.00  0.00    -0.744 OA
ENDBRANCH  67  68
ENDBRANCH  48  62
BRANCH  49  72
ATOM     72  C   UNL A   1      41.721  24.405  27.102  1.00  0.00    -0.014 A 
ATOM     73  C   UNL A   1      42.542  23.870  26.090  1.00  0.00     0.010 A 
ATOM     74  C   UNL A   1      40.826  23.525  27.746  1.00  0.00     0.010 A 
ATOM     75  C   UNL A   1      42.515  22.496  25.780  1.00  0.00     0.020 A 
ATOM     76  C   UNL A   1      40.793  22.157  27.442  1.00  0.00     0.020 A 
ATOM     77  C   UNL A   1      41.655  21.643  26.476  1.00  0.00     0.054 A 
BRANCH  77  78
ATOM     78  S   UNL A   1      41.757  19.846  26.200  1.00  0.00     0.124 S 
ATOM     79  O   UNL A   1      40.401  19.520  25.767  1.00  0.00    -0.237 OA
ATOM     80  O   UNL A   1      42.790  19.740  25.173  1.00  0.00    -0.237 OA
ATOM     81  O   UNL A   1      42.134  19.317  27.510  1.00  0.00    -0.744 OA
ENDBRANCH  77  78
ENDBRANCH  49  72
BRANCH  61  82
ATOM     82  C   UNL A   1      44.591  29.946  28.352  1.00  0.00    -0.014 A 
ATOM     83  C   UNL A   1      43.398  30.502  27.847  1.00  0.00     0.010 A 
ATOM     84  C   UNL A   1      45.815  30.473  27.906  1.00  0.00     0.010 A 
ATOM     85  C   UNL A   1      43.438  31.560  26.920  1.00  0.00     0.020 A 
ATOM     86  C   UNL A   1      45.861  31.533  27.001  1.00  0.00     0.020 A 
ATOM     87  C   UNL A   1      44.673  32.072  26.509  1.00  0.00     0.054 A 
BRANCH  87  88
ATOM     88  S   UNL A   1      44.730  33.489  25.373  1.00  0.00     0.124 S 
ATOM     89  O   UNL A   1      46.144  33.851  25.386  1.00  0.00    -0.237 OA
ATOM     90  O   UNL A   1      44.237  32.924  24.120  1.00  0.00    -0.237 OA
ATOM     91  O   UNL A   1      43.837  34.468  25.993  1.00  0.00    -0.744 OA
ENDBRANCH  87  88
ENDBRANCH  61  82
ENDBRANCH  35  36
ENDBRANCH  27  30
ENDBRANCH  25  26
ENDBRANCH  24  25
ENDBRANCH  23  24
ENDBRANCH   1  23
TORSDOF 19
ENDMDL
MODEL 3
REMARK VINA RESULT:     -10.8      3.030      9.820
REMARK SMILES Cc1ccc(OCCn2ccnc2)c(/C=C/C(=O)NCCCCNC(=O)c2ccc(-c3c4nc(c(-c5ccc(S(=O)(=O)[O-])cc5)c5ccc([nH]5)c(-c5ccc(S(=O)(=O)[O-])cc5)c5nc(c(-c6ccc(S(=O)(=O)[O-])cc6)c6ccc3[nH]6)C=C5)C=C4)cc2)n1
REMARK SMILES IDX 20 1 19 2 17 3 18 4 16 6 15 7 14 8 1 9 2 10 3 11 87 12 4 13
REMARK SMILES IDX 5 14 6 15 7 16 8 17 9 18 10 19 13 20 11 21 12 22 21 23 22 24
REMARK SMILES IDX 23 25 24 26 25 27 26 29 27 30 28 31 86 32 29 33 85 34 30 35
REMARK SMILES IDX 31 36 32 37 79 38 33 39 84 40 78 41 80 42 34 43 83 44 77 45
REMARK SMILES IDX 76 46 35 48 65 49 46 50 64 51 47 52 50 53 63 54 81 55 48 56
REMARK SMILES IDX 49 57 62 59 82 60 51 61 36 62 37 63 45 64 38 65 44 66 39 67
REMARK SMILES IDX 40 68 41 69 42 70 43 71 66 72 67 73 75 74 68 75 74 76 69 77
REMARK SMILES IDX 70 78 71 79 72 80 73 81 52 82 53 83 61 84 54 85 60 86 55 87
REMARK SMILES IDX 56 88 57 89 58 90 59 91
REMARK H PARENT 19 5 24 28 80 47 50 58
REMARK Flexibility Score: inf
ROOT
ATOM      1  C   UNL A   1      33.447  32.633  27.953  1.00  0.00     0.116 C 
ENDROOT
BRANCH   1   2
ATOM      2  N   UNL A   1      34.010  31.297  27.933  1.00  0.00    -0.353 N 
ATOM      3  C   UNL A   1      33.658  30.133  27.333  1.00  0.00     0.244 C 
ATOM      4  O   UNL A   1      34.399  29.162  27.501  1.00  0.00    -0.270 OA
ATOM      5  H   UNL A   1      34.827  31.217  28.476  1.00  0.00     0.163 HD
BRANCH   3   6
ATOM      6  C   UNL A   1      32.449  29.944  26.490  1.00  0.00     0.073 C 
ATOM      7  C   UNL A   1      32.339  29.287  25.329  1.00  0.00     0.038 C 
BRANCH   7   8
ATOM      8  C   UNL A   1      31.140  29.202  24.477  1.00  0.00     0.105 A 
ATOM      9  C   UNL A   1      28.463  31.494  23.414  1.00  0.00     0.067 C 
ATOM     10  C   UNL A   1      29.358  30.292  23.467  1.00  0.00     0.038 A 
ATOM     11  C   UNL A   1      29.098  29.188  22.665  1.00  0.00     0.027 A 
ATOM     12  N   UNL A   1      30.407  30.334  24.323  1.00  0.00    -0.250 NA
ATOM     13  C   UNL A   1      29.852  28.031  22.842  1.00  0.00     0.050 A 
ATOM     14  C   UNL A   1      30.832  27.995  23.826  1.00  0.00     0.145 A 
BRANCH  14  15
ATOM     15  O   UNL A   1      31.505  26.865  24.214  1.00  0.00    -0.489 OA
BRANCH  15  16
ATOM     16  C   UNL A   1      31.862  25.888  23.229  1.00  0.00     0.251 C 
BRANCH  16  17
ATOM     17  C   UNL A   1      32.752  24.745  23.743  1.00  0.00     0.164 C 
BRANCH  17  18
ATOM     18  N   UNL A   1      32.190  24.009  24.858  1.00  0.00    -0.334 N 
ATOM     19  C   UNL A   1      32.414  24.255  26.183  1.00  0.00     0.107 A 
ATOM     20  C   UNL A   1      31.303  22.972  24.775  1.00  0.00     0.199 A 
ATOM     21  C   UNL A   1      31.553  23.414  26.848  1.00  0.00     0.130 A 
ATOM     22  N   UNL A   1      30.868  22.618  25.964  1.00  0.00    -0.245 NA
ENDBRANCH  17  18
ENDBRANCH  16  17
ENDBRANCH  15  16
ENDBRANCH  14  15
ENDBRANCH   7   8
ENDBRANCH   3   6
ENDBRANCH   1   2
BRANCH   1  23
ATOM     23  C   UNL A   1      34.518  33.723  28.087  1.00  0.00     0.023 C 
BRANCH  23  24
ATOM     24  C   UNL A   1      35.973  33.232  27.986  1.00  0.00     0.023 C 
BRANCH  24  25
ATOM     25  C   UNL A   1      36.802  33.362  29.262  1.00  0.00     0.116 C 
BRANCH  25  26
ATOM     26  N   UNL A   1      35.999  33.365  30.489  1.00  0.00    -0.352 N 
ATOM     27  C   UNL A   1      35.774  32.302  31.356  1.00  0.00     0.251 C 
ATOM     28  H   UNL A   1      35.570  34.219  30.727  1.00  0.00     0.163 HD
ATOM     29  O   UNL A   1      34.801  32.278  32.089  1.00  0.00    -0.269 OA
BRANCH  27  30
ATOM     30  C   UNL A   1      36.779  31.222  31.387  1.00  0.00     0.039 A 
ATOM     31  C   UNL A   1      36.565  29.965  30.821  1.00  0.00     0.014 A 
ATOM     32  C   UNL A   1      38.006  31.553  31.947  1.00  0.00     0.014 A 
ATOM     33  C   UNL A   1      37.642  29.080  30.746  1.00  0.00     0.010 A 
ATOM     34  C   UNL A   1      39.099  30.773  31.688  1.00  0.00     0.010 A 
ATOM     35  C   UNL A   1      38.920  29.503  31.158  1.00  0.00    -0.014 A 
BRANCH  35  36
ATOM     36  C   UNL A   1      40.108  28.678  30.965  1.00  0.00     0.031 A 
ATOM     37  C   UNL A   1      40.896  28.421  32.201  1.00  0.00     0.074 A 
ATOM     38  C   UNL A   1      40.384  28.033  29.807  1.00  0.00     0.049 A 
ATOM     39  N   UNL A   1      42.044  28.924  32.508  1.00  0.00    -0.248 NA
ATOM     40  C   UNL A   1      40.283  27.639  33.288  1.00  0.00     0.031 C 
ATOM     41  C   UNL A   1      39.573  27.929  28.583  1.00  0.00     0.029 A 
ATOM     42  N   UNL A   1      41.439  27.231  29.514  1.00  0.00    -0.354 N 
ATOM     43  C   UNL A   1      42.408  28.358  33.727  1.00  0.00     0.074 A 
ATOM     44  C   UNL A   1      41.222  27.716  34.236  1.00  0.00     0.031 C 
ATOM     45  C   UNL A   1      40.042  26.928  27.803  1.00  0.00     0.029 A 
ATOM     46  C   UNL A   1      41.296  26.463  28.362  1.00  0.00     0.049 A 
ATOM     47  H   UNL A   1      42.248  27.195  30.076  1.00  0.00     0.167 HD
ATOM     48  C   UNL A   1      43.713  28.282  34.110  1.00  0.00     0.031 A 
ATOM     49  C   UNL A   1      42.155  25.523  27.894  1.00  0.00     0.031 A 
ATOM     50  C   UNL A   1      44.557  29.084  33.261  1.00  0.00     0.049 A 
ATOM     51  C   UNL A   1      43.474  25.825  28.503  1.00  0.00     0.074 A 
ATOM     52  C   UNL A   1      44.644  30.431  32.976  1.00  0.00     0.029 A 
ATOM     53  N   UNL A   1      45.198  28.432  32.232  1.00  0.00    -0.354 N 
ATOM     54  N   UNL A   1      44.139  26.921  28.253  1.00  0.00    -0.248 NA
ATOM     55  C   UNL A   1      43.813  25.158  29.748  1.00  0.00     0.031 C 
ATOM     56  C   UNL A   1      44.881  30.488  31.571  1.00  0.00     0.029 A 
ATOM     57  C   UNL A   1      45.018  29.180  31.096  1.00  0.00     0.049 A 
ATOM     58  H   UNL A   1      45.694  27.584  32.299  1.00  0.00     0.167 HD
ATOM     59  C   UNL A   1      44.649  27.313  29.482  1.00  0.00     0.074 A 
ATOM     60  C   UNL A   1      44.482  26.146  30.350  1.00  0.00     0.031 C 
ATOM     61  C   UNL A   1      44.904  28.626  29.763  1.00  0.00     0.031 A 
BRANCH  48  62
ATOM     62  C   UNL A   1      44.286  27.199  34.988  1.00  0.00    -0.014 A 
ATOM     63  C   UNL A   1      45.641  27.285  35.372  1.00  0.00     0.010 A 
ATOM     64  C   UNL A   1      43.632  25.972  35.219  1.00  0.00     0.010 A 
ATOM     65  C   UNL A   1      46.324  26.178  35.888  1.00  0.00     0.020 A 
ATOM     66  C   UNL A   1      44.295  24.873  35.770  1.00  0.00     0.020 A 
ATOM     67  C   UNL A   1      45.648  24.973  36.069  1.00  0.00     0.054 A 
BRANCH  67  68
ATOM     68  S   UNL A   1      46.567  23.523  36.638  1.00  0.00     0.124 S 
ATOM     69  O   UNL A   1      45.662  22.964  37.637  1.00  0.00    -0.237 OA
ATOM     70  O   UNL A   1      46.712  22.748  35.410  1.00  0.00    -0.237 OA
ATOM     71  O   UNL A   1      47.808  24.088  37.163  1.00  0.00    -0.744 OA
ENDBRANCH  67  68
ENDBRANCH  48  62
BRANCH  49  72
ATOM     72  C   UNL A   1      41.836  24.209  27.273  1.00  0.00    -0.014 A 
ATOM     73  C   UNL A   1      42.513  23.762  26.121  1.00  0.00     0.010 A 
ATOM     74  C   UNL A   1      41.080  23.261  27.992  1.00  0.00     0.010 A 
ATOM     75  C   UNL A   1      42.487  22.407  25.741  1.00  0.00     0.020 A 
ATOM     76  C   UNL A   1      41.049  21.909  27.619  1.00  0.00     0.020 A 
ATOM     77  C   UNL A   1      41.772  21.483  26.508  1.00  0.00     0.054 A 
BRANCH  77  78
ATOM     78  S   UNL A   1      41.893  19.708  26.118  1.00  0.00     0.124 S 
ATOM     79  O   UNL A   1      42.297  19.135  27.399  1.00  0.00    -0.237 OA
ATOM     80  O   UNL A   1      40.537  19.385  25.682  1.00  0.00    -0.237 OA
ATOM     81  O   UNL A   1      42.908  19.655  25.067  1.00  0.00    -0.744 OA
ENDBRANCH  77  78
ENDBRANCH  49  72
BRANCH  61  82
ATOM     82  C   UNL A   1      44.873  29.635  28.634  1.00  0.00    -0.014 A 
ATOM     83  C   UNL A   1      43.691  30.151  28.064  1.00  0.00     0.010 A 
ATOM     84  C   UNL A   1      46.098  30.225  28.281  1.00  0.00     0.010 A 
ATOM     85  C   UNL A   1      43.744  31.232  27.165  1.00  0.00     0.020 A 
ATOM     86  C   UNL A   1      46.155  31.308  27.403  1.00  0.00     0.020 A 
ATOM     87  C   UNL A   1      44.979  31.807  26.846  1.00  0.00     0.054 A 
BRANCH  87  88
ATOM     88  S   UNL A   1      45.046  33.253  25.748  1.00  0.00     0.124 S 
ATOM     89  O   UNL A   1      44.251  34.240  26.473  1.00  0.00    -0.237 OA
ATOM     90  O   UNL A   1      46.477  33.535  25.666  1.00  0.00    -0.237 OA
ATOM     91  O   UNL A   1      44.447  32.772  24.503  1.00  0.00    -0.744 OA
ENDBRANCH  87  88
ENDBRANCH  61  82
ENDBRANCH  35  36
ENDBRANCH  27  30
ENDBRANCH  25  26
ENDBRANCH  24  25
ENDBRANCH  23  24
ENDBRANCH   1  23
TORSDOF 19
ENDMDL
