MODEL 1
REMARK VINA RESULT:     -10.7      0.000      0.000
REMARK SMILES O=C(NCCCCNC(=O)c1ccc(S(=O)(=O)Cc2cccs2)c(F)c1)c1ccc(-c2c3nc(c(-c4ccc(S(=O)(=O)[O-])cc4)c4ccc([nH]4)c(-c4ccc(S(=O)(=O)[O-])cc4)c4nc(c(-c5ccc(S(=O)(=O)[O-])cc5)c5ccc2[nH]5)C=C4)C=C3)cc1
REMARK SMILES IDX 5 1 4 2 3 3 1 4 2 5 27 7 28 8 86 9 29 10 85 11 30 12 31 13
REMARK SMILES IDX 32 14 79 15 33 16 84 17 78 18 80 19 34 20 83 21 77 22 76 23
REMARK SMILES IDX 35 25 65 26 46 27 64 28 47 29 50 30 63 31 81 32 48 33 49 34
REMARK SMILES IDX 62 36 82 37 51 38 36 39 37 40 45 41 38 42 44 43 39 44 40 45
REMARK SMILES IDX 41 46 42 47 43 48 66 49 67 50 75 51 68 52 74 53 69 54 70 55
REMARK SMILES IDX 71 56 72 57 73 58 52 59 53 60 61 61 54 62 60 63 55 64 56 65
REMARK SMILES IDX 57 66 58 67 59 68 6 69 7 70 8 71 9 72 10 74 11 75 12 76
REMARK SMILES IDX 26 77 13 78 24 79 14 80 25 81 15 82 16 83 17 84 18 85 19 86
REMARK SMILES IDX 20 87 23 88 21 89 22 90
REMARK H PARENT 3 6 80 24 50 35 8 73
REMARK Flexibility Score: inf
ROOT
ATOM      1  C   UNL A   1      35.527  23.665  26.338  1.00  0.00     0.023 C 
ENDROOT
BRANCH   1   2
ATOM      2  C   UNL A   1      36.681  23.778  25.351  1.00  0.00     0.116 C 
BRANCH   2   3
ATOM      3  N   UNL A   1      37.687  22.747  25.543  1.00  0.00    -0.352 N 
ATOM      4  O   UNL A   1      39.717  21.914  26.061  1.00  0.00    -0.269 OA
ATOM      5  C   UNL A   1      38.930  22.856  26.117  1.00  0.00     0.251 C 
ATOM      6  H   UNL A   1      37.445  21.849  25.219  1.00  0.00     0.163 HD
BRANCH   5   7
ATOM      7  C   UNL A   1      39.322  24.117  26.782  1.00  0.00     0.039 A 
ATOM      8  C   UNL A   1      38.985  24.349  28.120  1.00  0.00     0.014 A 
ATOM      9  C   UNL A   1      40.050  25.070  26.064  1.00  0.00     0.014 A 
ATOM     10  C   UNL A   1      39.282  25.576  28.705  1.00  0.00     0.010 A 
ATOM     11  C   UNL A   1      40.412  26.272  26.678  1.00  0.00     0.010 A 
ATOM     12  C   UNL A   1      40.022  26.538  27.999  1.00  0.00    -0.014 A 
BRANCH  12  13
ATOM     13  C   UNL A   1      40.492  27.756  28.705  1.00  0.00     0.031 A 
ATOM     14  C   UNL A   1      39.581  28.927  28.941  1.00  0.00     0.074 A 
ATOM     15  C   UNL A   1      41.774  27.791  29.121  1.00  0.00     0.049 A 
ATOM     16  N   UNL A   1      39.853  30.066  29.526  1.00  0.00    -0.248 NA
ATOM     17  C   UNL A   1      38.194  28.816  28.460  1.00  0.00     0.031 C 
ATOM     18  C   UNL A   1      42.752  26.716  28.924  1.00  0.00     0.029 A 
ATOM     19  N   UNL A   1      42.476  28.757  29.792  1.00  0.00    -0.354 N 
ATOM     20  C   UNL A   1      38.685  30.817  29.464  1.00  0.00     0.074 A 
ATOM     21  C   UNL A   1      37.701  30.007  28.778  1.00  0.00     0.031 C 
ATOM     22  C   UNL A   1      43.918  27.072  29.480  1.00  0.00     0.029 A 
ATOM     23  C   UNL A   1      43.791  28.422  30.015  1.00  0.00     0.049 A 
ATOM     24  H   UNL A   1      42.079  29.609  30.085  1.00  0.00     0.167 HD
ATOM     25  C   UNL A   1      38.462  32.067  29.936  1.00  0.00     0.031 A 
ATOM     26  C   UNL A   1      44.799  29.132  30.556  1.00  0.00     0.031 A 
ATOM     27  C   UNL A   1      39.448  32.857  30.629  1.00  0.00     0.049 A 
ATOM     28  C   UNL A   1      44.526  30.527  31.037  1.00  0.00     0.074 A 
ATOM     29  C   UNL A   1      39.291  34.101  31.215  1.00  0.00     0.029 A 
ATOM     30  N   UNL A   1      40.772  32.493  30.812  1.00  0.00    -0.354 N 
ATOM     31  N   UNL A   1      43.391  31.184  31.043  1.00  0.00    -0.248 NA
ATOM     32  C   UNL A   1      45.667  31.278  31.573  1.00  0.00     0.031 C 
ATOM     33  C   UNL A   1      40.536  34.518  31.697  1.00  0.00     0.029 A 
ATOM     34  C   UNL A   1      41.456  33.510  31.458  1.00  0.00     0.049 A 
ATOM     35  H   UNL A   1      41.169  31.638  30.525  1.00  0.00     0.167 HD
ATOM     36  C   UNL A   1      43.683  32.429  31.585  1.00  0.00     0.074 A 
ATOM     37  C   UNL A   1      45.092  32.420  31.924  1.00  0.00     0.031 C 
ATOM     38  C   UNL A   1      42.861  33.489  31.775  1.00  0.00     0.031 A 
BRANCH  25  39
ATOM     39  C   UNL A   1      37.110  32.688  29.709  1.00  0.00    -0.014 A 
ATOM     40  C   UNL A   1      36.201  32.866  30.766  1.00  0.00     0.010 A 
ATOM     41  C   UNL A   1      36.796  33.212  28.440  1.00  0.00     0.010 A 
ATOM     42  C   UNL A   1      34.999  33.548  30.557  1.00  0.00     0.020 A 
ATOM     43  C   UNL A   1      35.603  33.911  28.231  1.00  0.00     0.020 A 
ATOM     44  C   UNL A   1      34.709  34.070  29.292  1.00  0.00     0.054 A 
BRANCH  44  45
ATOM     45  S   UNL A   1      33.173  35.012  29.068  1.00  0.00     0.124 S 
ATOM     46  O   UNL A   1      32.501  34.247  28.020  1.00  0.00    -0.237 OA
ATOM     47  O   UNL A   1      32.558  34.940  30.390  1.00  0.00    -0.237 OA
ATOM     48  O   UNL A   1      33.635  36.340  28.670  1.00  0.00    -0.744 OA
ENDBRANCH  44  45
ENDBRANCH  25  39
BRANCH  26  49
ATOM     49  C   UNL A   1      46.168  28.555  30.608  1.00  0.00    -0.014 A 
ATOM     50  C   UNL A   1      47.065  28.731  29.542  1.00  0.00     0.010 A 
ATOM     51  C   UNL A   1      46.580  27.825  31.738  1.00  0.00     0.010 A 
ATOM     52  C   UNL A   1      48.342  28.161  29.594  1.00  0.00     0.020 A 
ATOM     53  C   UNL A   1      47.863  27.280  31.807  1.00  0.00     0.020 A 
ATOM     54  C   UNL A   1      48.730  27.437  30.725  1.00  0.00     0.054 A 
BRANCH  54  55
ATOM     55  S   UNL A   1      50.399  26.728  30.787  1.00  0.00     0.124 S 
ATOM     56  O   UNL A   1      50.119  25.296  30.746  1.00  0.00    -0.237 OA
ATOM     57  O   UNL A   1      51.026  27.286  29.591  1.00  0.00    -0.237 OA
ATOM     58  O   UNL A   1      50.933  27.229  32.051  1.00  0.00    -0.744 OA
ENDBRANCH  54  55
ENDBRANCH  26  49
BRANCH  38  59
ATOM     59  C   UNL A   1      43.466  34.727  32.374  1.00  0.00    -0.014 A 
ATOM     60  C   UNL A   1      43.935  35.766  31.552  1.00  0.00     0.010 A 
ATOM     61  C   UNL A   1      43.520  34.875  33.772  1.00  0.00     0.010 A 
ATOM     62  C   UNL A   1      44.469  36.926  32.117  1.00  0.00     0.020 A 
ATOM     63  C   UNL A   1      44.030  36.045  34.340  1.00  0.00     0.020 A 
ATOM     64  C   UNL A   1      44.512  37.058  33.508  1.00  0.00     0.054 A 
BRANCH  64  65
ATOM     65  S   UNL A   1      45.160  38.596  34.218  1.00  0.00     0.124 S 
ATOM     66  O   UNL A   1      44.930  38.392  35.646  1.00  0.00    -0.237 OA
ATOM     67  O   UNL A   1      46.559  38.579  33.798  1.00  0.00    -0.237 OA
ATOM     68  O   UNL A   1      44.343  39.635  33.597  1.00  0.00    -0.744 OA
ENDBRANCH  64  65
ENDBRANCH  38  59
ENDBRANCH  12  13
ENDBRANCH   5   7
ENDBRANCH   2   3
ENDBRANCH   1   2
BRANCH   1  69
ATOM     69  C   UNL A   1      35.116  22.237  26.700  1.00  0.00     0.023 C 
BRANCH  69  70
ATOM     70  C   UNL A   1      33.618  22.028  26.910  1.00  0.00     0.116 C 
BRANCH  70  71
ATOM     71  N   UNL A   1      33.104  20.913  26.129  1.00  0.00    -0.352 N 
ATOM     72  C   UNL A   1      32.499  20.927  24.900  1.00  0.00     0.251 C 
ATOM     73  H   UNL A   1      33.204  20.025  26.543  1.00  0.00     0.163 HD
ATOM     74  O   UNL A   1      31.969  19.922  24.440  1.00  0.00    -0.269 OA
BRANCH  72  75
ATOM     75  C   UNL A   1      32.475  22.175  24.121  1.00  0.00     0.042 A 
ATOM     76  C   UNL A   1      33.601  22.572  23.391  1.00  0.00     0.015 A 
ATOM     77  C   UNL A   1      31.308  22.941  24.113  1.00  0.00     0.054 A 
ATOM     78  C   UNL A   1      33.571  23.773  22.684  1.00  0.00     0.024 A 
ATOM     79  C   UNL A   1      31.291  24.144  23.416  1.00  0.00     0.142 A 
ATOM     80  C   UNL A   1      32.411  24.559  22.705  1.00  0.00     0.103 A 
ATOM     81  F   UNL A   1      30.183  24.893  23.468  1.00  0.00    -0.206 F 
BRANCH  80  82
ATOM     82  S   UNL A   1      32.420  26.088  21.826  1.00  0.00     0.186 S 
ATOM     83  O   UNL A   1      33.817  26.322  21.498  1.00  0.00    -0.223 OA
ATOM     84  O   UNL A   1      31.456  25.956  20.744  1.00  0.00    -0.223 OA
BRANCH  82  85
ATOM     85  C   UNL A   1      31.894  27.419  22.868  1.00  0.00     0.188 C 
BRANCH  85  86
ATOM     86  C   UNL A   1      32.372  27.444  24.294  1.00  0.00     0.020 A 
ATOM     87  C   UNL A   1      33.700  27.564  24.676  1.00  0.00     0.016 A 
ATOM     88  S   UNL A   1      31.354  27.400  25.671  1.00  0.00    -0.148 S 
ATOM     89  C   UNL A   1      33.876  27.556  26.088  1.00  0.00     0.012 A 
ATOM     90  C   UNL A   1      32.677  27.438  26.749  1.00  0.00     0.065 A 
ENDBRANCH  85  86
ENDBRANCH  82  85
ENDBRANCH  80  82
ENDBRANCH  72  75
ENDBRANCH  70  71
ENDBRANCH  69  70
ENDBRANCH   1  69
TORSDOF 17
ENDMDL
MODEL 2
REMARK VINA RESULT:     -10.6      3.585      4.883
REMARK SMILES O=C(NCCCCNC(=O)c1ccc(S(=O)(=O)Cc2cccs2)c(F)c1)c1ccc(-c2c3nc(c(-c4ccc(S(=O)(=O)[O-])cc4)c4ccc([nH]4)c(-c4ccc(S(=O)(=O)[O-])cc4)c4nc(c(-c5ccc(S(=O)(=O)[O-])cc5)c5ccc2[nH]5)C=C4)C=C3)cc1
REMARK SMILES IDX 5 1 4 2 3 3 1 4 2 5 27 7 28 8 86 9 29 10 85 11 30 12 31 13
REMARK SMILES IDX 32 14 79 15 33 16 84 17 78 18 80 19 34 20 83 21 77 22 76 23
REMARK SMILES IDX 35 25 65 26 46 27 64 28 47 29 50 30 63 31 81 32 48 33 49 34
REMARK SMILES IDX 62 36 82 37 51 38 36 39 37 40 45 41 38 42 44 43 39 44 40 45
REMARK SMILES IDX 41 46 42 47 43 48 66 49 67 50 75 51 68 52 74 53 69 54 70 55
REMARK SMILES IDX 71 56 72 57 73 58 52 59 53 60 61 61 54 62 60 63 55 64 56 65
REMARK SMILES IDX 57 66 58 67 59 68 6 69 7 70 8 71 9 72 10 74 11 75 12 76
REMARK SMILES IDX 26 77 13 78 24 79 14 80 25 81 15 82 16 83 17 84 18 85 19 86
REMARK SMILES IDX 20 87 23 88 21 89 22 90
REMARK H PARENT 3 6 80 24 50 35 8 73
REMARK Flexibility Score: inf
ROOT
ATOM      1  C   UNL A   1      38.028  20.053  24.974  1.00  0.00     0.023 C 
ENDROOT
BRANCH   1   2
ATOM      2  C   UNL A   1      39.157  20.335  25.956  1.00  0.00     0.116 C 
BRANCH   2   3
ATOM      3  N   UNL A   1      40.177  19.299  25.950  1.00  0.00    -0.352 N 
ATOM      4  O   UNL A   1      42.270  18.464  25.873  1.00  0.00    -0.269 OA
ATOM      5  C   UNL A   1      41.541  19.437  26.050  1.00  0.00     0.251 C 
ATOM      6  H   UNL A   1      39.847  18.376  25.863  1.00  0.00     0.163 HD
BRANCH   5   7
ATOM      7  C   UNL A   1      42.124  20.762  26.350  1.00  0.00     0.039 A 
ATOM      8  C   UNL A   1      42.493  21.626  25.314  1.00  0.00     0.014 A 
ATOM      9  C   UNL A   1      42.287  21.151  27.682  1.00  0.00     0.014 A 
ATOM     10  C   UNL A   1      43.122  22.832  25.609  1.00  0.00     0.010 A 
ATOM     11  C   UNL A   1      42.851  22.395  27.977  1.00  0.00     0.010 A 
ATOM     12  C   UNL A   1      43.282  23.240  26.943  1.00  0.00    -0.014 A 
BRANCH  12  13
ATOM     13  C   UNL A   1      43.779  24.608  27.230  1.00  0.00     0.031 A 
ATOM     14  C   UNL A   1      42.845  25.714  27.634  1.00  0.00     0.074 A 
ATOM     15  C   UNL A   1      45.101  24.839  27.107  1.00  0.00     0.049 A 
ATOM     16  N   UNL A   1      43.129  26.964  27.899  1.00  0.00    -0.248 NA
ATOM     17  C   UNL A   1      41.415  25.386  27.749  1.00  0.00     0.031 C 
ATOM     18  C   UNL A   1      46.096  23.840  26.701  1.00  0.00     0.029 A 
ATOM     19  N   UNL A   1      45.839  25.976  27.308  1.00  0.00    -0.354 N 
ATOM     20  C   UNL A   1      41.917  27.578  28.189  1.00  0.00     0.074 A 
ATOM     21  C   UNL A   1      40.891  26.565  28.061  1.00  0.00     0.031 C 
ATOM     22  C   UNL A   1      47.313  24.402  26.703  1.00  0.00     0.029 A 
ATOM     23  C   UNL A   1      47.180  25.812  27.049  1.00  0.00     0.049 A 
ATOM     24  H   UNL A   1      45.448  26.828  27.609  1.00  0.00     0.167 HD
ATOM     25  C   UNL A   1      41.688  28.870  28.528  1.00  0.00     0.031 A 
ATOM     26  C   UNL A   1      48.189  26.702  27.050  1.00  0.00     0.031 A 
ATOM     27  C   UNL A   1      42.721  29.865  28.664  1.00  0.00     0.049 A 
ATOM     28  C   UNL A   1      47.895  28.132  27.396  1.00  0.00     0.074 A 
ATOM     29  C   UNL A   1      42.595  31.179  29.082  1.00  0.00     0.029 A 
ATOM     30  N   UNL A   1      44.060  29.666  28.369  1.00  0.00    -0.354 N 
ATOM     31  N   UNL A   1      46.753  28.671  27.749  1.00  0.00    -0.248 NA
ATOM     32  C   UNL A   1      49.019  29.073  27.335  1.00  0.00     0.031 C 
ATOM     33  C   UNL A   1      43.848  31.792  28.980  1.00  0.00     0.029 A 
ATOM     34  C   UNL A   1      44.763  30.846  28.548  1.00  0.00     0.049 A 
ATOM     35  H   UNL A   1      44.454  28.812  28.075  1.00  0.00     0.167 HD
ATOM     36  C   UNL A   1      47.023  30.018  27.953  1.00  0.00     0.074 A 
ATOM     37  C   UNL A   1      48.440  30.203  27.716  1.00  0.00     0.031 C 
ATOM     38  C   UNL A   1      46.171  31.015  28.295  1.00  0.00     0.031 A 
BRANCH  25  39
ATOM     39  C   UNL A   1      40.267  29.310  28.758  1.00  0.00    -0.014 A 
ATOM     40  C   UNL A   1      39.830  29.737  30.024  1.00  0.00     0.010 A 
ATOM     41  C   UNL A   1      39.391  29.411  27.661  1.00  0.00     0.010 A 
ATOM     42  C   UNL A   1      38.540  30.249  30.190  1.00  0.00     0.020 A 
ATOM     43  C   UNL A   1      38.106  29.940  27.819  1.00  0.00     0.020 A 
ATOM     44  C   UNL A   1      37.687  30.352  29.086  1.00  0.00     0.054 A 
BRANCH  44  45
ATOM     45  S   UNL A   1      36.043  31.086  29.319  1.00  0.00     0.124 S 
ATOM     46  O   UNL A   1      35.889  31.023  30.770  1.00  0.00    -0.237 OA
ATOM     47  O   UNL A   1      36.211  32.427  28.764  1.00  0.00    -0.237 OA
ATOM     48  O   UNL A   1      35.158  30.207  28.559  1.00  0.00    -0.744 OA
ENDBRANCH  44  45
ENDBRANCH  25  39
BRANCH  26  49
ATOM     49  C   UNL A   1      49.555  26.274  26.647  1.00  0.00    -0.014 A 
ATOM     50  C   UNL A   1      49.951  26.299  25.300  1.00  0.00     0.010 A 
ATOM     51  C   UNL A   1      50.470  25.839  27.624  1.00  0.00     0.010 A 
ATOM     52  C   UNL A   1      51.231  25.870  24.934  1.00  0.00     0.020 A 
ATOM     53  C   UNL A   1      51.759  25.438  27.266  1.00  0.00     0.020 A 
ATOM     54  C   UNL A   1      52.124  25.439  25.919  1.00  0.00     0.054 A 
BRANCH  54  55
ATOM     55  S   UNL A   1      53.789  24.911  25.428  1.00  0.00     0.124 S 
ATOM     56  O   UNL A   1      54.561  25.190  26.635  1.00  0.00    -0.237 OA
ATOM     57  O   UNL A   1      53.595  23.498  25.112  1.00  0.00    -0.237 OA
ATOM     58  O   UNL A   1      54.090  25.762  24.279  1.00  0.00    -0.744 OA
ENDBRANCH  54  55
ENDBRANCH  26  49
BRANCH  38  59
ATOM     59  C   UNL A   1      46.750  32.395  28.430  1.00  0.00    -0.014 A 
ATOM     60  C   UNL A   1      46.762  33.278  27.336  1.00  0.00     0.010 A 
ATOM     61  C   UNL A   1      47.241  32.831  29.674  1.00  0.00     0.010 A 
ATOM     62  C   UNL A   1      47.275  34.569  27.478  1.00  0.00     0.020 A 
ATOM     63  C   UNL A   1      47.730  34.130  29.826  1.00  0.00     0.020 A 
ATOM     64  C   UNL A   1      47.755  34.987  28.723  1.00  0.00     0.054 A 
BRANCH  64  65
ATOM     65  S   UNL A   1      48.366  36.686  28.896  1.00  0.00     0.124 S 
ATOM     66  O   UNL A   1      48.944  36.936  27.578  1.00  0.00    -0.237 OA
ATOM     67  O   UNL A   1      47.149  37.435  29.201  1.00  0.00    -0.237 OA
ATOM     68  O   UNL A   1      49.327  36.599  29.992  1.00  0.00    -0.744 OA
ENDBRANCH  64  65
ENDBRANCH  38  59
ENDBRANCH  12  13
ENDBRANCH   5   7
ENDBRANCH   2   3
ENDBRANCH   1   2
BRANCH   1  69
ATOM     69  C   UNL A   1      37.049  21.208  24.758  1.00  0.00     0.023 C 
BRANCH  69  70
ATOM     70  C   UNL A   1      35.573  20.838  24.890  1.00  0.00     0.116 C 
BRANCH  70  71
ATOM     71  N   UNL A   1      35.071  21.047  26.240  1.00  0.00    -0.352 N 
ATOM     72  C   UNL A   1      34.379  22.114  26.748  1.00  0.00     0.251 C 
ATOM     73  H   UNL A   1      35.257  20.320  26.877  1.00  0.00     0.163 HD
ATOM     74  O   UNL A   1      34.166  22.221  27.950  1.00  0.00    -0.269 OA
BRANCH  72  75
ATOM     75  C   UNL A   1      33.890  23.158  25.834  1.00  0.00     0.042 A 
ATOM     76  C   UNL A   1      34.726  24.217  25.461  1.00  0.00     0.015 A 
ATOM     77  C   UNL A   1      32.588  23.065  25.338  1.00  0.00     0.054 A 
ATOM     78  C   UNL A   1      34.236  25.214  24.619  1.00  0.00     0.024 A 
ATOM     79  C   UNL A   1      32.103  24.070  24.510  1.00  0.00     0.142 A 
ATOM     80  C   UNL A   1      32.918  25.137  24.151  1.00  0.00     0.103 A 
ATOM     81  F   UNL A   1      30.834  23.994  24.092  1.00  0.00    -0.206 F 
BRANCH  80  82
ATOM     82  S   UNL A   1      32.321  26.433  23.115  1.00  0.00     0.186 S 
ATOM     83  O   UNL A   1      33.455  27.328  22.945  1.00  0.00    -0.223 OA
ATOM     84  O   UNL A   1      31.743  25.800  21.940  1.00  0.00    -0.223 OA
BRANCH  82  85
ATOM     85  C   UNL A   1      31.044  27.353  23.925  1.00  0.00     0.188 C 
BRANCH  85  86
ATOM     86  C   UNL A   1      31.366  28.029  25.230  1.00  0.00     0.020 A 
ATOM     87  C   UNL A   1      31.368  27.396  26.464  1.00  0.00     0.016 A 
ATOM     88  S   UNL A   1      31.850  29.663  25.394  1.00  0.00    -0.148 S 
ATOM     89  C   UNL A   1      31.704  28.268  27.537  1.00  0.00     0.012 A 
ATOM     90  C   UNL A   1      31.958  29.544  27.093  1.00  0.00     0.065 A 
ENDBRANCH  85  86
ENDBRANCH  82  85
ENDBRANCH  80  82
ENDBRANCH  72  75
ENDBRANCH  70  71
ENDBRANCH  69  70
ENDBRANCH   1  69
TORSDOF 17
ENDMDL
MODEL 3
REMARK VINA RESULT:     -10.4      0.791      8.225
REMARK SMILES O=C(NCCCCNC(=O)c1ccc(S(=O)(=O)Cc2cccs2)c(F)c1)c1ccc(-c2c3nc(c(-c4ccc(S(=O)(=O)[O-])cc4)c4ccc([nH]4)c(-c4ccc(S(=O)(=O)[O-])cc4)c4nc(c(-c5ccc(S(=O)(=O)[O-])cc5)c5ccc2[nH]5)C=C4)C=C3)cc1
REMARK SMILES IDX 5 1 4 2 3 3 1 4 2 5 27 7 28 8 86 9 29 10 85 11 30 12 31 13
REMARK SMILES IDX 32 14 79 15 33 16 84 17 78 18 80 19 34 20 83 21 77 22 76 23
REMARK SMILES IDX 35 25 65 26 46 27 64 28 47 29 50 30 63 31 81 32 48 33 49 34
REMARK SMILES IDX 62 36 82 37 51 38 36 39 37 40 45 41 38 42 44 43 39 44 40 45
REMARK SMILES IDX 41 46 42 47 43 48 66 49 67 50 75 51 68 52 74 53 69 54 70 55
REMARK SMILES IDX 71 56 72 57 73 58 52 59 53 60 61 61 54 62 60 63 55 64 56 65
REMARK SMILES IDX 57 66 58 67 59 68 6 69 7 70 8 71 9 72 10 74 11 75 12 76
REMARK SMILES IDX 26 77 13 78 24 79 14 80 25 81 15 82 16 83 17 84 18 85 19 86
REMARK SMILES IDX 20 87 23 88 21 89 22 90
REMARK H PARENT 3 6 80 24 50 35 8 73
REMARK Flexibility Score: inf
ROOT
ATOM      1  C   UNL A   1      34.847  23.897  25.939  1.00  0.00     0.023 C 
ENDROOT
BRANCH   1   2
ATOM      2  C   UNL A   1      36.299  24.325  25.775  1.00  0.00     0.116 C 
BRANCH   2   3
ATOM      3  N   UNL A   1      37.217  23.198  25.744  1.00  0.00    -0.352 N 
ATOM      4  O   UNL A   1      39.206  22.152  25.911  1.00  0.00    -0.269 OA
ATOM      5  C   UNL A   1      38.528  23.148  26.150  1.00  0.00     0.251 C 
ATOM      6  H   UNL A   1      36.849  22.358  25.385  1.00  0.00     0.163 HD
BRANCH   5   7
ATOM      7  C   UNL A   1      39.122  24.305  26.855  1.00  0.00     0.039 A 
ATOM      8  C   UNL A   1      39.950  25.203  26.173  1.00  0.00     0.014 A 
ATOM      9  C   UNL A   1      38.834  24.501  28.208  1.00  0.00     0.014 A 
ATOM     10  C   UNL A   1      40.572  26.234  26.869  1.00  0.00     0.010 A 
ATOM     11  C   UNL A   1      39.402  25.581  28.888  1.00  0.00     0.010 A 
ATOM     12  C   UNL A   1      40.283  26.450  28.226  1.00  0.00    -0.014 A 
BRANCH  12  13
ATOM     13  C   UNL A   1      40.807  27.665  28.897  1.00  0.00     0.031 A 
ATOM     14  C   UNL A   1      42.190  27.704  29.483  1.00  0.00     0.074 A 
ATOM     15  C   UNL A   1      39.998  28.740  28.979  1.00  0.00     0.049 A 
ATOM     16  N   UNL A   1      42.780  28.687  30.115  1.00  0.00    -0.248 NA
ATOM     17  C   UNL A   1      43.016  26.493  29.354  1.00  0.00     0.031 C 
ATOM     18  C   UNL A   1      38.627  28.803  28.462  1.00  0.00     0.029 A 
ATOM     19  N   UNL A   1      40.202  29.981  29.523  1.00  0.00    -0.354 N 
ATOM     20  C   UNL A   1      44.033  28.210  30.480  1.00  0.00     0.074 A 
ATOM     21  C   UNL A   1      44.119  26.846  30.004  1.00  0.00     0.031 C 
ATOM     22  C   UNL A   1      38.123  30.023  28.693  1.00  0.00     0.029 A 
ATOM     23  C   UNL A   1      39.107  30.807  29.430  1.00  0.00     0.049 A 
ATOM     24  H   UNL A   1      41.051  30.255  29.941  1.00  0.00     0.167 HD
ATOM     25  C   UNL A   1      45.016  28.857  31.152  1.00  0.00     0.031 A 
ATOM     26  C   UNL A   1      38.897  32.045  29.914  1.00  0.00     0.031 A 
ATOM     27  C   UNL A   1      44.922  30.220  31.608  1.00  0.00     0.049 A 
ATOM     28  C   UNL A   1      39.995  32.718  30.684  1.00  0.00     0.074 A 
ATOM     29  C   UNL A   1      45.897  30.986  32.226  1.00  0.00     0.029 A 
ATOM     30  N   UNL A   1      43.789  31.012  31.516  1.00  0.00    -0.354 N 
ATOM     31  N   UNL A   1      41.203  32.279  30.943  1.00  0.00    -0.248 NA
ATOM     32  C   UNL A   1      39.700  34.047  31.233  1.00  0.00     0.031 C 
ATOM     33  C   UNL A   1      45.333  32.220  32.564  1.00  0.00     0.029 A 
ATOM     34  C   UNL A   1      44.025  32.242  32.110  1.00  0.00     0.049 A 
ATOM     35  H   UNL A   1      42.943  30.742  31.092  1.00  0.00     0.167 HD
ATOM     36  C   UNL A   1      41.813  33.279  31.687  1.00  0.00     0.074 A 
ATOM     37  C   UNL A   1      40.854  34.358  31.808  1.00  0.00     0.031 C 
ATOM     38  C   UNL A   1      43.054  33.298  32.232  1.00  0.00     0.031 A 
BRANCH  25  39
ATOM     39  C   UNL A   1      46.283  28.106  31.466  1.00  0.00    -0.014 A 
ATOM     40  C   UNL A   1      46.393  27.311  32.619  1.00  0.00     0.010 A 
ATOM     41  C   UNL A   1      47.332  28.101  30.527  1.00  0.00     0.010 A 
ATOM     42  C   UNL A   1      47.535  26.531  32.833  1.00  0.00     0.020 A 
ATOM     43  C   UNL A   1      48.467  27.309  30.729  1.00  0.00     0.020 A 
ATOM     44  C   UNL A   1      48.563  26.532  31.885  1.00  0.00     0.054 A 
BRANCH  44  45
ATOM     45  S   UNL A   1      50.000  25.457  32.155  1.00  0.00     0.124 S 
ATOM     46  O   UNL A   1      51.010  26.412  32.605  1.00  0.00    -0.237 OA
ATOM     47  O   UNL A   1      49.517  24.528  33.174  1.00  0.00    -0.237 OA
ATOM     48  O   UNL A   1      50.244  24.865  30.842  1.00  0.00    -0.744 OA
ENDBRANCH  44  45
ENDBRANCH  25  39
BRANCH  26  49
ATOM     49  C   UNL A   1      37.571  32.695  29.739  1.00  0.00    -0.014 A 
ATOM     50  C   UNL A   1      36.648  32.748  30.796  1.00  0.00     0.010 A 
ATOM     51  C   UNL A   1      37.229  33.269  28.500  1.00  0.00     0.010 A 
ATOM     52  C   UNL A   1      35.396  33.340  30.609  1.00  0.00     0.020 A 
ATOM     53  C   UNL A   1      35.991  33.887  28.318  1.00  0.00     0.020 A 
ATOM     54  C   UNL A   1      35.074  33.903  29.370  1.00  0.00     0.054 A 
BRANCH  54  55
ATOM     55  S   UNL A   1      33.455  34.690  29.153  1.00  0.00     0.124 S 
ATOM     56  O   UNL A   1      32.906  34.628  30.504  1.00  0.00    -0.237 OA
ATOM     57  O   UNL A   1      33.811  36.024  28.675  1.00  0.00    -0.237 OA
ATOM     58  O   UNL A   1      32.793  33.840  28.166  1.00  0.00    -0.744 OA
ENDBRANCH  54  55
ENDBRANCH  26  49
BRANCH  38  59
ATOM     59  C   UNL A   1      43.441  34.524  33.010  1.00  0.00    -0.014 A 
ATOM     60  C   UNL A   1      43.844  35.697  32.348  1.00  0.00     0.010 A 
ATOM     61  C   UNL A   1      43.352  34.520  34.414  1.00  0.00     0.010 A 
ATOM     62  C   UNL A   1      44.173  36.841  33.078  1.00  0.00     0.020 A 
ATOM     63  C   UNL A   1      43.656  35.671  35.146  1.00  0.00     0.020 A 
ATOM     64  C   UNL A   1      44.076  36.820  34.472  1.00  0.00     0.054 A 
BRANCH  64  65
ATOM     65  S   UNL A   1      44.457  38.335  35.395  1.00  0.00     0.124 S 
ATOM     66  O   UNL A   1      43.879  39.366  34.537  1.00  0.00    -0.237 OA
ATOM     67  O   UNL A   1      43.770  38.117  36.666  1.00  0.00    -0.237 OA
ATOM     68  O   UNL A   1      45.915  38.335  35.474  1.00  0.00    -0.744 OA
ENDBRANCH  64  65
ENDBRANCH  38  59
ENDBRANCH  12  13
ENDBRANCH   5   7
ENDBRANCH   2   3
ENDBRANCH   1   2
BRANCH   1  69
ATOM     69  C   UNL A   1      34.617  22.724  26.893  1.00  0.00     0.023 C 
BRANCH  69  70
ATOM     70  C   UNL A   1      33.154  22.334  27.098  1.00  0.00     0.116 C 
BRANCH  70  71
ATOM     71  N   UNL A   1      32.800  21.124  26.373  1.00  0.00    -0.352 N 
ATOM     72  C   UNL A   1      32.349  20.989  25.087  1.00  0.00     0.251 C 
ATOM     73  H   UNL A   1      32.898  20.284  26.878  1.00  0.00     0.163 HD
ATOM     74  O   UNL A   1      31.935  19.915  24.665  1.00  0.00    -0.269 OA
BRANCH  72  75
ATOM     75  C   UNL A   1      32.351  22.160  24.195  1.00  0.00     0.042 A 
ATOM     76  C   UNL A   1      33.330  22.289  23.203  1.00  0.00     0.015 A 
ATOM     77  C   UNL A   1      31.355  23.125  24.348  1.00  0.00     0.054 A 
ATOM     78  C   UNL A   1      33.336  23.420  22.387  1.00  0.00     0.024 A 
ATOM     79  C   UNL A   1      31.375  24.256  23.540  1.00  0.00     0.142 A 
ATOM     80  C   UNL A   1      32.355  24.404  22.566  1.00  0.00     0.103 A 
ATOM     81  F   UNL A   1      30.446  25.198  23.741  1.00  0.00    -0.206 F 
BRANCH  80  82
ATOM     82  S   UNL A   1      32.412  25.837  21.538  1.00  0.00     0.186 S 
ATOM     83  O   UNL A   1      33.206  25.440  20.387  1.00  0.00    -0.223 OA
ATOM     84  O   UNL A   1      31.036  26.260  21.331  1.00  0.00    -0.223 OA
BRANCH  82  85
ATOM     85  C   UNL A   1      33.275  27.157  22.342  1.00  0.00     0.188 C 
BRANCH  85  86
ATOM     86  C   UNL A   1      32.930  27.473  23.772  1.00  0.00     0.020 A 
ATOM     87  C   UNL A   1      33.660  27.044  24.870  1.00  0.00     0.016 A 
ATOM     88  S   UNL A   1      31.627  28.467  24.270  1.00  0.00    -0.148 S 
ATOM     89  C   UNL A   1      33.111  27.479  26.108  1.00  0.00     0.012 A 
ATOM     90  C   UNL A   1      31.980  28.238  25.923  1.00  0.00     0.065 A 
ENDBRANCH  85  86
ENDBRANCH  82  85
ENDBRANCH  80  82
ENDBRANCH  72  75
ENDBRANCH  70  71
ENDBRANCH  69  70
ENDBRANCH   1  69
TORSDOF 17
ENDMDL
