MODEL 1
REMARK VINA RESULT:     -10.7      0.000      0.000
REMARK SMILES O=C(NCCCCNC(=O)c1ccc(C[NH2+][C@@H]2CCCC[C@H]2O)nc1)c1ccc(-c2c3nc(c(-c4ccc(S(=O)(=O)[O-])cc4)c4ccc([nH]4)c(-c4ccc(S(=O)(=O)[O-])cc4)c4nc(c(-c5ccc(S(=O)(=O)[O-])cc5)c5ccc2[nH]5)C=C4)C=C3)cc1
REMARK SMILES IDX 6 1 5 2 4 3 3 4 1 5 2 6 26 8 27 9 85 10 28 11 84 12 29 13
REMARK SMILES IDX 30 14 31 15 78 16 32 17 83 18 77 19 79 20 33 21 82 22 76 23
REMARK SMILES IDX 75 24 34 26 64 27 45 28 63 29 46 30 49 31 62 32 80 33 47 34
REMARK SMILES IDX 48 35 61 37 81 38 50 39 35 40 36 41 44 42 37 43 43 44 38 45
REMARK SMILES IDX 39 46 40 47 41 48 42 49 65 50 66 51 74 52 67 53 73 54 68 55
REMARK SMILES IDX 69 56 70 57 71 58 72 59 51 60 52 61 60 62 53 63 59 64 54 65
REMARK SMILES IDX 55 66 56 67 57 68 58 69 7 70 8 71 9 72 10 74 11 75 12 76
REMARK SMILES IDX 25 77 13 78 24 79 14 80 15 81 16 82 17 85 18 86 22 87 19 88
REMARK SMILES IDX 21 89 20 90 23 91
REMARK H PARENT 3 7 79 25 49 36 8 73 16 83 16 84 23 92
REMARK Flexibility Score: inf
ROOT
ATOM      1  C   UNL A   1      33.243  29.297  24.803  1.00  0.00     0.023 C 
ENDROOT
BRANCH   1   2
ATOM      2  C   UNL A   1      33.479  28.121  25.746  1.00  0.00     0.023 C 
BRANCH   2   3
ATOM      3  C   UNL A   1      33.363  28.438  27.231  1.00  0.00     0.116 C 
BRANCH   3   4
ATOM      4  N   UNL A   1      33.348  29.864  27.524  1.00  0.00    -0.352 N 
ATOM      5  O   UNL A   1      34.143  31.835  28.283  1.00  0.00    -0.269 OA
ATOM      6  C   UNL A   1      34.363  30.660  28.005  1.00  0.00     0.251 C 
ATOM      7  H   UNL A   1      32.493  30.322  27.355  1.00  0.00     0.163 HD
BRANCH   6   8
ATOM      8  C   UNL A   1      35.703  30.077  28.227  1.00  0.00     0.039 A 
ATOM      9  C   UNL A   1      36.060  29.568  29.477  1.00  0.00     0.014 A 
ATOM     10  C   UNL A   1      36.632  30.089  27.182  1.00  0.00     0.014 A 
ATOM     11  C   UNL A   1      37.388  29.245  29.733  1.00  0.00     0.010 A 
ATOM     12  C   UNL A   1      37.948  29.679  27.420  1.00  0.00     0.010 A 
ATOM     13  C   UNL A   1      38.351  29.306  28.711  1.00  0.00    -0.014 A 
BRANCH  13  14
ATOM     14  C   UNL A   1      39.765  28.975  29.027  1.00  0.00     0.031 A 
ATOM     15  C   UNL A   1      40.628  29.923  29.818  1.00  0.00     0.074 A 
ATOM     16  C   UNL A   1      40.254  27.778  28.649  1.00  0.00     0.049 A 
ATOM     17  N   UNL A   1      41.855  29.756  30.244  1.00  0.00    -0.248 NA
ATOM     18  C   UNL A   1      40.048  31.229  30.171  1.00  0.00     0.031 C 
ATOM     19  C   UNL A   1      39.521  26.774  27.874  1.00  0.00     0.029 A 
ATOM     20  N   UNL A   1      41.468  27.188  28.894  1.00  0.00    -0.354 N 
ATOM     21  C   UNL A   1      42.204  30.940  30.885  1.00  0.00     0.074 A 
ATOM     22  C   UNL A   1      41.064  31.826  30.779  1.00  0.00     0.031 C 
ATOM     23  C   UNL A   1      40.275  25.669  27.763  1.00  0.00     0.029 A 
ATOM     24  C   UNL A   1      41.559  25.904  28.412  1.00  0.00     0.049 A 
ATOM     25  H   UNL A   1      42.203  27.641  29.367  1.00  0.00     0.167 HD
ATOM     26  C   UNL A   1      43.365  31.261  31.506  1.00  0.00     0.031 A 
ATOM     27  C   UNL A   1      42.562  25.008  28.485  1.00  0.00     0.031 A 
ATOM     28  C   UNL A   1      44.491  30.375  31.633  1.00  0.00     0.049 A 
ATOM     29  C   UNL A   1      43.829  25.381  29.199  1.00  0.00     0.074 A 
ATOM     30  C   UNL A   1      45.698  30.600  32.274  1.00  0.00     0.029 A 
ATOM     31  N   UNL A   1      44.551  29.092  31.112  1.00  0.00    -0.354 N 
ATOM     32  N   UNL A   1      44.127  26.499  29.815  1.00  0.00    -0.248 NA
ATOM     33  C   UNL A   1      44.892  24.368  29.229  1.00  0.00     0.031 C 
ATOM     34  C   UNL A   1      46.500  29.464  32.112  1.00  0.00     0.029 A 
ATOM     35  C   UNL A   1      45.777  28.517  31.406  1.00  0.00     0.049 A 
ATOM     36  H   UNL A   1      43.828  28.653  30.608  1.00  0.00     0.167 HD
ATOM     37  C   UNL A   1      45.407  26.318  30.322  1.00  0.00     0.074 A 
ATOM     38  C   UNL A   1      45.820  24.978  29.954  1.00  0.00     0.031 C 
ATOM     39  C   UNL A   1      46.174  27.185  31.029  1.00  0.00     0.031 A 
BRANCH  26  40
ATOM     40  C   UNL A   1      43.485  32.649  32.078  1.00  0.00    -0.014 A 
ATOM     41  C   UNL A   1      44.203  33.657  31.410  1.00  0.00     0.010 A 
ATOM     42  C   UNL A   1      42.836  32.959  33.288  1.00  0.00     0.010 A 
ATOM     43  C   UNL A   1      44.306  34.938  31.962  1.00  0.00     0.020 A 
ATOM     44  C   UNL A   1      42.919  34.244  33.832  1.00  0.00     0.020 A 
ATOM     45  C   UNL A   1      43.670  35.220  33.174  1.00  0.00     0.054 A 
BRANCH  45  46
ATOM     46  S   UNL A   1      43.810  36.891  33.869  1.00  0.00     0.124 S 
ATOM     47  O   UNL A   1      42.695  36.915  34.813  1.00  0.00    -0.237 OA
ATOM     48  O   UNL A   1      45.140  36.882  34.470  1.00  0.00    -0.237 OA
ATOM     49  O   UNL A   1      43.661  37.762  32.706  1.00  0.00    -0.744 OA
ENDBRANCH  45  46
ENDBRANCH  26  40
BRANCH  27  50
ATOM     50  C   UNL A   1      42.390  23.664  27.878  1.00  0.00    -0.014 A 
ATOM     51  C   UNL A   1      42.864  23.403  26.581  1.00  0.00     0.010 A 
ATOM     52  C   UNL A   1      41.785  22.627  28.611  1.00  0.00     0.010 A 
ATOM     53  C   UNL A   1      42.730  22.127  26.024  1.00  0.00     0.020 A 
ATOM     54  C   UNL A   1      41.672  21.346  28.066  1.00  0.00     0.020 A 
ATOM     55  C   UNL A   1      42.136  21.107  26.772  1.00  0.00     0.054 A 
BRANCH  55  56
ATOM     56  S   UNL A   1      42.036  19.440  26.063  1.00  0.00     0.124 S 
ATOM     57  O   UNL A   1      42.574  18.619  27.144  1.00  0.00    -0.237 OA
ATOM     58  O   UNL A   1      40.607  19.288  25.801  1.00  0.00    -0.237 OA
ATOM     59  O   UNL A   1      42.872  19.530  24.867  1.00  0.00    -0.744 OA
ENDBRANCH  55  56
ENDBRANCH  27  50
BRANCH  39  60
ATOM     60  C   UNL A   1      47.523  26.696  31.473  1.00  0.00    -0.014 A 
ATOM     61  C   UNL A   1      47.700  26.098  32.733  1.00  0.00     0.010 A 
ATOM     62  C   UNL A   1      48.624  26.817  30.607  1.00  0.00     0.010 A 
ATOM     63  C   UNL A   1      48.966  25.665  33.135  1.00  0.00     0.020 A 
ATOM     64  C   UNL A   1      49.887  26.366  30.997  1.00  0.00     0.020 A 
ATOM     65  C   UNL A   1      50.053  25.809  32.268  1.00  0.00     0.054 A 
BRANCH  65  66
ATOM     66  S   UNL A   1      51.686  25.222  32.799  1.00  0.00     0.124 S 
ATOM     67  O   UNL A   1      51.769  23.922  32.138  1.00  0.00    -0.237 OA
ATOM     68  O   UNL A   1      52.586  26.250  32.280  1.00  0.00    -0.237 OA
ATOM     69  O   UNL A   1      51.578  25.176  34.256  1.00  0.00    -0.744 OA
ENDBRANCH  65  66
ENDBRANCH  39  60
ENDBRANCH  13  14
ENDBRANCH   6   8
ENDBRANCH   3   4
ENDBRANCH   2   3
ENDBRANCH   1   2
BRANCH   1  70
ATOM     70  C   UNL A   1      33.213  28.941  23.320  1.00  0.00     0.116 C 
BRANCH  70  71
ATOM     71  N   UNL A   1      31.957  29.306  22.678  1.00  0.00    -0.352 N 
ATOM     72  C   UNL A   1      30.839  28.535  22.477  1.00  0.00     0.252 C 
ATOM     73  H   UNL A   1      31.903  30.230  22.342  1.00  0.00     0.163 HD
ATOM     74  O   UNL A   1      29.890  28.940  21.816  1.00  0.00    -0.269 OA
BRANCH  72  75
ATOM     75  C   UNL A   1      30.801  27.190  23.056  1.00  0.00     0.058 A 
ATOM     76  C   UNL A   1      30.256  26.962  24.316  1.00  0.00     0.017 A 
ATOM     77  C   UNL A   1      31.380  26.139  22.368  1.00  0.00     0.125 A 
ATOM     78  C   UNL A   1      30.391  25.699  24.877  1.00  0.00     0.030 A 
ATOM     79  N   UNL A   1      31.518  24.898  22.892  1.00  0.00    -0.255 NA
ATOM     80  C   UNL A   1      31.038  24.696  24.145  1.00  0.00     0.094 A 
BRANCH  80  81
ATOM     81  C   UNL A   1      31.239  23.328  24.773  1.00  0.00     0.318 C 
BRANCH  81  82
ATOM     82  N   UNL A   1      32.654  22.953  24.799  1.00  0.00    -0.337 N 
ATOM     83  H   UNL A   1      33.119  23.421  24.021  1.00  0.00     0.346 HD
ATOM     84  H   UNL A   1      32.683  21.936  24.733  1.00  0.00     0.346 HD
BRANCH  82  85
ATOM     85  C   UNL A   1      33.364  23.308  26.036  1.00  0.00     0.211 C 
ATOM     86  C   UNL A   1      34.270  24.514  25.698  1.00  0.00     0.068 C 
ATOM     87  C   UNL A   1      34.227  22.174  26.659  1.00  0.00     0.172 C 
ATOM     88  C   UNL A   1      35.452  24.136  24.799  1.00  0.00     0.006 C 
ATOM     89  C   UNL A   1      35.390  21.773  25.750  1.00  0.00     0.038 C 
ATOM     90  C   UNL A   1      36.261  22.966  25.353  1.00  0.00     0.003 C 
BRANCH  87  91
ATOM     91  O   UNL A   1      34.724  22.558  27.945  1.00  0.00    -0.387 OA
ATOM     92  H   UNL A   1      34.907  23.510  27.951  1.00  0.00     0.211 HD
ENDBRANCH  87  91
ENDBRANCH  82  85
ENDBRANCH  81  82
ENDBRANCH  80  81
ENDBRANCH  72  75
ENDBRANCH  70  71
ENDBRANCH   1  70
TORSDOF 18
ENDMDL
MODEL 2
REMARK VINA RESULT:     -10.5      2.585      9.384
REMARK SMILES O=C(NCCCCNC(=O)c1ccc(C[NH2+][C@@H]2CCCC[C@H]2O)nc1)c1ccc(-c2c3nc(c(-c4ccc(S(=O)(=O)[O-])cc4)c4ccc([nH]4)c(-c4ccc(S(=O)(=O)[O-])cc4)c4nc(c(-c5ccc(S(=O)(=O)[O-])cc5)c5ccc2[nH]5)C=C4)C=C3)cc1
REMARK SMILES IDX 6 1 5 2 4 3 3 4 1 5 2 6 26 8 27 9 85 10 28 11 84 12 29 13
REMARK SMILES IDX 30 14 31 15 78 16 32 17 83 18 77 19 79 20 33 21 82 22 76 23
REMARK SMILES IDX 75 24 34 26 64 27 45 28 63 29 46 30 49 31 62 32 80 33 47 34
REMARK SMILES IDX 48 35 61 37 81 38 50 39 35 40 36 41 44 42 37 43 43 44 38 45
REMARK SMILES IDX 39 46 40 47 41 48 42 49 65 50 66 51 74 52 67 53 73 54 68 55
REMARK SMILES IDX 69 56 70 57 71 58 72 59 51 60 52 61 60 62 53 63 59 64 54 65
REMARK SMILES IDX 55 66 56 67 57 68 58 69 7 70 8 71 9 72 10 74 11 75 12 76
REMARK SMILES IDX 25 77 13 78 24 79 14 80 15 81 16 82 17 85 18 86 22 87 19 88
REMARK SMILES IDX 21 89 20 90 23 91
REMARK H PARENT 3 7 79 25 49 36 8 73 16 83 16 84 23 92
REMARK Flexibility Score: inf
ROOT
ATOM      1  C   UNL A   1      35.744  21.485  24.633  1.00  0.00     0.023 C 
ENDROOT
BRANCH   1   2
ATOM      2  C   UNL A   1      35.937  22.966  24.320  1.00  0.00     0.023 C 
BRANCH   2   3
ATOM      3  C   UNL A   1      37.101  23.642  25.034  1.00  0.00     0.116 C 
BRANCH   3   4
ATOM      4  N   UNL A   1      38.191  22.733  25.359  1.00  0.00    -0.352 N 
ATOM      5  O   UNL A   1      40.181  22.104  26.218  1.00  0.00    -0.269 OA
ATOM      6  C   UNL A   1      39.311  22.965  26.126  1.00  0.00     0.251 C 
ATOM      7  H   UNL A   1      38.119  21.830  24.976  1.00  0.00     0.163 HD
BRANCH   6   8
ATOM      8  C   UNL A   1      39.476  24.271  26.799  1.00  0.00     0.039 A 
ATOM      9  C   UNL A   1      40.186  25.304  26.183  1.00  0.00     0.014 A 
ATOM     10  C   UNL A   1      38.959  24.445  28.085  1.00  0.00     0.014 A 
ATOM     11  C   UNL A   1      40.533  26.432  26.917  1.00  0.00     0.010 A 
ATOM     12  C   UNL A   1      39.236  25.620  28.791  1.00  0.00     0.010 A 
ATOM     13  C   UNL A   1      40.071  26.600  28.234  1.00  0.00    -0.014 A 
BRANCH  13  14
ATOM     14  C   UNL A   1      40.481  27.808  28.997  1.00  0.00     0.031 A 
ATOM     15  C   UNL A   1      41.879  27.946  29.543  1.00  0.00     0.074 A 
ATOM     16  C   UNL A   1      39.600  28.816  29.145  1.00  0.00     0.049 A 
ATOM     17  N   UNL A   1      42.421  28.964  30.163  1.00  0.00    -0.248 NA
ATOM     18  C   UNL A   1      42.783  26.796  29.381  1.00  0.00     0.031 C 
ATOM     19  C   UNL A   1      38.215  28.802  28.668  1.00  0.00     0.029 A 
ATOM     20  N   UNL A   1      39.746  30.059  29.705  1.00  0.00    -0.354 N 
ATOM     21  C   UNL A   1      43.714  28.569  30.492  1.00  0.00     0.074 A 
ATOM     22  C   UNL A   1      43.871  27.212  30.016  1.00  0.00     0.031 C 
ATOM     23  C   UNL A   1      37.659  30.001  28.897  1.00  0.00     0.029 A 
ATOM     24  C   UNL A   1      38.628  30.850  29.580  1.00  0.00     0.049 A 
ATOM     25  H   UNL A   1      40.571  30.356  30.153  1.00  0.00     0.167 HD
ATOM     26  C   UNL A   1      44.682  29.272  31.130  1.00  0.00     0.031 A 
ATOM     27  C   UNL A   1      38.404  32.120  29.968  1.00  0.00     0.031 A 
ATOM     28  C   UNL A   1      44.536  30.629  31.584  1.00  0.00     0.049 A 
ATOM     29  C   UNL A   1      39.501  32.883  30.652  1.00  0.00     0.074 A 
ATOM     30  C   UNL A   1      45.472  31.434  32.210  1.00  0.00     0.029 A 
ATOM     31  N   UNL A   1      43.381  31.385  31.458  1.00  0.00    -0.354 N 
ATOM     32  N   UNL A   1      40.721  32.495  30.933  1.00  0.00    -0.248 NA
ATOM     33  C   UNL A   1      39.188  34.257  31.067  1.00  0.00     0.031 C 
ATOM     34  C   UNL A   1      44.873  32.667  32.492  1.00  0.00     0.029 A 
ATOM     35  C   UNL A   1      43.577  32.643  32.005  1.00  0.00     0.049 A 
ATOM     36  H   UNL A   1      42.545  31.075  31.041  1.00  0.00     0.167 HD
ATOM     37  C   UNL A   1      41.330  33.584  31.543  1.00  0.00     0.074 A 
ATOM     38  C   UNL A   1      40.349  34.651  31.576  1.00  0.00     0.031 C 
ATOM     39  C   UNL A   1      42.589  33.691  32.034  1.00  0.00     0.031 A 
BRANCH  26  40
ATOM     40  C   UNL A   1      45.986  28.568  31.399  1.00  0.00    -0.014 A 
ATOM     41  C   UNL A   1      46.179  27.805  32.564  1.00  0.00     0.010 A 
ATOM     42  C   UNL A   1      47.023  28.644  30.451  1.00  0.00     0.010 A 
ATOM     43  C   UNL A   1      47.400  27.164  32.796  1.00  0.00     0.020 A 
ATOM     44  C   UNL A   1      48.238  27.987  30.669  1.00  0.00     0.020 A 
ATOM     45  C   UNL A   1      48.425  27.267  31.851  1.00  0.00     0.054 A 
BRANCH  45  46
ATOM     46  S   UNL A   1      49.999  26.422  32.168  1.00  0.00     0.124 S 
ATOM     47  O   UNL A   1      50.949  27.291  31.478  1.00  0.00    -0.237 OA
ATOM     48  O   UNL A   1      50.085  26.433  33.625  1.00  0.00    -0.237 OA
ATOM     49  O   UNL A   1      49.810  25.103  31.568  1.00  0.00    -0.744 OA
ENDBRANCH  45  46
ENDBRANCH  26  40
BRANCH  27  50
ATOM     50  C   UNL A   1      37.086  32.748  29.696  1.00  0.00    -0.014 A 
ATOM     51  C   UNL A   1      36.086  32.761  30.683  1.00  0.00     0.010 A 
ATOM     52  C   UNL A   1      36.841  33.370  28.459  1.00  0.00     0.010 A 
ATOM     53  C   UNL A   1      34.858  33.382  30.435  1.00  0.00     0.020 A 
ATOM     54  C   UNL A   1      35.623  34.012  28.217  1.00  0.00     0.020 A 
ATOM     55  C   UNL A   1      34.636  34.004  29.203  1.00  0.00     0.054 A 
BRANCH  55  56
ATOM     56  S   UNL A   1      33.065  34.868  28.925  1.00  0.00     0.124 S 
ATOM     57  O   UNL A   1      32.405  33.991  27.962  1.00  0.00    -0.237 OA
ATOM     58  O   UNL A   1      32.476  34.900  30.262  1.00  0.00    -0.237 OA
ATOM     59  O   UNL A   1      33.482  36.170  28.408  1.00  0.00    -0.744 OA
ENDBRANCH  55  56
ENDBRANCH  27  50
BRANCH  39  60
ATOM     60  C   UNL A   1      42.982  35.018  32.621  1.00  0.00    -0.014 A 
ATOM     61  C   UNL A   1      42.804  35.287  33.990  1.00  0.00     0.010 A 
ATOM     62  C   UNL A   1      43.557  35.999  31.795  1.00  0.00     0.010 A 
ATOM     63  C   UNL A   1      43.159  36.532  34.514  1.00  0.00     0.020 A 
ATOM     64  C   UNL A   1      43.932  37.238  32.320  1.00  0.00     0.020 A 
ATOM     65  C   UNL A   1      43.714  37.503  33.675  1.00  0.00     0.054 A 
BRANCH  65  66
ATOM     66  S   UNL A   1      44.188  39.107  34.377  1.00  0.00     0.124 S 
ATOM     67  O   UNL A   1      45.502  39.322  33.778  1.00  0.00    -0.237 OA
ATOM     68  O   UNL A   1      43.128  39.995  33.904  1.00  0.00    -0.237 OA
ATOM     69  O   UNL A   1      44.191  38.864  35.818  1.00  0.00    -0.744 OA
ENDBRANCH  65  66
ENDBRANCH  39  60
ENDBRANCH  13  14
ENDBRANCH   6   8
ENDBRANCH   3   4
ENDBRANCH   2   3
ENDBRANCH   1   2
BRANCH   1  70
ATOM     70  C   UNL A   1      34.915  21.189  25.878  1.00  0.00     0.116 C 
BRANCH  70  71
ATOM     71  N   UNL A   1      34.059  20.022  25.721  1.00  0.00    -0.352 N 
ATOM     72  C   UNL A   1      32.771  19.959  25.248  1.00  0.00     0.252 C 
ATOM     73  H   UNL A   1      34.455  19.162  25.991  1.00  0.00     0.163 HD
ATOM     74  O   UNL A   1      32.127  18.917  25.279  1.00  0.00    -0.269 OA
BRANCH  72  75
ATOM     75  C   UNL A   1      32.159  21.178  24.715  1.00  0.00     0.058 A 
ATOM     76  C   UNL A   1      32.290  21.525  23.374  1.00  0.00     0.017 A 
ATOM     77  C   UNL A   1      31.497  22.036  25.575  1.00  0.00     0.125 A 
ATOM     78  C   UNL A   1      31.825  22.766  22.962  1.00  0.00     0.030 A 
ATOM     79  N   UNL A   1      31.030  23.248  25.195  1.00  0.00    -0.255 NA
ATOM     80  C   UNL A   1      31.213  23.607  23.900  1.00  0.00     0.094 A 
BRANCH  80  81
ATOM     81  C   UNL A   1      30.752  24.990  23.471  1.00  0.00     0.318 C 
BRANCH  81  82
ATOM     82  N   UNL A   1      31.253  26.026  24.375  1.00  0.00    -0.337 N 
ATOM     83  H   UNL A   1      32.234  25.828  24.571  1.00  0.00     0.346 HD
ATOM     84  H   UNL A   1      30.661  25.993  25.205  1.00  0.00     0.346 HD
BRANCH  82  85
ATOM     85  C   UNL A   1      31.159  27.397  23.855  1.00  0.00     0.211 C 
ATOM     86  C   UNL A   1      31.887  27.406  22.492  1.00  0.00     0.068 C 
ATOM     87  C   UNL A   1      31.764  28.500  24.769  1.00  0.00     0.172 C 
ATOM     88  C   UNL A   1      33.407  27.265  22.628  1.00  0.00     0.006 C 
ATOM     89  C   UNL A   1      33.277  28.345  24.932  1.00  0.00     0.038 C 
ATOM     90  C   UNL A   1      34.008  28.287  23.590  1.00  0.00     0.003 C 
BRANCH  87  91
ATOM     91  O   UNL A   1      31.460  29.806  24.264  1.00  0.00    -0.387 OA
ATOM     92  H   UNL A   1      31.896  29.930  23.407  1.00  0.00     0.211 HD
ENDBRANCH  87  91
ENDBRANCH  82  85
ENDBRANCH  81  82
ENDBRANCH  80  81
ENDBRANCH  72  75
ENDBRANCH  70  71
ENDBRANCH   1  70
TORSDOF 18
ENDMDL
MODEL 3
REMARK VINA RESULT:     -10.4      1.255      8.364
REMARK SMILES O=C(NCCCCNC(=O)c1ccc(C[NH2+][C@@H]2CCCC[C@H]2O)nc1)c1ccc(-c2c3nc(c(-c4ccc(S(=O)(=O)[O-])cc4)c4ccc([nH]4)c(-c4ccc(S(=O)(=O)[O-])cc4)c4nc(c(-c5ccc(S(=O)(=O)[O-])cc5)c5ccc2[nH]5)C=C4)C=C3)cc1
REMARK SMILES IDX 6 1 5 2 4 3 3 4 1 5 2 6 26 8 27 9 85 10 28 11 84 12 29 13
REMARK SMILES IDX 30 14 31 15 78 16 32 17 83 18 77 19 79 20 33 21 82 22 76 23
REMARK SMILES IDX 75 24 34 26 64 27 45 28 63 29 46 30 49 31 62 32 80 33 47 34
REMARK SMILES IDX 48 35 61 37 81 38 50 39 35 40 36 41 44 42 37 43 43 44 38 45
REMARK SMILES IDX 39 46 40 47 41 48 42 49 65 50 66 51 74 52 67 53 73 54 68 55
REMARK SMILES IDX 69 56 70 57 71 58 72 59 51 60 52 61 60 62 53 63 59 64 54 65
REMARK SMILES IDX 55 66 56 67 57 68 58 69 7 70 8 71 9 72 10 74 11 75 12 76
REMARK SMILES IDX 25 77 13 78 24 79 14 80 15 81 16 82 17 85 18 86 22 87 19 88
REMARK SMILES IDX 21 89 20 90 23 91
REMARK H PARENT 3 7 79 25 49 36 8 73 16 83 16 84 23 92
REMARK Flexibility Score: inf
ROOT
ATOM      1  C   UNL A   1      33.193  29.260  24.813  1.00  0.00     0.023 C 
ENDROOT
BRANCH   1   2
ATOM      2  C   UNL A   1      33.233  28.033  25.719  1.00  0.00     0.023 C 
BRANCH   2   3
ATOM      3  C   UNL A   1      33.369  28.321  27.209  1.00  0.00     0.116 C 
BRANCH   3   4
ATOM      4  N   UNL A   1      33.277  29.736  27.539  1.00  0.00    -0.352 N 
ATOM      5  O   UNL A   1      33.963  31.723  28.361  1.00  0.00    -0.269 OA
ATOM      6  C   UNL A   1      34.245  30.569  28.055  1.00  0.00     0.251 C 
ATOM      7  H   UNL A   1      32.403  30.155  27.371  1.00  0.00     0.163 HD
BRANCH   6   8
ATOM      8  C   UNL A   1      35.611  30.048  28.278  1.00  0.00     0.039 A 
ATOM      9  C   UNL A   1      36.017  29.638  29.549  1.00  0.00     0.014 A 
ATOM     10  C   UNL A   1      36.512  30.021  27.210  1.00  0.00     0.014 A 
ATOM     11  C   UNL A   1      37.361  29.377  29.790  1.00  0.00     0.010 A 
ATOM     12  C   UNL A   1      37.848  29.673  27.439  1.00  0.00     0.010 A 
ATOM     13  C   UNL A   1      38.295  29.402  28.741  1.00  0.00    -0.014 A 
BRANCH  13  14
ATOM     14  C   UNL A   1      39.728  29.141  29.040  1.00  0.00     0.031 A 
ATOM     15  C   UNL A   1      40.372  27.829  28.674  1.00  0.00     0.074 A 
ATOM     16  C   UNL A   1      40.468  30.123  29.591  1.00  0.00     0.049 A 
ATOM     17  N   UNL A   1      41.625  27.468  28.795  1.00  0.00    -0.248 NA
ATOM     18  C   UNL A   1      39.503  26.785  28.109  1.00  0.00     0.031 C 
ATOM     19  C   UNL A   1      39.961  31.436  29.996  1.00  0.00     0.029 A 
ATOM     20  N   UNL A   1      41.809  30.183  29.872  1.00  0.00    -0.354 N 
ATOM     21  C   UNL A   1      41.690  26.151  28.352  1.00  0.00     0.074 A 
ATOM     22  C   UNL A   1      40.346  25.770  27.974  1.00  0.00     0.031 C 
ATOM     23  C   UNL A   1      40.986  32.193  30.412  1.00  0.00     0.029 A 
ATOM     24  C   UNL A   1      42.213  31.407  30.352  1.00  0.00     0.049 A 
ATOM     25  H   UNL A   1      42.423  29.424  29.743  1.00  0.00     0.167 HD
ATOM     26  C   UNL A   1      42.768  25.334  28.265  1.00  0.00     0.031 A 
ATOM     27  C   UNL A   1      43.433  31.852  30.703  1.00  0.00     0.031 A 
ATOM     28  C   UNL A   1      44.109  25.717  28.619  1.00  0.00     0.049 A 
ATOM     29  C   UNL A   1      44.615  30.934  30.576  1.00  0.00     0.074 A 
ATOM     30  C   UNL A   1      45.271  24.970  28.534  1.00  0.00     0.029 A 
ATOM     31  N   UNL A   1      44.470  26.958  29.122  1.00  0.00    -0.354 N 
ATOM     32  N   UNL A   1      44.654  29.701  30.135  1.00  0.00    -0.248 NA
ATOM     33  C   UNL A   1      45.916  31.473  30.993  1.00  0.00     0.031 C 
ATOM     34  C   UNL A   1      46.330  25.747  29.017  1.00  0.00     0.029 A 
ATOM     35  C   UNL A   1      45.834  26.992  29.364  1.00  0.00     0.049 A 
ATOM     36  H   UNL A   1      43.850  27.705  29.283  1.00  0.00     0.167 HD
ATOM     37  C   UNL A   1      45.987  29.320  30.204  1.00  0.00     0.074 A 
ATOM     38  C   UNL A   1      46.724  30.459  30.715  1.00  0.00     0.031 C 
ATOM     39  C   UNL A   1      46.552  28.131  29.876  1.00  0.00     0.031 A 
BRANCH  26  40
ATOM     40  C   UNL A   1      42.535  23.924  27.790  1.00  0.00    -0.014 A 
ATOM     41  C   UNL A   1      42.100  22.918  28.671  1.00  0.00     0.010 A 
ATOM     42  C   UNL A   1      42.718  23.612  26.430  1.00  0.00     0.010 A 
ATOM     43  C   UNL A   1      41.894  21.614  28.208  1.00  0.00     0.020 A 
ATOM     44  C   UNL A   1      42.492  22.314  25.960  1.00  0.00     0.020 A 
ATOM     45  C   UNL A   1      42.100  21.319  26.858  1.00  0.00     0.054 A 
BRANCH  45  46
ATOM     46  S   UNL A   1      41.819  19.623  26.277  1.00  0.00     0.124 S 
ATOM     47  O   UNL A   1      40.370  19.606  26.094  1.00  0.00    -0.237 OA
ATOM     48  O   UNL A   1      42.607  19.566  25.049  1.00  0.00    -0.237 OA
ATOM     49  O   UNL A   1      42.319  18.796  27.373  1.00  0.00    -0.744 OA
ENDBRANCH  45  46
ENDBRANCH  26  40
BRANCH  27  50
ATOM     50  C   UNL A   1      43.593  33.247  31.190  1.00  0.00    -0.014 A 
ATOM     51  C   UNL A   1      43.255  33.583  32.512  1.00  0.00     0.010 A 
ATOM     52  C   UNL A   1      44.122  34.236  30.342  1.00  0.00     0.010 A 
ATOM     53  C   UNL A   1      43.437  34.888  32.976  1.00  0.00     0.020 A 
ATOM     54  C   UNL A   1      44.328  35.536  30.811  1.00  0.00     0.020 A 
ATOM     55  C   UNL A   1      43.974  35.856  32.122  1.00  0.00     0.054 A 
BRANCH  55  56
ATOM     56  S   UNL A   1      44.272  37.527  32.763  1.00  0.00     0.124 S 
ATOM     57  O   UNL A   1      43.940  38.357  31.608  1.00  0.00    -0.237 OA
ATOM     58  O   UNL A   1      43.346  37.608  33.890  1.00  0.00    -0.237 OA
ATOM     59  O   UNL A   1      45.686  37.500  33.133  1.00  0.00    -0.744 OA
ENDBRANCH  55  56
ENDBRANCH  27  50
BRANCH  39  60
ATOM     60  C   UNL A   1      48.042  28.018  30.032  1.00  0.00    -0.014 A 
ATOM     61  C   UNL A   1      48.909  28.348  28.975  1.00  0.00     0.010 A 
ATOM     62  C   UNL A   1      48.581  27.596  31.260  1.00  0.00     0.010 A 
ATOM     63  C   UNL A   1      50.292  28.220  29.133  1.00  0.00     0.020 A 
ATOM     64  C   UNL A   1      49.963  27.487  31.428  1.00  0.00     0.020 A 
ATOM     65  C   UNL A   1      50.810  27.783  30.356  1.00  0.00     0.054 A 
BRANCH  65  66
ATOM     66  S   UNL A   1      52.608  27.642  30.551  1.00  0.00     0.124 S 
ATOM     67  O   UNL A   1      52.766  26.230  30.887  1.00  0.00    -0.237 OA
ATOM     68  O   UNL A   1      53.109  28.036  29.236  1.00  0.00    -0.237 OA
ATOM     69  O   UNL A   1      52.911  28.579  31.631  1.00  0.00    -0.744 OA
ENDBRANCH  65  66
ENDBRANCH  39  60
ENDBRANCH  13  14
ENDBRANCH   6   8
ENDBRANCH   3   4
ENDBRANCH   2   3
ENDBRANCH   1   2
BRANCH   1  70
ATOM     70  C   UNL A   1      33.203  28.961  23.318  1.00  0.00     0.116 C 
BRANCH  70  71
ATOM     71  N   UNL A   1      31.994  29.413  22.644  1.00  0.00    -0.352 N 
ATOM     72  C   UNL A   1      30.853  28.704  22.360  1.00  0.00     0.252 C 
ATOM     73  H   UNL A   1      31.994  30.353  22.352  1.00  0.00     0.163 HD
ATOM     74  O   UNL A   1      29.951  29.183  21.682  1.00  0.00    -0.269 OA
BRANCH  72  75
ATOM     75  C   UNL A   1      30.730  27.337  22.870  1.00  0.00     0.058 A 
ATOM     76  C   UNL A   1      30.149  27.077  24.107  1.00  0.00     0.017 A 
ATOM     77  C   UNL A   1      31.266  26.291  22.140  1.00  0.00     0.125 A 
ATOM     78  C   UNL A   1      30.204  25.782  24.607  1.00  0.00     0.030 A 
ATOM     79  N   UNL A   1      31.327  25.020  22.604  1.00  0.00    -0.255 NA
ATOM     80  C   UNL A   1      30.811  24.783  23.837  1.00  0.00     0.094 A 
BRANCH  80  81
ATOM     81  C   UNL A   1      30.927  23.376  24.399  1.00  0.00     0.318 C 
BRANCH  81  82
ATOM     82  N   UNL A   1      31.863  23.323  25.523  1.00  0.00    -0.337 N 
ATOM     83  H   UNL A   1      31.513  23.941  26.255  1.00  0.00     0.346 HD
ATOM     84  H   UNL A   1      32.770  23.607  25.155  1.00  0.00     0.346 HD
BRANCH  82  85
ATOM     85  C   UNL A   1      32.053  21.987  26.105  1.00  0.00     0.211 C 
ATOM     86  C   UNL A   1      33.237  22.097  27.092  1.00  0.00     0.068 C 
ATOM     87  C   UNL A   1      32.336  20.849  25.085  1.00  0.00     0.172 C 
ATOM     88  C   UNL A   1      34.584  22.286  26.386  1.00  0.00     0.006 C 
ATOM     89  C   UNL A   1      33.666  21.049  24.355  1.00  0.00     0.038 C 
ATOM     90  C   UNL A   1      34.842  21.224  25.319  1.00  0.00     0.003 C 
BRANCH  87  91
ATOM     91  O   UNL A   1      32.323  19.570  25.729  1.00  0.00    -0.387 OA
ATOM     92  H   UNL A   1      32.480  18.875  25.071  1.00  0.00     0.211 HD
ENDBRANCH  87  91
ENDBRANCH  82  85
ENDBRANCH  81  82
ENDBRANCH  80  81
ENDBRANCH  72  75
ENDBRANCH  70  71
ENDBRANCH   1  70
TORSDOF 18
ENDMDL
