MODEL 1
REMARK VINA RESULT:     -10.5      0.000      0.000
REMARK SMILES CC(=O)N[C@@H](Cc1cc(Br)c(O)c(Br)c1)C(=O)NCCCCNC(=O)c1ccc(-c2c3nc(c(-c4ccc(S(=O)(=O)[O-])cc4)c4ccc([nH]4)c(-c4ccc(S(=O)(=O)[O-])cc4)c4nc(c(-c5ccc(S(=O)(=O)[O-])cc5)c5ccc2[nH]5)C=C4)C=C3)cc1
REMARK SMILES IDX 20 1 19 2 18 3 16 4 17 5 5 7 4 8 1 9 2 10 3 11 6 13 7 14
REMARK SMILES IDX 8 15 15 16 9 17 13 18 10 19 11 20 14 21 12 22 21 24 22 25
REMARK SMILES IDX 23 26 24 27 25 29 26 30 27 31 85 32 28 33 84 34 29 35 30 36
REMARK SMILES IDX 31 37 78 38 32 39 83 40 77 41 79 42 33 43 82 44 76 45 75 46
REMARK SMILES IDX 34 48 64 49 45 50 63 51 46 52 49 53 62 54 80 55 47 56 48 57
REMARK SMILES IDX 61 59 81 60 50 61 35 62 36 63 44 64 37 65 43 66 38 67 39 68
REMARK SMILES IDX 40 69 41 70 42 71 65 72 66 73 74 74 67 75 73 76 68 77 69 78
REMARK SMILES IDX 70 79 71 80 72 81 51 82 52 83 60 84 53 85 59 86 54 87 55 88
REMARK SMILES IDX 56 89 57 90 58 91
REMARK H PARENT 18 6 4 12 12 23 23 28 79 47 49 58
REMARK Flexibility Score: inf
ROOT
ATOM      1  C   UNL A   1      31.114  27.678  26.715  1.00  0.00     0.023 C 
ENDROOT
BRANCH   1   2
ATOM      2  C   UNL A   1      30.594  26.571  25.814  1.00  0.00     0.116 C 
BRANCH   2   3
ATOM      3  N   UNL A   1      30.409  25.292  26.466  1.00  0.00    -0.354 N 
ATOM      4  C   UNL A   1      31.229  24.202  26.506  1.00  0.00     0.242 C 
ATOM      5  O   UNL A   1      31.043  23.399  27.429  1.00  0.00    -0.273 OA
ATOM      6  H   UNL A   1      29.560  25.194  26.955  1.00  0.00     0.163 HD
BRANCH   4   7
ATOM      7  C   UNL A   1      32.425  23.984  25.542  1.00  0.00     0.175 C 
BRANCH   7   8
ATOM      8  N   UNL A   1      32.331  24.711  24.273  1.00  0.00    -0.344 N 
ATOM      9  C   UNL A   1      32.122  22.722  22.824  1.00  0.00     0.114 C 
ATOM     10  C   UNL A   1      32.123  24.211  23.023  1.00  0.00     0.217 C 
ATOM     11  O   UNL A   1      31.975  24.993  22.087  1.00  0.00    -0.275 OA
ATOM     12  H   UNL A   1      32.431  25.689  24.331  1.00  0.00     0.164 HD
ENDBRANCH   7   8
BRANCH   7  13
ATOM     13  C   UNL A   1      33.813  24.095  26.213  1.00  0.00     0.070 C 
BRANCH  13  14
ATOM     14  C   UNL A   1      34.789  22.964  25.986  1.00  0.00    -0.043 A 
ATOM     15  C   UNL A   1      34.352  21.692  25.587  1.00  0.00     0.023 A 
ATOM     16  C   UNL A   1      36.166  23.190  26.136  1.00  0.00     0.023 A 
ATOM     17  C   UNL A   1      35.281  20.698  25.255  1.00  0.00     0.061 A 
ATOM     18  C   UNL A   1      37.091  22.184  25.830  1.00  0.00     0.061 A 
ATOM     19  Br  UNL A   1      34.639  19.043  24.593  1.00  0.00    -0.047 Br
ATOM     20  C   UNL A   1      36.651  20.944  25.363  1.00  0.00     0.143 A 
ATOM     21  Br  UNL A   1      38.937  22.585  25.991  1.00  0.00    -0.047 Br
BRANCH  20  22
ATOM     22  O   UNL A   1      37.577  20.007  24.998  1.00  0.00    -0.506 OA
ATOM     23  H   UNL A   1      38.379  20.273  24.595  1.00  0.00     0.293 HD
ENDBRANCH  20  22
ENDBRANCH  13  14
ENDBRANCH   7  13
ENDBRANCH   4   7
ENDBRANCH   2   3
ENDBRANCH   1   2
BRANCH   1  24
ATOM     24  C   UNL A   1      32.393  28.366  26.241  1.00  0.00     0.023 C 
BRANCH  24  25
ATOM     25  C   UNL A   1      33.434  28.685  27.313  1.00  0.00     0.116 C 
BRANCH  25  26
ATOM     26  N   UNL A   1      33.522  30.098  27.659  1.00  0.00    -0.352 N 
ATOM     27  C   UNL A   1      34.600  30.813  28.133  1.00  0.00     0.251 C 
ATOM     28  H   UNL A   1      32.695  30.616  27.535  1.00  0.00     0.163 HD
ATOM     29  O   UNL A   1      34.467  31.998  28.423  1.00  0.00    -0.269 OA
BRANCH  27  30
ATOM     30  C   UNL A   1      35.893  30.122  28.347  1.00  0.00     0.039 A 
ATOM     31  C   UNL A   1      36.845  30.143  27.326  1.00  0.00     0.014 A 
ATOM     32  C   UNL A   1      36.193  29.528  29.575  1.00  0.00     0.014 A 
ATOM     33  C   UNL A   1      38.136  29.665  27.573  1.00  0.00     0.010 A 
ATOM     34  C   UNL A   1      37.497  29.115  29.841  1.00  0.00     0.010 A 
ATOM     35  C   UNL A   1      38.489  29.201  28.852  1.00  0.00    -0.014 A 
BRANCH  35  36
ATOM     36  C   UNL A   1      39.896  28.856  29.188  1.00  0.00     0.031 A 
ATOM     37  C   UNL A   1      40.805  29.875  29.821  1.00  0.00     0.074 A 
ATOM     38  C   UNL A   1      40.386  27.648  28.840  1.00  0.00     0.049 A 
ATOM     39  N   UNL A   1      42.076  29.774  30.115  1.00  0.00    -0.248 NA
ATOM     40  C   UNL A   1      40.216  31.184  30.141  1.00  0.00     0.031 C 
ATOM     41  C   UNL A   1      39.631  26.587  28.168  1.00  0.00     0.029 A 
ATOM     42  N   UNL A   1      41.641  27.111  28.994  1.00  0.00    -0.354 N 
ATOM     43  C   UNL A   1      42.445  31.009  30.633  1.00  0.00     0.074 A 
ATOM     44  C   UNL A   1      41.271  31.856  30.577  1.00  0.00     0.031 C 
ATOM     45  C   UNL A   1      40.430  25.523  27.989  1.00  0.00     0.029 A 
ATOM     46  C   UNL A   1      41.761  25.833  28.500  1.00  0.00     0.049 A 
ATOM     47  H   UNL A   1      42.385  27.597  29.418  1.00  0.00     0.167 HD
ATOM     48  C   UNL A   1      43.645  31.402  31.124  1.00  0.00     0.031 A 
ATOM     49  C   UNL A   1      42.822  25.003  28.457  1.00  0.00     0.031 A 
ATOM     50  C   UNL A   1      44.808  30.559  31.199  1.00  0.00     0.049 A 
ATOM     51  C   UNL A   1      44.137  25.453  29.030  1.00  0.00     0.074 A 
ATOM     52  C   UNL A   1      46.048  30.849  31.743  1.00  0.00     0.029 A 
ATOM     53  N   UNL A   1      44.877  29.260  30.719  1.00  0.00    -0.354 N 
ATOM     54  N   UNL A   1      44.444  26.603  29.578  1.00  0.00    -0.248 NA
ATOM     55  C   UNL A   1      45.243  24.486  28.989  1.00  0.00     0.031 C 
ATOM     56  C   UNL A   1      46.878  29.738  31.559  1.00  0.00     0.029 A 
ATOM     57  C   UNL A   1      46.141  28.741  30.939  1.00  0.00     0.049 A 
ATOM     58  H   UNL A   1      44.136  28.778  30.286  1.00  0.00     0.167 HD
ATOM     59  C   UNL A   1      45.774  26.492  29.967  1.00  0.00     0.074 A 
ATOM     60  C   UNL A   1      46.208  25.158  29.603  1.00  0.00     0.031 C 
ATOM     61  C   UNL A   1      46.563  27.413  30.572  1.00  0.00     0.031 A 
BRANCH  48  62
ATOM     62  C   UNL A   1      43.756  32.818  31.621  1.00  0.00    -0.014 A 
ATOM     63  C   UNL A   1      44.108  33.865  30.750  1.00  0.00     0.010 A 
ATOM     64  C   UNL A   1      43.476  33.111  32.968  1.00  0.00     0.010 A 
ATOM     65  C   UNL A   1      44.223  35.172  31.227  1.00  0.00     0.020 A 
ATOM     66  C   UNL A   1      43.566  34.423  33.443  1.00  0.00     0.020 A 
ATOM     67  C   UNL A   1      43.959  35.443  32.572  1.00  0.00     0.054 A 
BRANCH  67  68
ATOM     68  S   UNL A   1      44.102  37.152  33.165  1.00  0.00     0.124 S 
ATOM     69  O   UNL A   1      42.904  37.282  33.991  1.00  0.00    -0.237 OA
ATOM     70  O   UNL A   1      45.368  37.135  33.894  1.00  0.00    -0.237 OA
ATOM     71  O   UNL A   1      44.103  37.943  31.938  1.00  0.00    -0.744 OA
ENDBRANCH  67  68
ENDBRANCH  48  62
BRANCH  49  72
ATOM     72  C   UNL A   1      42.677  23.646  27.866  1.00  0.00    -0.014 A 
ATOM     73  C   UNL A   1      42.188  22.582  28.644  1.00  0.00     0.010 A 
ATOM     74  C   UNL A   1      43.009  23.415  26.518  1.00  0.00     0.010 A 
ATOM     75  C   UNL A   1      42.048  21.306  28.090  1.00  0.00     0.020 A 
ATOM     76  C   UNL A   1      42.849  22.145  25.955  1.00  0.00     0.020 A 
ATOM     77  C   UNL A   1      42.380  21.096  26.749  1.00  0.00     0.054 A 
BRANCH  77  78
ATOM     78  S   UNL A   1      42.133  19.447  26.031  1.00  0.00     0.124 S 
ATOM     79  O   UNL A   1      42.946  19.518  24.821  1.00  0.00    -0.237 OA
ATOM     80  O   UNL A   1      42.635  18.564  27.082  1.00  0.00    -0.237 OA
ATOM     81  O   UNL A   1      40.689  19.384  25.816  1.00  0.00    -0.744 OA
ENDBRANCH  77  78
ENDBRANCH  49  72
BRANCH  61  82
ATOM     82  C   UNL A   1      47.970  27.005  30.906  1.00  0.00    -0.014 A 
ATOM     83  C   UNL A   1      48.284  26.437  32.154  1.00  0.00     0.010 A 
ATOM     84  C   UNL A   1      48.983  27.145  29.941  1.00  0.00     0.010 A 
ATOM     85  C   UNL A   1      49.593  26.040  32.440  1.00  0.00     0.020 A 
ATOM     86  C   UNL A   1      50.288  26.729  30.215  1.00  0.00     0.020 A 
ATOM     87  C   UNL A   1      50.589  26.191  31.468  1.00  0.00     0.054 A 
BRANCH  87  88
ATOM     88  S   UNL A   1      52.272  25.627  31.842  1.00  0.00     0.124 S 
ATOM     89  O   UNL A   1      52.975  25.927  30.598  1.00  0.00    -0.237 OA
ATOM     90  O   UNL A   1      52.643  26.453  32.989  1.00  0.00    -0.237 OA
ATOM     91  O   UNL A   1      52.101  24.206  32.135  1.00  0.00    -0.744 OA
ENDBRANCH  87  88
ENDBRANCH  61  82
ENDBRANCH  35  36
ENDBRANCH  27  30
ENDBRANCH  25  26
ENDBRANCH  24  25
ENDBRANCH   1  24
TORSDOF 18
ENDMDL
MODEL 2
REMARK VINA RESULT:     -10.4      1.301      2.005
REMARK SMILES CC(=O)N[C@@H](Cc1cc(Br)c(O)c(Br)c1)C(=O)NCCCCNC(=O)c1ccc(-c2c3nc(c(-c4ccc(S(=O)(=O)[O-])cc4)c4ccc([nH]4)c(-c4ccc(S(=O)(=O)[O-])cc4)c4nc(c(-c5ccc(S(=O)(=O)[O-])cc5)c5ccc2[nH]5)C=C4)C=C3)cc1
REMARK SMILES IDX 20 1 19 2 18 3 16 4 17 5 5 7 4 8 1 9 2 10 3 11 6 13 7 14
REMARK SMILES IDX 8 15 15 16 9 17 13 18 10 19 11 20 14 21 12 22 21 24 22 25
REMARK SMILES IDX 23 26 24 27 25 29 26 30 27 31 85 32 28 33 84 34 29 35 30 36
REMARK SMILES IDX 31 37 78 38 32 39 83 40 77 41 79 42 33 43 82 44 76 45 75 46
REMARK SMILES IDX 34 48 64 49 45 50 63 51 46 52 49 53 62 54 80 55 47 56 48 57
REMARK SMILES IDX 61 59 81 60 50 61 35 62 36 63 44 64 37 65 43 66 38 67 39 68
REMARK SMILES IDX 40 69 41 70 42 71 65 72 66 73 74 74 67 75 73 76 68 77 69 78
REMARK SMILES IDX 70 79 71 80 72 81 51 82 52 83 60 84 53 85 59 86 54 87 55 88
REMARK SMILES IDX 56 89 57 90 58 91
REMARK H PARENT 18 6 4 12 12 23 23 28 79 47 49 58
REMARK Flexibility Score: inf
ROOT
ATOM      1  C   UNL A   1      31.525  29.535  25.710  1.00  0.00     0.023 C 
ENDROOT
BRANCH   1   2
ATOM      2  C   UNL A   1      31.605  29.176  24.235  1.00  0.00     0.116 C 
BRANCH   2   3
ATOM      3  N   UNL A   1      32.935  29.227  23.668  1.00  0.00    -0.354 N 
ATOM      4  C   UNL A   1      33.747  28.214  23.247  1.00  0.00     0.242 C 
ATOM      5  O   UNL A   1      34.647  28.515  22.452  1.00  0.00    -0.273 OA
ATOM      6  H   UNL A   1      33.311  30.132  23.572  1.00  0.00     0.163 HD
BRANCH   4   7
ATOM      7  C   UNL A   1      33.533  26.724  23.617  1.00  0.00     0.175 C 
BRANCH   7   8
ATOM      8  N   UNL A   1      33.731  25.781  22.513  1.00  0.00    -0.344 N 
ATOM      9  C   UNL A   1      31.493  26.055  21.504  1.00  0.00     0.114 C 
ATOM     10  C   UNL A   1      32.884  25.486  21.488  1.00  0.00     0.217 C 
ATOM     11  O   UNL A   1      33.270  24.735  20.595  1.00  0.00    -0.275 OA
ATOM     12  H   UNL A   1      34.589  25.298  22.511  1.00  0.00     0.164 HD
ENDBRANCH   7   8
BRANCH   7  13
ATOM     13  C   UNL A   1      34.224  26.287  24.930  1.00  0.00     0.070 C 
BRANCH  13  14
ATOM     14  C   UNL A   1      34.378  24.804  25.176  1.00  0.00    -0.043 A 
ATOM     15  C   UNL A   1      33.262  23.960  25.270  1.00  0.00     0.023 A 
ATOM     16  C   UNL A   1      35.661  24.243  25.274  1.00  0.00     0.023 A 
ATOM     17  C   UNL A   1      33.431  22.573  25.366  1.00  0.00     0.061 A 
ATOM     18  C   UNL A   1      35.826  22.859  25.399  1.00  0.00     0.061 A 
ATOM     19  Br  UNL A   1      31.892  21.469  25.355  1.00  0.00    -0.047 Br
ATOM     20  C   UNL A   1      34.711  22.018  25.418  1.00  0.00     0.143 A 
ATOM     21  Br  UNL A   1      37.591  22.168  25.456  1.00  0.00    -0.047 Br
BRANCH  20  22
ATOM     22  O   UNL A   1      34.902  20.665  25.462  1.00  0.00    -0.506 OA
ATOM     23  H   UNL A   1      34.682  20.136  24.721  1.00  0.00     0.293 HD
ENDBRANCH  20  22
ENDBRANCH  13  14
ENDBRANCH   7  13
ENDBRANCH   4   7
ENDBRANCH   2   3
ENDBRANCH   1   2
BRANCH   1  24
ATOM     24  C   UNL A   1      32.122  28.508  26.670  1.00  0.00     0.023 C 
BRANCH  24  25
ATOM     25  C   UNL A   1      33.444  28.884  27.338  1.00  0.00     0.116 C 
BRANCH  25  26
ATOM     26  N   UNL A   1      33.486  30.245  27.855  1.00  0.00    -0.352 N 
ATOM     27  C   UNL A   1      34.535  30.924  28.434  1.00  0.00     0.251 C 
ATOM     28  H   UNL A   1      32.646  30.752  27.780  1.00  0.00     0.163 HD
ATOM     29  O   UNL A   1      34.364  32.061  28.865  1.00  0.00    -0.269 OA
BRANCH  27  30
ATOM     30  C   UNL A   1      35.844  30.247  28.587  1.00  0.00     0.039 A 
ATOM     31  C   UNL A   1      36.710  30.199  27.492  1.00  0.00     0.014 A 
ATOM     32  C   UNL A   1      36.245  29.734  29.823  1.00  0.00     0.014 A 
ATOM     33  C   UNL A   1      38.018  29.736  27.665  1.00  0.00     0.010 A 
ATOM     34  C   UNL A   1      37.568  29.337  30.009  1.00  0.00     0.010 A 
ATOM     35  C   UNL A   1      38.475  29.356  28.938  1.00  0.00    -0.014 A 
BRANCH  35  36
ATOM     36  C   UNL A   1      39.907  29.033  29.180  1.00  0.00     0.031 A 
ATOM     37  C   UNL A   1      40.847  30.073  29.724  1.00  0.00     0.074 A 
ATOM     38  C   UNL A   1      40.384  27.821  28.825  1.00  0.00     0.049 A 
ATOM     39  N   UNL A   1      42.137  29.990  29.929  1.00  0.00    -0.248 NA
ATOM     40  C   UNL A   1      40.269  31.383  30.057  1.00  0.00     0.031 C 
ATOM     41  C   UNL A   1      39.594  26.738  28.231  1.00  0.00     0.029 A 
ATOM     42  N   UNL A   1      41.652  27.299  28.900  1.00  0.00    -0.354 N 
ATOM     43  C   UNL A   1      42.529  31.240  30.391  1.00  0.00     0.074 A 
ATOM     44  C   UNL A   1      41.346  32.075  30.401  1.00  0.00     0.031 C 
ATOM     45  C   UNL A   1      40.390  25.677  28.019  1.00  0.00     0.029 A 
ATOM     46  C   UNL A   1      41.750  26.012  28.427  1.00  0.00     0.049 A 
ATOM     47  H   UNL A   1      42.419  27.801  29.259  1.00  0.00     0.167 HD
ATOM     48  C   UNL A   1      43.757  31.655  30.787  1.00  0.00     0.031 A 
ATOM     49  C   UNL A   1      42.814  25.190  28.326  1.00  0.00     0.031 A 
ATOM     50  C   UNL A   1      44.931  30.824  30.797  1.00  0.00     0.049 A 
ATOM     51  C   UNL A   1      44.161  25.664  28.794  1.00  0.00     0.074 A 
ATOM     52  C   UNL A   1      46.203  31.138  31.244  1.00  0.00     0.029 A 
ATOM     53  N   UNL A   1      44.980  29.515  30.342  1.00  0.00    -0.354 N 
ATOM     54  N   UNL A   1      44.494  26.830  29.293  1.00  0.00    -0.248 NA
ATOM     55  C   UNL A   1      45.272  24.707  28.695  1.00  0.00     0.031 C 
ATOM     56  C   UNL A   1      47.030  30.031  31.026  1.00  0.00     0.029 A 
ATOM     57  C   UNL A   1      46.262  29.013  30.482  1.00  0.00     0.049 A 
ATOM     58  H   UNL A   1      44.215  29.017  29.974  1.00  0.00     0.167 HD
ATOM     59  C   UNL A   1      45.850  26.740  29.588  1.00  0.00     0.074 A 
ATOM     60  C   UNL A   1      46.271  25.402  29.224  1.00  0.00     0.031 C 
ATOM     61  C   UNL A   1      46.670  27.681  30.115  1.00  0.00     0.031 A 
BRANCH  48  62
ATOM     62  C   UNL A   1      43.888  33.083  31.244  1.00  0.00    -0.014 A 
ATOM     63  C   UNL A   1      43.663  33.435  32.587  1.00  0.00     0.010 A 
ATOM     64  C   UNL A   1      44.272  34.079  30.328  1.00  0.00     0.010 A 
ATOM     65  C   UNL A   1      43.773  34.766  32.996  1.00  0.00     0.020 A 
ATOM     66  C   UNL A   1      44.407  35.409  30.740  1.00  0.00     0.020 A 
ATOM     67  C   UNL A   1      44.137  35.746  32.068  1.00  0.00     0.054 A 
BRANCH  67  68
ATOM     68  S   UNL A   1      44.287  37.466  32.627  1.00  0.00     0.124 S 
ATOM     69  O   UNL A   1      43.306  37.514  33.709  1.00  0.00    -0.237 OA
ATOM     70  O   UNL A   1      45.684  37.549  33.043  1.00  0.00    -0.237 OA
ATOM     71  O   UNL A   1      43.945  38.245  31.440  1.00  0.00    -0.744 OA
ENDBRANCH  67  68
ENDBRANCH  48  62
BRANCH  49  72
ATOM     72  C   UNL A   1      42.641  23.819  27.777  1.00  0.00    -0.014 A 
ATOM     73  C   UNL A   1      42.332  22.746  28.631  1.00  0.00     0.010 A 
ATOM     74  C   UNL A   1      42.767  23.582  26.396  1.00  0.00     0.010 A 
ATOM     75  C   UNL A   1      42.167  21.457  28.117  1.00  0.00     0.020 A 
ATOM     76  C   UNL A   1      42.581  22.298  25.876  1.00  0.00     0.020 A 
ATOM     77  C   UNL A   1      42.292  21.241  26.742  1.00  0.00     0.054 A 
BRANCH  77  78
ATOM     78  S   UNL A   1      42.014  19.572  26.086  1.00  0.00     0.124 S 
ATOM     79  O   UNL A   1      42.519  18.733  27.168  1.00  0.00    -0.237 OA
ATOM     80  O   UNL A   1      40.566  19.545  25.886  1.00  0.00    -0.237 OA
ATOM     81  O   UNL A   1      42.803  19.555  24.857  1.00  0.00    -0.744 OA
ENDBRANCH  77  78
ENDBRANCH  49  72
BRANCH  61  82
ATOM     82  C   UNL A   1      48.102  27.293  30.357  1.00  0.00    -0.014 A 
ATOM     83  C   UNL A   1      49.139  27.813  29.562  1.00  0.00     0.010 A 
ATOM     84  C   UNL A   1      48.420  26.435  31.425  1.00  0.00     0.010 A 
ATOM     85  C   UNL A   1      50.467  27.462  29.816  1.00  0.00     0.020 A 
ATOM     86  C   UNL A   1      49.748  26.098  31.694  1.00  0.00     0.020 A 
ATOM     87  C   UNL A   1      50.763  26.603  30.880  1.00  0.00     0.054 A 
BRANCH  87  88
ATOM     88  S   UNL A   1      52.498  26.195  31.221  1.00  0.00     0.124 S 
ATOM     89  O   UNL A   1      52.369  25.035  32.099  1.00  0.00    -0.237 OA
ATOM     90  O   UNL A   1      53.034  25.920  29.891  1.00  0.00    -0.237 OA
ATOM     91  O   UNL A   1      53.017  27.404  31.857  1.00  0.00    -0.744 OA
ENDBRANCH  87  88
ENDBRANCH  61  82
ENDBRANCH  35  36
ENDBRANCH  27  30
ENDBRANCH  25  26
ENDBRANCH  24  25
ENDBRANCH   1  24
TORSDOF 18
ENDMDL
MODEL 3
REMARK VINA RESULT:     -10.3      3.165      4.182
REMARK SMILES CC(=O)N[C@@H](Cc1cc(Br)c(O)c(Br)c1)C(=O)NCCCCNC(=O)c1ccc(-c2c3nc(c(-c4ccc(S(=O)(=O)[O-])cc4)c4ccc([nH]4)c(-c4ccc(S(=O)(=O)[O-])cc4)c4nc(c(-c5ccc(S(=O)(=O)[O-])cc5)c5ccc2[nH]5)C=C4)C=C3)cc1
REMARK SMILES IDX 20 1 19 2 18 3 16 4 17 5 5 7 4 8 1 9 2 10 3 11 6 13 7 14
REMARK SMILES IDX 8 15 15 16 9 17 13 18 10 19 11 20 14 21 12 22 21 24 22 25
REMARK SMILES IDX 23 26 24 27 25 29 26 30 27 31 85 32 28 33 84 34 29 35 30 36
REMARK SMILES IDX 31 37 78 38 32 39 83 40 77 41 79 42 33 43 82 44 76 45 75 46
REMARK SMILES IDX 34 48 64 49 45 50 63 51 46 52 49 53 62 54 80 55 47 56 48 57
REMARK SMILES IDX 61 59 81 60 50 61 35 62 36 63 44 64 37 65 43 66 38 67 39 68
REMARK SMILES IDX 40 69 41 70 42 71 65 72 66 73 74 74 67 75 73 76 68 77 69 78
REMARK SMILES IDX 70 79 71 80 72 81 51 82 52 83 60 84 53 85 59 86 54 87 55 88
REMARK SMILES IDX 56 89 57 90 58 91
REMARK H PARENT 18 6 4 12 12 23 23 28 79 47 49 58
REMARK Flexibility Score: inf
ROOT
ATOM      1  C   UNL A   1      34.236  27.790  26.010  1.00  0.00     0.023 C 
ENDROOT
BRANCH   1   2
ATOM      2  C   UNL A   1      33.242  27.825  24.861  1.00  0.00     0.116 C 
BRANCH   2   3
ATOM      3  N   UNL A   1      33.747  27.314  23.605  1.00  0.00    -0.354 N 
ATOM      4  C   UNL A   1      33.267  26.315  22.809  1.00  0.00     0.242 C 
ATOM      5  O   UNL A   1      33.624  26.326  21.624  1.00  0.00    -0.273 OA
ATOM      6  H   UNL A   1      34.562  27.756  23.275  1.00  0.00     0.163 HD
BRANCH   4   7
ATOM      7  C   UNL A   1      32.232  25.259  23.277  1.00  0.00     0.175 C 
BRANCH   7   8
ATOM      8  N   UNL A   1      30.837  25.705  23.234  1.00  0.00    -0.344 N 
ATOM      9  C   UNL A   1      30.429  25.592  25.668  1.00  0.00     0.114 C 
ATOM     10  C   UNL A   1      29.991  25.945  24.274  1.00  0.00     0.217 C 
ATOM     11  O   UNL A   1      28.878  26.411  24.041  1.00  0.00    -0.275 OA
ATOM     12  H   UNL A   1      30.461  25.850  22.335  1.00  0.00     0.164 HD
ENDBRANCH   7   8
BRANCH   7  13
ATOM     13  C   UNL A   1      32.446  23.848  22.682  1.00  0.00     0.070 C 
BRANCH  13  14
ATOM     14  C   UNL A   1      32.694  22.714  23.648  1.00  0.00    -0.043 A 
ATOM     15  C   UNL A   1      32.987  22.957  24.998  1.00  0.00     0.023 A 
ATOM     16  C   UNL A   1      32.592  21.386  23.206  1.00  0.00     0.023 A 
ATOM     17  C   UNL A   1      33.083  21.891  25.902  1.00  0.00     0.061 A 
ATOM     18  C   UNL A   1      32.716  20.323  24.108  1.00  0.00     0.061 A 
ATOM     19  Br  UNL A   1      33.346  22.281  27.738  1.00  0.00    -0.047 Br
ATOM     20  C   UNL A   1      32.935  20.574  25.463  1.00  0.00     0.143 A 
ATOM     21  Br  UNL A   1      32.498  18.558  23.449  1.00  0.00    -0.047 Br
BRANCH  20  22
ATOM     22  O   UNL A   1      32.975  19.522  26.335  1.00  0.00    -0.506 OA
ATOM     23  H   UNL A   1      33.510  18.776  26.146  1.00  0.00     0.293 HD
ENDBRANCH  20  22
ENDBRANCH  13  14
ENDBRANCH   7  13
ENDBRANCH   4   7
ENDBRANCH   2   3
ENDBRANCH   1   2
BRANCH   1  24
ATOM     24  C   UNL A   1      34.357  29.083  26.815  1.00  0.00     0.023 C 
BRANCH  24  25
ATOM     25  C   UNL A   1      35.636  29.263  27.631  1.00  0.00     0.116 C 
BRANCH  25  26
ATOM     26  N   UNL A   1      35.410  29.593  29.031  1.00  0.00    -0.352 N 
ATOM     27  C   UNL A   1      36.330  29.847  30.025  1.00  0.00     0.251 C 
ATOM     28  H   UNL A   1      34.467  29.644  29.307  1.00  0.00     0.163 HD
ATOM     29  O   UNL A   1      35.947  30.057  31.173  1.00  0.00    -0.269 OA
BRANCH  27  30
ATOM     30  C   UNL A   1      37.776  29.800  29.707  1.00  0.00     0.039 A 
ATOM     31  C   UNL A   1      38.672  29.412  30.706  1.00  0.00     0.014 A 
ATOM     32  C   UNL A   1      38.234  30.059  28.413  1.00  0.00     0.014 A 
ATOM     33  C   UNL A   1      40.012  29.178  30.379  1.00  0.00     0.010 A 
ATOM     34  C   UNL A   1      39.552  29.761  28.076  1.00  0.00     0.010 A 
ATOM     35  C   UNL A   1      40.450  29.294  29.049  1.00  0.00    -0.014 A 
BRANCH  35  36
ATOM     36  C   UNL A   1      41.821  28.879  28.648  1.00  0.00     0.031 A 
ATOM     37  C   UNL A   1      42.930  29.889  28.550  1.00  0.00     0.074 A 
ATOM     38  C   UNL A   1      42.048  27.599  28.284  1.00  0.00     0.049 A 
ATOM     39  N   UNL A   1      44.164  29.721  28.148  1.00  0.00    -0.248 NA
ATOM     40  C   UNL A   1      42.604  31.273  28.927  1.00  0.00     0.031 C 
ATOM     41  C   UNL A   1      41.048  26.528  28.276  1.00  0.00     0.029 A 
ATOM     42  N   UNL A   1      43.193  26.983  27.839  1.00  0.00    -0.354 N 
ATOM     43  C   UNL A   1      44.756  30.977  28.202  1.00  0.00     0.074 A 
ATOM     44  C   UNL A   1      43.733  31.905  28.639  1.00  0.00     0.031 C 
ATOM     45  C   UNL A   1      41.628  25.386  27.870  1.00  0.00     0.029 A 
ATOM     46  C   UNL A   1      43.029  25.647  27.557  1.00  0.00     0.049 A 
ATOM     47  H   UNL A   1      44.050  27.455  27.733  1.00  0.00     0.167 HD
ATOM     48  C   UNL A   1      46.035  31.327  27.928  1.00  0.00     0.031 A 
ATOM     49  C   UNL A   1      43.903  24.733  27.093  1.00  0.00     0.031 A 
ATOM     50  C   UNL A   1      47.059  30.407  27.512  1.00  0.00     0.049 A 
ATOM     51  C   UNL A   1      45.324  25.140  26.819  1.00  0.00     0.074 A 
ATOM     52  C   UNL A   1      48.400  30.659  27.277  1.00  0.00     0.029 A 
ATOM     53  N   UNL A   1      46.859  29.056  27.271  1.00  0.00    -0.354 N 
ATOM     54  N   UNL A   1      45.878  26.321  26.944  1.00  0.00    -0.248 NA
ATOM     55  C   UNL A   1      46.238  24.087  26.354  1.00  0.00     0.031 C 
ATOM     56  C   UNL A   1      49.004  29.469  26.858  1.00  0.00     0.029 A 
ATOM     57  C   UNL A   1      48.047  28.465  26.874  1.00  0.00     0.049 A 
ATOM     58  H   UNL A   1      46.000  28.587  27.368  1.00  0.00     0.167 HD
ATOM     59  C   UNL A   1      47.213  26.150  26.593  1.00  0.00     0.074 A 
ATOM     60  C   UNL A   1      47.384  24.749  26.264  1.00  0.00     0.031 C 
ATOM     61  C   UNL A   1      48.206  27.071  26.548  1.00  0.00     0.031 A 
BRANCH  48  62
ATOM     62  C   UNL A   1      46.398  32.781  28.071  1.00  0.00    -0.014 A 
ATOM     63  C   UNL A   1      46.847  33.296  29.301  1.00  0.00     0.010 A 
ATOM     64  C   UNL A   1      46.320  33.636  26.958  1.00  0.00     0.010 A 
ATOM     65  C   UNL A   1      47.166  34.650  29.426  1.00  0.00     0.020 A 
ATOM     66  C   UNL A   1      46.662  34.987  27.073  1.00  0.00     0.020 A 
ATOM     67  C   UNL A   1      47.065  35.489  28.313  1.00  0.00     0.054 A 
BRANCH  67  68
ATOM     68  S   UNL A   1      47.498  37.241  28.497  1.00  0.00     0.124 S 
ATOM     69  O   UNL A   1      46.194  37.844  28.765  1.00  0.00    -0.237 OA
ATOM     70  O   UNL A   1      48.426  37.227  29.625  1.00  0.00    -0.237 OA
ATOM     71  O   UNL A   1      48.092  37.587  27.209  1.00  0.00    -0.744 OA
ENDBRANCH  67  68
ENDBRANCH  48  62
BRANCH  49  72
ATOM     72  C   UNL A   1      43.462  23.328  26.880  1.00  0.00    -0.014 A 
ATOM     73  C   UNL A   1      43.417  22.788  25.582  1.00  0.00     0.010 A 
ATOM     74  C   UNL A   1      43.104  22.519  27.973  1.00  0.00     0.010 A 
ATOM     75  C   UNL A   1      43.006  21.468  25.379  1.00  0.00     0.020 A 
ATOM     76  C   UNL A   1      42.714  21.191  27.775  1.00  0.00     0.020 A 
ATOM     77  C   UNL A   1      42.657  20.677  26.478  1.00  0.00     0.054 A 
BRANCH  77  78
ATOM     78  S   UNL A   1      42.184  18.947  26.199  1.00  0.00     0.124 S 
ATOM     79  O   UNL A   1      42.381  18.363  27.522  1.00  0.00    -0.237 OA
ATOM     80  O   UNL A   1      40.796  19.063  25.756  1.00  0.00    -0.237 OA
ATOM     81  O   UNL A   1      43.121  18.502  25.169  1.00  0.00    -0.744 OA
ENDBRANCH  77  78
ENDBRANCH  49  72
BRANCH  61  82
ATOM     82  C   UNL A   1      49.575  26.593  26.156  1.00  0.00    -0.014 A 
ATOM     83  C   UNL A   1      50.082  26.821  24.864  1.00  0.00     0.010 A 
ATOM     84  C   UNL A   1      50.387  25.949  27.108  1.00  0.00     0.010 A 
ATOM     85  C   UNL A   1      51.367  26.391  24.523  1.00  0.00     0.020 A 
ATOM     86  C   UNL A   1      51.679  25.537  26.777  1.00  0.00     0.020 A 
ATOM     87  C   UNL A   1      52.158  25.749  25.482  1.00  0.00     0.054 A 
BRANCH  87  88
ATOM     88  S   UNL A   1      53.840  25.240  25.034  1.00  0.00     0.124 S 
ATOM     89  O   UNL A   1      54.029  25.916  23.753  1.00  0.00    -0.237 OA
ATOM     90  O   UNL A   1      54.641  25.755  26.141  1.00  0.00    -0.237 OA
ATOM     91  O   UNL A   1      53.751  23.783  24.963  1.00  0.00    -0.744 OA
ENDBRANCH  87  88
ENDBRANCH  61  82
ENDBRANCH  35  36
ENDBRANCH  27  30
ENDBRANCH  25  26
ENDBRANCH  24  25
ENDBRANCH   1  24
TORSDOF 18
ENDMDL
