MODEL 1
REMARK VINA RESULT:     -11.3      0.000      0.000
REMARK SMILES CCc1cc(C(=O)c2[nH]c3cc(Cl)ccc3c2CC(=O)NCCCCNC(=O)c2ccc(-c3c4nc(c(-c5ccc(S(=O)(=O)[O-])cc5)c5ccc([nH]5)c(-c5ccc(S(=O)(=O)[O-])cc5)c5nc(c(-c6ccc(S(=O)(=O)[O-])cc6)c6ccc3[nH]6)C=C5)C=C4)cc2)ncc1Cl
REMARK SMILES IDX 23 1 22 2 21 3 19 4 20 5 18 7 17 8 8 9 9 10 10 11 16 13
REMARK SMILES IDX 11 14 15 15 12 16 14 17 13 18 6 19 7 20 5 21 3 22 4 23 91 24
REMARK SMILES IDX 90 25 92 26 89 27 2 28 1 29 24 30 25 31 26 32 27 33 28 35
REMARK SMILES IDX 29 36 30 37 88 38 31 39 87 40 32 41 33 42 34 43 81 44 35 45
REMARK SMILES IDX 86 46 80 47 82 48 36 49 85 50 79 51 78 52 37 54 67 55 48 56
REMARK SMILES IDX 66 57 49 58 52 59 65 60 83 61 50 62 51 63 64 65 84 66 53 67
REMARK SMILES IDX 38 68 39 69 47 70 40 71 46 72 41 73 42 74 43 75 44 76 45 77
REMARK SMILES IDX 68 78 69 79 77 80 70 81 76 82 71 83 72 84 73 85 74 86 75 87
REMARK SMILES IDX 54 88 55 89 63 90 56 91 62 92 57 93 58 94 59 95 60 96 61 97
REMARK H PARENT 21 6 9 12 26 34 82 53 52 64
REMARK Flexibility Score: inf
ROOT
ATOM      1  C   UNL A   1      32.352  25.612  26.269  1.00  0.00     0.023 C 
ENDROOT
BRANCH   1   2
ATOM      2  C   UNL A   1      31.117  24.986  25.624  1.00  0.00     0.116 C 
BRANCH   2   3
ATOM      3  N   UNL A   1      31.018  23.559  25.851  1.00  0.00    -0.356 N 
ATOM      4  C   UNL A   1      31.429  22.528  25.054  1.00  0.00     0.224 C 
ATOM      5  O   UNL A   1      31.423  21.386  25.524  1.00  0.00    -0.275 OA
ATOM      6  H   UNL A   1      30.595  23.294  26.700  1.00  0.00     0.163 HD
BRANCH   4   7
ATOM      7  C   UNL A   1      32.001  22.790  23.671  1.00  0.00     0.138 C 
BRANCH   7   8
ATOM      8  C   UNL A   1      33.394  23.355  23.639  1.00  0.00    -0.002 A 
ATOM      9  C   UNL A   1      33.853  24.443  22.899  1.00  0.00     0.093 A 
ATOM     10  N   UNL A   1      35.171  24.645  23.242  1.00  0.00    -0.351 N 
ATOM     11  C   UNL A   1      35.617  23.649  24.075  1.00  0.00     0.048 A 
ATOM     12  H   UNL A   1      35.719  25.402  22.932  1.00  0.00     0.167 HD
ATOM     13  C   UNL A   1      34.530  22.818  24.338  1.00  0.00     0.004 A 
ATOM     14  C   UNL A   1      36.888  23.440  24.625  1.00  0.00     0.047 A 
ATOM     15  C   UNL A   1      34.725  21.711  25.190  1.00  0.00     0.012 A 
ATOM     16  C   UNL A   1      37.049  22.334  25.464  1.00  0.00     0.043 A 
ATOM     17  C   UNL A   1      35.990  21.478  25.746  1.00  0.00     0.021 A 
ATOM     18  Cl  UNL A   1      38.596  22.026  26.159  1.00  0.00    -0.084 Cl
BRANCH   9  19
ATOM     19  C   UNL A   1      33.131  25.317  21.989  1.00  0.00     0.227 C 
ATOM     20  O   UNL A   1      33.080  25.086  20.787  1.00  0.00    -0.285 OA
BRANCH  19  21
ATOM     21  C   UNL A   1      32.405  26.511  22.568  1.00  0.00     0.113 A 
ATOM     22  C   UNL A   1      30.373  27.711  23.151  1.00  0.00    -0.026 A 
ATOM     23  C   UNL A   1      31.009  26.564  22.642  1.00  0.00     0.037 A 
ATOM     24  C   UNL A   1      31.194  28.744  23.629  1.00  0.00     0.062 A 
ATOM     25  C   UNL A   1      32.573  28.603  23.534  1.00  0.00     0.132 A 
ATOM     26  Cl  UNL A   1      30.557  30.182  24.339  1.00  0.00    -0.082 Cl
ATOM     27  N   UNL A   1      33.191  27.525  23.004  1.00  0.00    -0.251 NA
BRANCH  22  28
ATOM     28  C   UNL A   1      28.863  27.827  23.217  1.00  0.00     0.034 C 
ATOM     29  C   UNL A   1      28.115  26.699  23.920  1.00  0.00     0.009 C 
ENDBRANCH  22  28
ENDBRANCH  19  21
ENDBRANCH   9  19
ENDBRANCH   7   8
ENDBRANCH   4   7
ENDBRANCH   2   3
ENDBRANCH   1   2
BRANCH   1  30
ATOM     30  C   UNL A   1      32.186  27.055  26.759  1.00  0.00     0.023 C 
BRANCH  30  31
ATOM     31  C   UNL A   1      33.470  27.870  26.903  1.00  0.00     0.116 C 
BRANCH  31  32
ATOM     32  N   UNL A   1      33.228  29.271  27.199  1.00  0.00    -0.352 N 
ATOM     33  C   UNL A   1      34.068  30.220  27.725  1.00  0.00     0.251 C 
ATOM     34  H   UNL A   1      32.321  29.590  26.990  1.00  0.00     0.163 HD
ATOM     35  O   UNL A   1      33.620  31.339  27.972  1.00  0.00    -0.269 OA
BRANCH  33  36
ATOM     36  C   UNL A   1      35.485  29.913  28.030  1.00  0.00     0.039 A 
ATOM     37  C   UNL A   1      35.809  29.554  29.344  1.00  0.00     0.014 A 
ATOM     38  C   UNL A   1      36.495  30.020  27.069  1.00  0.00     0.014 A 
ATOM     39  C   UNL A   1      37.130  29.251  29.683  1.00  0.00     0.010 A 
ATOM     40  C   UNL A   1      37.812  29.690  27.402  1.00  0.00     0.010 A 
ATOM     41  C   UNL A   1      38.137  29.299  28.709  1.00  0.00    -0.014 A 
BRANCH  41  42
ATOM     42  C   UNL A   1      39.532  28.933  29.046  1.00  0.00     0.031 A 
ATOM     43  C   UNL A   1      40.433  29.919  29.728  1.00  0.00     0.074 A 
ATOM     44  C   UNL A   1      40.001  27.721  28.701  1.00  0.00     0.049 A 
ATOM     45  N   UNL A   1      41.704  29.803  30.022  1.00  0.00    -0.248 NA
ATOM     46  C   UNL A   1      39.836  31.205  30.114  1.00  0.00     0.031 C 
ATOM     47  C   UNL A   1      39.236  26.681  28.010  1.00  0.00     0.029 A 
ATOM     48  N   UNL A   1      41.240  27.163  28.881  1.00  0.00    -0.354 N 
ATOM     49  C   UNL A   1      42.070  31.015  30.591  1.00  0.00     0.074 A 
ATOM     50  C   UNL A   1      40.882  31.846  30.616  1.00  0.00     0.031 C 
ATOM     51  C   UNL A   1      40.022  25.606  27.835  1.00  0.00     0.029 A 
ATOM     52  C   UNL A   1      41.344  25.886  28.390  1.00  0.00     0.049 A 
ATOM     53  H   UNL A   1      41.985  27.633  29.321  1.00  0.00     0.167 HD
ATOM     54  C   UNL A   1      43.286  31.409  31.039  1.00  0.00     0.031 A 
ATOM     55  C   UNL A   1      42.385  25.034  28.383  1.00  0.00     0.031 A 
ATOM     56  C   UNL A   1      44.463  30.585  31.049  1.00  0.00     0.049 A 
ATOM     57  C   UNL A   1      43.694  25.452  28.982  1.00  0.00     0.074 A 
ATOM     58  C   UNL A   1      45.740  30.902  31.479  1.00  0.00     0.029 A 
ATOM     59  N   UNL A   1      44.501  29.267  30.624  1.00  0.00    -0.354 N 
ATOM     60  N   UNL A   1      44.025  26.610  29.501  1.00  0.00    -0.248 NA
ATOM     61  C   UNL A   1      44.766  24.448  28.999  1.00  0.00     0.031 C 
ATOM     62  C   UNL A   1      46.550  29.768  31.323  1.00  0.00     0.029 A 
ATOM     63  C   UNL A   1      45.773  28.748  30.797  1.00  0.00     0.049 A 
ATOM     64  H   UNL A   1      43.736  28.772  30.252  1.00  0.00     0.167 HD
ATOM     65  C   UNL A   1      45.347  26.475  29.904  1.00  0.00     0.074 A 
ATOM     66  C   UNL A   1      45.750  25.121  29.581  1.00  0.00     0.031 C 
ATOM     67  C   UNL A   1      46.154  27.397  30.483  1.00  0.00     0.031 A 
BRANCH  54  68
ATOM     68  C   UNL A   1      43.383  32.821  31.535  1.00  0.00    -0.014 A 
ATOM     69  C   UNL A   1      43.622  33.880  30.643  1.00  0.00     0.010 A 
ATOM     70  C   UNL A   1      43.284  33.083  32.913  1.00  0.00     0.010 A 
ATOM     71  C   UNL A   1      43.808  35.179  31.126  1.00  0.00     0.020 A 
ATOM     72  C   UNL A   1      43.466  34.380  33.399  1.00  0.00     0.020 A 
ATOM     73  C   UNL A   1      43.751  35.415  32.503  1.00  0.00     0.054 A 
BRANCH  73  74
ATOM     74  S   UNL A   1      44.036  37.088  33.147  1.00  0.00     0.124 S 
ATOM     75  O   UNL A   1      42.849  37.295  33.973  1.00  0.00    -0.237 OA
ATOM     76  O   UNL A   1      45.293  36.959  33.881  1.00  0.00    -0.237 OA
ATOM     77  O   UNL A   1      44.108  37.901  31.936  1.00  0.00    -0.744 OA
ENDBRANCH  73  74
ENDBRANCH  54  68
BRANCH  55  78
ATOM     78  C   UNL A   1      42.210  23.686  27.793  1.00  0.00    -0.014 A 
ATOM     79  C   UNL A   1      42.462  23.479  26.425  1.00  0.00     0.010 A 
ATOM     80  C   UNL A   1      41.860  22.597  28.607  1.00  0.00     0.010 A 
ATOM     81  C   UNL A   1      42.375  22.197  25.880  1.00  0.00     0.020 A 
ATOM     82  C   UNL A   1      41.779  21.312  28.065  1.00  0.00     0.020 A 
ATOM     83  C   UNL A   1      42.037  21.119  26.704  1.00  0.00     0.054 A 
BRANCH  83  84
ATOM     84  S   UNL A   1      42.020  19.437  26.025  1.00  0.00     0.124 S 
ATOM     85  O   UNL A   1      42.540  18.654  27.141  1.00  0.00    -0.237 OA
ATOM     86  O   UNL A   1      40.610  19.219  25.705  1.00  0.00    -0.237 OA
ATOM     87  O   UNL A   1      42.900  19.545  24.864  1.00  0.00    -0.744 OA
ENDBRANCH  83  84
ENDBRANCH  55  78
BRANCH  67  88
ATOM     88  C   UNL A   1      47.551  26.959  30.809  1.00  0.00    -0.014 A 
ATOM     89  C   UNL A   1      47.865  26.483  32.093  1.00  0.00     0.010 A 
ATOM     90  C   UNL A   1      48.554  27.013  29.826  1.00  0.00     0.010 A 
ATOM     91  C   UNL A   1      49.169  26.085  32.398  1.00  0.00     0.020 A 
ATOM     92  C   UNL A   1      49.858  26.614  30.127  1.00  0.00     0.020 A 
ATOM     93  C   UNL A   1      50.160  26.164  31.415  1.00  0.00     0.054 A 
BRANCH  93  94
ATOM     94  S   UNL A   1      51.851  25.627  31.798  1.00  0.00     0.124 S 
ATOM     95  O   UNL A   1      52.559  25.959  30.566  1.00  0.00    -0.237 OA
ATOM     96  O   UNL A   1      52.206  26.435  32.962  1.00  0.00    -0.237 OA
ATOM     97  O   UNL A   1      51.694  24.199  32.065  1.00  0.00    -0.744 OA
ENDBRANCH  93  94
ENDBRANCH  67  88
ENDBRANCH  41  42
ENDBRANCH  33  36
ENDBRANCH  31  32
ENDBRANCH  30  31
ENDBRANCH   1  30
TORSDOF 18
ENDMDL
MODEL 2
REMARK VINA RESULT:     -11.3      3.053      3.820
REMARK SMILES CCc1cc(C(=O)c2[nH]c3cc(Cl)ccc3c2CC(=O)NCCCCNC(=O)c2ccc(-c3c4nc(c(-c5ccc(S(=O)(=O)[O-])cc5)c5ccc([nH]5)c(-c5ccc(S(=O)(=O)[O-])cc5)c5nc(c(-c6ccc(S(=O)(=O)[O-])cc6)c6ccc3[nH]6)C=C5)C=C4)cc2)ncc1Cl
REMARK SMILES IDX 23 1 22 2 21 3 19 4 20 5 18 7 17 8 8 9 9 10 10 11 16 13
REMARK SMILES IDX 11 14 15 15 12 16 14 17 13 18 6 19 7 20 5 21 3 22 4 23 91 24
REMARK SMILES IDX 90 25 92 26 89 27 2 28 1 29 24 30 25 31 26 32 27 33 28 35
REMARK SMILES IDX 29 36 30 37 88 38 31 39 87 40 32 41 33 42 34 43 81 44 35 45
REMARK SMILES IDX 86 46 80 47 82 48 36 49 85 50 79 51 78 52 37 54 67 55 48 56
REMARK SMILES IDX 66 57 49 58 52 59 65 60 83 61 50 62 51 63 64 65 84 66 53 67
REMARK SMILES IDX 38 68 39 69 47 70 40 71 46 72 41 73 42 74 43 75 44 76 45 77
REMARK SMILES IDX 68 78 69 79 77 80 70 81 76 82 71 83 72 84 73 85 74 86 75 87
REMARK SMILES IDX 54 88 55 89 63 90 56 91 62 92 57 93 58 94 59 95 60 96 61 97
REMARK H PARENT 21 6 9 12 26 34 82 53 52 64
REMARK Flexibility Score: inf
ROOT
ATOM      1  C   UNL A   1      33.292  29.069  26.700  1.00  0.00     0.023 C 
ENDROOT
BRANCH   1   2
ATOM      2  C   UNL A   1      32.917  27.944  25.737  1.00  0.00     0.116 C 
BRANCH   2   3
ATOM      3  N   UNL A   1      32.063  26.941  26.339  1.00  0.00    -0.356 N 
ATOM      4  C   UNL A   1      32.184  25.581  26.321  1.00  0.00     0.224 C 
ATOM      5  O   UNL A   1      31.452  24.917  27.060  1.00  0.00    -0.275 OA
ATOM      6  H   UNL A   1      31.284  27.290  26.832  1.00  0.00     0.163 HD
BRANCH   4   7
ATOM      7  C   UNL A   1      33.278  24.905  25.509  1.00  0.00     0.138 C 
BRANCH   7   8
ATOM      8  C   UNL A   1      32.816  24.161  24.287  1.00  0.00    -0.002 A 
ATOM      9  C   UNL A   1      32.337  24.700  23.094  1.00  0.00     0.093 A 
ATOM     10  N   UNL A   1      32.108  23.651  22.233  1.00  0.00    -0.351 N 
ATOM     11  C   UNL A   1      32.295  22.448  22.868  1.00  0.00     0.048 A 
ATOM     12  H   UNL A   1      31.846  23.750  21.289  1.00  0.00     0.167 HD
ATOM     13  C   UNL A   1      32.731  22.731  24.160  1.00  0.00     0.004 A 
ATOM     14  C   UNL A   1      32.130  21.143  22.387  1.00  0.00     0.047 A 
ATOM     15  C   UNL A   1      33.009  21.650  25.024  1.00  0.00     0.012 A 
ATOM     16  C   UNL A   1      32.412  20.095  23.267  1.00  0.00     0.043 A 
ATOM     17  C   UNL A   1      32.845  20.337  24.566  1.00  0.00     0.021 A 
ATOM     18  Cl  UNL A   1      32.215  18.470  22.727  1.00  0.00    -0.084 Cl
BRANCH   9  19
ATOM     19  C   UNL A   1      32.169  26.091  22.707  1.00  0.00     0.227 C 
ATOM     20  O   UNL A   1      33.083  26.726  22.196  1.00  0.00    -0.285 OA
BRANCH  19  21
ATOM     21  C   UNL A   1      30.816  26.735  22.916  1.00  0.00     0.113 A 
ATOM     22  C   UNL A   1      29.284  28.613  22.743  1.00  0.00    -0.026 A 
ATOM     23  C   UNL A   1      30.543  28.039  22.493  1.00  0.00     0.037 A 
ATOM     24  C   UNL A   1      28.320  27.805  23.366  1.00  0.00     0.062 A 
ATOM     25  C   UNL A   1      28.668  26.513  23.740  1.00  0.00     0.132 A 
ATOM     26  Cl  UNL A   1      26.714  28.350  23.679  1.00  0.00    -0.082 Cl
ATOM     27  N   UNL A   1      29.890  25.970  23.544  1.00  0.00    -0.251 NA
BRANCH  22  28
ATOM     28  C   UNL A   1      28.955  30.035  22.334  1.00  0.00     0.034 C 
ATOM     29  C   UNL A   1      29.015  31.098  23.427  1.00  0.00     0.009 C 
ENDBRANCH  22  28
ENDBRANCH  19  21
ENDBRANCH   9  19
ENDBRANCH   7   8
ENDBRANCH   4   7
ENDBRANCH   2   3
ENDBRANCH   1   2
BRANCH   1  30
ATOM     30  C   UNL A   1      34.716  29.015  27.263  1.00  0.00     0.023 C 
BRANCH  30  31
ATOM     31  C   UNL A   1      35.282  30.331  27.795  1.00  0.00     0.116 C 
BRANCH  31  32
ATOM     32  N   UNL A   1      35.238  30.427  29.244  1.00  0.00    -0.352 N 
ATOM     33  C   UNL A   1      36.224  30.205  30.173  1.00  0.00     0.251 C 
ATOM     34  H   UNL A   1      34.368  30.695  29.617  1.00  0.00     0.163 HD
ATOM     35  O   UNL A   1      35.937  30.266  31.368  1.00  0.00    -0.269 OA
BRANCH  33  36
ATOM     36  C   UNL A   1      37.605  29.861  29.766  1.00  0.00     0.039 A 
ATOM     37  C   UNL A   1      38.471  29.357  30.744  1.00  0.00     0.014 A 
ATOM     38  C   UNL A   1      38.075  30.072  28.466  1.00  0.00     0.014 A 
ATOM     39  C   UNL A   1      39.783  29.013  30.411  1.00  0.00     0.010 A 
ATOM     40  C   UNL A   1      39.379  29.703  28.126  1.00  0.00     0.010 A 
ATOM     41  C   UNL A   1      40.239  29.167  29.095  1.00  0.00    -0.014 A 
BRANCH  41  42
ATOM     42  C   UNL A   1      41.614  28.761  28.720  1.00  0.00     0.031 A 
ATOM     43  C   UNL A   1      42.730  29.763  28.722  1.00  0.00     0.074 A 
ATOM     44  C   UNL A   1      41.850  27.493  28.337  1.00  0.00     0.049 A 
ATOM     45  N   UNL A   1      43.973  29.607  28.342  1.00  0.00    -0.248 NA
ATOM     46  C   UNL A   1      42.404  31.115  29.195  1.00  0.00     0.031 C 
ATOM     47  C   UNL A   1      40.846  26.430  28.265  1.00  0.00     0.029 A 
ATOM     48  N   UNL A   1      43.011  26.889  27.931  1.00  0.00    -0.354 N 
ATOM     49  C   UNL A   1      44.570  30.852  28.492  1.00  0.00     0.074 A 
ATOM     50  C   UNL A   1      43.556  31.747  29.014  1.00  0.00     0.031 C 
ATOM     51  C   UNL A   1      41.440  25.298  27.850  1.00  0.00     0.029 A 
ATOM     52  C   UNL A   1      42.858  25.562  27.617  1.00  0.00     0.049 A 
ATOM     53  H   UNL A   1      43.873  27.361  27.870  1.00  0.00     0.167 HD
ATOM     54  C   UNL A   1      45.842  31.222  28.208  1.00  0.00     0.031 A 
ATOM     55  C   UNL A   1      43.756  24.656  27.188  1.00  0.00     0.031 A 
ATOM     56  C   UNL A   1      46.864  30.338  27.721  1.00  0.00     0.049 A 
ATOM     57  C   UNL A   1      45.184  25.062  26.983  1.00  0.00     0.074 A 
ATOM     58  C   UNL A   1      48.180  30.628  27.400  1.00  0.00     0.029 A 
ATOM     59  N   UNL A   1      46.689  28.982  27.502  1.00  0.00    -0.354 N 
ATOM     60  N   UNL A   1      45.725  26.249  27.115  1.00  0.00    -0.248 NA
ATOM     61  C   UNL A   1      46.121  24.006  26.578  1.00  0.00     0.031 C 
ATOM     62  C   UNL A   1      48.804  29.439  26.997  1.00  0.00     0.029 A 
ATOM     63  C   UNL A   1      47.875  28.413  27.069  1.00  0.00     0.049 A 
ATOM     64  H   UNL A   1      45.845  28.493  27.635  1.00  0.00     0.167 HD
ATOM     65  C   UNL A   1      47.069  26.084  26.805  1.00  0.00     0.074 A 
ATOM     66  C   UNL A   1      47.260  24.682  26.491  1.00  0.00     0.031 C 
ATOM     67  C   UNL A   1      48.052  27.016  26.775  1.00  0.00     0.031 A 
BRANCH  54  68
ATOM     68  C   UNL A   1      46.169  32.673  28.408  1.00  0.00    -0.014 A 
ATOM     69  C   UNL A   1      45.994  33.598  27.364  1.00  0.00     0.010 A 
ATOM     70  C   UNL A   1      46.703  33.104  29.635  1.00  0.00     0.010 A 
ATOM     71  C   UNL A   1      46.393  34.927  27.528  1.00  0.00     0.020 A 
ATOM     72  C   UNL A   1      47.099  34.432  29.804  1.00  0.00     0.020 A 
ATOM     73  C   UNL A   1      46.963  35.329  28.740  1.00  0.00     0.054 A 
BRANCH  73  74
ATOM     74  S   UNL A   1      47.528  37.041  28.950  1.00  0.00     0.124 S 
ATOM     75  O   UNL A   1      46.985  37.375  30.264  1.00  0.00    -0.237 OA
ATOM     76  O   UNL A   1      48.983  36.929  28.886  1.00  0.00    -0.237 OA
ATOM     77  O   UNL A   1      46.912  37.734  27.822  1.00  0.00    -0.744 OA
ENDBRANCH  73  74
ENDBRANCH  54  68
BRANCH  55  78
ATOM     78  C   UNL A   1      43.314  23.264  26.940  1.00  0.00    -0.014 A 
ATOM     79  C   UNL A   1      43.110  22.815  25.624  1.00  0.00     0.010 A 
ATOM     80  C   UNL A   1      43.163  22.368  28.010  1.00  0.00     0.010 A 
ATOM     81  C   UNL A   1      42.770  21.483  25.379  1.00  0.00     0.020 A 
ATOM     82  C   UNL A   1      42.828  21.033  27.768  1.00  0.00     0.020 A 
ATOM     83  C   UNL A   1      42.634  20.598  26.453  1.00  0.00     0.054 A 
BRANCH  83  84
ATOM     84  S   UNL A   1      42.291  18.845  26.139  1.00  0.00     0.124 S 
ATOM     85  O   UNL A   1      40.919  18.888  25.642  1.00  0.00    -0.237 OA
ATOM     86  O   UNL A   1      43.307  18.476  25.155  1.00  0.00    -0.237 OA
ATOM     87  O   UNL A   1      42.467  18.237  27.456  1.00  0.00    -0.744 OA
ENDBRANCH  83  84
ENDBRANCH  55  78
BRANCH  67  88
ATOM     88  C   UNL A   1      49.422  26.538  26.398  1.00  0.00    -0.014 A 
ATOM     89  C   UNL A   1      50.263  25.959  27.364  1.00  0.00     0.010 A 
ATOM     90  C   UNL A   1      49.870  26.657  25.071  1.00  0.00     0.010 A 
ATOM     91  C   UNL A   1      51.543  25.523  27.013  1.00  0.00     0.020 A 
ATOM     92  C   UNL A   1      51.149  26.220  24.718  1.00  0.00     0.020 A 
ATOM     93  C   UNL A   1      51.982  25.667  25.694  1.00  0.00     0.054 A 
BRANCH  93  94
ATOM     94  S   UNL A   1      53.635  25.082  25.226  1.00  0.00     0.124 S 
ATOM     95  O   UNL A   1      53.789  25.646  23.889  1.00  0.00    -0.237 OA
ATOM     96  O   UNL A   1      54.500  25.659  26.253  1.00  0.00    -0.237 OA
ATOM     97  O   UNL A   1      53.502  23.628  25.282  1.00  0.00    -0.744 OA
ENDBRANCH  93  94
ENDBRANCH  67  88
ENDBRANCH  41  42
ENDBRANCH  33  36
ENDBRANCH  31  32
ENDBRANCH  30  31
ENDBRANCH   1  30
TORSDOF 18
ENDMDL
MODEL 3
REMARK VINA RESULT:     -11.3      1.529      2.683
REMARK SMILES CCc1cc(C(=O)c2[nH]c3cc(Cl)ccc3c2CC(=O)NCCCCNC(=O)c2ccc(-c3c4nc(c(-c5ccc(S(=O)(=O)[O-])cc5)c5ccc([nH]5)c(-c5ccc(S(=O)(=O)[O-])cc5)c5nc(c(-c6ccc(S(=O)(=O)[O-])cc6)c6ccc3[nH]6)C=C5)C=C4)cc2)ncc1Cl
REMARK SMILES IDX 23 1 22 2 21 3 19 4 20 5 18 7 17 8 8 9 9 10 10 11 16 13
REMARK SMILES IDX 11 14 15 15 12 16 14 17 13 18 6 19 7 20 5 21 3 22 4 23 91 24
REMARK SMILES IDX 90 25 92 26 89 27 2 28 1 29 24 30 25 31 26 32 27 33 28 35
REMARK SMILES IDX 29 36 30 37 88 38 31 39 87 40 32 41 33 42 34 43 81 44 35 45
REMARK SMILES IDX 86 46 80 47 82 48 36 49 85 50 79 51 78 52 37 54 67 55 48 56
REMARK SMILES IDX 66 57 49 58 52 59 65 60 83 61 50 62 51 63 64 65 84 66 53 67
REMARK SMILES IDX 38 68 39 69 47 70 40 71 46 72 41 73 42 74 43 75 44 76 45 77
REMARK SMILES IDX 68 78 69 79 77 80 70 81 76 82 71 83 72 84 73 85 74 86 75 87
REMARK SMILES IDX 54 88 55 89 63 90 56 91 62 92 57 93 58 94 59 95 60 96 61 97
REMARK H PARENT 21 6 9 12 26 34 82 53 52 64
REMARK Flexibility Score: inf
ROOT
ATOM      1  C   UNL A   1      33.589  27.189  25.042  1.00  0.00     0.023 C 
ENDROOT
BRANCH   1   2
ATOM      2  C   UNL A   1      33.993  25.903  25.761  1.00  0.00     0.116 C 
BRANCH   2   3
ATOM      3  N   UNL A   1      34.912  25.087  24.994  1.00  0.00    -0.356 N 
ATOM      4  C   UNL A   1      35.203  23.759  25.127  1.00  0.00     0.224 C 
ATOM      5  O   UNL A   1      35.874  23.215  24.244  1.00  0.00    -0.275 OA
ATOM      6  H   UNL A   1      35.394  25.556  24.275  1.00  0.00     0.163 HD
BRANCH   4   7
ATOM      7  C   UNL A   1      34.611  22.939  26.261  1.00  0.00     0.138 C 
BRANCH   7   8
ATOM      8  C   UNL A   1      33.610  21.893  25.855  1.00  0.00    -0.002 A 
ATOM      9  C   UNL A   1      32.222  21.957  25.962  1.00  0.00     0.093 A 
ATOM     10  N   UNL A   1      31.714  20.810  25.397  1.00  0.00    -0.351 N 
ATOM     11  C   UNL A   1      32.724  19.948  25.048  1.00  0.00     0.048 A 
ATOM     12  H   UNL A   1      30.755  20.632  25.261  1.00  0.00     0.167 HD
ATOM     13  C   UNL A   1      33.927  20.593  25.330  1.00  0.00     0.004 A 
ATOM     14  C   UNL A   1      32.658  18.665  24.490  1.00  0.00     0.047 A 
ATOM     15  C   UNL A   1      35.131  19.913  25.047  1.00  0.00     0.012 A 
ATOM     16  C   UNL A   1      33.868  18.019  24.223  1.00  0.00     0.043 A 
ATOM     17  C   UNL A   1      35.089  18.627  24.494  1.00  0.00     0.021 A 
ATOM     18  Cl  UNL A   1      33.841  16.435  23.546  1.00  0.00    -0.084 Cl
BRANCH   9  19
ATOM     19  C   UNL A   1      31.380  23.029  26.469  1.00  0.00     0.227 C 
ATOM     20  O   UNL A   1      30.995  23.042  27.632  1.00  0.00    -0.285 OA
BRANCH  19  21
ATOM     21  C   UNL A   1      31.016  24.158  25.532  1.00  0.00     0.113 A 
ATOM     22  C   UNL A   1      31.104  25.266  23.370  1.00  0.00    -0.026 A 
ATOM     23  C   UNL A   1      31.432  24.176  24.196  1.00  0.00     0.037 A 
ATOM     24  C   UNL A   1      30.304  26.277  23.924  1.00  0.00     0.062 A 
ATOM     25  C   UNL A   1      29.920  26.174  25.255  1.00  0.00     0.132 A 
ATOM     26  Cl  UNL A   1      29.770  27.641  23.014  1.00  0.00    -0.082 Cl
ATOM     27  N   UNL A   1      30.269  25.153  26.069  1.00  0.00    -0.251 NA
BRANCH  22  28
ATOM     28  C   UNL A   1      31.563  25.344  21.927  1.00  0.00     0.034 C 
ATOM     29  C   UNL A   1      32.962  25.900  21.678  1.00  0.00     0.009 C 
ENDBRANCH  22  28
ENDBRANCH  19  21
ENDBRANCH   9  19
ENDBRANCH   7   8
ENDBRANCH   4   7
ENDBRANCH   2   3
ENDBRANCH   1   2
BRANCH   1  30
ATOM     30  C   UNL A   1      34.020  28.493  25.721  1.00  0.00     0.023 C 
BRANCH  30  31
ATOM     31  C   UNL A   1      33.643  28.644  27.194  1.00  0.00     0.116 C 
BRANCH  31  32
ATOM     32  N   UNL A   1      33.511  30.029  27.612  1.00  0.00    -0.352 N 
ATOM     33  C   UNL A   1      34.407  30.844  28.257  1.00  0.00     0.251 C 
ATOM     34  H   UNL A   1      32.647  30.447  27.398  1.00  0.00     0.163 HD
ATOM     35  O   UNL A   1      34.048  31.972  28.592  1.00  0.00    -0.269 OA
BRANCH  33  36
ATOM     36  C   UNL A   1      35.774  30.381  28.588  1.00  0.00     0.039 A 
ATOM     37  C   UNL A   1      36.766  30.513  27.608  1.00  0.00     0.014 A 
ATOM     38  C   UNL A   1      36.082  29.777  29.811  1.00  0.00     0.014 A 
ATOM     39  C   UNL A   1      38.072  30.095  27.871  1.00  0.00     0.010 A 
ATOM     40  C   UNL A   1      37.395  29.384  30.084  1.00  0.00     0.010 A 
ATOM     41  C   UNL A   1      38.399  29.544  29.117  1.00  0.00    -0.014 A 
BRANCH  41  42
ATOM     42  C   UNL A   1      39.791  29.141  29.424  1.00  0.00     0.031 A 
ATOM     43  C   UNL A   1      40.718  30.084  30.131  1.00  0.00     0.074 A 
ATOM     44  C   UNL A   1      40.234  27.934  29.028  1.00  0.00     0.049 A 
ATOM     45  N   UNL A   1      41.990  29.934  30.405  1.00  0.00    -0.248 NA
ATOM     46  C   UNL A   1      40.149  31.365  30.572  1.00  0.00     0.031 C 
ATOM     47  C   UNL A   1      39.441  26.935  28.309  1.00  0.00     0.029 A 
ATOM     48  N   UNL A   1      41.464  27.348  29.172  1.00  0.00    -0.354 N 
ATOM     49  C   UNL A   1      42.385  31.117  31.014  1.00  0.00     0.074 A 
ATOM     50  C   UNL A   1      41.212  31.968  31.085  1.00  0.00     0.031 C 
ATOM     51  C   UNL A   1      40.205  25.853  28.084  1.00  0.00     0.029 A 
ATOM     52  C   UNL A   1      41.538  26.088  28.632  1.00  0.00     0.049 A 
ATOM     53  H   UNL A   1      42.223  27.787  29.620  1.00  0.00     0.167 HD
ATOM     54  C   UNL A   1      43.613  31.472  31.461  1.00  0.00     0.031 A 
ATOM     55  C   UNL A   1      42.564  25.218  28.581  1.00  0.00     0.031 A 
ATOM     56  C   UNL A   1      44.774  30.627  31.426  1.00  0.00     0.049 A 
ATOM     57  C   UNL A   1      43.886  25.590  29.180  1.00  0.00     0.074 A 
ATOM     58  C   UNL A   1      46.062  30.905  31.852  1.00  0.00     0.029 A 
ATOM     59  N   UNL A   1      44.783  29.325  30.952  1.00  0.00    -0.354 N 
ATOM     60  N   UNL A   1      44.245  26.721  29.737  1.00  0.00    -0.248 NA
ATOM     61  C   UNL A   1      44.940  24.566  29.147  1.00  0.00     0.031 C 
ATOM     62  C   UNL A   1      46.849  29.762  31.645  1.00  0.00     0.029 A 
ATOM     63  C   UNL A   1      46.047  28.777  31.090  1.00  0.00     0.049 A 
ATOM     64  H   UNL A   1      44.005  28.858  30.572  1.00  0.00     0.167 HD
ATOM     65  C   UNL A   1      45.569  26.547  30.119  1.00  0.00     0.074 A 
ATOM     66  C   UNL A   1      45.943  25.199  29.741  1.00  0.00     0.031 C 
ATOM     67  C   UNL A   1      46.400  27.432  30.722  1.00  0.00     0.031 A 
BRANCH  54  68
ATOM     68  C   UNL A   1      43.742  32.863  32.009  1.00  0.00    -0.014 A 
ATOM     69  C   UNL A   1      43.503  33.123  33.369  1.00  0.00     0.010 A 
ATOM     70  C   UNL A   1      44.056  33.926  31.143  1.00  0.00     0.010 A 
ATOM     71  C   UNL A   1      43.530  34.435  33.849  1.00  0.00     0.020 A 
ATOM     72  C   UNL A   1      44.087  35.237  31.621  1.00  0.00     0.020 A 
ATOM     73  C   UNL A   1      43.800  35.485  32.967  1.00  0.00     0.054 A 
BRANCH  73  74
ATOM     74  S   UNL A   1      43.792  37.197  33.568  1.00  0.00     0.124 S 
ATOM     75  O   UNL A   1      42.555  37.234  34.344  1.00  0.00    -0.237 OA
ATOM     76  O   UNL A   1      45.022  37.288  34.351  1.00  0.00    -0.237 OA
ATOM     77  O   UNL A   1      43.784  37.982  32.336  1.00  0.00    -0.744 OA
ENDBRANCH  73  74
ENDBRANCH  54  68
BRANCH  55  78
ATOM     78  C   UNL A   1      42.357  23.896  27.944  1.00  0.00    -0.014 A 
ATOM     79  C   UNL A   1      42.789  23.677  26.624  1.00  0.00     0.010 A 
ATOM     80  C   UNL A   1      41.793  22.838  28.674  1.00  0.00     0.010 A 
ATOM     81  C   UNL A   1      42.669  22.413  26.045  1.00  0.00     0.020 A 
ATOM     82  C   UNL A   1      41.677  21.571  28.099  1.00  0.00     0.020 A 
ATOM     83  C   UNL A   1      42.116  21.365  26.787  1.00  0.00     0.054 A 
BRANCH  83  84
ATOM     84  S   UNL A   1      42.047  19.696  26.079  1.00  0.00     0.124 S 
ATOM     85  O   UNL A   1      40.640  19.578  25.714  1.00  0.00    -0.237 OA
ATOM     86  O   UNL A   1      42.985  19.769  24.960  1.00  0.00    -0.237 OA
ATOM     87  O   UNL A   1      42.485  18.852  27.188  1.00  0.00    -0.744 OA
ENDBRANCH  83  84
ENDBRANCH  55  78
BRANCH  67  88
ATOM     88  C   UNL A   1      47.791  26.957  31.014  1.00  0.00    -0.014 A 
ATOM     89  C   UNL A   1      48.867  27.376  30.213  1.00  0.00     0.010 A 
ATOM     90  C   UNL A   1      48.030  26.098  32.101  1.00  0.00     0.010 A 
ATOM     91  C   UNL A   1      50.162  26.925  30.480  1.00  0.00     0.020 A 
ATOM     92  C   UNL A   1      49.324  25.648  32.371  1.00  0.00     0.020 A 
ATOM     93  C   UNL A   1      50.380  26.054  31.552  1.00  0.00     0.054 A 
BRANCH  93  94
ATOM     94  S   UNL A   1      52.064  25.483  31.919  1.00  0.00     0.124 S 
ATOM     95  O   UNL A   1      51.839  24.083  32.266  1.00  0.00    -0.237 OA
ATOM     96  O   UNL A   1      52.778  25.711  30.665  1.00  0.00    -0.237 OA
ATOM     97  O   UNL A   1      52.474  26.345  33.025  1.00  0.00    -0.744 OA
ENDBRANCH  93  94
ENDBRANCH  67  88
ENDBRANCH  41  42
ENDBRANCH  33  36
ENDBRANCH  31  32
ENDBRANCH  30  31
ENDBRANCH   1  30
TORSDOF 18
ENDMDL
