MODEL 1
REMARK VINA RESULT:     -15.0      0.000      0.000
REMARK SMILES Cc1c(NCc2ccccn2)cccc1C(=O)N1CCOC[C@@H]1CC(=O)NCCCCNC(=O)c1ccc(-c2c3nc(c(-c4ccc(S(=O)(=O)[O-])cc4)c4ccc([nH]4)c(-c4ccc(S(=O)(=O)[O-])cc4)c4nc(c(-c5ccc(S(=O)(=O)[O-])cc5)c5ccc2[nH]5)C=C4)C=C3)cc1
REMARK SMILES IDX 28 1 27 2 25 3 26 4 24 6 23 7 18 8 19 9 20 10 22 11 21 12
REMARK SMILES IDX 16 13 17 14 15 15 1 16 2 17 3 18 12 19 14 20 13 21 4 22 5 24
REMARK SMILES IDX 6 25 7 26 11 27 8 28 10 29 9 30 29 31 30 32 31 33 32 34
REMARK SMILES IDX 33 35 34 37 35 38 36 39 94 40 37 41 93 42 38 43 39 44 40 45
REMARK SMILES IDX 87 46 41 47 92 48 86 49 88 50 42 51 91 52 85 53 84 54 43 56
REMARK SMILES IDX 73 57 54 58 72 59 55 60 58 61 71 62 89 63 56 64 57 65 70 67
REMARK SMILES IDX 90 68 59 69 44 70 45 71 53 72 46 73 52 74 47 75 48 76 49 77
REMARK SMILES IDX 50 78 51 79 74 80 75 81 83 82 76 83 82 84 77 85 78 86 79 87
REMARK SMILES IDX 80 88 81 89 60 90 61 91 69 92 62 93 68 94 63 95 64 96 65 97
REMARK SMILES IDX 66 98 67 99
REMARK H PARENT 27 5 4 23 32 36 88 55 58 66
REMARK Flexibility Score: inf
ROOT
ATOM      1  C   UNL A   1      32.987  30.407  26.740  1.00  0.00     0.116 C 
ENDROOT
BRANCH   1   2
ATOM      2  N   UNL A   1      32.547  29.472  27.728  1.00  0.00    -0.356 N 
ATOM      3  C   UNL A   1      32.034  28.259  27.368  1.00  0.00     0.222 C 
ATOM      4  O   UNL A   1      31.127  27.777  28.045  1.00  0.00    -0.275 OA
ATOM      5  H   UNL A   1      32.615  29.707  28.681  1.00  0.00     0.163 HD
BRANCH   3   6
ATOM      6  C   UNL A   1      32.660  27.525  26.178  1.00  0.00     0.127 C 
BRANCH   6   7
ATOM      7  C   UNL A   1      31.887  27.316  24.852  1.00  0.00     0.120 C 
ATOM      8  N   UNL A   1      32.470  26.649  23.597  1.00  0.00    -0.331 N 
ATOM      9  C   UNL A   1      31.367  26.372  22.665  1.00  0.00     0.148 C 
ATOM     10  C   UNL A   1      30.523  27.625  22.356  1.00  0.00     0.181 C 
ATOM     11  C   UNL A   1      31.167  28.616  24.408  1.00  0.00     0.185 C 
ATOM     12  O   UNL A   1      30.066  28.292  23.541  1.00  0.00    -0.377 OA
BRANCH   8  13
ATOM     13  C   UNL A   1      33.487  25.656  23.597  1.00  0.00     0.254 C 
ATOM     14  O   UNL A   1      34.116  25.446  22.559  1.00  0.00    -0.269 OA
BRANCH  13  15
ATOM     15  C   UNL A   1      33.627  24.605  24.791  1.00  0.00     0.045 A 
ATOM     16  C   UNL A   1      31.122  23.223  24.599  1.00  0.00     0.047 C 
ATOM     17  C   UNL A   1      32.570  23.141  24.925  1.00  0.00    -0.015 A 
ATOM     18  C   UNL A   1      33.242  21.506  25.371  1.00  0.00     0.038 A 
ATOM     19  C   UNL A   1      35.030  21.307  25.581  1.00  0.00     0.026 A 
ATOM     20  C   UNL A   1      35.385  24.436  25.204  1.00  0.00     0.014 A 
ATOM     21  C   UNL A   1      36.112  22.810  25.540  1.00  0.00     0.003 A 
BRANCH  18  22
ATOM     22  N   UNL A   1      32.376  20.410  25.450  1.00  0.00    -0.379 N 
ATOM     23  H   UNL A   1      31.821  20.267  26.251  1.00  0.00     0.160 HD
BRANCH  22  24
ATOM     24  C   UNL A   1      32.312  19.481  24.325  1.00  0.00     0.169 C 
BRANCH  24  25
ATOM     25  C   UNL A   1      33.008  18.151  24.607  1.00  0.00     0.059 A 
ATOM     26  C   UNL A   1      32.365  17.129  25.308  1.00  0.00     0.026 A 
ATOM     27  N   UNL A   1      34.301  18.025  24.196  1.00  0.00    -0.259 NA
ATOM     28  C   UNL A   1      33.057  15.960  25.613  1.00  0.00     0.004 A 
ATOM     29  C   UNL A   1      34.954  16.887  24.530  1.00  0.00     0.111 A 
ATOM     30  C   UNL A   1      34.382  15.837  25.226  1.00  0.00     0.020 A 
ENDBRANCH  24  25
ENDBRANCH  22  24
ENDBRANCH  18  22
ENDBRANCH  13  15
ENDBRANCH   8  13
ENDBRANCH   6   7
ENDBRANCH   3   6
ENDBRANCH   1   2
BRANCH   1  31
ATOM     31  C   UNL A   1      34.078  31.270  27.394  1.00  0.00     0.023 C 
BRANCH  31  32
ATOM     32  C   UNL A   1      33.693  32.687  27.793  1.00  0.00     0.023 C 
BRANCH  32  33
ATOM     33  C   UNL A   1      35.042  33.434  28.392  1.00  0.00     0.116 C 
BRANCH  33  34
ATOM     34  N   UNL A   1      36.772  32.752  29.354  1.00  0.00    -0.352 N 
ATOM     35  C   UNL A   1      37.557  31.554  29.872  1.00  0.00     0.251 C 
ATOM     36  H   UNL A   1      37.310  33.551  29.562  1.00  0.00     0.163 HD
ATOM     37  O   UNL A   1      38.198  31.715  30.917  1.00  0.00    -0.269 OA
BRANCH  35  38
ATOM     38  C   UNL A   1      37.731  30.184  29.213  1.00  0.00     0.039 A 
ATOM     39  C   UNL A   1      37.607  29.059  30.023  1.00  0.00     0.014 A 
ATOM     40  C   UNL A   1      38.301  29.978  27.968  1.00  0.00     0.014 A 
ATOM     41  C   UNL A   1      38.511  28.008  29.890  1.00  0.00     0.010 A 
ATOM     42  C   UNL A   1      39.331  29.051  27.911  1.00  0.00     0.010 A 
ATOM     43  C   UNL A   1      39.532  28.162  28.975  1.00  0.00    -0.014 A 
BRANCH  43  44
ATOM     44  C   UNL A   1      40.893  27.640  29.164  1.00  0.00     0.031 A 
ATOM     45  C   UNL A   1      41.176  26.261  28.727  1.00  0.00     0.074 A 
ATOM     46  C   UNL A   1      41.911  28.453  29.559  1.00  0.00     0.049 A 
ATOM     47  N   UNL A   1      42.311  25.686  28.874  1.00  0.00    -0.248 NA
ATOM     48  C   UNL A   1      40.185  25.393  28.098  1.00  0.00     0.031 C 
ATOM     49  C   UNL A   1      43.362  28.238  29.484  1.00  0.00     0.029 A 
ATOM     50  N   UNL A   1      41.812  29.626  30.303  1.00  0.00    -0.354 N 
ATOM     51  C   UNL A   1      42.286  24.494  28.198  1.00  0.00     0.074 A 
ATOM     52  C   UNL A   1      40.933  24.349  27.729  1.00  0.00     0.031 C 
ATOM     53  C   UNL A   1      43.984  29.060  30.348  1.00  0.00     0.029 A 
ATOM     54  C   UNL A   1      42.957  29.741  31.112  1.00  0.00     0.049 A 
ATOM     55  H   UNL A   1      41.065  30.267  30.268  1.00  0.00     0.167 HD
ATOM     56  C   UNL A   1      43.455  23.816  28.083  1.00  0.00     0.031 A 
ATOM     57  C   UNL A   1      42.806  29.667  32.470  1.00  0.00     0.031 A 
ATOM     58  C   UNL A   1      44.439  24.346  29.029  1.00  0.00     0.049 A 
ATOM     59  C   UNL A   1      43.323  28.350  33.044  1.00  0.00     0.074 A 
ATOM     60  C   UNL A   1      45.546  25.171  28.945  1.00  0.00     0.029 A 
ATOM     61  N   UNL A   1      44.093  24.311  30.372  1.00  0.00    -0.354 N 
ATOM     62  N   UNL A   1      43.834  27.387  32.320  1.00  0.00    -0.248 NA
ATOM     63  C   UNL A   1      43.284  27.987  34.461  1.00  0.00     0.031 C 
ATOM     64  C   UNL A   1      45.822  25.666  30.262  1.00  0.00     0.029 A 
ATOM     65  C   UNL A   1      44.917  25.100  31.145  1.00  0.00     0.049 A 
ATOM     66  H   UNL A   1      43.344  23.783  30.732  1.00  0.00     0.167 HD
ATOM     67  C   UNL A   1      44.148  26.307  33.099  1.00  0.00     0.074 A 
ATOM     68  C   UNL A   1      43.767  26.730  34.439  1.00  0.00     0.031 C 
ATOM     69  C   UNL A   1      44.674  25.153  32.584  1.00  0.00     0.031 A 
BRANCH  56  70
ATOM     70  C   UNL A   1      43.744  22.749  27.061  1.00  0.00    -0.014 A 
ATOM     71  C   UNL A   1      42.842  21.674  26.942  1.00  0.00     0.010 A 
ATOM     72  C   UNL A   1      44.911  22.675  26.274  1.00  0.00     0.010 A 
ATOM     73  C   UNL A   1      43.108  20.570  26.122  1.00  0.00     0.020 A 
ATOM     74  C   UNL A   1      45.186  21.582  25.439  1.00  0.00     0.020 A 
ATOM     75  C   UNL A   1      44.287  20.526  25.380  1.00  0.00     0.054 A 
BRANCH  75  76
ATOM     76  S   UNL A   1      44.632  19.067  24.367  1.00  0.00     0.124 S 
ATOM     77  O   UNL A   1      43.608  18.127  24.817  1.00  0.00    -0.237 OA
ATOM     78  O   UNL A   1      44.466  19.580  23.010  1.00  0.00    -0.237 OA
ATOM     79  O   UNL A   1      46.001  18.707  24.730  1.00  0.00    -0.744 OA
ENDBRANCH  75  76
ENDBRANCH  56  70
BRANCH  57  80
ATOM     80  C   UNL A   1      41.638  30.501  32.918  1.00  0.00    -0.014 A 
ATOM     81  C   UNL A   1      40.401  29.818  33.042  1.00  0.00     0.010 A 
ATOM     82  C   UNL A   1      41.812  31.680  33.663  1.00  0.00     0.010 A 
ATOM     83  C   UNL A   1      39.466  30.178  34.021  1.00  0.00     0.020 A 
ATOM     84  C   UNL A   1      40.853  32.064  34.628  1.00  0.00     0.020 A 
ATOM     85  C   UNL A   1      39.718  31.273  34.842  1.00  0.00     0.054 A 
BRANCH  85  86
ATOM     86  S   UNL A   1      38.621  31.515  36.284  1.00  0.00     0.124 S 
ATOM     87  O   UNL A   1      38.241  30.147  36.618  1.00  0.00    -0.237 OA
ATOM     88  O   UNL A   1      39.514  32.167  37.242  1.00  0.00    -0.237 OA
ATOM     89  O   UNL A   1      37.537  32.340  35.758  1.00  0.00    -0.744 OA
ENDBRANCH  85  86
ENDBRANCH  57  80
BRANCH  69  90
ATOM     90  C   UNL A   1      44.971  23.913  33.398  1.00  0.00    -0.014 A 
ATOM     91  C   UNL A   1      44.024  22.909  33.639  1.00  0.00     0.010 A 
ATOM     92  C   UNL A   1      46.226  23.770  34.040  1.00  0.00     0.010 A 
ATOM     93  C   UNL A   1      44.354  21.770  34.390  1.00  0.00     0.020 A 
ATOM     94  C   UNL A   1      46.559  22.657  34.810  1.00  0.00     0.020 A 
ATOM     95  C   UNL A   1      45.627  21.645  34.954  1.00  0.00     0.054 A 
BRANCH  95  96
ATOM     96  S   UNL A   1      46.043  20.161  35.897  1.00  0.00     0.124 S 
ATOM     97  O   UNL A   1      45.700  20.548  37.263  1.00  0.00    -0.237 OA
ATOM     98  O   UNL A   1      45.168  19.163  35.287  1.00  0.00    -0.237 OA
ATOM     99  O   UNL A   1      47.470  19.974  35.646  1.00  0.00    -0.744 OA
ENDBRANCH  95  96
ENDBRANCH  69  90
ENDBRANCH  43  44
ENDBRANCH  35  38
ENDBRANCH  33  34
ENDBRANCH  32  33
ENDBRANCH  31  32
ENDBRANCH   1  31
TORSDOF 20
ENDMDL
MODEL 2
REMARK VINA RESULT:     -14.4      1.533      2.270
REMARK SMILES Cc1c(NCc2ccccn2)cccc1C(=O)N1CCOC[C@@H]1CC(=O)NCCCCNC(=O)c1ccc(-c2c3nc(c(-c4ccc(S(=O)(=O)[O-])cc4)c4ccc([nH]4)c(-c4ccc(S(=O)(=O)[O-])cc4)c4nc(c(-c5ccc(S(=O)(=O)[O-])cc5)c5ccc2[nH]5)C=C4)C=C3)cc1
REMARK SMILES IDX 28 1 27 2 25 3 26 4 24 6 23 7 18 8 19 9 20 10 22 11 21 12
REMARK SMILES IDX 16 13 17 14 15 15 1 16 2 17 3 18 12 19 14 20 13 21 4 22 5 24
REMARK SMILES IDX 6 25 7 26 11 27 8 28 10 29 9 30 29 31 30 32 31 33 32 34
REMARK SMILES IDX 33 35 34 37 35 38 36 39 94 40 37 41 93 42 38 43 39 44 40 45
REMARK SMILES IDX 87 46 41 47 92 48 86 49 88 50 42 51 91 52 85 53 84 54 43 56
REMARK SMILES IDX 73 57 54 58 72 59 55 60 58 61 71 62 89 63 56 64 57 65 70 67
REMARK SMILES IDX 90 68 59 69 44 70 45 71 53 72 46 73 52 74 47 75 48 76 49 77
REMARK SMILES IDX 50 78 51 79 74 80 75 81 83 82 76 83 82 84 77 85 78 86 79 87
REMARK SMILES IDX 80 88 81 89 60 90 61 91 69 92 62 93 68 94 63 95 64 96 65 97
REMARK SMILES IDX 66 98 67 99
REMARK H PARENT 27 5 4 23 32 36 88 55 58 66
REMARK Flexibility Score: inf
ROOT
ATOM      1  C   UNL A   1      32.776  30.692  27.234  1.00  0.00     0.116 C 
ENDROOT
BRANCH   1   2
ATOM      2  N   UNL A   1      32.883  29.353  27.720  1.00  0.00    -0.356 N 
ATOM      3  C   UNL A   1      32.264  28.320  27.075  1.00  0.00     0.222 C 
ATOM      4  O   UNL A   1      31.810  27.393  27.745  1.00  0.00    -0.275 OA
ATOM      5  H   UNL A   1      33.411  29.172  28.531  1.00  0.00     0.163 HD
BRANCH   3   6
ATOM      6  C   UNL A   1      32.226  28.333  25.544  1.00  0.00     0.127 C 
BRANCH   6   7
ATOM      7  C   UNL A   1      30.901  28.158  24.760  1.00  0.00     0.120 C 
ATOM      8  N   UNL A   1      30.436  26.845  24.113  1.00  0.00    -0.331 N 
ATOM      9  C   UNL A   1      29.025  26.995  23.725  1.00  0.00     0.148 C 
ATOM     10  C   UNL A   1      28.782  28.234  22.840  1.00  0.00     0.181 C 
ATOM     11  C   UNL A   1      30.706  29.294  23.723  1.00  0.00     0.185 C 
ATOM     12  O   UNL A   1      29.308  29.438  23.414  1.00  0.00    -0.377 OA
BRANCH   8  13
ATOM     13  C   UNL A   1      30.771  25.544  24.574  1.00  0.00     0.254 C 
ATOM     14  O   UNL A   1      30.370  25.180  25.680  1.00  0.00    -0.269 OA
BRANCH  13  15
ATOM     15  C   UNL A   1      31.893  24.666  23.852  1.00  0.00     0.045 A 
ATOM     16  C   UNL A   1      34.212  25.377  25.382  1.00  0.00     0.047 C 
ATOM     17  C   UNL A   1      33.497  24.321  24.617  1.00  0.00    -0.015 A 
ATOM     18  C   UNL A   1      34.255  22.664  24.561  1.00  0.00     0.038 A 
ATOM     19  C   UNL A   1      33.336  21.292  23.817  1.00  0.00     0.026 A 
ATOM     20  C   UNL A   1      31.076  23.332  22.932  1.00  0.00     0.014 A 
ATOM     21  C   UNL A   1      31.739  21.646  22.949  1.00  0.00     0.003 A 
BRANCH  18  22
ATOM     22  N   UNL A   1      35.494  22.458  25.178  1.00  0.00    -0.379 N 
ATOM     23  H   UNL A   1      35.577  22.492  26.158  1.00  0.00     0.160 HD
BRANCH  22  24
ATOM     24  C   UNL A   1      36.661  22.193  24.341  1.00  0.00     0.169 C 
BRANCH  24  25
ATOM     25  C   UNL A   1      37.779  21.464  25.086  1.00  0.00     0.059 A 
ATOM     26  C   UNL A   1      38.687  22.154  25.889  1.00  0.00     0.026 A 
ATOM     27  N   UNL A   1      37.886  20.120  24.886  1.00  0.00    -0.259 NA
ATOM     28  C   UNL A   1      39.737  21.467  26.491  1.00  0.00     0.004 A 
ATOM     29  C   UNL A   1      38.933  19.486  25.464  1.00  0.00     0.111 A 
ATOM     30  C   UNL A   1      39.873  20.106  26.268  1.00  0.00     0.020 A 
ENDBRANCH  24  25
ENDBRANCH  22  24
ENDBRANCH  18  22
ENDBRANCH  13  15
ENDBRANCH   8  13
ENDBRANCH   6   7
ENDBRANCH   3   6
ENDBRANCH   1   2
BRANCH   1  31
ATOM     31  C   UNL A   1      33.817  31.530  27.994  1.00  0.00     0.023 C 
BRANCH  31  32
ATOM     32  C   UNL A   1      33.819  33.030  27.738  1.00  0.00     0.023 C 
BRANCH  32  33
ATOM     33  C   UNL A   1      35.350  33.593  28.015  1.00  0.00     0.116 C 
BRANCH  33  34
ATOM     34  N   UNL A   1      36.975  32.893  29.134  1.00  0.00    -0.352 N 
ATOM     35  C   UNL A   1      37.677  31.689  29.749  1.00  0.00     0.251 C 
ATOM     36  H   UNL A   1      37.519  33.682  29.361  1.00  0.00     0.163 HD
ATOM     37  O   UNL A   1      38.237  31.866  30.837  1.00  0.00    -0.269 OA
BRANCH  35  38
ATOM     38  C   UNL A   1      37.859  30.294  29.148  1.00  0.00     0.039 A 
ATOM     39  C   UNL A   1      37.733  29.203  30.003  1.00  0.00     0.014 A 
ATOM     40  C   UNL A   1      38.438  30.040  27.916  1.00  0.00     0.014 A 
ATOM     41  C   UNL A   1      38.641  28.151  29.919  1.00  0.00     0.010 A 
ATOM     42  C   UNL A   1      39.471  29.114  27.904  1.00  0.00     0.010 A 
ATOM     43  C   UNL A   1      39.668  28.270  29.004  1.00  0.00    -0.014 A 
BRANCH  43  44
ATOM     44  C   UNL A   1      41.029  27.760  29.223  1.00  0.00     0.031 A 
ATOM     45  C   UNL A   1      41.345  26.398  28.760  1.00  0.00     0.074 A 
ATOM     46  C   UNL A   1      42.023  28.576  29.673  1.00  0.00     0.049 A 
ATOM     47  N   UNL A   1      42.481  25.833  28.928  1.00  0.00    -0.248 NA
ATOM     48  C   UNL A   1      40.385  25.534  28.076  1.00  0.00     0.031 C 
ATOM     49  C   UNL A   1      43.478  28.381  29.638  1.00  0.00     0.029 A 
ATOM     50  N   UNL A   1      41.884  29.727  30.443  1.00  0.00    -0.354 N 
ATOM     51  C   UNL A   1      42.494  24.660  28.220  1.00  0.00     0.074 A 
ATOM     52  C   UNL A   1      41.159  24.510  27.705  1.00  0.00     0.031 C 
ATOM     53  C   UNL A   1      44.061  29.188  30.543  1.00  0.00     0.029 A 
ATOM     54  C   UNL A   1      43.001  29.836  31.291  1.00  0.00     0.049 A 
ATOM     55  H   UNL A   1      41.130  30.359  30.401  1.00  0.00     0.167 HD
ATOM     56  C   UNL A   1      43.675  23.999  28.125  1.00  0.00     0.031 A 
ATOM     57  C   UNL A   1      42.809  29.723  32.642  1.00  0.00     0.031 A 
ATOM     58  C   UNL A   1      44.622  24.517  29.116  1.00  0.00     0.049 A 
ATOM     59  C   UNL A   1      43.325  28.398  33.197  1.00  0.00     0.074 A 
ATOM     60  C   UNL A   1      45.720  25.358  29.089  1.00  0.00     0.029 A 
ATOM     61  N   UNL A   1      44.234  24.442  30.446  1.00  0.00    -0.354 N 
ATOM     62  N   UNL A   1      43.872  27.461  32.464  1.00  0.00    -0.248 NA
ATOM     63  C   UNL A   1      43.246  27.997  34.602  1.00  0.00     0.031 C 
ATOM     64  C   UNL A   1      45.947  25.821  30.427  1.00  0.00     0.029 A 
ATOM     65  C   UNL A   1      45.023  25.221  31.265  1.00  0.00     0.049 A 
ATOM     66  H   UNL A   1      43.481  23.895  30.767  1.00  0.00     0.167 HD
ATOM     67  C   UNL A   1      44.175  26.365  33.224  1.00  0.00     0.074 A 
ATOM     68  C   UNL A   1      43.746  26.747  34.562  1.00  0.00     0.031 C 
ATOM     69  C   UNL A   1      44.733  25.232  32.696  1.00  0.00     0.031 A 
BRANCH  56  70
ATOM     70  C   UNL A   1      44.011  22.965  27.086  1.00  0.00    -0.014 A 
ATOM     71  C   UNL A   1      43.108  21.904  26.881  1.00  0.00     0.010 A 
ATOM     72  C   UNL A   1      45.220  22.904  26.363  1.00  0.00     0.010 A 
ATOM     73  C   UNL A   1      43.409  20.825  26.039  1.00  0.00     0.020 A 
ATOM     74  C   UNL A   1      45.531  21.836  25.508  1.00  0.00     0.020 A 
ATOM     75  C   UNL A   1      44.626  20.792  25.363  1.00  0.00     0.054 A 
BRANCH  75  76
ATOM     76  S   UNL A   1      45.014  19.364  24.322  1.00  0.00     0.124 S 
ATOM     77  O   UNL A   1      44.232  18.302  24.949  1.00  0.00    -0.237 OA
ATOM     78  O   UNL A   1      44.551  19.798  23.007  1.00  0.00    -0.237 OA
ATOM     79  O   UNL A   1      46.463  19.222  24.453  1.00  0.00    -0.744 OA
ENDBRANCH  75  76
ENDBRANCH  56  70
BRANCH  57  80
ATOM     80  C   UNL A   1      41.615  30.530  33.073  1.00  0.00    -0.014 A 
ATOM     81  C   UNL A   1      40.390  29.821  33.169  1.00  0.00     0.010 A 
ATOM     82  C   UNL A   1      41.752  31.706  33.831  1.00  0.00     0.010 A 
ATOM     83  C   UNL A   1      39.430  30.155  34.132  1.00  0.00     0.020 A 
ATOM     84  C   UNL A   1      40.767  32.062  34.780  1.00  0.00     0.020 A 
ATOM     85  C   UNL A   1      39.644  31.248  34.966  1.00  0.00     0.054 A 
BRANCH  85  86
ATOM     86  S   UNL A   1      38.515  31.456  36.388  1.00  0.00     0.124 S 
ATOM     87  O   UNL A   1      39.366  32.131  37.363  1.00  0.00    -0.237 OA
ATOM     88  O   UNL A   1      37.449  32.278  35.816  1.00  0.00    -0.237 OA
ATOM     89  O   UNL A   1      38.148  30.088  36.741  1.00  0.00    -0.744 OA
ENDBRANCH  85  86
ENDBRANCH  57  80
BRANCH  69  90
ATOM     90  C   UNL A   1      45.021  23.974  33.486  1.00  0.00    -0.014 A 
ATOM     91  C   UNL A   1      44.038  23.029  33.809  1.00  0.00     0.010 A 
ATOM     92  C   UNL A   1      46.314  23.755  34.023  1.00  0.00     0.010 A 
ATOM     93  C   UNL A   1      44.360  21.871  34.533  1.00  0.00     0.020 A 
ATOM     94  C   UNL A   1      46.642  22.622  34.766  1.00  0.00     0.020 A 
ATOM     95  C   UNL A   1      45.665  21.667  34.990  1.00  0.00     0.054 A 
BRANCH  95  96
ATOM     96  S   UNL A   1      46.067  20.160  35.899  1.00  0.00     0.124 S 
ATOM     97  O   UNL A   1      47.499  20.011  35.649  1.00  0.00    -0.237 OA
ATOM     98  O   UNL A   1      45.701  20.526  37.265  1.00  0.00    -0.237 OA
ATOM     99  O   UNL A   1      45.221  19.140  35.281  1.00  0.00    -0.744 OA
ENDBRANCH  95  96
ENDBRANCH  69  90
ENDBRANCH  43  44
ENDBRANCH  35  38
ENDBRANCH  33  34
ENDBRANCH  32  33
ENDBRANCH  31  32
ENDBRANCH   1  31
TORSDOF 20
ENDMDL
MODEL 3
REMARK VINA RESULT:     -13.1      1.984      3.148
REMARK SMILES Cc1c(NCc2ccccn2)cccc1C(=O)N1CCOC[C@@H]1CC(=O)NCCCCNC(=O)c1ccc(-c2c3nc(c(-c4ccc(S(=O)(=O)[O-])cc4)c4ccc([nH]4)c(-c4ccc(S(=O)(=O)[O-])cc4)c4nc(c(-c5ccc(S(=O)(=O)[O-])cc5)c5ccc2[nH]5)C=C4)C=C3)cc1
REMARK SMILES IDX 28 1 27 2 25 3 26 4 24 6 23 7 18 8 19 9 20 10 22 11 21 12
REMARK SMILES IDX 16 13 17 14 15 15 1 16 2 17 3 18 12 19 14 20 13 21 4 22 5 24
REMARK SMILES IDX 6 25 7 26 11 27 8 28 10 29 9 30 29 31 30 32 31 33 32 34
REMARK SMILES IDX 33 35 34 37 35 38 36 39 94 40 37 41 93 42 38 43 39 44 40 45
REMARK SMILES IDX 87 46 41 47 92 48 86 49 88 50 42 51 91 52 85 53 84 54 43 56
REMARK SMILES IDX 73 57 54 58 72 59 55 60 58 61 71 62 89 63 56 64 57 65 70 67
REMARK SMILES IDX 90 68 59 69 44 70 45 71 53 72 46 73 52 74 47 75 48 76 49 77
REMARK SMILES IDX 50 78 51 79 74 80 75 81 83 82 76 83 82 84 77 85 78 86 79 87
REMARK SMILES IDX 80 88 81 89 60 90 61 91 69 92 62 93 68 94 63 95 64 96 65 97
REMARK SMILES IDX 66 98 67 99
REMARK H PARENT 27 5 4 23 32 36 88 55 58 66
REMARK Flexibility Score: inf
ROOT
ATOM      1  C   UNL A   1      32.821  30.547  26.766  1.00  0.00     0.116 C 
ENDROOT
BRANCH   1   2
ATOM      2  N   UNL A   1      32.553  29.551  27.755  1.00  0.00    -0.356 N 
ATOM      3  C   UNL A   1      32.056  28.329  27.405  1.00  0.00     0.222 C 
ATOM      4  O   UNL A   1      31.265  27.772  28.165  1.00  0.00    -0.275 OA
ATOM      5  H   UNL A   1      32.729  29.750  28.703  1.00  0.00     0.163 HD
BRANCH   3   6
ATOM      6  C   UNL A   1      32.561  27.677  26.113  1.00  0.00     0.127 C 
BRANCH   6   7
ATOM      7  C   UNL A   1      31.650  27.517  24.871  1.00  0.00     0.120 C 
ATOM      8  N   UNL A   1      31.483  26.216  24.072  1.00  0.00    -0.331 N 
ATOM      9  C   UNL A   1      30.335  26.372  23.166  1.00  0.00     0.148 C 
ATOM     10  C   UNL A   1      30.451  27.626  22.276  1.00  0.00     0.181 C 
ATOM     11  C   UNL A   1      31.869  28.671  23.859  1.00  0.00     0.185 C 
ATOM     12  O   UNL A   1      30.702  28.820  23.030  1.00  0.00    -0.377 OA
BRANCH   8  13
ATOM     13  C   UNL A   1      31.620  24.906  24.607  1.00  0.00     0.254 C 
ATOM     14  O   UNL A   1      30.980  24.603  25.615  1.00  0.00    -0.269 OA
BRANCH  13  15
ATOM     15  C   UNL A   1      32.792  23.930  24.135  1.00  0.00     0.045 A 
ATOM     16  C   UNL A   1      35.002  24.963  25.643  1.00  0.00     0.047 C 
ATOM     17  C   UNL A   1      34.347  23.767  25.049  1.00  0.00    -0.015 A 
ATOM     18  C   UNL A   1      35.119  22.144  25.355  1.00  0.00     0.038 A 
ATOM     19  C   UNL A   1      34.260  20.639  24.830  1.00  0.00     0.026 A 
ATOM     20  C   UNL A   1      32.046  22.431  23.436  1.00  0.00     0.014 A 
ATOM     21  C   UNL A   1      32.719  20.791  23.814  1.00  0.00     0.003 A 
BRANCH  18  22
ATOM     22  N   UNL A   1      36.317  22.083  26.075  1.00  0.00    -0.379 N 
ATOM     23  H   UNL A   1      36.323  21.780  27.012  1.00  0.00     0.160 HD
BRANCH  22  24
ATOM     24  C   UNL A   1      37.557  22.476  25.412  1.00  0.00     0.169 C 
BRANCH  24  25
ATOM     25  C   UNL A   1      38.773  21.689  25.900  1.00  0.00     0.059 A 
ATOM     26  C   UNL A   1      39.813  22.314  26.589  1.00  0.00     0.026 A 
ATOM     27  N   UNL A   1      38.825  20.364  25.583  1.00  0.00    -0.259 NA
ATOM     28  C   UNL A   1      40.939  21.580  26.951  1.00  0.00     0.004 A 
ATOM     29  C   UNL A   1      39.945  19.685  25.927  1.00  0.00     0.111 A 
ATOM     30  C   UNL A   1      41.015  20.240  26.606  1.00  0.00     0.020 A 
ENDBRANCH  24  25
ENDBRANCH  22  24
ENDBRANCH  18  22
ENDBRANCH  13  15
ENDBRANCH   8  13
ENDBRANCH   6   7
ENDBRANCH   3   6
ENDBRANCH   1   2
BRANCH   1  31
ATOM     31  C   UNL A   1      33.615  31.666  27.459  1.00  0.00     0.023 C 
BRANCH  31  32
ATOM     32  C   UNL A   1      32.915  33.006  27.633  1.00  0.00     0.023 C 
BRANCH  32  33
ATOM     33  C   UNL A   1      33.711  33.848  28.815  1.00  0.00     0.116 C 
BRANCH  33  34
ATOM     34  N   UNL A   1      35.207  33.354  30.193  1.00  0.00    -0.352 N 
ATOM     35  C   UNL A   1      35.920  32.249  30.961  1.00  0.00     0.251 C 
ATOM     36  H   UNL A   1      35.632  34.201  30.461  1.00  0.00     0.163 HD
ATOM     37  O   UNL A   1      36.290  32.516  32.110  1.00  0.00    -0.269 OA
BRANCH  35  38
ATOM     38  C   UNL A   1      36.326  30.861  30.459  1.00  0.00     0.039 A 
ATOM     39  C   UNL A   1      36.521  29.864  31.410  1.00  0.00     0.014 A 
ATOM     40  C   UNL A   1      36.814  30.597  29.190  1.00  0.00     0.014 A 
ATOM     41  C   UNL A   1      37.614  29.009  31.301  1.00  0.00     0.010 A 
ATOM     42  C   UNL A   1      38.010  29.898  29.126  1.00  0.00     0.010 A 
ATOM     43  C   UNL A   1      38.492  29.231  30.260  1.00  0.00    -0.014 A 
BRANCH  43  44
ATOM     44  C   UNL A   1      39.945  29.027  30.350  1.00  0.00     0.031 A 
ATOM     45  C   UNL A   1      40.518  27.819  29.731  1.00  0.00     0.074 A 
ATOM     46  C   UNL A   1      40.766  30.004  30.827  1.00  0.00     0.049 A 
ATOM     47  N   UNL A   1      41.761  27.515  29.778  1.00  0.00    -0.248 NA
ATOM     48  C   UNL A   1      39.723  26.824  29.015  1.00  0.00     0.031 C 
ATOM     49  C   UNL A   1      42.221  30.149  30.693  1.00  0.00     0.029 A 
ATOM     50  N   UNL A   1      40.436  31.021  31.719  1.00  0.00    -0.354 N 
ATOM     51  C   UNL A   1      41.978  26.443  28.952  1.00  0.00     0.074 A 
ATOM     52  C   UNL A   1      40.674  26.039  28.498  1.00  0.00     0.031 C 
ATOM     53  C   UNL A   1      42.679  30.984  31.644  1.00  0.00     0.029 A 
ATOM     54  C   UNL A   1      41.563  31.304  32.512  1.00  0.00     0.049 A 
ATOM     55  H   UNL A   1      39.560  31.466  31.784  1.00  0.00     0.167 HD
ATOM     56  C   UNL A   1      43.265  26.079  28.725  1.00  0.00     0.031 A 
ATOM     57  C   UNL A   1      41.504  31.031  33.852  1.00  0.00     0.031 A 
ATOM     58  C   UNL A   1      44.147  26.708  29.711  1.00  0.00     0.049 A 
ATOM     59  C   UNL A   1      42.341  29.814  34.238  1.00  0.00     0.074 A 
ATOM     60  C   UNL A   1      45.027  27.776  29.712  1.00  0.00     0.029 A 
ATOM     61  N   UNL A   1      43.888  26.429  31.045  1.00  0.00    -0.354 N 
ATOM     62  N   UNL A   1      43.024  29.095  33.383  1.00  0.00    -0.248 NA
ATOM     63  C   UNL A   1      42.460  29.283  35.595  1.00  0.00     0.031 C 
ATOM     64  C   UNL A   1      45.247  28.157  31.075  1.00  0.00     0.029 A 
ATOM     65  C   UNL A   1      44.546  27.291  31.896  1.00  0.00     0.049 A 
ATOM     66  H   UNL A   1      43.302  25.699  31.348  1.00  0.00     0.167 HD
ATOM     67  C   UNL A   1      43.619  28.034  34.007  1.00  0.00     0.074 A 
ATOM     68  C   UNL A   1      43.220  28.187  35.398  1.00  0.00     0.031 C 
ATOM     69  C   UNL A   1      44.371  27.108  33.334  1.00  0.00     0.031 A 
BRANCH  56  70
ATOM     70  C   UNL A   1      43.740  25.244  27.567  1.00  0.00    -0.014 A 
ATOM     71  C   UNL A   1      43.771  23.845  27.718  1.00  0.00     0.010 A 
ATOM     72  C   UNL A   1      44.268  25.754  26.362  1.00  0.00     0.010 A 
ATOM     73  C   UNL A   1      44.332  23.005  26.747  1.00  0.00     0.020 A 
ATOM     74  C   UNL A   1      44.823  24.925  25.375  1.00  0.00     0.020 A 
ATOM     75  C   UNL A   1      44.865  23.553  25.582  1.00  0.00     0.054 A 
BRANCH  75  76
ATOM     76  S   UNL A   1      45.630  22.454  24.365  1.00  0.00     0.124 S 
ATOM     77  O   UNL A   1      46.579  23.342  23.698  1.00  0.00    -0.237 OA
ATOM     78  O   UNL A   1      46.220  21.416  25.205  1.00  0.00    -0.237 OA
ATOM     79  O   UNL A   1      44.508  22.017  23.537  1.00  0.00    -0.744 OA
ENDBRANCH  75  76
ENDBRANCH  56  70
BRANCH  57  80
ATOM     80  C   UNL A   1      40.198  31.504  34.429  1.00  0.00    -0.014 A 
ATOM     81  C   UNL A   1      39.280  30.488  34.799  1.00  0.00     0.010 A 
ATOM     82  C   UNL A   1      40.077  32.755  35.057  1.00  0.00     0.010 A 
ATOM     83  C   UNL A   1      38.419  30.648  35.892  1.00  0.00     0.020 A 
ATOM     84  C   UNL A   1      39.184  32.928  36.139  1.00  0.00     0.020 A 
ATOM     85  C   UNL A   1      38.408  31.853  36.587  1.00  0.00     0.054 A 
BRANCH  85  86
ATOM     86  S   UNL A   1      37.496  31.904  38.170  1.00  0.00     0.124 S 
ATOM     87  O   UNL A   1      36.455  32.889  37.897  1.00  0.00    -0.237 OA
ATOM     88  O   UNL A   1      37.029  30.523  38.299  1.00  0.00    -0.237 OA
ATOM     89  O   UNL A   1      38.504  32.330  39.136  1.00  0.00    -0.744 OA
ENDBRANCH  85  86
ENDBRANCH  57  80
BRANCH  69  90
ATOM     90  C   UNL A   1      44.989  25.884  33.973  1.00  0.00    -0.014 A 
ATOM     91  C   UNL A   1      46.166  25.926  34.732  1.00  0.00     0.010 A 
ATOM     92  C   UNL A   1      44.432  24.603  33.736  1.00  0.00     0.010 A 
ATOM     93  C   UNL A   1      46.692  24.763  35.315  1.00  0.00     0.020 A 
ATOM     94  C   UNL A   1      44.958  23.436  34.287  1.00  0.00     0.020 A 
ATOM     95  C   UNL A   1      46.071  23.529  35.103  1.00  0.00     0.054 A 
BRANCH  95  96
ATOM     96  S   UNL A   1      46.748  22.046  35.882  1.00  0.00     0.124 S 
ATOM     97  O   UNL A   1      45.965  21.950  37.112  1.00  0.00    -0.237 OA
ATOM     98  O   UNL A   1      46.468  21.024  34.877  1.00  0.00    -0.237 OA
ATOM     99  O   UNL A   1      48.162  22.362  36.071  1.00  0.00    -0.744 OA
ENDBRANCH  95  96
ENDBRANCH  69  90
ENDBRANCH  43  44
ENDBRANCH  35  38
ENDBRANCH  33  34
ENDBRANCH  32  33
ENDBRANCH  31  32
ENDBRANCH   1  31
TORSDOF 20
ENDMDL
