MODEL 1
REMARK VINA RESULT:     -13.6      0.000      0.000
REMARK SMILES Cc1c(C(=O)Nc2ccc(C(=O)Nc3ccccc3C(=O)NCCCCNC(=O)c3ccc(-c4c5nc(c(-c6ccc(S(=O)(=O)[O-])cc6)c6ccc([nH]6)c(-c6ccc(S(=O)(=O)[O-])cc6)c6nc(c(-c7ccc(S(=O)(=O)[O-])cc7)c7ccc4[nH]7)C=C6)C=C5)cc3)cc2)cccc1[N+](=O)[O-]
REMARK SMILES IDX 23 1 22 2 20 3 21 4 19 6 14 7 15 8 16 9 18 10 17 11 13 12
REMARK SMILES IDX 11 13 12 14 10 16 7 17 8 18 91 19 9 20 90 21 6 22 4 23 5 24
REMARK SMILES IDX 3 26 1 27 2 28 95 29 92 30 94 31 93 32 96 33 97 34 98 35
REMARK SMILES IDX 24 36 25 37 26 38 27 39 28 40 29 42 30 43 31 44 89 45 32 46
REMARK SMILES IDX 88 47 33 48 34 49 35 50 82 51 36 52 87 53 81 54 83 55 37 56
REMARK SMILES IDX 86 57 80 58 79 59 38 61 68 62 49 63 67 64 50 65 53 66 66 67
REMARK SMILES IDX 84 68 51 69 52 70 65 72 85 73 54 74 39 75 40 76 48 77 41 78
REMARK SMILES IDX 47 79 42 80 43 81 44 82 45 83 46 84 69 85 70 86 78 87 71 88
REMARK SMILES IDX 77 89 72 90 73 91 74 92 75 93 76 94 55 95 56 96 64 97 57 98
REMARK SMILES IDX 63 99 58 100 59 101 60 102 61 103 62 104
REMARK H PARENT 22 5 13 15 6 25 27 41 83 60 53 71
REMARK Flexibility Score: inf
ROOT
ATOM      1  C   UNL A   1      31.731  29.963  25.807  1.00  0.00     0.116 C 
ENDROOT
BRANCH   1   2
ATOM      2  N   UNL A   1      31.115  28.644  25.656  1.00  0.00    -0.352 N 
ATOM      3  C   UNL A   1      30.381  28.042  24.651  1.00  0.00     0.253 C 
ATOM      4  O   UNL A   1      30.162  26.835  24.742  1.00  0.00    -0.269 OA
ATOM      5  H   UNL A   1      31.254  28.061  26.436  1.00  0.00     0.163 HD
BRANCH   3   6
ATOM      6  C   UNL A   1      29.797  28.795  23.504  1.00  0.00     0.063 A 
ATOM      7  C   UNL A   1      30.601  29.395  22.499  1.00  0.00     0.054 A 
ATOM      8  C   UNL A   1      29.979  30.092  21.445  1.00  0.00     0.027 A 
ATOM      9  C   UNL A   1      28.590  30.149  21.342  1.00  0.00     0.002 A 
ATOM     10  C   UNL A   1      28.408  28.987  23.447  1.00  0.00     0.016 A 
ATOM     11  C   UNL A   1      27.806  29.610  22.351  1.00  0.00     0.001 A 
BRANCH   7  12
ATOM     12  N   UNL A   1      32.007  29.331  22.378  1.00  0.00    -0.321 N 
ATOM     13  C   UNL A   1      32.923  28.331  22.624  1.00  0.00     0.255 C 
ATOM     14  O   UNL A   1      34.124  28.604  22.577  1.00  0.00    -0.269 OA
ATOM     15  H   UNL A   1      32.413  30.167  22.050  1.00  0.00     0.170 HD
BRANCH  13  16
ATOM     16  C   UNL A   1      32.526  26.898  22.722  1.00  0.00     0.040 A 
ATOM     17  C   UNL A   1      32.130  24.113  22.760  1.00  0.00     0.041 A 
ATOM     18  C   UNL A   1      31.587  24.893  21.754  1.00  0.00     0.027 A 
ATOM     19  C   UNL A   1      32.731  24.750  23.850  1.00  0.00     0.027 A 
ATOM     20  C   UNL A   1      31.879  26.244  21.679  1.00  0.00     0.016 A 
ATOM     21  C   UNL A   1      32.926  26.142  23.831  1.00  0.00     0.016 A 
BRANCH  17  22
ATOM     22  N   UNL A   1      32.198  22.714  22.661  1.00  0.00    -0.322 N 
ATOM     23  C   UNL A   1      32.903  21.786  23.412  1.00  0.00     0.256 C 
ATOM     24  O   UNL A   1      32.855  20.593  23.109  1.00  0.00    -0.269 OA
ATOM     25  H   UNL A   1      31.654  22.327  21.937  1.00  0.00     0.170 HD
BRANCH  23  26
ATOM     26  C   UNL A   1      33.723  22.164  24.604  1.00  0.00     0.049 A 
ATOM     27  C   UNL A   1      35.745  22.908  23.247  1.00  0.00     0.053 C 
ATOM     28  C   UNL A   1      35.086  22.545  24.552  1.00  0.00     0.039 A 
ATOM     29  C   UNL A   1      35.796  22.549  25.775  1.00  0.00     0.273 A 
ATOM     30  C   UNL A   1      33.063  22.064  25.843  1.00  0.00     0.014 A 
ATOM     31  C   UNL A   1      35.135  22.424  27.009  1.00  0.00     0.086 A 
ATOM     32  C   UNL A   1      33.758  22.233  27.040  1.00  0.00     0.008 A 
BRANCH  29  33
ATOM     33  N   UNL A   1      37.266  22.562  25.812  1.00  0.00     0.063 N 
ATOM     34  O   UNL A   1      37.818  23.612  26.172  1.00  0.00    -0.258 OA
ATOM     35  O   UNL A   1      37.863  21.511  25.542  1.00  0.00    -0.258 OA
ENDBRANCH  29  33
ENDBRANCH  23  26
ENDBRANCH  17  22
ENDBRANCH  13  16
ENDBRANCH   7  12
ENDBRANCH   3   6
ENDBRANCH   1   2
BRANCH   1  36
ATOM     36  C   UNL A   1      33.254  30.068  25.621  1.00  0.00     0.023 C 
BRANCH  36  37
ATOM     37  C   UNL A   1      34.137  29.069  26.356  1.00  0.00     0.023 C 
BRANCH  37  38
ATOM     38  C   UNL A   1      34.658  29.580  27.686  1.00  0.00     0.116 C 
BRANCH  38  39
ATOM     39  N   UNL A   1      35.504  30.759  27.580  1.00  0.00    -0.352 N 
ATOM     40  C   UNL A   1      36.739  30.918  28.211  1.00  0.00     0.251 C 
ATOM     41  H   UNL A   1      35.182  31.502  27.020  1.00  0.00     0.163 HD
ATOM     42  O   UNL A   1      37.167  31.969  28.619  1.00  0.00    -0.269 OA
BRANCH  40  43
ATOM     43  C   UNL A   1      37.589  29.704  28.204  1.00  0.00     0.039 A 
ATOM     44  C   UNL A   1      37.634  28.945  29.380  1.00  0.00     0.014 A 
ATOM     45  C   UNL A   1      38.549  29.563  27.209  1.00  0.00     0.014 A 
ATOM     46  C   UNL A   1      38.759  28.174  29.644  1.00  0.00     0.010 A 
ATOM     47  C   UNL A   1      39.711  28.900  27.524  1.00  0.00     0.010 A 
ATOM     48  C   UNL A   1      39.829  28.240  28.756  1.00  0.00    -0.014 A 
BRANCH  48  49
ATOM     49  C   UNL A   1      41.139  27.662  29.000  1.00  0.00     0.031 A 
ATOM     50  C   UNL A   1      41.348  26.240  28.672  1.00  0.00     0.074 A 
ATOM     51  C   UNL A   1      42.161  28.458  29.376  1.00  0.00     0.049 A 
ATOM     52  N   UNL A   1      42.360  25.541  29.050  1.00  0.00    -0.248 NA
ATOM     53  C   UNL A   1      40.366  25.463  27.919  1.00  0.00     0.031 C 
ATOM     54  C   UNL A   1      43.590  28.167  29.327  1.00  0.00     0.029 A 
ATOM     55  N   UNL A   1      42.092  29.648  30.081  1.00  0.00    -0.354 N 
ATOM     56  C   UNL A   1      42.325  24.354  28.353  1.00  0.00     0.074 A 
ATOM     57  C   UNL A   1      41.017  24.311  27.749  1.00  0.00     0.031 C 
ATOM     58  C   UNL A   1      44.235  29.005  30.157  1.00  0.00     0.029 A 
ATOM     59  C   UNL A   1      43.224  29.746  30.896  1.00  0.00     0.049 A 
ATOM     60  H   UNL A   1      41.369  30.312  30.019  1.00  0.00     0.167 HD
ATOM     61  C   UNL A   1      43.468  23.619  28.254  1.00  0.00     0.031 A 
ATOM     62  C   UNL A   1      43.090  29.700  32.259  1.00  0.00     0.031 A 
ATOM     63  C   UNL A   1      44.495  24.137  29.161  1.00  0.00     0.049 A 
ATOM     64  C   UNL A   1      43.695  28.453  32.878  1.00  0.00     0.074 A 
ATOM     65  C   UNL A   1      45.612  24.934  28.975  1.00  0.00     0.029 A 
ATOM     66  N   UNL A   1      44.240  24.131  30.530  1.00  0.00    -0.354 N 
ATOM     67  N   UNL A   1      44.001  27.369  32.213  1.00  0.00    -0.248 NA
ATOM     68  C   UNL A   1      44.020  28.335  34.297  1.00  0.00     0.031 C 
ATOM     69  C   UNL A   1      45.950  25.507  30.234  1.00  0.00     0.029 A 
ATOM     70  C   UNL A   1      45.069  25.022  31.186  1.00  0.00     0.049 A 
ATOM     71  H   UNL A   1      43.562  23.570  30.969  1.00  0.00     0.167 HD
ATOM     72  C   UNL A   1      44.545  26.437  33.058  1.00  0.00     0.074 A 
ATOM     73  C   UNL A   1      44.548  27.099  34.352  1.00  0.00     0.031 C 
ATOM     74  C   UNL A   1      44.951  25.202  32.631  1.00  0.00     0.031 A 
BRANCH  61  75
ATOM     75  C   UNL A   1      43.733  22.616  27.149  1.00  0.00    -0.014 A 
ATOM     76  C   UNL A   1      42.865  21.516  26.985  1.00  0.00     0.010 A 
ATOM     77  C   UNL A   1      44.858  22.636  26.299  1.00  0.00     0.010 A 
ATOM     78  C   UNL A   1      43.140  20.473  26.081  1.00  0.00     0.020 A 
ATOM     79  C   UNL A   1      45.154  21.598  25.404  1.00  0.00     0.020 A 
ATOM     80  C   UNL A   1      44.297  20.513  25.306  1.00  0.00     0.054 A 
BRANCH  80  81
ATOM     81  S   UNL A   1      44.670  19.147  24.178  1.00  0.00     0.124 S 
ATOM     82  O   UNL A   1      43.709  18.128  24.590  1.00  0.00    -0.237 OA
ATOM     83  O   UNL A   1      44.433  19.747  22.869  1.00  0.00    -0.237 OA
ATOM     84  O   UNL A   1      46.068  18.828  24.468  1.00  0.00    -0.744 OA
ENDBRANCH  80  81
ENDBRANCH  61  75
BRANCH  62  85
ATOM     85  C   UNL A   1      41.877  30.429  32.748  1.00  0.00    -0.014 A 
ATOM     86  C   UNL A   1      40.739  29.643  33.043  1.00  0.00     0.010 A 
ATOM     87  C   UNL A   1      41.983  31.701  33.338  1.00  0.00     0.010 A 
ATOM     88  C   UNL A   1      39.849  30.020  34.053  1.00  0.00     0.020 A 
ATOM     89  C   UNL A   1      41.078  32.092  34.341  1.00  0.00     0.020 A 
ATOM     90  C   UNL A   1      40.071  31.209  34.747  1.00  0.00     0.054 A 
BRANCH  90  91
ATOM     91  S   UNL A   1      39.155  31.472  36.299  1.00  0.00     0.124 S 
ATOM     92  O   UNL A   1      38.631  30.140  36.582  1.00  0.00    -0.237 OA
ATOM     93  O   UNL A   1      40.209  31.936  37.207  1.00  0.00    -0.237 OA
ATOM     94  O   UNL A   1      38.161  32.476  35.940  1.00  0.00    -0.744 OA
ENDBRANCH  90  91
ENDBRANCH  62  85
BRANCH  74  95
ATOM     95  C   UNL A   1      45.345  24.042  33.522  1.00  0.00    -0.014 A 
ATOM     96  C   UNL A   1      46.508  24.005  34.305  1.00  0.00     0.010 A 
ATOM     97  C   UNL A   1      44.433  22.970  33.691  1.00  0.00     0.010 A 
ATOM     98  C   UNL A   1      46.783  22.924  35.157  1.00  0.00     0.020 A 
ATOM     99  C   UNL A   1      44.669  21.915  34.577  1.00  0.00     0.020 A 
ATOM    100  C   UNL A   1      45.861  21.885  35.287  1.00  0.00     0.054 A 
BRANCH 100 101
ATOM    101  S   UNL A   1      46.197  20.529  36.437  1.00  0.00     0.124 S 
ATOM    102  O   UNL A   1      47.632  20.333  36.258  1.00  0.00    -0.237 OA
ATOM    103  O   UNL A   1      45.798  21.089  37.727  1.00  0.00    -0.237 OA
ATOM    104  O   UNL A   1      45.347  19.446  35.948  1.00  0.00    -0.744 OA
ENDBRANCH 100 101
ENDBRANCH  74  95
ENDBRANCH  48  49
ENDBRANCH  40  43
ENDBRANCH  38  39
ENDBRANCH  37  38
ENDBRANCH  36  37
ENDBRANCH   1  36
TORSDOF 19
ENDMDL
MODEL 2
REMARK VINA RESULT:     -13.1      3.970     10.372
REMARK SMILES Cc1c(C(=O)Nc2ccc(C(=O)Nc3ccccc3C(=O)NCCCCNC(=O)c3ccc(-c4c5nc(c(-c6ccc(S(=O)(=O)[O-])cc6)c6ccc([nH]6)c(-c6ccc(S(=O)(=O)[O-])cc6)c6nc(c(-c7ccc(S(=O)(=O)[O-])cc7)c7ccc4[nH]7)C=C6)C=C5)cc3)cc2)cccc1[N+](=O)[O-]
REMARK SMILES IDX 23 1 22 2 20 3 21 4 19 6 14 7 15 8 16 9 18 10 17 11 13 12
REMARK SMILES IDX 11 13 12 14 10 16 7 17 8 18 91 19 9 20 90 21 6 22 4 23 5 24
REMARK SMILES IDX 3 26 1 27 2 28 95 29 92 30 94 31 93 32 96 33 97 34 98 35
REMARK SMILES IDX 24 36 25 37 26 38 27 39 28 40 29 42 30 43 31 44 89 45 32 46
REMARK SMILES IDX 88 47 33 48 34 49 35 50 82 51 36 52 87 53 81 54 83 55 37 56
REMARK SMILES IDX 86 57 80 58 79 59 38 61 68 62 49 63 67 64 50 65 53 66 66 67
REMARK SMILES IDX 84 68 51 69 52 70 65 72 85 73 54 74 39 75 40 76 48 77 41 78
REMARK SMILES IDX 47 79 42 80 43 81 44 82 45 83 46 84 69 85 70 86 78 87 71 88
REMARK SMILES IDX 77 89 72 90 73 91 74 92 75 93 76 94 55 95 56 96 64 97 57 98
REMARK SMILES IDX 63 99 58 100 59 101 60 102 61 103 62 104
REMARK H PARENT 22 5 13 15 6 25 27 41 83 60 53 71
REMARK Flexibility Score: inf
ROOT
ATOM      1  C   UNL A   1      40.446  22.418  27.607  1.00  0.00     0.116 C 
ENDROOT
BRANCH   1   2
ATOM      2  N   UNL A   1      39.916  21.322  26.796  1.00  0.00    -0.352 N 
ATOM      3  C   UNL A   1      38.882  21.221  25.884  1.00  0.00     0.253 C 
ATOM      4  O   UNL A   1      38.803  20.193  25.212  1.00  0.00    -0.269 OA
ATOM      5  H   UNL A   1      40.399  20.475  26.928  1.00  0.00     0.163 HD
BRANCH   3   6
ATOM      6  C   UNL A   1      37.832  22.268  25.722  1.00  0.00     0.063 A 
ATOM      7  C   UNL A   1      36.561  21.990  25.155  1.00  0.00     0.054 A 
ATOM      8  C   UNL A   1      35.619  23.031  25.034  1.00  0.00     0.027 A 
ATOM      9  C   UNL A   1      35.893  24.309  25.516  1.00  0.00     0.002 A 
ATOM     10  C   UNL A   1      38.128  23.595  26.073  1.00  0.00     0.016 A 
ATOM     11  C   UNL A   1      37.154  24.594  26.021  1.00  0.00     0.001 A 
BRANCH   7  12
ATOM     12  N   UNL A   1      36.069  20.736  24.730  1.00  0.00    -0.321 N 
ATOM     13  C   UNL A   1      34.905  20.048  24.999  1.00  0.00     0.255 C 
ATOM     14  O   UNL A   1      34.803  18.883  24.608  1.00  0.00    -0.269 OA
ATOM     15  H   UNL A   1      36.677  20.260  24.119  1.00  0.00     0.170 HD
BRANCH  13  16
ATOM     16  C   UNL A   1      33.692  20.721  25.543  1.00  0.00     0.040 A 
ATOM     17  C   UNL A   1      31.524  22.308  26.374  1.00  0.00     0.041 A 
ATOM     18  C   UNL A   1      32.600  22.081  27.214  1.00  0.00     0.027 A 
ATOM     19  C   UNL A   1      31.451  21.596  25.173  1.00  0.00     0.027 A 
ATOM     20  C   UNL A   1      33.712  21.394  26.760  1.00  0.00     0.016 A 
ATOM     21  C   UNL A   1      32.534  20.801  24.760  1.00  0.00     0.016 A 
BRANCH  17  22
ATOM     22  N   UNL A   1      30.574  23.309  26.637  1.00  0.00    -0.322 N 
ATOM     23  C   UNL A   1      30.533  24.641  26.254  1.00  0.00     0.256 C 
ATOM     24  O   UNL A   1      29.616  25.361  26.648  1.00  0.00    -0.269 OA
ATOM     25  H   UNL A   1      29.810  23.016  27.184  1.00  0.00     0.170 HD
BRANCH  23  26
ATOM     26  C   UNL A   1      31.558  25.256  25.355  1.00  0.00     0.049 A 
ATOM     27  C   UNL A   1      30.559  24.313  23.211  1.00  0.00     0.053 C 
ATOM     28  C   UNL A   1      31.669  24.995  23.967  1.00  0.00     0.039 A 
ATOM     29  C   UNL A   1      32.872  25.388  23.337  1.00  0.00     0.273 A 
ATOM     30  C   UNL A   1      32.486  26.100  25.992  1.00  0.00     0.014 A 
ATOM     31  C   UNL A   1      33.808  26.211  23.987  1.00  0.00     0.086 A 
ATOM     32  C   UNL A   1      33.584  26.609  25.300  1.00  0.00     0.008 A 
BRANCH  29  33
ATOM     33  N   UNL A   1      33.261  24.859  22.021  1.00  0.00     0.063 N 
ATOM     34  O   UNL A   1      33.238  25.642  21.061  1.00  0.00    -0.258 OA
ATOM     35  O   UNL A   1      33.645  23.683  21.959  1.00  0.00    -0.258 OA
ENDBRANCH  29  33
ENDBRANCH  23  26
ENDBRANCH  17  22
ENDBRANCH  13  16
ENDBRANCH   7  12
ENDBRANCH   3   6
ENDBRANCH   1   2
BRANCH   1  36
ATOM     36  C   UNL A   1      41.457  23.372  26.950  1.00  0.00     0.023 C 
BRANCH  36  37
ATOM     37  C   UNL A   1      40.960  24.732  26.480  1.00  0.00     0.023 C 
BRANCH  37  38
ATOM     38  C   UNL A   1      41.719  25.899  27.083  1.00  0.00     0.116 C 
BRANCH  38  39
ATOM     39  N   UNL A   1      42.622  26.563  26.155  1.00  0.00    -0.352 N 
ATOM     40  C   UNL A   1      42.405  27.820  25.588  1.00  0.00     0.251 C 
ATOM     41  H   UNL A   1      43.450  26.091  25.908  1.00  0.00     0.163 HD
ATOM     42  O   UNL A   1      42.757  28.139  24.479  1.00  0.00    -0.269 OA
BRANCH  40  43
ATOM     43  C   UNL A   1      41.840  28.823  26.522  1.00  0.00     0.039 A 
ATOM     44  C   UNL A   1      42.740  29.515  27.341  1.00  0.00     0.014 A 
ATOM     45  C   UNL A   1      40.479  28.787  26.803  1.00  0.00     0.014 A 
ATOM     46  C   UNL A   1      42.297  30.018  28.558  1.00  0.00     0.010 A 
ATOM     47  C   UNL A   1      40.069  29.174  28.056  1.00  0.00     0.010 A 
ATOM     48  C   UNL A   1      40.986  29.753  28.945  1.00  0.00    -0.014 A 
BRANCH  48  49
ATOM     49  C   UNL A   1      40.445  30.028  30.264  1.00  0.00     0.031 A 
ATOM     50  C   UNL A   1      39.743  31.306  30.480  1.00  0.00     0.074 A 
ATOM     51  C   UNL A   1      40.466  29.065  31.209  1.00  0.00     0.049 A 
ATOM     52  N   UNL A   1      39.429  31.785  31.632  1.00  0.00    -0.248 NA
ATOM     53  C   UNL A   1      39.386  32.194  29.375  1.00  0.00     0.031 C 
ATOM     54  C   UNL A   1      39.684  28.998  32.439  1.00  0.00     0.029 A 
ATOM     55  N   UNL A   1      41.371  28.025  31.338  1.00  0.00    -0.354 N 
ATOM     56  C   UNL A   1      38.580  32.849  31.418  1.00  0.00     0.074 A 
ATOM     57  C   UNL A   1      38.672  33.126  30.007  1.00  0.00     0.031 C 
ATOM     58  C   UNL A   1      40.279  28.142  33.289  1.00  0.00     0.029 A 
ATOM     59  C   UNL A   1      41.554  27.763  32.699  1.00  0.00     0.049 A 
ATOM     60  H   UNL A   1      41.810  27.550  30.597  1.00  0.00     0.167 HD
ATOM     61  C   UNL A   1      37.789  33.272  32.444  1.00  0.00     0.031 A 
ATOM     62  C   UNL A   1      42.767  28.011  33.284  1.00  0.00     0.031 A 
ATOM     63  C   UNL A   1      38.196  32.642  33.703  1.00  0.00     0.049 A 
ATOM     64  C   UNL A   1      42.725  29.146  34.292  1.00  0.00     0.074 A 
ATOM     65  C   UNL A   1      37.694  31.585  34.443  1.00  0.00     0.029 A 
ATOM     66  N   UNL A   1      39.481  32.881  34.183  1.00  0.00    -0.354 N 
ATOM     67  N   UNL A   1      41.767  30.032  34.370  1.00  0.00    -0.248 NA
ATOM     68  C   UNL A   1      43.755  29.360  35.306  1.00  0.00     0.031 C 
ATOM     69  C   UNL A   1      38.738  31.111  35.287  1.00  0.00     0.029 A 
ATOM     70  C   UNL A   1      39.854  31.909  35.093  1.00  0.00     0.049 A 
ATOM     71  H   UNL A   1      40.048  33.638  33.911  1.00  0.00     0.167 HD
ATOM     72  C   UNL A   1      42.018  30.906  35.395  1.00  0.00     0.074 A 
ATOM     73  C   UNL A   1      43.271  30.431  35.960  1.00  0.00     0.031 C 
ATOM     74  C   UNL A   1      41.182  31.945  35.700  1.00  0.00     0.031 A 
BRANCH  61  75
ATOM     75  C   UNL A   1      36.494  34.035  32.252  1.00  0.00    -0.014 A 
ATOM     76  C   UNL A   1      36.121  35.020  33.191  1.00  0.00     0.010 A 
ATOM     77  C   UNL A   1      35.553  33.777  31.236  1.00  0.00     0.010 A 
ATOM     78  C   UNL A   1      34.865  35.653  33.154  1.00  0.00     0.020 A 
ATOM     79  C   UNL A   1      34.291  34.388  31.192  1.00  0.00     0.020 A 
ATOM     80  C   UNL A   1      33.948  35.318  32.160  1.00  0.00     0.054 A 
BRANCH  80  81
ATOM     81  S   UNL A   1      32.316  36.102  32.143  1.00  0.00     0.124 S 
ATOM     82  O   UNL A   1      32.189  36.532  30.753  1.00  0.00    -0.237 OA
ATOM     83  O   UNL A   1      31.439  35.008  32.549  1.00  0.00    -0.237 OA
ATOM     84  O   UNL A   1      32.441  37.187  33.115  1.00  0.00    -0.744 OA
ENDBRANCH  80  81
ENDBRANCH  61  75
BRANCH  62  85
ATOM     85  C   UNL A   1      43.923  27.660  32.398  1.00  0.00    -0.014 A 
ATOM     86  C   UNL A   1      44.286  26.295  32.337  1.00  0.00     0.010 A 
ATOM     87  C   UNL A   1      44.309  28.504  31.342  1.00  0.00     0.010 A 
ATOM     88  C   UNL A   1      44.824  25.748  31.168  1.00  0.00     0.020 A 
ATOM     89  C   UNL A   1      44.869  27.959  30.172  1.00  0.00     0.020 A 
ATOM     90  C   UNL A   1      45.041  26.574  30.067  1.00  0.00     0.054 A 
BRANCH  90  91
ATOM     91  S   UNL A   1      45.352  25.782  28.457  1.00  0.00     0.124 S 
ATOM     92  O   UNL A   1      44.303  24.769  28.400  1.00  0.00    -0.237 OA
ATOM     93  O   UNL A   1      45.190  26.901  27.523  1.00  0.00    -0.237 OA
ATOM     94  O   UNL A   1      46.711  25.274  28.585  1.00  0.00    -0.744 OA
ENDBRANCH  90  91
ENDBRANCH  62  85
BRANCH  74  95
ATOM     95  C   UNL A   1      41.490  33.081  36.655  1.00  0.00    -0.014 A 
ATOM     96  C   UNL A   1      41.882  34.367  36.256  1.00  0.00     0.010 A 
ATOM     97  C   UNL A   1      41.250  32.892  38.040  1.00  0.00     0.010 A 
ATOM     98  C   UNL A   1      42.092  35.391  37.191  1.00  0.00     0.020 A 
ATOM     99  C   UNL A   1      41.402  33.919  38.975  1.00  0.00     0.020 A 
ATOM    100  C   UNL A   1      41.852  35.161  38.546  1.00  0.00     0.054 A 
BRANCH 100 101
ATOM    101  S   UNL A   1      42.064  36.508  39.735  1.00  0.00     0.124 S 
ATOM    102  O   UNL A   1      43.512  36.697  39.718  1.00  0.00    -0.237 OA
ATOM    103  O   UNL A   1      41.284  37.593  39.141  1.00  0.00    -0.237 OA
ATOM    104  O   UNL A   1      41.514  35.963  40.973  1.00  0.00    -0.744 OA
ENDBRANCH 100 101
ENDBRANCH  74  95
ENDBRANCH  48  49
ENDBRANCH  40  43
ENDBRANCH  38  39
ENDBRANCH  37  38
ENDBRANCH  36  37
ENDBRANCH   1  36
TORSDOF 19
ENDMDL
MODEL 3
REMARK VINA RESULT:     -12.3      1.669      2.204
REMARK SMILES Cc1c(C(=O)Nc2ccc(C(=O)Nc3ccccc3C(=O)NCCCCNC(=O)c3ccc(-c4c5nc(c(-c6ccc(S(=O)(=O)[O-])cc6)c6ccc([nH]6)c(-c6ccc(S(=O)(=O)[O-])cc6)c6nc(c(-c7ccc(S(=O)(=O)[O-])cc7)c7ccc4[nH]7)C=C6)C=C5)cc3)cc2)cccc1[N+](=O)[O-]
REMARK SMILES IDX 23 1 22 2 20 3 21 4 19 6 14 7 15 8 16 9 18 10 17 11 13 12
REMARK SMILES IDX 11 13 12 14 10 16 7 17 8 18 91 19 9 20 90 21 6 22 4 23 5 24
REMARK SMILES IDX 3 26 1 27 2 28 95 29 92 30 94 31 93 32 96 33 97 34 98 35
REMARK SMILES IDX 24 36 25 37 26 38 27 39 28 40 29 42 30 43 31 44 89 45 32 46
REMARK SMILES IDX 88 47 33 48 34 49 35 50 82 51 36 52 87 53 81 54 83 55 37 56
REMARK SMILES IDX 86 57 80 58 79 59 38 61 68 62 49 63 67 64 50 65 53 66 66 67
REMARK SMILES IDX 84 68 51 69 52 70 65 72 85 73 54 74 39 75 40 76 48 77 41 78
REMARK SMILES IDX 47 79 42 80 43 81 44 82 45 83 46 84 69 85 70 86 78 87 71 88
REMARK SMILES IDX 77 89 72 90 73 91 74 92 75 93 76 94 55 95 56 96 64 97 57 98
REMARK SMILES IDX 63 99 58 100 59 101 60 102 61 103 62 104
REMARK H PARENT 22 5 13 15 6 25 27 41 83 60 53 71
REMARK Flexibility Score: inf
ROOT
ATOM      1  C   UNL A   1      31.769  29.915  25.783  1.00  0.00     0.116 C 
ENDROOT
BRANCH   1   2
ATOM      2  N   UNL A   1      31.145  28.600  25.644  1.00  0.00    -0.352 N 
ATOM      3  C   UNL A   1      30.382  28.003  24.657  1.00  0.00     0.253 C 
ATOM      4  O   UNL A   1      30.161  26.796  24.750  1.00  0.00    -0.269 OA
ATOM      5  H   UNL A   1      31.302  28.014  26.419  1.00  0.00     0.163 HD
BRANCH   3   6
ATOM      6  C   UNL A   1      29.771  28.761  23.528  1.00  0.00     0.063 A 
ATOM      7  C   UNL A   1      30.551  29.377  22.514  1.00  0.00     0.054 A 
ATOM      8  C   UNL A   1      29.904  30.078  21.478  1.00  0.00     0.027 A 
ATOM      9  C   UNL A   1      28.513  30.124  21.400  1.00  0.00     0.002 A 
ATOM     10  C   UNL A   1      28.379  28.941  23.497  1.00  0.00     0.016 A 
ATOM     11  C   UNL A   1      27.752  29.568  22.419  1.00  0.00     0.001 A 
BRANCH   7  12
ATOM     12  N   UNL A   1      31.955  29.328  22.367  1.00  0.00    -0.321 N 
ATOM     13  C   UNL A   1      32.886  28.338  22.601  1.00  0.00     0.255 C 
ATOM     14  O   UNL A   1      34.083  28.623  22.531  1.00  0.00    -0.269 OA
ATOM     15  H   UNL A   1      32.347  30.165  22.028  1.00  0.00     0.170 HD
BRANCH  13  16
ATOM     16  C   UNL A   1      32.506  26.901  22.713  1.00  0.00     0.040 A 
ATOM     17  C   UNL A   1      32.128  24.114  22.748  1.00  0.00     0.041 A 
ATOM     18  C   UNL A   1      31.498  24.904  21.801  1.00  0.00     0.027 A 
ATOM     19  C   UNL A   1      32.816  24.740  23.790  1.00  0.00     0.027 A 
ATOM     20  C   UNL A   1      31.775  26.258  21.721  1.00  0.00     0.016 A 
ATOM     21  C   UNL A   1      33.002  26.133  23.774  1.00  0.00     0.016 A 
BRANCH  17  22
ATOM     22  N   UNL A   1      32.194  22.717  22.624  1.00  0.00    -0.322 N 
ATOM     23  C   UNL A   1      32.899  21.775  23.357  1.00  0.00     0.256 C 
ATOM     24  O   UNL A   1      32.849  20.588  23.034  1.00  0.00    -0.269 OA
ATOM     25  H   UNL A   1      31.648  22.343  21.894  1.00  0.00     0.170 HD
BRANCH  23  26
ATOM     26  C   UNL A   1      33.723  22.132  24.553  1.00  0.00     0.049 A 
ATOM     27  C   UNL A   1      35.723  22.945  23.204  1.00  0.00     0.053 C 
ATOM     28  C   UNL A   1      35.079  22.535  24.502  1.00  0.00     0.039 A 
ATOM     29  C   UNL A   1      35.799  22.515  25.720  1.00  0.00     0.273 A 
ATOM     30  C   UNL A   1      33.074  21.985  25.794  1.00  0.00     0.014 A 
ATOM     31  C   UNL A   1      35.150  22.344  26.955  1.00  0.00     0.086 A 
ATOM     32  C   UNL A   1      33.776  22.132  26.990  1.00  0.00     0.008 A 
BRANCH  29  33
ATOM     33  N   UNL A   1      37.269  22.550  25.747  1.00  0.00     0.063 N 
ATOM     34  O   UNL A   1      37.810  23.651  25.922  1.00  0.00    -0.258 OA
ATOM     35  O   UNL A   1      37.876  21.475  25.654  1.00  0.00    -0.258 OA
ENDBRANCH  29  33
ENDBRANCH  23  26
ENDBRANCH  17  22
ENDBRANCH  13  16
ENDBRANCH   7  12
ENDBRANCH   3   6
ENDBRANCH   1   2
BRANCH   1  36
ATOM     36  C   UNL A   1      33.289  30.014  25.568  1.00  0.00     0.023 C 
BRANCH  36  37
ATOM     37  C   UNL A   1      34.201  29.331  26.578  1.00  0.00     0.023 C 
BRANCH  37  38
ATOM     38  C   UNL A   1      34.015  29.827  27.999  1.00  0.00     0.116 C 
BRANCH  38  39
ATOM     39  N   UNL A   1      34.620  31.124  28.261  1.00  0.00    -0.352 N 
ATOM     40  C   UNL A   1      35.660  31.355  29.163  1.00  0.00     0.251 C 
ATOM     41  H   UNL A   1      34.271  31.899  27.763  1.00  0.00     0.163 HD
ATOM     42  O   UNL A   1      35.792  32.365  29.809  1.00  0.00    -0.269 OA
BRANCH  40  43
ATOM     43  C   UNL A   1      36.716  30.315  29.158  1.00  0.00     0.039 A 
ATOM     44  C   UNL A   1      36.745  29.425  30.238  1.00  0.00     0.014 A 
ATOM     45  C   UNL A   1      37.810  30.473  28.315  1.00  0.00     0.014 A 
ATOM     46  C   UNL A   1      37.948  28.827  30.590  1.00  0.00     0.010 A 
ATOM     47  C   UNL A   1      39.022  29.980  28.734  1.00  0.00     0.010 A 
ATOM     48  C   UNL A   1      39.096  29.191  29.892  1.00  0.00    -0.014 A 
BRANCH  48  49
ATOM     49  C   UNL A   1      40.446  28.817  30.273  1.00  0.00     0.031 A 
ATOM     50  C   UNL A   1      41.012  27.575  29.714  1.00  0.00     0.074 A 
ATOM     51  C   UNL A   1      41.196  29.670  31.001  1.00  0.00     0.049 A 
ATOM     52  N   UNL A   1      42.081  26.999  30.139  1.00  0.00    -0.248 NA
ATOM     53  C   UNL A   1      40.355  26.837  28.637  1.00  0.00     0.031 C 
ATOM     54  C   UNL A   1      42.644  29.660  31.183  1.00  0.00     0.029 A 
ATOM     55  N   UNL A   1      40.758  30.624  31.903  1.00  0.00    -0.354 N 
ATOM     56  C   UNL A   1      42.417  26.027  29.224  1.00  0.00     0.074 A 
ATOM     57  C   UNL A   1      41.262  25.896  28.372  1.00  0.00     0.031 C 
ATOM     58  C   UNL A   1      42.951  30.377  32.278  1.00  0.00     0.029 A 
ATOM     59  C   UNL A   1      41.698  30.726  32.932  1.00  0.00     0.049 A 
ATOM     60  H   UNL A   1      39.925  31.143  31.832  1.00  0.00     0.167 HD
ATOM     61  C   UNL A   1      43.695  25.554  29.211  1.00  0.00     0.031 A 
ATOM     62  C   UNL A   1      41.367  30.333  34.201  1.00  0.00     0.031 A 
ATOM     63  C   UNL A   1      44.428  26.016  30.392  1.00  0.00     0.049 A 
ATOM     64  C   UNL A   1      42.128  29.103  34.665  1.00  0.00     0.074 A 
ATOM     65  C   UNL A   1      45.358  27.022  30.600  1.00  0.00     0.029 A 
ATOM     66  N   UNL A   1      43.970  25.638  31.651  1.00  0.00    -0.354 N 
ATOM     67  N   UNL A   1      42.765  28.283  33.871  1.00  0.00    -0.248 NA
ATOM     68  C   UNL A   1      42.244  28.710  36.067  1.00  0.00     0.031 C 
ATOM     69  C   UNL A   1      45.360  27.329  31.991  1.00  0.00     0.029 A 
ATOM     70  C   UNL A   1      44.470  26.479  32.628  1.00  0.00     0.049 A 
ATOM     71  H   UNL A   1      43.372  24.876  31.822  1.00  0.00     0.167 HD
ATOM     72  C   UNL A   1      43.362  27.289  34.602  1.00  0.00     0.074 A 
ATOM     73  C   UNL A   1      43.016  27.612  35.977  1.00  0.00     0.031 C 
ATOM     74  C   UNL A   1      44.090  26.285  34.025  1.00  0.00     0.031 A 
BRANCH  61  75
ATOM     75  C   UNL A   1      44.344  24.909  28.002  1.00  0.00    -0.014 A 
ATOM     76  C   UNL A   1      44.076  25.418  26.714  1.00  0.00     0.010 A 
ATOM     77  C   UNL A   1      45.148  23.752  28.044  1.00  0.00     0.010 A 
ATOM     78  C   UNL A   1      44.523  24.773  25.546  1.00  0.00     0.020 A 
ATOM     79  C   UNL A   1      45.590  23.089  26.889  1.00  0.00     0.020 A 
ATOM     80  C   UNL A   1      45.265  23.599  25.642  1.00  0.00     0.054 A 
BRANCH  80  81
ATOM     81  S   UNL A   1      45.799  22.748  24.136  1.00  0.00     0.124 S 
ATOM     82  O   UNL A   1      44.543  22.573  23.412  1.00  0.00    -0.237 OA
ATOM     83  O   UNL A   1      46.738  23.702  23.552  1.00  0.00    -0.237 OA
ATOM     84  O   UNL A   1      46.402  21.511  24.630  1.00  0.00    -0.744 OA
ENDBRANCH  80  81
ENDBRANCH  61  75
BRANCH  62  85
ATOM     85  C   UNL A   1      39.962  30.694  34.573  1.00  0.00    -0.014 A 
ATOM     86  C   UNL A   1      39.762  31.976  35.133  1.00  0.00     0.010 A 
ATOM     87  C   UNL A   1      38.865  30.042  33.982  1.00  0.00     0.010 A 
ATOM     88  C   UNL A   1      38.568  32.673  34.920  1.00  0.00     0.020 A 
ATOM     89  C   UNL A   1      37.656  30.733  33.785  1.00  0.00     0.020 A 
ATOM     90  C   UNL A   1      37.551  32.071  34.181  1.00  0.00     0.054 A 
BRANCH  90  91
ATOM     91  S   UNL A   1      36.195  33.129  33.581  1.00  0.00     0.124 S 
ATOM     92  O   UNL A   1      36.909  34.149  32.820  1.00  0.00    -0.237 OA
ATOM     93  O   UNL A   1      35.402  32.192  32.779  1.00  0.00    -0.237 OA
ATOM     94  O   UNL A   1      35.557  33.591  34.807  1.00  0.00    -0.744 OA
ENDBRANCH  90  91
ENDBRANCH  62  85
BRANCH  74  95
ATOM     95  C   UNL A   1      44.586  25.036  34.724  1.00  0.00    -0.014 A 
ATOM     96  C   UNL A   1      43.816  23.881  34.924  1.00  0.00     0.010 A 
ATOM     97  C   UNL A   1      45.954  24.958  35.094  1.00  0.00     0.010 A 
ATOM     98  C   UNL A   1      44.358  22.735  35.525  1.00  0.00     0.020 A 
ATOM     99  C   UNL A   1      46.518  23.803  35.641  1.00  0.00     0.020 A 
ATOM    100  C   UNL A   1      45.706  22.703  35.881  1.00  0.00     0.054 A 
BRANCH 100 101
ATOM    101  S   UNL A   1      46.409  21.196  36.596  1.00  0.00     0.124 S 
ATOM    102  O   UNL A   1      47.811  21.568  36.759  1.00  0.00    -0.237 OA
ATOM    103  O   UNL A   1      45.654  21.041  37.837  1.00  0.00    -0.237 OA
ATOM    104  O   UNL A   1      46.140  20.179  35.582  1.00  0.00    -0.744 OA
ENDBRANCH 100 101
ENDBRANCH  74  95
ENDBRANCH  48  49
ENDBRANCH  40  43
ENDBRANCH  38  39
ENDBRANCH  37  38
ENDBRANCH  36  37
ENDBRANCH   1  36
TORSDOF 19
ENDMDL
