MODEL 1
REMARK VINA RESULT:     -13.4      0.000      0.000
REMARK SMILES Cc1n[nH]c2c1[C@@]1(C(=O)N([C@@H](C)C(=O)NCCCCNC(=O)c3ccc(-c4c5nc(c(-c6ccc(S(=O)(=O)[O-])cc6)c6ccc([nH]6)c(-c6ccc(S(=O)(=O)[O-])cc6)c6nc(c(-c7ccc(S(=O)(=O)[O-])cc7)c7ccc4[nH]7)C=C6)C=C5)cc3)c3ccccc31)C(C#N)=C(N)O2
REMARK SMILES IDX 18 1 17 2 16 3 15 4 13 5 14 6 11 8 12 9 10 10 1 11 2 12 3 13
REMARK SMILES IDX 6 14 4 15 5 16 7 17 94 19 8 20 88 21 89 22 92 23 9 24 83 25
REMARK SMILES IDX 87 26 84 27 86 28 85 29 90 30 91 31 93 32 19 35 20 36 21 37
REMARK SMILES IDX 22 39 23 40 24 41 82 42 25 43 81 44 26 45 27 46 28 47 75 48
REMARK SMILES IDX 29 49 80 50 74 51 76 52 30 53 79 54 73 55 72 56 31 58 61 59
REMARK SMILES IDX 42 60 60 61 43 62 46 63 59 64 77 65 44 66 45 67 58 69 78 70
REMARK SMILES IDX 47 71 32 72 33 73 41 74 34 75 40 76 35 77 36 78 37 79 38 80
REMARK SMILES IDX 39 81 62 82 63 83 71 84 64 85 70 86 65 87 66 88 67 89 68 90
REMARK SMILES IDX 69 91 48 92 49 93 57 94 50 95 56 96 51 97 52 98 53 99 54 100
REMARK SMILES IDX 55 101
REMARK H PARENT 15 7 4 18 93 33 93 34 20 38 76 57 46 68
REMARK Flexibility Score: inf
ROOT
ATOM      1  C   UNL A   1      39.833  21.789  26.206  1.00  0.00     0.023 C 
ENDROOT
BRANCH   1   2
ATOM      2  C   UNL A   1      39.183  23.014  26.845  1.00  0.00     0.023 C 
BRANCH   2   3
ATOM      3  C   UNL A   1      37.972  23.588  26.106  1.00  0.00     0.116 C 
BRANCH   3   4
ATOM      4  N   UNL A   1      37.048  22.554  25.669  1.00  0.00    -0.354 N 
ATOM      5  C   UNL A   1      35.709  22.380  25.816  1.00  0.00     0.242 C 
ATOM      6  O   UNL A   1      35.224  21.395  25.240  1.00  0.00    -0.273 OA
ATOM      7  H   UNL A   1      37.483  21.829  25.163  1.00  0.00     0.163 HD
BRANCH   5   8
ATOM      8  C   UNL A   1      34.768  23.287  26.651  1.00  0.00     0.176 C 
ATOM      9  C   UNL A   1      34.029  22.604  27.798  1.00  0.00     0.042 C 
BRANCH   8  10
ATOM     10  N   UNL A   1      33.938  24.162  25.831  1.00  0.00    -0.298 N 
ATOM     11  C   UNL A   1      33.188  22.946  22.303  1.00  0.00     0.069 C 
ATOM     12  C   UNL A   1      33.005  24.373  21.933  1.00  0.00     0.068 A 
ATOM     13  N   UNL A   1      32.866  24.714  20.640  1.00  0.00    -0.177 NA
ATOM     14  C   UNL A   1      33.029  25.518  22.772  1.00  0.00     0.063 A 
ATOM     15  N   UNL A   1      32.891  26.065  20.650  1.00  0.00    -0.246 N 
ATOM     16  C   UNL A   1      32.999  26.575  21.902  1.00  0.00     0.222 A 
ATOM     17  C   UNL A   1      33.250  25.771  24.227  1.00  0.00     0.149 C 
ATOM     18  H   UNL A   1      32.836  26.618  19.838  1.00  0.00     0.193 HD
ATOM     19  O   UNL A   1      33.140  27.864  22.178  1.00  0.00    -0.422 OA
ATOM     20  C   UNL A   1      34.395  24.883  24.728  1.00  0.00     0.248 C 
ATOM     21  C   UNL A   1      32.074  25.212  24.983  1.00  0.00     0.002 A 
ATOM     22  C   UNL A   1      33.505  27.251  24.498  1.00  0.00     0.114 C 
ATOM     23  C   UNL A   1      33.429  28.195  23.514  1.00  0.00     0.208 C 
ATOM     24  O   UNL A   1      35.489  24.753  24.177  1.00  0.00    -0.273 OA
ATOM     25  C   UNL A   1      32.540  24.312  25.954  1.00  0.00     0.050 A 
ATOM     26  C   UNL A   1      30.720  25.495  24.851  1.00  0.00     0.008 A 
ATOM     27  C   UNL A   1      31.659  23.680  26.813  1.00  0.00     0.027 A 
ATOM     28  C   UNL A   1      29.826  24.845  25.699  1.00  0.00     0.001 A 
ATOM     29  C   UNL A   1      30.291  23.947  26.672  1.00  0.00     0.002 A 
BRANCH  22  30
ATOM     30  C   UNL A   1      33.797  27.748  25.904  1.00  0.00     0.102 C 
ATOM     31  N   UNL A   1      34.040  28.160  27.071  1.00  0.00    -0.193 NA
ENDBRANCH  22  30
BRANCH  23  32
ATOM     32  N   UNL A   1      33.599  29.535  23.689  1.00  0.00    -0.369 N 
ATOM     33  H   UNL A   1      32.816  30.131  23.712  1.00  0.00     0.159 HD
ATOM     34  H   UNL A   1      34.504  29.907  23.795  1.00  0.00     0.159 HD
ENDBRANCH  23  32
ENDBRANCH   8  10
ENDBRANCH   5   8
ENDBRANCH   3   4
ENDBRANCH   2   3
ENDBRANCH   1   2
BRANCH   1  35
ATOM     35  C   UNL A   1      41.286  21.546  26.632  1.00  0.00     0.116 C 
BRANCH  35  36
ATOM     36  N   UNL A   1      42.259  22.086  25.698  1.00  0.00    -0.352 N 
ATOM     37  C   UNL A   1      42.802  23.323  25.478  1.00  0.00     0.251 C 
ATOM     38  H   UNL A   1      42.609  21.404  25.080  1.00  0.00     0.163 HD
ATOM     39  O   UNL A   1      43.726  23.371  24.661  1.00  0.00    -0.269 OA
BRANCH  37  40
ATOM     40  C   UNL A   1      42.364  24.584  26.139  1.00  0.00     0.039 A 
ATOM     41  C   UNL A   1      41.473  25.503  25.590  1.00  0.00     0.014 A 
ATOM     42  C   UNL A   1      42.960  24.894  27.378  1.00  0.00     0.014 A 
ATOM     43  C   UNL A   1      41.195  26.701  26.245  1.00  0.00     0.010 A 
ATOM     44  C   UNL A   1      42.685  26.092  28.040  1.00  0.00     0.010 A 
ATOM     45  C   UNL A   1      41.814  27.009  27.462  1.00  0.00    -0.014 A 
BRANCH  45  46
ATOM     46  C   UNL A   1      41.480  28.302  28.057  1.00  0.00     0.031 A 
ATOM     47  C   UNL A   1      42.493  29.389  27.931  1.00  0.00     0.074 A 
ATOM     48  C   UNL A   1      40.323  28.586  28.687  1.00  0.00     0.049 A 
ATOM     49  N   UNL A   1      43.165  29.970  28.874  1.00  0.00    -0.248 NA
ATOM     50  C   UNL A   1      42.825  29.858  26.580  1.00  0.00     0.031 C 
ATOM     51  C   UNL A   1      39.069  27.831  28.687  1.00  0.00     0.029 A 
ATOM     52  N   UNL A   1      40.023  29.699  29.416  1.00  0.00    -0.354 N 
ATOM     53  C   UNL A   1      43.926  30.964  28.260  1.00  0.00     0.074 A 
ATOM     54  C   UNL A   1      43.728  30.805  26.838  1.00  0.00     0.031 C 
ATOM     55  C   UNL A   1      38.087  28.610  29.197  1.00  0.00     0.029 A 
ATOM     56  C   UNL A   1      38.678  29.839  29.703  1.00  0.00     0.049 A 
ATOM     57  H   UNL A   1      40.705  30.345  29.712  1.00  0.00     0.167 HD
ATOM     58  C   UNL A   1      44.596  31.927  28.954  1.00  0.00     0.031 A 
ATOM     59  C   UNL A   1      38.086  30.919  30.261  1.00  0.00     0.031 A 
ATOM     60  C   UNL A   1      44.696  31.627  30.354  1.00  0.00     0.049 A 
ATOM     61  C   UNL A   1      39.113  31.677  31.012  1.00  0.00     0.074 A 
ATOM     62  C   UNL A   1      45.340  30.662  31.100  1.00  0.00     0.029 A 
ATOM     63  N   UNL A   1      43.803  32.234  31.201  1.00  0.00    -0.354 N 
ATOM     64  N   UNL A   1      39.703  31.237  32.088  1.00  0.00    -0.248 NA
ATOM     65  C   UNL A   1      39.735  32.838  30.395  1.00  0.00     0.031 C 
ATOM     66  C   UNL A   1      44.503  30.443  32.233  1.00  0.00     0.029 A 
ATOM     67  C   UNL A   1      43.401  31.295  32.119  1.00  0.00     0.049 A 
ATOM     68  H   UNL A   1      43.505  33.171  31.158  1.00  0.00     0.167 HD
ATOM     69  C   UNL A   1      40.970  31.797  32.057  1.00  0.00     0.074 A 
ATOM     70  C   UNL A   1      40.877  32.878  31.083  1.00  0.00     0.031 C 
ATOM     71  C   UNL A   1      42.043  31.163  32.618  1.00  0.00     0.031 A 
BRANCH  58  72
ATOM     72  C   UNL A   1      44.995  33.269  28.399  1.00  0.00    -0.014 A 
ATOM     73  C   UNL A   1      44.120  34.057  27.625  1.00  0.00     0.010 A 
ATOM     74  C   UNL A   1      46.191  33.879  28.835  1.00  0.00     0.010 A 
ATOM     75  C   UNL A   1      44.431  35.373  27.269  1.00  0.00     0.020 A 
ATOM     76  C   UNL A   1      46.493  35.212  28.517  1.00  0.00     0.020 A 
ATOM     77  C   UNL A   1      45.612  35.948  27.728  1.00  0.00     0.054 A 
BRANCH  77  78
ATOM     78  S   UNL A   1      45.916  37.696  27.359  1.00  0.00     0.124 S 
ATOM     79  O   UNL A   1      44.581  38.271  27.504  1.00  0.00    -0.237 OA
ATOM     80  O   UNL A   1      46.880  38.071  28.389  1.00  0.00    -0.237 OA
ATOM     81  O   UNL A   1      46.441  37.673  25.996  1.00  0.00    -0.744 OA
ENDBRANCH  77  78
ENDBRANCH  58  72
BRANCH  59  82
ATOM     82  C   UNL A   1      36.798  31.524  29.847  1.00  0.00    -0.014 A 
ATOM     83  C   UNL A   1      36.687  32.124  28.576  1.00  0.00     0.010 A 
ATOM     84  C   UNL A   1      35.793  31.787  30.794  1.00  0.00     0.010 A 
ATOM     85  C   UNL A   1      35.656  33.020  28.284  1.00  0.00     0.020 A 
ATOM     86  C   UNL A   1      34.757  32.690  30.510  1.00  0.00     0.020 A 
ATOM     87  C   UNL A   1      34.720  33.328  29.269  1.00  0.00     0.054 A 
BRANCH  87  88
ATOM     88  S   UNL A   1      33.522  34.646  28.923  1.00  0.00     0.124 S 
ATOM     89  O   UNL A   1      32.992  34.929  30.254  1.00  0.00    -0.237 OA
ATOM     90  O   UNL A   1      34.364  35.693  28.348  1.00  0.00    -0.237 OA
ATOM     91  O   UNL A   1      32.582  34.026  27.993  1.00  0.00    -0.744 OA
ENDBRANCH  87  88
ENDBRANCH  59  82
BRANCH  71  92
ATOM     92  C   UNL A   1      41.793  30.018  33.579  1.00  0.00    -0.014 A 
ATOM     93  C   UNL A   1      41.936  30.261  34.958  1.00  0.00     0.010 A 
ATOM     94  C   UNL A   1      41.608  28.687  33.153  1.00  0.00     0.010 A 
ATOM     95  C   UNL A   1      41.928  29.209  35.881  1.00  0.00     0.020 A 
ATOM     96  C   UNL A   1      41.570  27.632  34.074  1.00  0.00     0.020 A 
ATOM     97  C   UNL A   1      41.758  27.897  35.431  1.00  0.00     0.054 A 
BRANCH  97  98
ATOM     98  S   UNL A   1      41.824  26.548  36.642  1.00  0.00     0.124 S 
ATOM     99  O   UNL A   1      40.580  26.739  37.386  1.00  0.00    -0.237 OA
ATOM    100  O   UNL A   1      41.870  25.356  35.799  1.00  0.00    -0.237 OA
ATOM    101  O   UNL A   1      43.042  26.813  37.407  1.00  0.00    -0.744 OA
ENDBRANCH  97  98
ENDBRANCH  71  92
ENDBRANCH  45  46
ENDBRANCH  37  40
ENDBRANCH  35  36
ENDBRANCH   1  35
TORSDOF 17
ENDMDL
MODEL 2
REMARK VINA RESULT:     -13.3      2.819      9.364
REMARK SMILES Cc1n[nH]c2c1[C@@]1(C(=O)N([C@@H](C)C(=O)NCCCCNC(=O)c3ccc(-c4c5nc(c(-c6ccc(S(=O)(=O)[O-])cc6)c6ccc([nH]6)c(-c6ccc(S(=O)(=O)[O-])cc6)c6nc(c(-c7ccc(S(=O)(=O)[O-])cc7)c7ccc4[nH]7)C=C6)C=C5)cc3)c3ccccc31)C(C#N)=C(N)O2
REMARK SMILES IDX 18 1 17 2 16 3 15 4 13 5 14 6 11 8 12 9 10 10 1 11 2 12 3 13
REMARK SMILES IDX 6 14 4 15 5 16 7 17 94 19 8 20 88 21 89 22 92 23 9 24 83 25
REMARK SMILES IDX 87 26 84 27 86 28 85 29 90 30 91 31 93 32 19 35 20 36 21 37
REMARK SMILES IDX 22 39 23 40 24 41 82 42 25 43 81 44 26 45 27 46 28 47 75 48
REMARK SMILES IDX 29 49 80 50 74 51 76 52 30 53 79 54 73 55 72 56 31 58 61 59
REMARK SMILES IDX 42 60 60 61 43 62 46 63 59 64 77 65 44 66 45 67 58 69 78 70
REMARK SMILES IDX 47 71 32 72 33 73 41 74 34 75 40 76 35 77 36 78 37 79 38 80
REMARK SMILES IDX 39 81 62 82 63 83 71 84 64 85 70 86 65 87 66 88 67 89 68 90
REMARK SMILES IDX 69 91 48 92 49 93 57 94 50 95 56 96 51 97 52 98 53 99 54 100
REMARK SMILES IDX 55 101
REMARK H PARENT 15 7 4 18 93 33 93 34 20 38 76 57 46 68
REMARK Flexibility Score: inf
ROOT
ATOM      1  C   UNL A   1      34.472  31.762  27.996  1.00  0.00     0.023 C 
ENDROOT
BRANCH   1   2
ATOM      2  C   UNL A   1      35.536  30.676  27.850  1.00  0.00     0.023 C 
BRANCH   2   3
ATOM      3  C   UNL A   1      35.103  29.415  27.098  1.00  0.00     0.116 C 
BRANCH   3   4
ATOM      4  N   UNL A   1      33.843  29.594  26.396  1.00  0.00    -0.354 N 
ATOM      5  C   UNL A   1      33.320  29.043  25.269  1.00  0.00     0.242 C 
ATOM      6  O   UNL A   1      32.161  29.382  24.990  1.00  0.00    -0.273 OA
ATOM      7  H   UNL A   1      33.246  30.250  26.824  1.00  0.00     0.163 HD
BRANCH   5   8
ATOM      8  C   UNL A   1      34.057  28.067  24.316  1.00  0.00     0.176 C 
ATOM      9  C   UNL A   1      34.172  28.514  22.863  1.00  0.00     0.042 C 
BRANCH   8  10
ATOM     10  N   UNL A   1      33.649  26.677  24.494  1.00  0.00    -0.298 N 
ATOM     11  C   UNL A   1      30.022  26.102  25.495  1.00  0.00     0.069 C 
ATOM     12  C   UNL A   1      30.472  24.821  26.096  1.00  0.00     0.068 A 
ATOM     13  N   UNL A   1      29.623  24.105  26.853  1.00  0.00    -0.177 NA
ATOM     14  C   UNL A   1      31.761  24.227  26.059  1.00  0.00     0.063 A 
ATOM     15  N   UNL A   1      30.388  23.116  27.363  1.00  0.00    -0.246 N 
ATOM     16  C   UNL A   1      31.669  23.166  26.920  1.00  0.00     0.222 A 
ATOM     17  C   UNL A   1      33.091  24.596  25.489  1.00  0.00     0.149 C 
ATOM     18  H   UNL A   1      30.053  22.432  27.987  1.00  0.00     0.193 HD
ATOM     19  O   UNL A   1      32.641  22.370  27.342  1.00  0.00    -0.422 OA
ATOM     20  C   UNL A   1      33.345  26.090  25.721  1.00  0.00     0.248 C 
ATOM     21  C   UNL A   1      32.992  24.530  23.988  1.00  0.00     0.002 A 
ATOM     22  C   UNL A   1      34.201  23.724  26.069  1.00  0.00     0.114 C 
ATOM     23  C   UNL A   1      33.944  22.687  26.919  1.00  0.00     0.208 C 
ATOM     24  O   UNL A   1      33.194  26.680  26.791  1.00  0.00    -0.273 OA
ATOM     25  C   UNL A   1      33.386  25.764  23.449  1.00  0.00     0.050 A 
ATOM     26  C   UNL A   1      32.621  23.470  23.170  1.00  0.00     0.008 A 
ATOM     27  C   UNL A   1      33.419  25.960  22.080  1.00  0.00     0.027 A 
ATOM     28  C   UNL A   1      32.630  23.668  21.792  1.00  0.00     0.001 A 
ATOM     29  C   UNL A   1      33.028  24.901  21.251  1.00  0.00     0.002 A 
BRANCH  22  30
ATOM     30  C   UNL A   1      35.651  23.940  25.669  1.00  0.00     0.102 C 
ATOM     31  N   UNL A   1      36.855  24.119  25.337  1.00  0.00    -0.193 NA
ENDBRANCH  22  30
BRANCH  23  32
ATOM     32  N   UNL A   1      34.876  21.841  27.438  1.00  0.00    -0.369 N 
ATOM     33  H   UNL A   1      35.281  21.146  26.869  1.00  0.00     0.159 HD
ATOM     34  H   UNL A   1      35.147  21.924  28.380  1.00  0.00     0.159 HD
ENDBRANCH  23  32
ENDBRANCH   8  10
ENDBRANCH   5   8
ENDBRANCH   3   4
ENDBRANCH   2   3
ENDBRANCH   1   2
BRANCH   1  35
ATOM     35  C   UNL A   1      34.927  32.995  28.786  1.00  0.00     0.116 C 
BRANCH  35  36
ATOM     36  N   UNL A   1      34.683  32.888  30.214  1.00  0.00    -0.352 N 
ATOM     37  C   UNL A   1      35.347  32.318  31.266  1.00  0.00     0.251 C 
ATOM     38  H   UNL A   1      33.846  33.328  30.489  1.00  0.00     0.163 HD
ATOM     39  O   UNL A   1      34.890  32.554  32.387  1.00  0.00    -0.269 OA
BRANCH  37  40
ATOM     40  C   UNL A   1      36.552  31.450  31.153  1.00  0.00     0.039 A 
ATOM     41  C   UNL A   1      37.826  31.895  30.806  1.00  0.00     0.014 A 
ATOM     42  C   UNL A   1      36.359  30.066  31.339  1.00  0.00     0.014 A 
ATOM     43  C   UNL A   1      38.872  30.991  30.636  1.00  0.00     0.010 A 
ATOM     44  C   UNL A   1      37.404  29.155  31.170  1.00  0.00     0.010 A 
ATOM     45  C   UNL A   1      38.662  29.617  30.798  1.00  0.00    -0.014 A 
BRANCH  45  46
ATOM     46  C   UNL A   1      39.814  28.747  30.569  1.00  0.00     0.031 A 
ATOM     47  C   UNL A   1      40.737  28.526  31.719  1.00  0.00     0.074 A 
ATOM     48  C   UNL A   1      40.087  28.119  29.409  1.00  0.00     0.049 A 
ATOM     49  N   UNL A   1      41.976  28.886  31.832  1.00  0.00    -0.248 NA
ATOM     50  C   UNL A   1      40.196  27.852  32.906  1.00  0.00     0.031 C 
ATOM     51  C   UNL A   1      39.219  27.915  28.248  1.00  0.00     0.029 A 
ATOM     52  N   UNL A   1      41.228  27.448  29.073  1.00  0.00    -0.354 N 
ATOM     53  C   UNL A   1      42.421  28.388  33.056  1.00  0.00     0.074 A 
ATOM     54  C   UNL A   1      41.264  27.818  33.706  1.00  0.00     0.031 C 
ATOM     55  C   UNL A   1      39.782  26.992  27.434  1.00  0.00     0.029 A 
ATOM     56  C   UNL A   1      41.111  26.674  27.934  1.00  0.00     0.049 A 
ATOM     57  H   UNL A   1      42.059  27.511  29.596  1.00  0.00     0.167 HD
ATOM     58  C   UNL A   1      43.733  28.379  33.425  1.00  0.00     0.031 A 
ATOM     59  C   UNL A   1      42.021  25.787  27.471  1.00  0.00     0.031 A 
ATOM     60  C   UNL A   1      44.548  29.207  32.582  1.00  0.00     0.049 A 
ATOM     61  C   UNL A   1      43.348  26.155  28.016  1.00  0.00     0.074 A 
ATOM     62  C   UNL A   1      44.640  30.562  32.343  1.00  0.00     0.029 A 
ATOM     63  N   UNL A   1      45.262  28.592  31.585  1.00  0.00    -0.354 N 
ATOM     64  N   UNL A   1      43.995  27.240  27.692  1.00  0.00    -0.248 NA
ATOM     65  C   UNL A   1      43.857  25.456  29.186  1.00  0.00     0.031 C 
ATOM     66  C   UNL A   1      45.036  30.676  30.979  1.00  0.00     0.029 A 
ATOM     67  C   UNL A   1      45.174  29.383  30.466  1.00  0.00     0.049 A 
ATOM     68  H   UNL A   1      45.749  27.739  31.659  1.00  0.00     0.167 HD
ATOM     69  C   UNL A   1      44.719  27.577  28.824  1.00  0.00     0.074 A 
ATOM     70  C   UNL A   1      44.710  26.373  29.646  1.00  0.00     0.031 C 
ATOM     71  C   UNL A   1      45.026  28.877  29.113  1.00  0.00     0.031 A 
BRANCH  58  72
ATOM     72  C   UNL A   1      44.334  27.447  34.443  1.00  0.00    -0.014 A 
ATOM     73  C   UNL A   1      44.136  27.611  35.829  1.00  0.00     0.010 A 
ATOM     74  C   UNL A   1      44.933  26.241  34.020  1.00  0.00     0.010 A 
ATOM     75  C   UNL A   1      44.543  26.643  36.752  1.00  0.00     0.020 A 
ATOM     76  C   UNL A   1      45.308  25.246  34.936  1.00  0.00     0.020 A 
ATOM     77  C   UNL A   1      45.116  25.458  36.300  1.00  0.00     0.054 A 
BRANCH  77  78
ATOM     78  S   UNL A   1      45.507  24.174  37.516  1.00  0.00     0.124 S 
ATOM     79  O   UNL A   1      46.936  24.386  37.730  1.00  0.00    -0.237 OA
ATOM     80  O   UNL A   1      44.641  24.528  38.637  1.00  0.00    -0.237 OA
ATOM     81  O   UNL A   1      45.156  22.932  36.830  1.00  0.00    -0.744 OA
ENDBRANCH  77  78
ENDBRANCH  58  72
BRANCH  59  82
ATOM     82  C   UNL A   1      41.733  24.439  26.926  1.00  0.00    -0.014 A 
ATOM     83  C   UNL A   1      40.886  23.566  27.638  1.00  0.00     0.010 A 
ATOM     84  C   UNL A   1      42.518  23.903  25.890  1.00  0.00     0.010 A 
ATOM     85  C   UNL A   1      40.881  22.193  27.384  1.00  0.00     0.020 A 
ATOM     86  C   UNL A   1      42.522  22.524  25.632  1.00  0.00     0.020 A 
ATOM     87  C   UNL A   1      41.730  21.676  26.408  1.00  0.00     0.054 A 
BRANCH  87  88
ATOM     88  S   UNL A   1      41.847  19.872  26.250  1.00  0.00     0.124 S 
ATOM     89  O   UNL A   1      42.201  19.472  27.610  1.00  0.00    -0.237 OA
ATOM     90  O   UNL A   1      40.500  19.506  25.819  1.00  0.00    -0.237 OA
ATOM     91  O   UNL A   1      42.893  19.678  25.249  1.00  0.00    -0.744 OA
ENDBRANCH  87  88
ENDBRANCH  59  82
BRANCH  71  92
ATOM     92  C   UNL A   1      44.880  29.920  28.022  1.00  0.00    -0.014 A 
ATOM     93  C   UNL A   1      46.050  30.477  27.471  1.00  0.00     0.010 A 
ATOM     94  C   UNL A   1      43.641  30.489  27.667  1.00  0.00     0.010 A 
ATOM     95  C   UNL A   1      45.990  31.586  26.620  1.00  0.00     0.020 A 
ATOM     96  C   UNL A   1      43.571  31.582  26.792  1.00  0.00     0.020 A 
ATOM     97  C   UNL A   1      44.749  32.141  26.296  1.00  0.00     0.054 A 
BRANCH  97  98
ATOM     98  S   UNL A   1      44.706  33.621  25.248  1.00  0.00     0.124 S 
ATOM     99  O   UNL A   1      43.710  34.450  25.924  1.00  0.00    -0.237 OA
ATOM    100  O   UNL A   1      46.080  34.112  25.321  1.00  0.00    -0.237 OA
ATOM    101  O   UNL A   1      44.297  33.119  23.937  1.00  0.00    -0.744 OA
ENDBRANCH  97  98
ENDBRANCH  71  92
ENDBRANCH  45  46
ENDBRANCH  37  40
ENDBRANCH  35  36
ENDBRANCH   1  35
TORSDOF 17
ENDMDL
MODEL 3
REMARK VINA RESULT:     -12.7      1.952      2.763
REMARK SMILES Cc1n[nH]c2c1[C@@]1(C(=O)N([C@@H](C)C(=O)NCCCCNC(=O)c3ccc(-c4c5nc(c(-c6ccc(S(=O)(=O)[O-])cc6)c6ccc([nH]6)c(-c6ccc(S(=O)(=O)[O-])cc6)c6nc(c(-c7ccc(S(=O)(=O)[O-])cc7)c7ccc4[nH]7)C=C6)C=C5)cc3)c3ccccc31)C(C#N)=C(N)O2
REMARK SMILES IDX 18 1 17 2 16 3 15 4 13 5 14 6 11 8 12 9 10 10 1 11 2 12 3 13
REMARK SMILES IDX 6 14 4 15 5 16 7 17 94 19 8 20 88 21 89 22 92 23 9 24 83 25
REMARK SMILES IDX 87 26 84 27 86 28 85 29 90 30 91 31 93 32 19 35 20 36 21 37
REMARK SMILES IDX 22 39 23 40 24 41 82 42 25 43 81 44 26 45 27 46 28 47 75 48
REMARK SMILES IDX 29 49 80 50 74 51 76 52 30 53 79 54 73 55 72 56 31 58 61 59
REMARK SMILES IDX 42 60 60 61 43 62 46 63 59 64 77 65 44 66 45 67 58 69 78 70
REMARK SMILES IDX 47 71 32 72 33 73 41 74 34 75 40 76 35 77 36 78 37 79 38 80
REMARK SMILES IDX 39 81 62 82 63 83 71 84 64 85 70 86 65 87 66 88 67 89 68 90
REMARK SMILES IDX 69 91 48 92 49 93 57 94 50 95 56 96 51 97 52 98 53 99 54 100
REMARK SMILES IDX 55 101
REMARK H PARENT 15 7 4 18 93 33 93 34 20 38 76 57 46 68
REMARK Flexibility Score: inf
ROOT
ATOM      1  C   UNL A   1      36.613  21.510  24.578  1.00  0.00     0.023 C 
ENDROOT
BRANCH   1   2
ATOM      2  C   UNL A   1      35.373  20.934  25.257  1.00  0.00     0.023 C 
BRANCH   2   3
ATOM      3  C   UNL A   1      34.303  21.949  25.664  1.00  0.00     0.116 C 
BRANCH   3   4
ATOM      4  N   UNL A   1      33.187  21.979  24.733  1.00  0.00    -0.354 N 
ATOM      5  C   UNL A   1      32.043  22.711  24.675  1.00  0.00     0.242 C 
ATOM      6  O   UNL A   1      31.330  22.522  23.679  1.00  0.00    -0.273 OA
ATOM      7  H   UNL A   1      33.277  21.336  23.993  1.00  0.00     0.163 HD
BRANCH   5   8
ATOM      8  C   UNL A   1      31.564  23.722  25.748  1.00  0.00     0.176 C 
ATOM      9  C   UNL A   1      30.298  23.338  26.507  1.00  0.00     0.042 C 
BRANCH   8  10
ATOM     10  N   UNL A   1      31.600  25.107  25.289  1.00  0.00    -0.298 N 
ATOM     11  C   UNL A   1      33.241  25.714  21.909  1.00  0.00     0.069 C 
ATOM     12  C   UNL A   1      33.522  27.094  22.380  1.00  0.00     0.068 A 
ATOM     13  N   UNL A   1      34.317  27.898  21.653  1.00  0.00    -0.177 NA
ATOM     14  C   UNL A   1      33.119  27.718  23.589  1.00  0.00     0.063 A 
ATOM     15  N   UNL A   1      34.490  28.986  22.435  1.00  0.00    -0.246 N 
ATOM     16  C   UNL A   1      33.800  28.906  23.600  1.00  0.00     0.222 A 
ATOM     17  C   UNL A   1      32.347  27.305  24.799  1.00  0.00     0.149 C 
ATOM     18  H   UNL A   1      35.055  29.753  22.186  1.00  0.00     0.193 HD
ATOM     19  O   UNL A   1      33.875  29.797  24.579  1.00  0.00    -0.422 OA
ATOM     20  C   UNL A   1      32.754  25.882  25.199  1.00  0.00     0.248 C 
ATOM     21  C   UNL A   1      30.910  27.111  24.394  1.00  0.00     0.002 A 
ATOM     22  C   UNL A   1      32.533  28.302  25.940  1.00  0.00     0.114 C 
ATOM     23  C   UNL A   1      33.242  29.459  25.788  1.00  0.00     0.208 C 
ATOM     24  O   UNL A   1      33.912  25.478  25.310  1.00  0.00    -0.273 OA
ATOM     25  C   UNL A   1      30.503  25.818  24.756  1.00  0.00     0.050 A 
ATOM     26  C   UNL A   1      30.031  28.003  23.791  1.00  0.00     0.008 A 
ATOM     27  C   UNL A   1      29.207  25.393  24.524  1.00  0.00     0.027 A 
ATOM     28  C   UNL A   1      28.731  27.574  23.535  1.00  0.00     0.001 A 
ATOM     29  C   UNL A   1      28.322  26.282  23.900  1.00  0.00     0.002 A 
BRANCH  22  30
ATOM     30  C   UNL A   1      31.875  28.073  27.290  1.00  0.00     0.102 C 
ATOM     31  N   UNL A   1      31.328  27.882  28.411  1.00  0.00    -0.193 NA
ENDBRANCH  22  30
BRANCH  23  32
ATOM     32  N   UNL A   1      33.410  30.414  26.744  1.00  0.00    -0.369 N 
ATOM     33  H   UNL A   1      34.199  31.002  26.718  1.00  0.00     0.159 HD
ATOM     34  H   UNL A   1      32.744  30.516  27.461  1.00  0.00     0.159 HD
ENDBRANCH  23  32
ENDBRANCH   8  10
ENDBRANCH   5   8
ENDBRANCH   3   4
ENDBRANCH   2   3
ENDBRANCH   1   2
BRANCH   1  35
ATOM     35  C   UNL A   1      37.508  22.350  25.497  1.00  0.00     0.116 C 
BRANCH  35  36
ATOM     36  N   UNL A   1      38.682  21.637  25.970  1.00  0.00    -0.352 N 
ATOM     37  C   UNL A   1      39.788  21.978  26.701  1.00  0.00     0.251 C 
ATOM     38  H   UNL A   1      38.683  20.690  25.701  1.00  0.00     0.163 HD
ATOM     39  O   UNL A   1      40.527  21.046  27.030  1.00  0.00    -0.269 OA
BRANCH  37  40
ATOM     40  C   UNL A   1      40.152  23.361  27.115  1.00  0.00     0.039 A 
ATOM     41  C   UNL A   1      41.130  23.681  28.054  1.00  0.00     0.014 A 
ATOM     42  C   UNL A   1      39.390  24.411  26.564  1.00  0.00     0.014 A 
ATOM     43  C   UNL A   1      41.335  25.003  28.443  1.00  0.00     0.010 A 
ATOM     44  C   UNL A   1      39.591  25.738  26.950  1.00  0.00     0.010 A 
ATOM     45  C   UNL A   1      40.554  26.034  27.909  1.00  0.00    -0.014 A 
BRANCH  45  46
ATOM     46  C   UNL A   1      40.825  27.383  28.402  1.00  0.00     0.031 A 
ATOM     47  C   UNL A   1      42.136  27.990  28.033  1.00  0.00     0.074 A 
ATOM     48  C   UNL A   1      39.972  28.119  29.141  1.00  0.00     0.049 A 
ATOM     49  N   UNL A   1      43.116  28.314  28.815  1.00  0.00    -0.248 NA
ATOM     50  C   UNL A   1      42.399  28.230  26.608  1.00  0.00     0.031 C 
ATOM     51  C   UNL A   1      38.545  27.904  29.382  1.00  0.00     0.029 A 
ATOM     52  N   UNL A   1      40.228  29.297  29.782  1.00  0.00    -0.354 N 
ATOM     53  C   UNL A   1      44.085  28.909  28.007  1.00  0.00     0.074 A 
ATOM     54  C   UNL A   1      43.619  28.769  26.647  1.00  0.00     0.031 C 
ATOM     55  C   UNL A   1      38.018  29.025  29.929  1.00  0.00     0.029 A 
ATOM     56  C   UNL A   1      39.096  29.956  30.222  1.00  0.00     0.049 A 
ATOM     57  H   UNL A   1      41.139  29.645  29.918  1.00  0.00     0.167 HD
ATOM     58  C   UNL A   1      45.166  29.574  28.504  1.00  0.00     0.031 A 
ATOM     59  C   UNL A   1      39.044  31.207  30.734  1.00  0.00     0.031 A 
ATOM     60  C   UNL A   1      45.368  29.327  29.904  1.00  0.00     0.049 A 
ATOM     61  C   UNL A   1      40.385  31.548  31.263  1.00  0.00     0.074 A 
ATOM     62  C   UNL A   1      45.716  28.227  30.659  1.00  0.00     0.029 A 
ATOM     63  N   UNL A   1      44.912  30.271  30.789  1.00  0.00    -0.354 N 
ATOM     64  N   UNL A   1      40.932  30.969  32.295  1.00  0.00    -0.248 NA
ATOM     65  C   UNL A   1      41.288  32.350  30.452  1.00  0.00     0.031 C 
ATOM     66  C   UNL A   1      45.049  28.401  31.906  1.00  0.00     0.029 A 
ATOM     67  C   UNL A   1      44.340  29.604  31.845  1.00  0.00     0.049 A 
ATOM     68  H   UNL A   1      44.981  31.248  30.686  1.00  0.00     0.167 HD
ATOM     69  C   UNL A   1      42.294  30.997  32.043  1.00  0.00     0.074 A 
ATOM     70  C   UNL A   1      42.457  31.982  30.980  1.00  0.00     0.031 C 
ATOM     71  C   UNL A   1      43.128  30.028  32.525  1.00  0.00     0.031 A 
BRANCH  58  72
ATOM     72  C   UNL A   1      45.941  30.631  27.764  1.00  0.00    -0.014 A 
ATOM     73  C   UNL A   1      45.359  31.846  27.351  1.00  0.00     0.010 A 
ATOM     74  C   UNL A   1      47.345  30.527  27.664  1.00  0.00     0.010 A 
ATOM     75  C   UNL A   1      46.125  32.893  26.829  1.00  0.00     0.020 A 
ATOM     76  C   UNL A   1      48.128  31.587  27.180  1.00  0.00     0.020 A 
ATOM     77  C   UNL A   1      47.509  32.762  26.758  1.00  0.00     0.054 A 
BRANCH  77  78
ATOM     78  S   UNL A   1      48.479  34.189  26.203  1.00  0.00     0.124 S 
ATOM     79  O   UNL A   1      47.488  34.950  25.446  1.00  0.00    -0.237 OA
ATOM     80  O   UNL A   1      48.906  34.788  27.464  1.00  0.00    -0.237 OA
ATOM     81  O   UNL A   1      49.548  33.589  25.407  1.00  0.00    -0.744 OA
ENDBRANCH  77  78
ENDBRANCH  58  72
BRANCH  59  82
ATOM     82  C   UNL A   1      38.026  32.239  30.427  1.00  0.00    -0.014 A 
ATOM     83  C   UNL A   1      36.900  32.377  31.264  1.00  0.00     0.010 A 
ATOM     84  C   UNL A   1      37.998  32.864  29.168  1.00  0.00     0.010 A 
ATOM     85  C   UNL A   1      35.753  33.044  30.831  1.00  0.00     0.020 A 
ATOM     86  C   UNL A   1      36.846  33.532  28.724  1.00  0.00     0.020 A 
ATOM     87  C   UNL A   1      35.719  33.583  29.546  1.00  0.00     0.054 A 
BRANCH  87  88
ATOM     88  S   UNL A   1      34.145  34.258  28.947  1.00  0.00     0.124 S 
ATOM     89  O   UNL A   1      34.582  35.458  28.238  1.00  0.00    -0.237 OA
ATOM     90  O   UNL A   1      33.642  33.179  28.100  1.00  0.00    -0.237 OA
ATOM     91  O   UNL A   1      33.381  34.495  30.169  1.00  0.00    -0.744 OA
ENDBRANCH  87  88
ENDBRANCH  59  82
BRANCH  71  92
ATOM     92  C   UNL A   1      42.626  29.115  33.625  1.00  0.00    -0.014 A 
ATOM     93  C   UNL A   1      43.127  29.301  34.928  1.00  0.00     0.010 A 
ATOM     94  C   UNL A   1      41.830  27.980  33.375  1.00  0.00     0.010 A 
ATOM     95  C   UNL A   1      42.871  28.369  35.940  1.00  0.00     0.020 A 
ATOM     96  C   UNL A   1      41.545  27.057  34.391  1.00  0.00     0.020 A 
ATOM     97  C   UNL A   1      42.092  27.244  35.661  1.00  0.00     0.054 A 
BRANCH  97  98
ATOM     98  S   UNL A   1      41.836  26.017  36.973  1.00  0.00     0.124 S 
ATOM     99  O   UNL A   1      40.468  26.304  37.403  1.00  0.00    -0.237 OA
ATOM    100  O   UNL A   1      42.016  24.748  36.272  1.00  0.00    -0.237 OA
ATOM    101  O   UNL A   1      42.867  26.331  37.961  1.00  0.00    -0.744 OA
ENDBRANCH  97  98
ENDBRANCH  71  92
ENDBRANCH  45  46
ENDBRANCH  37  40
ENDBRANCH  35  36
ENDBRANCH   1  35
TORSDOF 17
ENDMDL
