MODEL 1
REMARK VINA RESULT:     -11.9      0.000      0.000
REMARK SMILES O=C(COc1ccc(Br)cc1/C=C1\C(=O)Nc2ccc(Br)cc21)NCCCCNC(=O)c1ccc(-c2c3nc(c(-c4ccc(S(=O)(=O)[O-])cc4)c4ccc([nH]4)c(-c4ccc(S(=O)(=O)[O-])cc4)c4nc(c(-c5ccc(S(=O)(=O)[O-])cc5)c5ccc2[nH]5)C=C4)C=C3)cc1
REMARK SMILES IDX 26 1 25 2 24 3 1 4 2 5 3 7 4 8 5 9 6 10 11 11 7 12 10 13
REMARK SMILES IDX 8 14 9 15 12 16 13 17 14 18 23 19 15 20 16 21 17 22 22 23
REMARK SMILES IDX 18 25 20 26 19 27 21 28 27 29 28 30 29 31 30 32 31 34 32 35
REMARK SMILES IDX 33 36 91 37 34 38 90 39 35 40 36 41 37 42 84 43 38 44 89 45
REMARK SMILES IDX 83 46 85 47 39 48 88 49 82 50 81 51 40 53 70 54 51 55 69 56
REMARK SMILES IDX 52 57 55 58 68 59 86 60 53 61 54 62 67 64 87 65 56 66 41 67
REMARK SMILES IDX 42 68 50 69 43 70 49 71 44 72 45 73 46 74 47 75 48 76 71 77
REMARK SMILES IDX 72 78 80 79 73 80 79 81 74 82 75 83 76 84 77 85 78 86 57 87
REMARK SMILES IDX 58 88 66 89 59 90 65 91 60 92 61 93 62 94 63 95 64 96
REMARK H PARENT 24 6 16 24 29 33 85 52 55 63
REMARK Flexibility Score: inf
ROOT
ATOM      1  C   UNL A   1      42.162  22.219  28.050  1.00  0.00     0.023 C 
ENDROOT
BRANCH   1   2
ATOM      2  C   UNL A   1      41.021  21.323  27.576  1.00  0.00     0.116 C 
BRANCH   2   3
ATOM      3  N   UNL A   1      40.068  21.949  26.669  1.00  0.00    -0.353 N 
ATOM      4  O   UNL A   1      39.404  20.001  25.652  1.00  0.00    -0.271 OA
ATOM      5  C   UNL A   1      39.215  21.194  25.882  1.00  0.00     0.257 C 
ATOM      6  H   UNL A   1      40.029  22.932  26.615  1.00  0.00     0.163 HD
BRANCH   5   7
ATOM      7  C   UNL A   1      37.949  21.929  25.367  1.00  0.00     0.329 C 
BRANCH   7   8
ATOM      8  O   UNL A   1      36.693  21.847  26.053  1.00  0.00    -0.483 OA
BRANCH   8   9
ATOM      9  C   UNL A   1      35.689  21.153  25.409  1.00  0.00     0.127 A 
ATOM     10  C   UNL A   1      35.855  19.774  25.154  1.00  0.00     0.048 A 
ATOM     11  C   UNL A   1      34.448  21.780  25.110  1.00  0.00     0.018 A 
ATOM     12  C   UNL A   1      34.867  19.001  24.558  1.00  0.00     0.019 A 
ATOM     13  C   UNL A   1      33.459  20.939  24.564  1.00  0.00     0.027 A 
ATOM     14  C   UNL A   1      33.664  19.592  24.264  1.00  0.00     0.018 A 
ATOM     15  Br  UNL A   1      32.289  18.583  23.452  1.00  0.00    -0.051 Br
BRANCH  11  16
ATOM     16  C   UNL A   1      34.199  23.262  25.276  1.00  0.00     0.026 C 
ATOM     17  C   UNL A   1      33.331  23.916  26.092  1.00  0.00     0.050 C 
ATOM     18  C   UNL A   1      32.369  23.327  27.105  1.00  0.00     0.256 C 
ATOM     19  C   UNL A   1      32.767  25.262  25.827  1.00  0.00     0.012 A 
ATOM     20  O   UNL A   1      32.585  22.608  28.054  1.00  0.00    -0.269 OA
ATOM     21  N   UNL A   1      31.173  23.974  26.865  1.00  0.00    -0.321 N 
ATOM     22  C   UNL A   1      31.404  25.150  26.166  1.00  0.00     0.049 A 
ATOM     23  C   UNL A   1      33.272  26.506  25.501  1.00  0.00     0.026 A 
ATOM     24  H   UNL A   1      30.287  23.650  27.147  1.00  0.00     0.170 HD
ATOM     25  C   UNL A   1      30.483  26.165  26.024  1.00  0.00     0.028 A 
ATOM     26  C   UNL A   1      32.366  27.582  25.447  1.00  0.00     0.018 A 
ATOM     27  C   UNL A   1      30.982  27.406  25.650  1.00  0.00     0.018 A 
ATOM     28  Br  UNL A   1      33.011  29.345  25.194  1.00  0.00    -0.051 Br
ENDBRANCH  11  16
ENDBRANCH   8   9
ENDBRANCH   7   8
ENDBRANCH   5   7
ENDBRANCH   2   3
ENDBRANCH   1   2
BRANCH   1  29
ATOM     29  C   UNL A   1      43.341  22.349  27.090  1.00  0.00     0.023 C 
BRANCH  29  30
ATOM     30  C   UNL A   1      43.839  23.766  26.828  1.00  0.00     0.116 C 
BRANCH  30  31
ATOM     31  N   UNL A   1      43.068  24.494  25.828  1.00  0.00    -0.352 N 
ATOM     32  C   UNL A   1      42.279  25.616  25.989  1.00  0.00     0.251 C 
ATOM     33  H   UNL A   1      43.117  24.138  24.912  1.00  0.00     0.163 HD
ATOM     34  O   UNL A   1      41.630  26.053  25.044  1.00  0.00    -0.269 OA
BRANCH  32  35
ATOM     35  C   UNL A   1      42.175  26.259  27.323  1.00  0.00     0.039 A 
ATOM     36  C   UNL A   1      41.238  25.815  28.257  1.00  0.00     0.014 A 
ATOM     37  C   UNL A   1      42.982  27.363  27.614  1.00  0.00     0.014 A 
ATOM     38  C   UNL A   1      40.963  26.595  29.377  1.00  0.00     0.010 A 
ATOM     39  C   UNL A   1      42.766  28.091  28.790  1.00  0.00     0.010 A 
ATOM     40  C   UNL A   1      41.708  27.755  29.649  1.00  0.00    -0.014 A 
BRANCH  40  41
ATOM     41  C   UNL A   1      41.344  28.609  30.814  1.00  0.00     0.031 A 
ATOM     42  C   UNL A   1      42.197  28.622  32.059  1.00  0.00     0.074 A 
ATOM     43  C   UNL A   1      40.281  29.435  30.725  1.00  0.00     0.049 A 
ATOM     44  N   UNL A   1      42.050  29.337  33.146  1.00  0.00    -0.248 NA
ATOM     45  C   UNL A   1      43.364  27.725  32.092  1.00  0.00     0.031 C 
ATOM     46  C   UNL A   1      39.394  29.538  29.564  1.00  0.00     0.029 A 
ATOM     47  N   UNL A   1      39.786  30.365  31.606  1.00  0.00    -0.354 N 
ATOM     48  C   UNL A   1      43.091  28.968  33.992  1.00  0.00     0.074 A 
ATOM     49  C   UNL A   1      43.845  27.941  33.308  1.00  0.00     0.031 C 
ATOM     50  C   UNL A   1      38.507  30.520  29.778  1.00  0.00     0.029 A 
ATOM     51  C   UNL A   1      38.710  31.069  31.115  1.00  0.00     0.049 A 
ATOM     52  H   UNL A   1      40.165  30.515  32.502  1.00  0.00     0.167 HD
ATOM     53  C   UNL A   1      43.401  29.452  35.219  1.00  0.00     0.031 A 
ATOM     54  C   UNL A   1      37.959  32.041  31.673  1.00  0.00     0.031 A 
ATOM     55  C   UNL A   1      42.659  30.488  35.891  1.00  0.00     0.049 A 
ATOM     56  C   UNL A   1      38.288  32.521  33.057  1.00  0.00     0.074 A 
ATOM     57  C   UNL A   1      42.911  31.053  37.129  1.00  0.00     0.029 A 
ATOM     58  N   UNL A   1      41.531  31.118  35.387  1.00  0.00    -0.354 N 
ATOM     59  N   UNL A   1      39.279  32.160  33.835  1.00  0.00    -0.248 NA
ATOM     60  C   UNL A   1      37.400  33.537  33.641  1.00  0.00     0.031 C 
ATOM     61  C   UNL A   1      41.901  31.977  37.402  1.00  0.00     0.029 A 
ATOM     62  C   UNL A   1      41.060  32.044  36.303  1.00  0.00     0.049 A 
ATOM     63  H   UNL A   1      41.125  30.935  34.509  1.00  0.00     0.167 HD
ATOM     64  C   UNL A   1      39.141  32.910  34.998  1.00  0.00     0.074 A 
ATOM     65  C   UNL A   1      37.984  33.761  34.812  1.00  0.00     0.031 C 
ATOM     66  C   UNL A   1      39.905  32.888  36.116  1.00  0.00     0.031 A 
BRANCH  53  67
ATOM     67  C   UNL A   1      44.601  28.884  35.936  1.00  0.00    -0.014 A 
ATOM     68  C   UNL A   1      45.887  29.373  35.638  1.00  0.00     0.010 A 
ATOM     69  C   UNL A   1      44.472  27.783  36.801  1.00  0.00     0.010 A 
ATOM     70  C   UNL A   1      47.023  28.750  36.163  1.00  0.00     0.020 A 
ATOM     71  C   UNL A   1      45.606  27.175  37.351  1.00  0.00     0.020 A 
ATOM     72  C   UNL A   1      46.875  27.647  37.008  1.00  0.00     0.054 A 
BRANCH  72  73
ATOM     73  S   UNL A   1      48.362  26.832  37.655  1.00  0.00     0.124 S 
ATOM     74  O   UNL A   1      47.798  25.738  38.438  1.00  0.00    -0.237 OA
ATOM     75  O   UNL A   1      49.066  26.441  36.437  1.00  0.00    -0.237 OA
ATOM     76  O   UNL A   1      49.017  27.884  38.430  1.00  0.00    -0.744 OA
ENDBRANCH  72  73
ENDBRANCH  53  67
BRANCH  54  77
ATOM     77  C   UNL A   1      36.833  32.621  30.890  1.00  0.00    -0.014 A 
ATOM     78  C   UNL A   1      37.079  33.620  29.927  1.00  0.00     0.010 A 
ATOM     79  C   UNL A   1      35.506  32.251  31.165  1.00  0.00     0.010 A 
ATOM     80  C   UNL A   1      36.019  34.286  29.308  1.00  0.00     0.020 A 
ATOM     81  C   UNL A   1      34.443  32.893  30.522  1.00  0.00     0.020 A 
ATOM     82  C   UNL A   1      34.707  33.928  29.623  1.00  0.00     0.054 A 
BRANCH  82  83
ATOM     83  S   UNL A   1      33.346  34.850  28.856  1.00  0.00     0.124 S 
ATOM     84  O   UNL A   1      32.505  35.156  30.010  1.00  0.00    -0.237 OA
ATOM     85  O   UNL A   1      34.032  35.993  28.257  1.00  0.00    -0.237 OA
ATOM     86  O   UNL A   1      32.781  33.898  27.904  1.00  0.00    -0.744 OA
ENDBRANCH  82  83
ENDBRANCH  54  77
BRANCH  66  87
ATOM     87  C   UNL A   1      39.535  33.802  37.255  1.00  0.00    -0.014 A 
ATOM     88  C   UNL A   1      40.142  35.068  37.359  1.00  0.00     0.010 A 
ATOM     89  C   UNL A   1      38.701  33.355  38.294  1.00  0.00     0.010 A 
ATOM     90  C   UNL A   1      39.960  35.850  38.502  1.00  0.00     0.020 A 
ATOM     91  C   UNL A   1      38.492  34.149  39.426  1.00  0.00     0.020 A 
ATOM     92  C   UNL A   1      39.146  35.379  39.535  1.00  0.00     0.054 A 
BRANCH  92  93
ATOM     93  S   UNL A   1      38.959  36.387  41.032  1.00  0.00     0.124 S 
ATOM     94  O   UNL A   1      40.275  36.260  41.652  1.00  0.00    -0.237 OA
ATOM     95  O   UNL A   1      38.641  37.707  40.492  1.00  0.00    -0.237 OA
ATOM     96  O   UNL A   1      37.866  35.735  41.750  1.00  0.00    -0.744 OA
ENDBRANCH  92  93
ENDBRANCH  66  87
ENDBRANCH  40  41
ENDBRANCH  32  35
ENDBRANCH  30  31
ENDBRANCH  29  30
ENDBRANCH   1  29
TORSDOF 17
ENDMDL
MODEL 2
REMARK VINA RESULT:     -11.7      1.177      3.320
REMARK SMILES O=C(COc1ccc(Br)cc1/C=C1\C(=O)Nc2ccc(Br)cc21)NCCCCNC(=O)c1ccc(-c2c3nc(c(-c4ccc(S(=O)(=O)[O-])cc4)c4ccc([nH]4)c(-c4ccc(S(=O)(=O)[O-])cc4)c4nc(c(-c5ccc(S(=O)(=O)[O-])cc5)c5ccc2[nH]5)C=C4)C=C3)cc1
REMARK SMILES IDX 26 1 25 2 24 3 1 4 2 5 3 7 4 8 5 9 6 10 11 11 7 12 10 13
REMARK SMILES IDX 8 14 9 15 12 16 13 17 14 18 23 19 15 20 16 21 17 22 22 23
REMARK SMILES IDX 18 25 20 26 19 27 21 28 27 29 28 30 29 31 30 32 31 34 32 35
REMARK SMILES IDX 33 36 91 37 34 38 90 39 35 40 36 41 37 42 84 43 38 44 89 45
REMARK SMILES IDX 83 46 85 47 39 48 88 49 82 50 81 51 40 53 70 54 51 55 69 56
REMARK SMILES IDX 52 57 55 58 68 59 86 60 53 61 54 62 67 64 87 65 56 66 41 67
REMARK SMILES IDX 42 68 50 69 43 70 49 71 44 72 45 73 46 74 47 75 48 76 71 77
REMARK SMILES IDX 72 78 80 79 73 80 79 81 74 82 75 83 76 84 77 85 78 86 57 87
REMARK SMILES IDX 58 88 66 89 59 90 65 91 60 92 61 93 62 94 63 95 64 96
REMARK H PARENT 24 6 16 24 29 33 85 52 55 63
REMARK Flexibility Score: inf
ROOT
ATOM      1  C   UNL A   1      39.317  22.806  26.655  1.00  0.00     0.023 C 
ENDROOT
BRANCH   1   2
ATOM      2  C   UNL A   1      38.298  22.196  25.696  1.00  0.00     0.116 C 
BRANCH   2   3
ATOM      3  N   UNL A   1      37.345  23.134  25.116  1.00  0.00    -0.353 N 
ATOM      4  O   UNL A   1      35.492  22.239  26.132  1.00  0.00    -0.271 OA
ATOM      5  C   UNL A   1      36.023  23.164  25.521  1.00  0.00     0.257 C 
ATOM      6  H   UNL A   1      37.651  23.760  24.419  1.00  0.00     0.163 HD
BRANCH   5   7
ATOM      7  C   UNL A   1      35.261  24.484  25.226  1.00  0.00     0.329 C 
BRANCH   7   8
ATOM      8  O   UNL A   1      34.166  24.926  26.039  1.00  0.00    -0.483 OA
BRANCH   8   9
ATOM      9  C   UNL A   1      33.293  25.821  25.457  1.00  0.00     0.127 A 
ATOM     10  C   UNL A   1      33.344  27.181  25.833  1.00  0.00     0.048 A 
ATOM     11  C   UNL A   1      32.431  25.414  24.402  1.00  0.00     0.018 A 
ATOM     12  C   UNL A   1      32.533  28.147  25.251  1.00  0.00     0.019 A 
ATOM     13  C   UNL A   1      31.675  26.441  23.805  1.00  0.00     0.027 A 
ATOM     14  C   UNL A   1      31.696  27.769  24.232  1.00  0.00     0.018 A 
ATOM     15  Br  UNL A   1      30.572  29.046  23.410  1.00  0.00    -0.051 Br
BRANCH  11  16
ATOM     16  C   UNL A   1      32.249  23.974  23.979  1.00  0.00     0.026 C 
ATOM     17  C   UNL A   1      31.897  22.886  24.714  1.00  0.00     0.050 C 
ATOM     18  C   UNL A   1      31.556  22.819  26.189  1.00  0.00     0.256 C 
ATOM     19  C   UNL A   1      32.257  21.486  24.382  1.00  0.00     0.012 A 
ATOM     20  O   UNL A   1      30.707  23.410  26.817  1.00  0.00    -0.269 OA
ATOM     21  N   UNL A   1      32.279  21.743  26.665  1.00  0.00    -0.321 N 
ATOM     22  C   UNL A   1      32.643  20.917  25.611  1.00  0.00     0.049 A 
ATOM     23  C   UNL A   1      32.156  20.668  23.272  1.00  0.00     0.026 A 
ATOM     24  H   UNL A   1      32.504  21.585  27.610  1.00  0.00     0.170 HD
ATOM     25  C   UNL A   1      33.108  19.628  25.758  1.00  0.00     0.028 A 
ATOM     26  C   UNL A   1      32.531  19.319  23.423  1.00  0.00     0.018 A 
ATOM     27  C   UNL A   1      33.053  18.817  24.632  1.00  0.00     0.018 A 
ATOM     28  Br  UNL A   1      32.243  18.099  22.003  1.00  0.00    -0.051 Br
ENDBRANCH  11  16
ENDBRANCH   8   9
ENDBRANCH   7   8
ENDBRANCH   5   7
ENDBRANCH   2   3
ENDBRANCH   1   2
BRANCH   1  29
ATOM     29  C   UNL A   1      40.684  22.128  26.683  1.00  0.00     0.023 C 
BRANCH  29  30
ATOM     30  C   UNL A   1      41.888  23.053  26.819  1.00  0.00     0.116 C 
BRANCH  30  31
ATOM     31  N   UNL A   1      41.972  24.079  25.788  1.00  0.00    -0.352 N 
ATOM     32  C   UNL A   1      41.888  25.452  25.921  1.00  0.00     0.251 C 
ATOM     33  H   UNL A   1      42.108  23.749  24.871  1.00  0.00     0.163 HD
ATOM     34  O   UNL A   1      41.898  26.168  24.925  1.00  0.00    -0.269 OA
BRANCH  32  35
ATOM     35  C   UNL A   1      41.728  26.053  27.268  1.00  0.00     0.039 A 
ATOM     36  C   UNL A   1      40.559  25.855  28.004  1.00  0.00     0.014 A 
ATOM     37  C   UNL A   1      42.737  26.881  27.769  1.00  0.00     0.014 A 
ATOM     38  C   UNL A   1      40.312  26.644  29.124  1.00  0.00     0.010 A 
ATOM     39  C   UNL A   1      42.522  27.602  28.950  1.00  0.00     0.010 A 
ATOM     40  C   UNL A   1      41.280  27.543  29.602  1.00  0.00    -0.014 A 
BRANCH  40  41
ATOM     41  C   UNL A   1      40.960  28.425  30.758  1.00  0.00     0.031 A 
ATOM     42  C   UNL A   1      41.813  28.408  32.003  1.00  0.00     0.074 A 
ATOM     43  C   UNL A   1      39.940  29.303  30.661  1.00  0.00     0.049 A 
ATOM     44  N   UNL A   1      41.703  29.139  33.084  1.00  0.00    -0.248 NA
ATOM     45  C   UNL A   1      42.933  27.452  32.045  1.00  0.00     0.031 C 
ATOM     46  C   UNL A   1      39.059  29.439  29.500  1.00  0.00     0.029 A 
ATOM     47  N   UNL A   1      39.493  30.266  31.533  1.00  0.00    -0.354 N 
ATOM     48  C   UNL A   1      42.724  28.726  33.934  1.00  0.00     0.074 A 
ATOM     49  C   UNL A   1      43.425  27.656  33.259  1.00  0.00     0.031 C 
ATOM     50  C   UNL A   1      38.222  30.467  29.704  1.00  0.00     0.029 A 
ATOM     51  C   UNL A   1      38.453  31.017  31.036  1.00  0.00     0.049 A 
ATOM     52  H   UNL A   1      39.879  30.404  32.428  1.00  0.00     0.167 HD
ATOM     53  C   UNL A   1      43.059  29.205  35.156  1.00  0.00     0.031 A 
ATOM     54  C   UNL A   1      37.753  32.031  31.584  1.00  0.00     0.031 A 
ATOM     55  C   UNL A   1      42.370  30.284  35.817  1.00  0.00     0.049 A 
ATOM     56  C   UNL A   1      38.106  32.508  32.964  1.00  0.00     0.074 A 
ATOM     57  C   UNL A   1      42.651  30.848  37.049  1.00  0.00     0.029 A 
ATOM     58  N   UNL A   1      41.275  30.965  35.308  1.00  0.00    -0.354 N 
ATOM     59  N   UNL A   1      39.078  32.105  33.745  1.00  0.00    -0.248 NA
ATOM     60  C   UNL A   1      37.271  33.573  33.538  1.00  0.00     0.031 C 
ATOM     61  C   UNL A   1      41.689  31.824  37.314  1.00  0.00     0.029 A 
ATOM     62  C   UNL A   1      40.852  31.923  36.214  1.00  0.00     0.049 A 
ATOM     63  H   UNL A   1      40.860  30.795  34.431  1.00  0.00     0.167 HD
ATOM     64  C   UNL A   1      38.979  32.872  34.901  1.00  0.00     0.074 A 
ATOM     65  C   UNL A   1      37.866  33.779  34.707  1.00  0.00     0.031 C 
ATOM     66  C   UNL A   1      39.741  32.822  36.019  1.00  0.00     0.031 A 
BRANCH  53  67
ATOM     67  C   UNL A   1      44.228  28.585  35.878  1.00  0.00    -0.014 A 
ATOM     68  C   UNL A   1      45.535  29.034  35.605  1.00  0.00     0.010 A 
ATOM     69  C   UNL A   1      44.051  27.475  36.722  1.00  0.00     0.010 A 
ATOM     70  C   UNL A   1      46.642  28.364  36.134  1.00  0.00     0.020 A 
ATOM     71  C   UNL A   1      45.156  26.819  37.276  1.00  0.00     0.020 A 
ATOM     72  C   UNL A   1      46.445  27.253  36.958  1.00  0.00     0.054 A 
BRANCH  72  73
ATOM     73  S   UNL A   1      47.894  26.376  37.610  1.00  0.00     0.124 S 
ATOM     74  O   UNL A   1      48.107  27.042  38.890  1.00  0.00    -0.237 OA
ATOM     75  O   UNL A   1      47.424  24.995  37.685  1.00  0.00    -0.237 OA
ATOM     76  O   UNL A   1      48.922  26.620  36.599  1.00  0.00    -0.744 OA
ENDBRANCH  72  73
ENDBRANCH  53  67
BRANCH  54  77
ATOM     77  C   UNL A   1      36.657  32.661  30.795  1.00  0.00    -0.014 A 
ATOM     78  C   UNL A   1      36.951  33.651  29.838  1.00  0.00     0.010 A 
ATOM     79  C   UNL A   1      35.314  32.345  31.061  1.00  0.00     0.010 A 
ATOM     80  C   UNL A   1      35.924  34.362  29.214  1.00  0.00     0.020 A 
ATOM     81  C   UNL A   1      34.282  33.032  30.413  1.00  0.00     0.020 A 
ATOM     82  C   UNL A   1      34.596  34.058  29.519  1.00  0.00     0.054 A 
BRANCH  82  83
ATOM     83  S   UNL A   1      33.280  35.038  28.745  1.00  0.00     0.124 S 
ATOM     84  O   UNL A   1      32.538  35.514  29.910  1.00  0.00    -0.237 OA
ATOM     85  O   UNL A   1      34.028  36.060  28.016  1.00  0.00    -0.237 OA
ATOM     86  O   UNL A   1      32.578  34.069  27.909  1.00  0.00    -0.744 OA
ENDBRANCH  82  83
ENDBRANCH  54  77
BRANCH  66  87
ATOM     87  C   UNL A   1      39.418  33.764  37.149  1.00  0.00    -0.014 A 
ATOM     88  C   UNL A   1      40.010  35.042  37.184  1.00  0.00     0.010 A 
ATOM     89  C   UNL A   1      38.647  33.337  38.244  1.00  0.00     0.010 A 
ATOM     90  C   UNL A   1      39.877  35.855  38.311  1.00  0.00     0.020 A 
ATOM     91  C   UNL A   1      38.487  34.162  39.362  1.00  0.00     0.020 A 
ATOM     92  C   UNL A   1      39.127  35.404  39.400  1.00  0.00     0.054 A 
BRANCH  92  93
ATOM     93  S   UNL A   1      39.004  36.453  40.874  1.00  0.00     0.124 S 
ATOM     94  O   UNL A   1      38.018  35.737  41.679  1.00  0.00    -0.237 OA
ATOM     95  O   UNL A   1      40.371  36.439  41.392  1.00  0.00    -0.237 OA
ATOM     96  O   UNL A   1      38.560  37.740  40.344  1.00  0.00    -0.744 OA
ENDBRANCH  92  93
ENDBRANCH  66  87
ENDBRANCH  40  41
ENDBRANCH  32  35
ENDBRANCH  30  31
ENDBRANCH  29  30
ENDBRANCH   1  29
TORSDOF 17
ENDMDL
MODEL 3
REMARK VINA RESULT:     -11.5      1.605      2.453
REMARK SMILES O=C(COc1ccc(Br)cc1/C=C1\C(=O)Nc2ccc(Br)cc21)NCCCCNC(=O)c1ccc(-c2c3nc(c(-c4ccc(S(=O)(=O)[O-])cc4)c4ccc([nH]4)c(-c4ccc(S(=O)(=O)[O-])cc4)c4nc(c(-c5ccc(S(=O)(=O)[O-])cc5)c5ccc2[nH]5)C=C4)C=C3)cc1
REMARK SMILES IDX 26 1 25 2 24 3 1 4 2 5 3 7 4 8 5 9 6 10 11 11 7 12 10 13
REMARK SMILES IDX 8 14 9 15 12 16 13 17 14 18 23 19 15 20 16 21 17 22 22 23
REMARK SMILES IDX 18 25 20 26 19 27 21 28 27 29 28 30 29 31 30 32 31 34 32 35
REMARK SMILES IDX 33 36 91 37 34 38 90 39 35 40 36 41 37 42 84 43 38 44 89 45
REMARK SMILES IDX 83 46 85 47 39 48 88 49 82 50 81 51 40 53 70 54 51 55 69 56
REMARK SMILES IDX 52 57 55 58 68 59 86 60 53 61 54 62 67 64 87 65 56 66 41 67
REMARK SMILES IDX 42 68 50 69 43 70 49 71 44 72 45 73 46 74 47 75 48 76 71 77
REMARK SMILES IDX 72 78 80 79 73 80 79 81 74 82 75 83 76 84 77 85 78 86 57 87
REMARK SMILES IDX 58 88 66 89 59 90 65 91 60 92 61 93 62 94 63 95 64 96
REMARK H PARENT 24 6 16 24 29 33 85 52 55 63
REMARK Flexibility Score: inf
ROOT
ATOM      1  C   UNL A   1      38.388  21.518  25.401  1.00  0.00     0.023 C 
ENDROOT
BRANCH   1   2
ATOM      2  C   UNL A   1      37.358  22.643  25.323  1.00  0.00     0.116 C 
BRANCH   2   3
ATOM      3  N   UNL A   1      36.347  22.641  26.372  1.00  0.00    -0.353 N 
ATOM      4  O   UNL A   1      35.093  24.347  25.487  1.00  0.00    -0.271 OA
ATOM      5  C   UNL A   1      35.199  23.406  26.271  1.00  0.00     0.257 C 
ATOM      6  H   UNL A   1      36.485  22.081  27.171  1.00  0.00     0.163 HD
BRANCH   5   7
ATOM      7  C   UNL A   1      34.009  22.951  27.157  1.00  0.00     0.329 C 
BRANCH   7   8
ATOM      8  O   UNL A   1      32.735  22.604  26.598  1.00  0.00    -0.483 OA
BRANCH   8   9
ATOM      9  C   UNL A   1      32.740  21.626  25.625  1.00  0.00     0.127 A 
ATOM     10  C   UNL A   1      33.318  20.370  25.911  1.00  0.00     0.048 A 
ATOM     11  C   UNL A   1      32.067  21.826  24.388  1.00  0.00     0.018 A 
ATOM     12  C   UNL A   1      33.311  19.321  25.000  1.00  0.00     0.019 A 
ATOM     13  C   UNL A   1      32.037  20.714  23.526  1.00  0.00     0.027 A 
ATOM     14  C   UNL A   1      32.666  19.500  23.802  1.00  0.00     0.018 A 
ATOM     15  Br  UNL A   1      32.632  18.104  22.530  1.00  0.00    -0.051 Br
BRANCH  11  16
ATOM     16  C   UNL A   1      31.486  23.154  23.959  1.00  0.00     0.026 C 
ATOM     17  C   UNL A   1      32.019  24.130  23.176  1.00  0.00     0.050 C 
ATOM     18  C   UNL A   1      33.365  24.144  22.480  1.00  0.00     0.256 C 
ATOM     19  C   UNL A   1      31.653  25.565  23.242  1.00  0.00     0.012 A 
ATOM     20  O   UNL A   1      33.833  23.366  21.680  1.00  0.00    -0.269 OA
ATOM     21  N   UNL A   1      33.894  25.386  22.771  1.00  0.00    -0.321 N 
ATOM     22  C   UNL A   1      32.881  26.250  23.160  1.00  0.00     0.049 A 
ATOM     23  C   UNL A   1      30.480  26.296  23.213  1.00  0.00     0.026 A 
ATOM     24  H   UNL A   1      34.848  25.623  22.710  1.00  0.00     0.170 HD
ATOM     25  C   UNL A   1      33.013  27.619  23.235  1.00  0.00     0.028 A 
ATOM     26  C   UNL A   1      30.589  27.699  23.188  1.00  0.00     0.018 A 
ATOM     27  C   UNL A   1      31.835  28.355  23.255  1.00  0.00     0.018 A 
ATOM     28  Br  UNL A   1      29.037  28.760  22.958  1.00  0.00    -0.051 Br
ENDBRANCH  11  16
ENDBRANCH   8   9
ENDBRANCH   7   8
ENDBRANCH   5   7
ENDBRANCH   2   3
ENDBRANCH   1   2
BRANCH   1  29
ATOM     29  C   UNL A   1      39.496  21.710  26.432  1.00  0.00     0.023 C 
BRANCH  29  30
ATOM     30  C   UNL A   1      39.926  23.149  26.693  1.00  0.00     0.116 C 
BRANCH  30  31
ATOM     31  N   UNL A   1      41.191  23.516  26.069  1.00  0.00    -0.352 N 
ATOM     32  C   UNL A   1      41.934  24.669  26.229  1.00  0.00     0.251 C 
ATOM     33  H   UNL A   1      41.567  22.852  25.448  1.00  0.00     0.163 HD
ATOM     34  O   UNL A   1      42.944  24.849  25.555  1.00  0.00    -0.269 OA
BRANCH  32  35
ATOM     35  C   UNL A   1      41.478  25.715  27.177  1.00  0.00     0.039 A 
ATOM     36  C   UNL A   1      42.133  26.945  27.253  1.00  0.00     0.014 A 
ATOM     37  C   UNL A   1      40.420  25.433  28.047  1.00  0.00     0.014 A 
ATOM     38  C   UNL A   1      41.876  27.795  28.325  1.00  0.00     0.010 A 
ATOM     39  C   UNL A   1      40.100  26.336  29.068  1.00  0.00     0.010 A 
ATOM     40  C   UNL A   1      40.870  27.494  29.260  1.00  0.00    -0.014 A 
BRANCH  40  41
ATOM     41  C   UNL A   1      40.667  28.384  30.436  1.00  0.00     0.031 A 
ATOM     42  C   UNL A   1      41.596  28.320  31.623  1.00  0.00     0.074 A 
ATOM     43  C   UNL A   1      39.685  29.308  30.408  1.00  0.00     0.049 A 
ATOM     44  N   UNL A   1      41.591  29.050  32.711  1.00  0.00    -0.248 NA
ATOM     45  C   UNL A   1      42.671  27.313  31.590  1.00  0.00     0.031 C 
ATOM     46  C   UNL A   1      38.738  29.492  29.306  1.00  0.00     0.029 A 
ATOM     47  N   UNL A   1      39.340  30.286  31.309  1.00  0.00    -0.354 N 
ATOM     48  C   UNL A   1      42.644  28.585  33.492  1.00  0.00     0.074 A 
ATOM     49  C   UNL A   1      43.249  27.487  32.771  1.00  0.00     0.031 C 
ATOM     50  C   UNL A   1      37.965  30.556  29.566  1.00  0.00     0.029 A 
ATOM     51  C   UNL A   1      38.307  31.088  30.881  1.00  0.00     0.049 A 
ATOM     52  H   UNL A   1      39.789  30.402  32.177  1.00  0.00     0.167 HD
ATOM     53  C   UNL A   1      43.078  29.042  34.690  1.00  0.00     0.031 A 
ATOM     54  C   UNL A   1      37.691  32.130  31.476  1.00  0.00     0.031 A 
ATOM     55  C   UNL A   1      42.485  30.148  35.398  1.00  0.00     0.049 A 
ATOM     56  C   UNL A   1      38.155  32.583  32.831  1.00  0.00     0.074 A 
ATOM     57  C   UNL A   1      42.871  30.692  36.610  1.00  0.00     0.029 A 
ATOM     58  N   UNL A   1      41.393  30.882  34.962  1.00  0.00    -0.354 N 
ATOM     59  N   UNL A   1      39.155  32.131  33.547  1.00  0.00    -0.248 NA
ATOM     60  C   UNL A   1      37.409  33.682  33.460  1.00  0.00     0.031 C 
ATOM     61  C   UNL A   1      41.975  31.710  36.939  1.00  0.00     0.029 A 
ATOM     62  C   UNL A   1      41.074  31.854  35.896  1.00  0.00     0.049 A 
ATOM     63  H   UNL A   1      40.914  30.736  34.113  1.00  0.00     0.167 HD
ATOM     64  C   UNL A   1      39.166  32.896  34.709  1.00  0.00     0.074 A 
ATOM     65  C   UNL A   1      38.087  33.854  34.589  1.00  0.00     0.031 C 
ATOM     66  C   UNL A   1      39.996  32.804  35.775  1.00  0.00     0.031 A 
BRANCH  53  67
ATOM     67  C   UNL A   1      44.262  28.365  35.335  1.00  0.00    -0.014 A 
ATOM     68  C   UNL A   1      44.052  27.311  36.245  1.00  0.00     0.010 A 
ATOM     69  C   UNL A   1      45.567  28.853  35.146  1.00  0.00     0.010 A 
ATOM     70  C   UNL A   1      45.118  26.782  36.979  1.00  0.00     0.020 A 
ATOM     71  C   UNL A   1      46.640  28.307  35.858  1.00  0.00     0.020 A 
ATOM     72  C   UNL A   1      46.405  27.292  36.788  1.00  0.00     0.054 A 
BRANCH  72  73
ATOM     73  S   UNL A   1      47.771  26.616  37.772  1.00  0.00     0.124 S 
ATOM     74  O   UNL A   1      48.786  27.656  37.646  1.00  0.00    -0.237 OA
ATOM     75  O   UNL A   1      47.171  26.475  39.096  1.00  0.00    -0.237 OA
ATOM     76  O   UNL A   1      48.081  25.354  37.102  1.00  0.00    -0.744 OA
ENDBRANCH  72  73
ENDBRANCH  53  67
BRANCH  54  77
ATOM     77  C   UNL A   1      36.578  32.814  30.761  1.00  0.00    -0.014 A 
ATOM     78  C   UNL A   1      36.855  33.798  29.792  1.00  0.00     0.010 A 
ATOM     79  C   UNL A   1      35.241  32.557  31.109  1.00  0.00     0.010 A 
ATOM     80  C   UNL A   1      35.824  34.559  29.237  1.00  0.00     0.020 A 
ATOM     81  C   UNL A   1      34.203  33.295  30.531  1.00  0.00     0.020 A 
ATOM     82  C   UNL A   1      34.505  34.313  29.624  1.00  0.00     0.054 A 
BRANCH  82  83
ATOM     83  S   UNL A   1      33.188  35.356  28.940  1.00  0.00     0.124 S 
ATOM     84  O   UNL A   1      33.955  36.377  28.231  1.00  0.00    -0.237 OA
ATOM     85  O   UNL A   1      32.448  34.423  28.093  1.00  0.00    -0.237 OA
ATOM     86  O   UNL A   1      32.471  35.821  30.124  1.00  0.00    -0.744 OA
ENDBRANCH  82  83
ENDBRANCH  54  77
BRANCH  66  87
ATOM     87  C   UNL A   1      39.791  33.755  36.925  1.00  0.00    -0.014 A 
ATOM     88  C   UNL A   1      40.672  34.839  37.101  1.00  0.00     0.010 A 
ATOM     89  C   UNL A   1      38.820  33.495  37.909  1.00  0.00     0.010 A 
ATOM     90  C   UNL A   1      40.618  35.617  38.260  1.00  0.00     0.020 A 
ATOM     91  C   UNL A   1      38.744  34.291  39.056  1.00  0.00     0.020 A 
ATOM     92  C   UNL A   1      39.662  35.329  39.237  1.00  0.00     0.054 A 
BRANCH  92  93
ATOM     93  S   UNL A   1      39.638  36.319  40.757  1.00  0.00     0.124 S 
ATOM     94  O   UNL A   1      39.259  35.329  41.761  1.00  0.00    -0.237 OA
ATOM     95  O   UNL A   1      41.012  36.811  40.842  1.00  0.00    -0.237 OA
ATOM     96  O   UNL A   1      38.633  37.345  40.482  1.00  0.00    -0.744 OA
ENDBRANCH  92  93
ENDBRANCH  66  87
ENDBRANCH  40  41
ENDBRANCH  32  35
ENDBRANCH  30  31
ENDBRANCH  29  30
ENDBRANCH   1  29
TORSDOF 17
ENDMDL
