MODEL 1
REMARK VINA RESULT:     -12.3      0.000      0.000
REMARK SMILES O=C(NCCCCNC(=O)[C@H]1CCCN(C(=O)C2CC[NH+](Cc3ccco3)CC2)C1)c1ccc(-c2c3nc(c(-c4ccc(S(=O)(=O)[O-])cc4)c4ccc([nH]4)c(-c4ccc(S(=O)(=O)[O-])cc4)c4nc(c(-c5ccc(S(=O)(=O)[O-])cc5)c5ccc2[nH]5)C=C4)C=C3)cc1
REMARK SMILES IDX 6 1 5 2 4 3 3 4 1 5 2 6 31 8 32 9 90 10 33 11 89 12 34 13
REMARK SMILES IDX 35 14 36 15 83 16 37 17 88 18 82 19 84 20 38 21 87 22 81 23
REMARK SMILES IDX 80 24 39 26 69 27 50 28 68 29 51 30 54 31 67 32 85 33 52 34
REMARK SMILES IDX 53 35 66 37 86 38 55 39 40 40 41 41 49 42 42 43 48 44 43 45
REMARK SMILES IDX 44 46 45 47 46 48 47 49 70 50 71 51 79 52 72 53 78 54 73 55
REMARK SMILES IDX 74 56 75 57 76 58 77 59 56 60 57 61 65 62 58 63 64 64 59 65
REMARK SMILES IDX 60 66 61 67 62 68 63 69 7 70 8 71 9 72 10 74 11 75 12 76
REMARK SMILES IDX 30 77 13 78 15 79 14 80 16 81 17 82 18 83 19 84 29 85 20 86
REMARK SMILES IDX 28 87 21 88 22 90 23 91 24 92 27 93 25 94 26 95
REMARK H PARENT 3 7 84 25 54 36 8 73 21 89
REMARK Flexibility Score: inf
ROOT
ATOM      1  C   UNL A   1      33.323  30.476  27.053  1.00  0.00     0.023 C 
ENDROOT
BRANCH   1   2
ATOM      2  C   UNL A   1      34.197  29.245  27.275  1.00  0.00     0.023 C 
BRANCH   2   3
ATOM      3  C   UNL A   1      35.555  29.540  27.885  1.00  0.00     0.116 C 
BRANCH   3   4
ATOM      4  N   UNL A   1      35.508  29.763  29.322  1.00  0.00    -0.352 N 
ATOM      5  O   UNL A   1      36.371  29.756  31.417  1.00  0.00    -0.269 OA
ATOM      6  C   UNL A   1      36.540  29.608  30.222  1.00  0.00     0.251 C 
ATOM      7  H   UNL A   1      34.644  30.056  29.693  1.00  0.00     0.163 HD
BRANCH   6   8
ATOM      8  C   UNL A   1      37.851  29.209  29.673  1.00  0.00     0.039 A 
ATOM      9  C   UNL A   1      38.766  28.548  30.493  1.00  0.00     0.014 A 
ATOM     10  C   UNL A   1      38.199  29.620  28.385  1.00  0.00     0.014 A 
ATOM     11  C   UNL A   1      40.080  28.425  30.075  1.00  0.00     0.010 A 
ATOM     12  C   UNL A   1      39.502  29.407  27.931  1.00  0.00     0.010 A 
ATOM     13  C   UNL A   1      40.458  28.835  28.784  1.00  0.00    -0.014 A 
BRANCH  13  14
ATOM     14  C   UNL A   1      41.847  28.568  28.338  1.00  0.00     0.031 A 
ATOM     15  C   UNL A   1      42.904  29.635  28.359  1.00  0.00     0.074 A 
ATOM     16  C   UNL A   1      42.149  27.309  27.965  1.00  0.00     0.049 A 
ATOM     17  N   UNL A   1      44.173  29.532  28.055  1.00  0.00    -0.248 NA
ATOM     18  C   UNL A   1      42.494  30.988  28.766  1.00  0.00     0.031 C 
ATOM     19  C   UNL A   1      41.189  26.202  27.892  1.00  0.00     0.029 A 
ATOM     20  N   UNL A   1      43.342  26.734  27.622  1.00  0.00    -0.354 N 
ATOM     21  C   UNL A   1      44.709  30.805  28.213  1.00  0.00     0.074 A 
ATOM     22  C   UNL A   1      43.625  31.670  28.623  1.00  0.00     0.031 C 
ATOM     23  C   UNL A   1      41.843  25.070  27.598  1.00  0.00     0.029 A 
ATOM     24  C   UNL A   1      43.251  25.382  27.394  1.00  0.00     0.049 A 
ATOM     25  H   UNL A   1      44.183  27.240  27.546  1.00  0.00     0.167 HD
ATOM     26  C   UNL A   1      45.990  31.209  28.032  1.00  0.00     0.031 A 
ATOM     27  C   UNL A   1      44.193  24.489  27.045  1.00  0.00     0.031 A 
ATOM     28  C   UNL A   1      47.061  30.336  27.622  1.00  0.00     0.049 A 
ATOM     29  C   UNL A   1      45.603  24.963  26.867  1.00  0.00     0.074 A 
ATOM     30  C   UNL A   1      48.393  30.648  27.403  1.00  0.00     0.029 A 
ATOM     31  N   UNL A   1      46.927  28.977  27.374  1.00  0.00    -0.354 N 
ATOM     32  N   UNL A   1      46.086  26.173  27.017  1.00  0.00    -0.248 NA
ATOM     33  C   UNL A   1      46.592  23.954  26.473  1.00  0.00     0.031 C 
ATOM     34  C   UNL A   1      49.055  29.485  26.991  1.00  0.00     0.029 A 
ATOM     35  C   UNL A   1      48.146  28.439  26.998  1.00  0.00     0.049 A 
ATOM     36  H   UNL A   1      46.086  28.471  27.454  1.00  0.00     0.167 HD
ATOM     37  C   UNL A   1      47.439  26.074  26.726  1.00  0.00     0.074 A 
ATOM     38  C   UNL A   1      47.703  24.678  26.433  1.00  0.00     0.031 C 
ATOM     39  C   UNL A   1      48.378  27.051  26.690  1.00  0.00     0.031 A 
BRANCH  26  40
ATOM     40  C   UNL A   1      46.306  32.664  28.259  1.00  0.00    -0.014 A 
ATOM     41  C   UNL A   1      46.183  33.604  27.221  1.00  0.00     0.010 A 
ATOM     42  C   UNL A   1      46.671  33.109  29.544  1.00  0.00     0.010 A 
ATOM     43  C   UNL A   1      46.444  34.957  27.455  1.00  0.00     0.020 A 
ATOM     44  C   UNL A   1      46.912  34.465  29.788  1.00  0.00     0.020 A 
ATOM     45  C   UNL A   1      46.810  35.379  28.737  1.00  0.00     0.054 A 
BRANCH  45  46
ATOM     46  S   UNL A   1      47.108  37.147  29.022  1.00  0.00     0.124 S 
ATOM     47  O   UNL A   1      46.724  37.727  27.737  1.00  0.00    -0.237 OA
ATOM     48  O   UNL A   1      46.215  37.448  30.138  1.00  0.00    -0.237 OA
ATOM     49  O   UNL A   1      48.533  37.212  29.335  1.00  0.00    -0.744 OA
ENDBRANCH  45  46
ENDBRANCH  26  40
BRANCH  27  50
ATOM     50  C   UNL A   1      43.810  23.071  26.818  1.00  0.00    -0.014 A 
ATOM     51  C   UNL A   1      43.153  22.334  27.817  1.00  0.00     0.010 A 
ATOM     52  C   UNL A   1      44.066  22.467  25.574  1.00  0.00     0.010 A 
ATOM     53  C   UNL A   1      42.771  21.009  27.578  1.00  0.00     0.020 A 
ATOM     54  C   UNL A   1      43.659  21.156  25.321  1.00  0.00     0.020 A 
ATOM     55  C   UNL A   1      43.026  20.430  26.332  1.00  0.00     0.054 A 
BRANCH  55  56
ATOM     56  S   UNL A   1      42.472  18.732  26.015  1.00  0.00     0.124 S 
ATOM     57  O   UNL A   1      41.069  18.932  25.668  1.00  0.00    -0.237 OA
ATOM     58  O   UNL A   1      43.342  18.310  24.919  1.00  0.00    -0.237 OA
ATOM     59  O   UNL A   1      42.715  18.054  27.286  1.00  0.00    -0.744 OA
ENDBRANCH  55  56
ENDBRANCH  27  50
BRANCH  39  60
ATOM     60  C   UNL A   1      49.771  26.627  26.318  1.00  0.00    -0.014 A 
ATOM     61  C   UNL A   1      50.649  26.110  27.288  1.00  0.00     0.010 A 
ATOM     62  C   UNL A   1      50.206  26.747  24.986  1.00  0.00     0.010 A 
ATOM     63  C   UNL A   1      51.958  25.768  26.941  1.00  0.00     0.020 A 
ATOM     64  C   UNL A   1      51.506  26.382  24.632  1.00  0.00     0.020 A 
ATOM     65  C   UNL A   1      52.381  25.915  25.617  1.00  0.00     0.054 A 
BRANCH  65  66
ATOM     66  S   UNL A   1      54.082  25.462  25.186  1.00  0.00     0.124 S 
ATOM     67  O   UNL A   1      54.013  24.004  25.172  1.00  0.00    -0.237 OA
ATOM     68  O   UNL A   1      54.265  26.094  23.882  1.00  0.00    -0.237 OA
ATOM     69  O   UNL A   1      54.877  26.041  26.267  1.00  0.00    -0.744 OA
ENDBRANCH  65  66
ENDBRANCH  39  60
ENDBRANCH  13  14
ENDBRANCH   6   8
ENDBRANCH   3   4
ENDBRANCH   2   3
ENDBRANCH   1   2
BRANCH   1  70
ATOM     70  C   UNL A   1      32.051  30.210  26.250  1.00  0.00     0.116 C 
BRANCH  70  71
ATOM     71  N   UNL A   1      32.360  29.963  24.857  1.00  0.00    -0.356 N 
ATOM     72  C   UNL A   1      32.205  28.817  24.144  1.00  0.00     0.224 C 
ATOM     73  H   UNL A   1      32.734  30.727  24.361  1.00  0.00     0.163 HD
ATOM     74  O   UNL A   1      32.642  28.779  22.994  1.00  0.00    -0.275 OA
BRANCH  72  75
ATOM     75  C   UNL A   1      31.500  27.641  24.791  1.00  0.00     0.098 C 
ATOM     76  C   UNL A   1      30.161  27.401  24.074  1.00  0.00     0.017 C 
ATOM     77  C   UNL A   1      32.417  26.401  24.783  1.00  0.00     0.133 C 
ATOM     78  C   UNL A   1      29.528  26.111  24.561  1.00  0.00     0.022 C 
ATOM     79  N   UNL A   1      31.687  25.182  25.146  1.00  0.00    -0.342 N 
ATOM     80  C   UNL A   1      30.522  24.993  24.322  1.00  0.00     0.119 C 
BRANCH  79  81
ATOM     81  C   UNL A   1      32.129  24.369  26.170  1.00  0.00     0.226 C 
ATOM     82  O   UNL A   1      31.511  24.351  27.246  1.00  0.00    -0.275 OA
BRANCH  81  83
ATOM     83  C   UNL A   1      33.389  23.467  26.074  1.00  0.00     0.090 C 
ATOM     84  C   UNL A   1      33.968  23.292  24.677  1.00  0.00     0.075 C 
ATOM     85  C   UNL A   1      33.447  22.168  26.876  1.00  0.00     0.075 C 
ATOM     86  C   UNL A   1      33.397  22.098  23.932  1.00  0.00     0.263 C 
ATOM     87  C   UNL A   1      33.160  20.865  26.113  1.00  0.00     0.263 C 
ATOM     88  N   UNL A   1      33.441  20.839  24.675  1.00  0.00    -0.329 N 
ATOM     89  H   UNL A   1      34.444  20.652  24.667  1.00  0.00     0.348 HD
BRANCH  88  90
ATOM     90  C   UNL A   1      32.748  19.724  23.980  1.00  0.00     0.338 C 
BRANCH  90  91
ATOM     91  C   UNL A   1      33.083  18.329  24.437  1.00  0.00     0.157 A 
ATOM     92  C   UNL A   1      34.174  17.501  24.242  1.00  0.00     0.052 A 
ATOM     93  O   UNL A   1      32.166  17.688  25.224  1.00  0.00    -0.463 OA
ATOM     94  C   UNL A   1      33.892  16.282  24.905  1.00  0.00     0.042 A 
ATOM     95  C   UNL A   1      32.667  16.455  25.505  1.00  0.00     0.195 A 
ENDBRANCH  90  91
ENDBRANCH  88  90
ENDBRANCH  81  83
ENDBRANCH  79  81
ENDBRANCH  72  75
ENDBRANCH  70  71
ENDBRANCH   1  70
TORSDOF 18
ENDMDL
MODEL 2
REMARK VINA RESULT:     -12.2      1.453      8.269
REMARK SMILES O=C(NCCCCNC(=O)[C@H]1CCCN(C(=O)C2CC[NH+](Cc3ccco3)CC2)C1)c1ccc(-c2c3nc(c(-c4ccc(S(=O)(=O)[O-])cc4)c4ccc([nH]4)c(-c4ccc(S(=O)(=O)[O-])cc4)c4nc(c(-c5ccc(S(=O)(=O)[O-])cc5)c5ccc2[nH]5)C=C4)C=C3)cc1
REMARK SMILES IDX 6 1 5 2 4 3 3 4 1 5 2 6 31 8 32 9 90 10 33 11 89 12 34 13
REMARK SMILES IDX 35 14 36 15 83 16 37 17 88 18 82 19 84 20 38 21 87 22 81 23
REMARK SMILES IDX 80 24 39 26 69 27 50 28 68 29 51 30 54 31 67 32 85 33 52 34
REMARK SMILES IDX 53 35 66 37 86 38 55 39 40 40 41 41 49 42 42 43 48 44 43 45
REMARK SMILES IDX 44 46 45 47 46 48 47 49 70 50 71 51 79 52 72 53 78 54 73 55
REMARK SMILES IDX 74 56 75 57 76 58 77 59 56 60 57 61 65 62 58 63 64 64 59 65
REMARK SMILES IDX 60 66 61 67 62 68 63 69 7 70 8 71 9 72 10 74 11 75 12 76
REMARK SMILES IDX 30 77 13 78 15 79 14 80 16 81 17 82 18 83 19 84 29 85 20 86
REMARK SMILES IDX 28 87 21 88 22 90 23 91 24 92 27 93 25 94 26 95
REMARK H PARENT 3 7 84 25 54 36 8 73 21 89
REMARK Flexibility Score: inf
ROOT
ATOM      1  C   UNL A   1      33.269  30.293  26.882  1.00  0.00     0.023 C 
ENDROOT
BRANCH   1   2
ATOM      2  C   UNL A   1      34.113  29.084  27.279  1.00  0.00     0.023 C 
BRANCH   2   3
ATOM      3  C   UNL A   1      35.493  29.429  27.809  1.00  0.00     0.116 C 
BRANCH   3   4
ATOM      4  N   UNL A   1      35.466  30.085  29.109  1.00  0.00    -0.352 N 
ATOM      5  O   UNL A   1      36.364  30.736  31.084  1.00  0.00    -0.269 OA
ATOM      6  C   UNL A   1      36.516  30.228  29.989  1.00  0.00     0.251 C 
ATOM      7  H   UNL A   1      34.603  30.466  29.390  1.00  0.00     0.163 HD
BRANCH   6   8
ATOM      8  C   UNL A   1      37.825  29.697  29.561  1.00  0.00     0.039 A 
ATOM      9  C   UNL A   1      38.691  29.158  30.514  1.00  0.00     0.014 A 
ATOM     10  C   UNL A   1      38.224  29.866  28.234  1.00  0.00     0.014 A 
ATOM     11  C   UNL A   1      40.010  28.921  30.167  1.00  0.00     0.010 A 
ATOM     12  C   UNL A   1      39.529  29.534  27.868  1.00  0.00     0.010 A 
ATOM     13  C   UNL A   1      40.439  29.087  28.838  1.00  0.00    -0.014 A 
BRANCH  13  14
ATOM     14  C   UNL A   1      41.827  28.700  28.491  1.00  0.00     0.031 A 
ATOM     15  C   UNL A   1      42.174  27.308  28.046  1.00  0.00     0.074 A 
ATOM     16  C   UNL A   1      42.769  29.664  28.530  1.00  0.00     0.049 A 
ATOM     17  N   UNL A   1      43.333  26.842  27.654  1.00  0.00    -0.248 NA
ATOM     18  C   UNL A   1      41.094  26.310  28.042  1.00  0.00     0.031 C 
ATOM     19  C   UNL A   1      42.539  31.046  28.967  1.00  0.00     0.029 A 
ATOM     20  N   UNL A   1      44.087  29.649  28.163  1.00  0.00    -0.354 N 
ATOM     21  C   UNL A   1      43.129  25.495  27.376  1.00  0.00     0.074 A 
ATOM     22  C   UNL A   1      41.739  25.213  27.661  1.00  0.00     0.031 C 
ATOM     23  C   UNL A   1      43.656  31.760  28.773  1.00  0.00     0.029 A 
ATOM     24  C   UNL A   1      44.696  30.875  28.268  1.00  0.00     0.049 A 
ATOM     25  H   UNL A   1      44.552  28.838  27.854  1.00  0.00     0.167 HD
ATOM     26  C   UNL A   1      44.024  24.583  26.924  1.00  0.00     0.031 A 
ATOM     27  C   UNL A   1      45.960  31.250  28.000  1.00  0.00     0.031 A 
ATOM     28  C   UNL A   1      45.406  24.878  26.646  1.00  0.00     0.049 A 
ATOM     29  C   UNL A   1      46.921  30.222  27.487  1.00  0.00     0.074 A 
ATOM     30  C   UNL A   1      46.397  24.023  26.191  1.00  0.00     0.029 A 
ATOM     31  N   UNL A   1      45.996  26.126  26.789  1.00  0.00    -0.354 N 
ATOM     32  N   UNL A   1      46.707  28.953  27.236  1.00  0.00    -0.248 NA
ATOM     33  C   UNL A   1      48.291  30.676  27.223  1.00  0.00     0.031 C 
ATOM     34  C   UNL A   1      47.591  24.747  26.092  1.00  0.00     0.029 A 
ATOM     35  C   UNL A   1      47.334  26.063  26.440  1.00  0.00     0.049 A 
ATOM     36  H   UNL A   1      45.529  26.937  27.095  1.00  0.00     0.167 HD
ATOM     37  C   UNL A   1      47.921  28.450  26.792  1.00  0.00     0.074 A 
ATOM     38  C   UNL A   1      48.852  29.563  26.768  1.00  0.00     0.031 C 
ATOM     39  C   UNL A   1      48.244  27.179  26.446  1.00  0.00     0.031 A 
BRANCH  26  40
ATOM     40  C   UNL A   1      43.542  23.170  26.716  1.00  0.00    -0.014 A 
ATOM     41  C   UNL A   1      43.609  22.560  25.451  1.00  0.00     0.010 A 
ATOM     42  C   UNL A   1      43.074  22.422  27.812  1.00  0.00     0.010 A 
ATOM     43  C   UNL A   1      43.192  21.237  25.280  1.00  0.00     0.020 A 
ATOM     44  C   UNL A   1      42.676  21.091  27.650  1.00  0.00     0.020 A 
ATOM     45  C   UNL A   1      42.726  20.510  26.381  1.00  0.00     0.054 A 
BRANCH  45  46
ATOM     46  S   UNL A   1      42.225  18.783  26.138  1.00  0.00     0.124 S 
ATOM     47  O   UNL A   1      43.197  18.324  25.148  1.00  0.00    -0.237 OA
ATOM     48  O   UNL A   1      42.376  18.213  27.474  1.00  0.00    -0.237 OA
ATOM     49  O   UNL A   1      40.849  18.884  25.659  1.00  0.00    -0.744 OA
ENDBRANCH  45  46
ENDBRANCH  26  40
BRANCH  27  50
ATOM     50  C   UNL A   1      46.375  32.656  28.244  1.00  0.00    -0.014 A 
ATOM     51  C   UNL A   1      46.917  33.042  29.481  1.00  0.00     0.010 A 
ATOM     52  C   UNL A   1      46.268  33.608  27.213  1.00  0.00     0.010 A 
ATOM     53  C   UNL A   1      47.333  34.362  29.687  1.00  0.00     0.020 A 
ATOM     54  C   UNL A   1      46.710  34.917  27.405  1.00  0.00     0.020 A 
ATOM     55  C   UNL A   1      47.227  35.290  28.647  1.00  0.00     0.054 A 
BRANCH  55  56
ATOM     56  S   UNL A   1      47.825  36.982  28.908  1.00  0.00     0.124 S 
ATOM     57  O   UNL A   1      47.225  37.319  30.194  1.00  0.00    -0.237 OA
ATOM     58  O   UNL A   1      49.277  36.812  28.912  1.00  0.00    -0.237 OA
ATOM     59  O   UNL A   1      47.296  37.709  27.756  1.00  0.00    -0.744 OA
ENDBRANCH  55  56
ENDBRANCH  27  50
BRANCH  39  60
ATOM     60  C   UNL A   1      49.665  26.943  26.017  1.00  0.00    -0.014 A 
ATOM     61  C   UNL A   1      50.057  27.147  24.682  1.00  0.00     0.010 A 
ATOM     62  C   UNL A   1      50.616  26.512  26.958  1.00  0.00     0.010 A 
ATOM     63  C   UNL A   1      51.368  26.875  24.284  1.00  0.00     0.020 A 
ATOM     64  C   UNL A   1      51.934  26.262  26.568  1.00  0.00     0.020 A 
ATOM     65  C   UNL A   1      52.295  26.425  25.228  1.00  0.00     0.054 A 
BRANCH  65  66
ATOM     66  S   UNL A   1      53.992  26.080  24.693  1.00  0.00     0.124 S 
ATOM     67  O   UNL A   1      54.772  26.918  25.599  1.00  0.00    -0.237 OA
ATOM     68  O   UNL A   1      54.113  24.640  24.908  1.00  0.00    -0.237 OA
ATOM     69  O   UNL A   1      54.003  26.496  23.291  1.00  0.00    -0.744 OA
ENDBRANCH  65  66
ENDBRANCH  39  60
ENDBRANCH  13  14
ENDBRANCH   6   8
ENDBRANCH   3   4
ENDBRANCH   2   3
ENDBRANCH   1   2
BRANCH   1  70
ATOM     70  C   UNL A   1      32.360  30.058  25.677  1.00  0.00     0.116 C 
BRANCH  70  71
ATOM     71  N   UNL A   1      33.111  29.530  24.557  1.00  0.00    -0.356 N 
ATOM     72  C   UNL A   1      33.017  28.307  23.973  1.00  0.00     0.224 C 
ATOM     73  H   UNL A   1      33.778  30.139  24.166  1.00  0.00     0.163 HD
ATOM     74  O   UNL A   1      33.833  28.010  23.102  1.00  0.00    -0.275 OA
BRANCH  72  75
ATOM     75  C   UNL A   1      31.914  27.366  24.417  1.00  0.00     0.098 C 
ATOM     76  C   UNL A   1      30.814  27.338  23.341  1.00  0.00     0.017 C 
ATOM     77  C   UNL A   1      32.495  25.970  24.719  1.00  0.00     0.133 C 
ATOM     78  C   UNL A   1      29.798  26.257  23.657  1.00  0.00     0.022 C 
ATOM     79  N   UNL A   1      31.439  24.966  24.885  1.00  0.00    -0.342 N 
ATOM     80  C   UNL A   1      30.544  24.941  23.759  1.00  0.00     0.119 C 
BRANCH  79  81
ATOM     81  C   UNL A   1      31.380  24.180  26.019  1.00  0.00     0.226 C 
ATOM     82  O   UNL A   1      30.728  24.571  27.000  1.00  0.00    -0.275 OA
BRANCH  81  83
ATOM     83  C   UNL A   1      32.105  22.815  26.163  1.00  0.00     0.090 C 
ATOM     84  C   UNL A   1      33.288  22.796  27.123  1.00  0.00     0.075 C 
ATOM     85  C   UNL A   1      32.376  21.973  24.918  1.00  0.00     0.075 C 
ATOM     86  C   UNL A   1      34.613  23.117  26.453  1.00  0.00     0.263 C 
ATOM     87  C   UNL A   1      33.800  22.019  24.341  1.00  0.00     0.263 C 
ATOM     88  N   UNL A   1      34.900  22.324  25.259  1.00  0.00    -0.329 N 
ATOM     89  H   UNL A   1      35.073  21.411  25.679  1.00  0.00     0.348 HD
BRANCH  88  90
ATOM     90  C   UNL A   1      36.131  22.758  24.549  1.00  0.00     0.338 C 
BRANCH  90  91
ATOM     91  C   UNL A   1      37.398  22.809  25.360  1.00  0.00     0.157 A 
ATOM     92  C   UNL A   1      38.042  23.818  26.055  1.00  0.00     0.052 A 
ATOM     93  O   UNL A   1      38.109  21.647  25.490  1.00  0.00    -0.463 OA
ATOM     94  C   UNL A   1      39.223  23.256  26.598  1.00  0.00     0.042 A 
ATOM     95  C   UNL A   1      39.206  21.928  26.244  1.00  0.00     0.195 A 
ENDBRANCH  90  91
ENDBRANCH  88  90
ENDBRANCH  81  83
ENDBRANCH  79  81
ENDBRANCH  72  75
ENDBRANCH  70  71
ENDBRANCH   1  70
TORSDOF 18
ENDMDL
MODEL 3
REMARK VINA RESULT:     -12.0      1.940      2.826
REMARK SMILES O=C(NCCCCNC(=O)[C@H]1CCCN(C(=O)C2CC[NH+](Cc3ccco3)CC2)C1)c1ccc(-c2c3nc(c(-c4ccc(S(=O)(=O)[O-])cc4)c4ccc([nH]4)c(-c4ccc(S(=O)(=O)[O-])cc4)c4nc(c(-c5ccc(S(=O)(=O)[O-])cc5)c5ccc2[nH]5)C=C4)C=C3)cc1
REMARK SMILES IDX 6 1 5 2 4 3 3 4 1 5 2 6 31 8 32 9 90 10 33 11 89 12 34 13
REMARK SMILES IDX 35 14 36 15 83 16 37 17 88 18 82 19 84 20 38 21 87 22 81 23
REMARK SMILES IDX 80 24 39 26 69 27 50 28 68 29 51 30 54 31 67 32 85 33 52 34
REMARK SMILES IDX 53 35 66 37 86 38 55 39 40 40 41 41 49 42 42 43 48 44 43 45
REMARK SMILES IDX 44 46 45 47 46 48 47 49 70 50 71 51 79 52 72 53 78 54 73 55
REMARK SMILES IDX 74 56 75 57 76 58 77 59 56 60 57 61 65 62 58 63 64 64 59 65
REMARK SMILES IDX 60 66 61 67 62 68 63 69 7 70 8 71 9 72 10 74 11 75 12 76
REMARK SMILES IDX 30 77 13 78 15 79 14 80 16 81 17 82 18 83 19 84 29 85 20 86
REMARK SMILES IDX 28 87 21 88 22 90 23 91 24 92 27 93 25 94 26 95
REMARK H PARENT 3 7 84 25 54 36 8 73 21 89
REMARK Flexibility Score: inf
ROOT
ATOM      1  C   UNL A   1      35.563  31.688  27.691  1.00  0.00     0.023 C 
ENDROOT
BRANCH   1   2
ATOM      2  C   UNL A   1      35.291  32.591  28.892  1.00  0.00     0.023 C 
BRANCH   2   3
ATOM      3  C   UNL A   1      36.335  32.505  29.990  1.00  0.00     0.116 C 
BRANCH   3   4
ATOM      4  N   UNL A   1      36.004  31.541  31.029  1.00  0.00    -0.352 N 
ATOM      5  O   UNL A   1      36.382  29.707  32.305  1.00  0.00    -0.269 OA
ATOM      6  C   UNL A   1      36.787  30.498  31.476  1.00  0.00     0.251 C 
ATOM      7  H   UNL A   1      35.124  31.644  31.459  1.00  0.00     0.163 HD
BRANCH   6   8
ATOM      8  C   UNL A   1      38.124  30.359  30.867  1.00  0.00     0.039 A 
ATOM      9  C   UNL A   1      38.234  30.166  29.489  1.00  0.00     0.014 A 
ATOM     10  C   UNL A   1      39.243  30.288  31.698  1.00  0.00     0.014 A 
ATOM     11  C   UNL A   1      39.447  29.758  28.960  1.00  0.00     0.010 A 
ATOM     12  C   UNL A   1      40.485  29.971  31.145  1.00  0.00     0.010 A 
ATOM     13  C   UNL A   1      40.589  29.676  29.777  1.00  0.00    -0.014 A 
BRANCH  13  14
ATOM     14  C   UNL A   1      41.889  29.357  29.141  1.00  0.00     0.031 A 
ATOM     15  C   UNL A   1      43.010  30.356  29.085  1.00  0.00     0.074 A 
ATOM     16  C   UNL A   1      42.059  28.108  28.662  1.00  0.00     0.049 A 
ATOM     17  N   UNL A   1      44.221  30.199  28.614  1.00  0.00    -0.248 NA
ATOM     18  C   UNL A   1      42.744  31.702  29.616  1.00  0.00     0.031 C 
ATOM     19  C   UNL A   1      41.026  27.066  28.652  1.00  0.00     0.029 A 
ATOM     20  N   UNL A   1      43.159  27.488  28.136  1.00  0.00    -0.354 N 
ATOM     21  C   UNL A   1      44.855  31.426  28.772  1.00  0.00     0.074 A 
ATOM     22  C   UNL A   1      43.890  32.325  29.367  1.00  0.00     0.031 C 
ATOM     23  C   UNL A   1      41.562  25.920  28.213  1.00  0.00     0.029 A 
ATOM     24  C   UNL A   1      42.950  26.162  27.846  1.00  0.00     0.049 A 
ATOM     25  H   UNL A   1      44.015  27.948  27.981  1.00  0.00     0.167 HD
ATOM     26  C   UNL A   1      46.128  31.765  28.450  1.00  0.00     0.031 A 
ATOM     27  C   UNL A   1      43.780  25.238  27.329  1.00  0.00     0.031 A 
ATOM     28  C   UNL A   1      47.079  30.859  27.857  1.00  0.00     0.049 A 
ATOM     29  C   UNL A   1      45.185  25.640  26.997  1.00  0.00     0.074 A 
ATOM     30  C   UNL A   1      48.390  31.106  27.486  1.00  0.00     0.029 A 
ATOM     31  N   UNL A   1      46.824  29.529  27.553  1.00  0.00    -0.354 N 
ATOM     32  N   UNL A   1      45.762  26.807  27.151  1.00  0.00    -0.248 NA
ATOM     33  C   UNL A   1      46.048  24.602  26.423  1.00  0.00     0.031 C 
ATOM     34  C   UNL A   1      48.916  29.935  26.927  1.00  0.00     0.029 A 
ATOM     35  C   UNL A   1      47.948  28.946  26.993  1.00  0.00     0.049 A 
ATOM     36  H   UNL A   1      45.969  29.069  27.712  1.00  0.00     0.167 HD
ATOM     37  C   UNL A   1      47.058  26.649  26.683  1.00  0.00     0.074 A 
ATOM     38  C   UNL A   1      47.190  25.261  26.280  1.00  0.00     0.031 C 
ATOM     39  C   UNL A   1      48.048  27.569  26.580  1.00  0.00     0.031 A 
BRANCH  26  40
ATOM     40  C   UNL A   1      46.565  33.182  28.716  1.00  0.00    -0.014 A 
ATOM     41  C   UNL A   1      47.184  33.534  29.929  1.00  0.00     0.010 A 
ATOM     42  C   UNL A   1      46.413  34.161  27.717  1.00  0.00     0.010 A 
ATOM     43  C   UNL A   1      47.618  34.845  30.148  1.00  0.00     0.020 A 
ATOM     44  C   UNL A   1      46.866  35.468  27.923  1.00  0.00     0.020 A 
ATOM     45  C   UNL A   1      47.454  35.805  29.145  1.00  0.00     0.054 A 
BRANCH  45  46
ATOM     46  S   UNL A   1      48.059  37.490  29.441  1.00  0.00     0.124 S 
ATOM     47  O   UNL A   1      49.465  37.376  29.060  1.00  0.00    -0.237 OA
ATOM     48  O   UNL A   1      47.230  38.292  28.545  1.00  0.00    -0.237 OA
ATOM     49  O   UNL A   1      47.814  37.701  30.865  1.00  0.00    -0.744 OA
ENDBRANCH  45  46
ENDBRANCH  26  40
BRANCH  27  50
ATOM     50  C   UNL A   1      43.279  23.863  27.075  1.00  0.00    -0.014 A 
ATOM     51  C   UNL A   1      42.784  23.499  25.812  1.00  0.00     0.010 A 
ATOM     52  C   UNL A   1      43.341  22.895  28.094  1.00  0.00     0.010 A 
ATOM     53  C   UNL A   1      42.345  22.192  25.578  1.00  0.00     0.020 A 
ATOM     54  C   UNL A   1      42.933  21.582  27.855  1.00  0.00     0.020 A 
ATOM     55  C   UNL A   1      42.423  21.242  26.601  1.00  0.00     0.054 A 
BRANCH  55  56
ATOM     56  S   UNL A   1      41.906  19.536  26.266  1.00  0.00     0.124 S 
ATOM     57  O   UNL A   1      42.278  18.860  27.503  1.00  0.00    -0.237 OA
ATOM     58  O   UNL A   1      40.471  19.677  26.028  1.00  0.00    -0.237 OA
ATOM     59  O   UNL A   1      42.690  19.170  25.088  1.00  0.00    -0.744 OA
ENDBRANCH  55  56
ENDBRANCH  27  50
BRANCH  39  60
ATOM     60  C   UNL A   1      49.352  27.089  26.009  1.00  0.00    -0.014 A 
ATOM     61  C   UNL A   1      50.298  26.440  26.821  1.00  0.00     0.010 A 
ATOM     62  C   UNL A   1      49.633  27.290  24.646  1.00  0.00     0.010 A 
ATOM     63  C   UNL A   1      51.528  26.044  26.291  1.00  0.00     0.020 A 
ATOM     64  C   UNL A   1      50.852  26.873  24.107  1.00  0.00     0.020 A 
ATOM     65  C   UNL A   1      51.801  26.272  24.939  1.00  0.00     0.054 A 
BRANCH  65  66
ATOM     66  S   UNL A   1      53.401  25.749  24.268  1.00  0.00     0.124 S 
ATOM     67  O   UNL A   1      53.502  24.377  24.760  1.00  0.00    -0.237 OA
ATOM     68  O   UNL A   1      53.209  25.886  22.827  1.00  0.00    -0.237 OA
ATOM     69  O   UNL A   1      54.348  26.695  24.856  1.00  0.00    -0.744 OA
ENDBRANCH  65  66
ENDBRANCH  39  60
ENDBRANCH  13  14
ENDBRANCH   6   8
ENDBRANCH   3   4
ENDBRANCH   2   3
ENDBRANCH   1   2
BRANCH   1  70
ATOM     70  C   UNL A   1      34.495  30.623  27.448  1.00  0.00     0.116 C 
BRANCH  70  71
ATOM     71  N   UNL A   1      33.180  31.221  27.355  1.00  0.00    -0.356 N 
ATOM     72  C   UNL A   1      32.091  30.775  26.675  1.00  0.00     0.224 C 
ATOM     73  H   UNL A   1      33.058  32.063  27.850  1.00  0.00     0.163 HD
ATOM     74  O   UNL A   1      31.095  31.497  26.627  1.00  0.00    -0.275 OA
BRANCH  72  75
ATOM     75  C   UNL A   1      32.149  29.414  26.011  1.00  0.00     0.098 C 
ATOM     76  C   UNL A   1      31.768  28.336  27.040  1.00  0.00     0.017 C 
ATOM     77  C   UNL A   1      31.249  29.394  24.759  1.00  0.00     0.133 C 
ATOM     78  C   UNL A   1      31.618  26.989  26.359  1.00  0.00     0.022 C 
ATOM     79  N   UNL A   1      31.061  28.033  24.245  1.00  0.00    -0.342 N 
ATOM     80  C   UNL A   1      30.579  27.140  25.265  1.00  0.00     0.119 C 
BRANCH  79  81
ATOM     81  C   UNL A   1      31.339  27.727  22.927  1.00  0.00     0.226 C 
ATOM     82  O   UNL A   1      30.464  27.895  22.065  1.00  0.00    -0.275 OA
BRANCH  81  83
ATOM     83  C   UNL A   1      32.698  27.155  22.442  1.00  0.00     0.090 C 
ATOM     84  C   UNL A   1      32.610  25.987  21.468  1.00  0.00     0.075 C 
ATOM     85  C   UNL A   1      33.837  26.972  23.442  1.00  0.00     0.075 C 
ATOM     86  C   UNL A   1      32.600  24.631  22.153  1.00  0.00     0.263 C 
ATOM     87  C   UNL A   1      34.079  25.548  23.970  1.00  0.00     0.263 C 
ATOM     88  N   UNL A   1      33.681  24.426  23.115  1.00  0.00    -0.329 N 
ATOM     89  H   UNL A   1      34.480  24.356  22.486  1.00  0.00     0.348 HD
BRANCH  88  90
ATOM     90  C   UNL A   1      33.561  23.152  23.870  1.00  0.00     0.338 C 
BRANCH  90  91
ATOM     91  C   UNL A   1      32.785  23.199  25.159  1.00  0.00     0.157 A 
ATOM     92  C   UNL A   1      33.156  23.199  26.492  1.00  0.00     0.052 A 
ATOM     93  O   UNL A   1      31.422  23.269  25.070  1.00  0.00    -0.463 OA
ATOM     94  C   UNL A   1      31.962  23.228  27.253  1.00  0.00     0.042 A 
ATOM     95  C   UNL A   1      30.935  23.290  26.341  1.00  0.00     0.195 A 
ENDBRANCH  90  91
ENDBRANCH  88  90
ENDBRANCH  81  83
ENDBRANCH  79  81
ENDBRANCH  72  75
ENDBRANCH  70  71
ENDBRANCH   1  70
TORSDOF 18
ENDMDL
