MODEL 1
REMARK VINA RESULT:     -11.8      0.000      0.000
REMARK SMILES O=C(NCCCCNC(=O)c1cc(F)c(F)cc1NS(=O)(=O)c1ccc2c(c1)CCC2)c1ccc(-c2c3nc(c(-c4ccc(S(=O)(=O)[O-])cc4)c4ccc([nH]4)c(-c4ccc(S(=O)(=O)[O-])cc4)c4nc(c(-c5ccc(S(=O)(=O)[O-])cc5)c5ccc2[nH]5)C=C4)C=C3)cc1
REMARK SMILES IDX 5 1 4 2 3 3 1 4 2 5 32 7 33 8 91 9 34 10 90 11 35 12 36 13
REMARK SMILES IDX 37 14 84 15 38 16 89 17 83 18 85 19 39 20 88 21 82 22 81 23
REMARK SMILES IDX 40 25 70 26 51 27 69 28 52 29 55 30 68 31 86 32 53 33 54 34
REMARK SMILES IDX 67 36 87 37 56 38 41 39 42 40 50 41 43 42 49 43 44 44 45 45
REMARK SMILES IDX 46 46 47 47 48 48 71 49 72 50 80 51 73 52 79 53 74 54 75 55
REMARK SMILES IDX 76 56 77 57 78 58 57 59 58 60 66 61 59 62 65 63 60 64 61 65
REMARK SMILES IDX 62 66 63 67 64 68 6 69 7 70 8 71 9 72 10 74 11 75 12 76
REMARK SMILES IDX 18 77 13 78 17 79 14 80 15 81 16 82 19 83 20 85 21 86 22 87
REMARK SMILES IDX 23 88 24 89 28 90 25 91 27 92 26 93 29 94 31 95 30 96
REMARK H PARENT 3 6 85 24 55 35 8 73 19 84
REMARK Flexibility Score: inf
ROOT
ATOM      1  C   UNL A   1      32.269  28.020  26.658  1.00  0.00     0.023 C 
ENDROOT
BRANCH   1   2
ATOM      2  C   UNL A   1      33.584  28.537  27.225  1.00  0.00     0.116 C 
BRANCH   2   3
ATOM      3  N   UNL A   1      33.529  29.929  27.652  1.00  0.00    -0.352 N 
ATOM      4  O   UNL A   1      34.250  31.838  28.614  1.00  0.00    -0.269 OA
ATOM      5  C   UNL A   1      34.514  30.704  28.224  1.00  0.00     0.251 C 
ATOM      6  H   UNL A   1      32.666  30.379  27.513  1.00  0.00     0.163 HD
BRANCH   5   7
ATOM      7  C   UNL A   1      35.874  30.149  28.405  1.00  0.00     0.039 A 
ATOM      8  C   UNL A   1      36.270  29.624  29.636  1.00  0.00     0.014 A 
ATOM      9  C   UNL A   1      36.778  30.196  27.341  1.00  0.00     0.014 A 
ATOM     10  C   UNL A   1      37.610  29.332  29.859  1.00  0.00     0.010 A 
ATOM     11  C   UNL A   1      38.107  29.807  27.541  1.00  0.00     0.010 A 
ATOM     12  C   UNL A   1      38.549  29.425  28.817  1.00  0.00    -0.014 A 
BRANCH  12  13
ATOM     13  C   UNL A   1      39.976  29.105  29.092  1.00  0.00     0.031 A 
ATOM     14  C   UNL A   1      40.871  30.086  29.803  1.00  0.00     0.074 A 
ATOM     15  C   UNL A   1      40.451  27.894  28.739  1.00  0.00     0.049 A 
ATOM     16  N   UNL A   1      42.120  29.941  30.173  1.00  0.00    -0.248 NA
ATOM     17  C   UNL A   1      40.301  31.401  30.136  1.00  0.00     0.031 C 
ATOM     18  C   UNL A   1      39.685  26.856  28.047  1.00  0.00     0.029 A 
ATOM     19  N   UNL A   1      41.681  27.319  28.941  1.00  0.00    -0.354 N 
ATOM     20  C   UNL A   1      42.492  31.149  30.754  1.00  0.00     0.074 A 
ATOM     21  C   UNL A   1      41.344  32.025  30.666  1.00  0.00     0.031 C 
ATOM     22  C   UNL A   1      40.438  25.751  27.938  1.00  0.00     0.029 A 
ATOM     23  C   UNL A   1      41.759  26.021  28.492  1.00  0.00     0.049 A 
ATOM     24  H   UNL A   1      42.434  27.790  29.364  1.00  0.00     0.167 HD
ATOM     25  C   UNL A   1      43.679  31.497  31.308  1.00  0.00     0.031 A 
ATOM     26  C   UNL A   1      42.779  25.144  28.517  1.00  0.00     0.031 A 
ATOM     27  C   UNL A   1      44.817  30.619  31.402  1.00  0.00     0.049 A 
ATOM     28  C   UNL A   1      44.086  25.558  29.126  1.00  0.00     0.074 A 
ATOM     29  C   UNL A   1      46.051  30.868  31.982  1.00  0.00     0.029 A 
ATOM     30  N   UNL A   1      44.867  29.327  30.902  1.00  0.00    -0.354 N 
ATOM     31  N   UNL A   1      44.406  26.696  29.696  1.00  0.00    -0.248 NA
ATOM     32  C   UNL A   1      45.170  24.567  29.100  1.00  0.00     0.031 C 
ATOM     33  C   UNL A   1      46.862  29.745  31.787  1.00  0.00     0.029 A 
ATOM     34  C   UNL A   1      46.115  28.774  31.139  1.00  0.00     0.049 A 
ATOM     35  H   UNL A   1      44.124  28.870  30.445  1.00  0.00     0.167 HD
ATOM     36  C   UNL A   1      45.720  26.547  30.124  1.00  0.00     0.074 A 
ATOM     37  C   UNL A   1      46.130  25.206  29.756  1.00  0.00     0.031 C 
ATOM     38  C   UNL A   1      46.513  27.438  30.767  1.00  0.00     0.031 A 
BRANCH  25  39
ATOM     39  C   UNL A   1      43.824  32.907  31.825  1.00  0.00    -0.014 A 
ATOM     40  C   UNL A   1      43.522  33.236  33.159  1.00  0.00     0.010 A 
ATOM     41  C   UNL A   1      44.307  33.913  30.967  1.00  0.00     0.010 A 
ATOM     42  C   UNL A   1      43.654  34.553  33.610  1.00  0.00     0.020 A 
ATOM     43  C   UNL A   1      44.465  35.226  31.422  1.00  0.00     0.020 A 
ATOM     44  C   UNL A   1      44.118  35.542  32.736  1.00  0.00     0.054 A 
BRANCH  44  45
ATOM     45  S   UNL A   1      44.280  37.243  33.347  1.00  0.00     0.124 S 
ATOM     46  O   UNL A   1      45.714  37.331  33.612  1.00  0.00    -0.237 OA
ATOM     47  O   UNL A   1      43.800  38.037  32.220  1.00  0.00    -0.237 OA
ATOM     48  O   UNL A   1      43.426  37.268  34.532  1.00  0.00    -0.744 OA
ENDBRANCH  44  45
ENDBRANCH  25  39
BRANCH  26  49
ATOM     49  C   UNL A   1      42.590  23.781  27.954  1.00  0.00    -0.014 A 
ATOM     50  C   UNL A   1      42.057  22.749  28.747  1.00  0.00     0.010 A 
ATOM     51  C   UNL A   1      42.913  23.515  26.611  1.00  0.00     0.010 A 
ATOM     52  C   UNL A   1      41.862  21.473  28.209  1.00  0.00     0.020 A 
ATOM     53  C   UNL A   1      42.692  22.250  26.062  1.00  0.00     0.020 A 
ATOM     54  C   UNL A   1      42.176  21.234  26.868  1.00  0.00     0.054 A 
BRANCH  54  55
ATOM     55  S   UNL A   1      41.858  19.588  26.176  1.00  0.00     0.124 S 
ATOM     56  O   UNL A   1      42.327  18.713  27.245  1.00  0.00    -0.237 OA
ATOM     57  O   UNL A   1      40.412  19.609  25.962  1.00  0.00    -0.237 OA
ATOM     58  O   UNL A   1      42.660  19.572  24.954  1.00  0.00    -0.744 OA
ENDBRANCH  54  55
ENDBRANCH  26  49
BRANCH  38  59
ATOM     59  C   UNL A   1      47.891  26.976  31.157  1.00  0.00    -0.014 A 
ATOM     60  C   UNL A   1      48.139  26.378  32.405  1.00  0.00     0.010 A 
ATOM     61  C   UNL A   1      48.951  27.121  30.243  1.00  0.00     0.010 A 
ATOM     62  C   UNL A   1      49.433  25.973  32.749  1.00  0.00     0.020 A 
ATOM     63  C   UNL A   1      50.239  26.692  30.572  1.00  0.00     0.020 A 
ATOM     64  C   UNL A   1      50.474  26.137  31.832  1.00  0.00     0.054 A 
BRANCH  64  65
ATOM     65  S   UNL A   1      52.141  25.583  32.289  1.00  0.00     0.124 S 
ATOM     66  O   UNL A   1      52.017  24.131  32.179  1.00  0.00    -0.237 OA
ATOM     67  O   UNL A   1      52.980  26.221  31.279  1.00  0.00    -0.237 OA
ATOM     68  O   UNL A   1      52.314  26.093  33.647  1.00  0.00    -0.744 OA
ENDBRANCH  64  65
ENDBRANCH  38  59
ENDBRANCH  12  13
ENDBRANCH   5   7
ENDBRANCH   2   3
ENDBRANCH   1   2
BRANCH   1  69
ATOM     69  C   UNL A   1      32.082  26.507  26.708  1.00  0.00     0.023 C 
BRANCH  69  70
ATOM     70  C   UNL A   1      30.672  26.016  26.393  1.00  0.00     0.116 C 
BRANCH  70  71
ATOM     71  N   UNL A   1      30.623  25.144  25.225  1.00  0.00    -0.352 N 
ATOM     72  C   UNL A   1      30.131  25.406  23.966  1.00  0.00     0.253 C 
ATOM     73  H   UNL A   1      30.993  24.241  25.355  1.00  0.00     0.163 HD
ATOM     74  O   UNL A   1      29.967  24.513  23.146  1.00  0.00    -0.269 OA
BRANCH  72  75
ATOM     75  C   UNL A   1      29.720  26.782  23.638  1.00  0.00     0.067 A 
ATOM     76  C   UNL A   1      28.355  27.099  23.717  1.00  0.00     0.058 A 
ATOM     77  C   UNL A   1      30.648  27.693  23.101  1.00  0.00     0.065 A 
ATOM     78  C   UNL A   1      27.900  28.265  23.122  1.00  0.00     0.159 A 
ATOM     79  C   UNL A   1      30.151  28.813  22.429  1.00  0.00     0.070 A 
ATOM     80  F   UNL A   1      26.591  28.548  23.143  1.00  0.00    -0.204 F 
ATOM     81  C   UNL A   1      28.786  29.096  22.451  1.00  0.00     0.160 A 
ATOM     82  F   UNL A   1      28.336  30.191  21.823  1.00  0.00    -0.204 F 
BRANCH  77  83
ATOM     83  N   UNL A   1      32.080  27.499  23.157  1.00  0.00    -0.279 N 
ATOM     84  H   UNL A   1      32.614  27.933  23.862  1.00  0.00     0.180 HD
BRANCH  83  85
ATOM     85  S   UNL A   1      32.844  26.500  21.976  1.00  0.00     0.261 S 
ATOM     86  O   UNL A   1      31.829  26.063  21.046  1.00  0.00    -0.201 OA
ATOM     87  O   UNL A   1      33.995  27.253  21.513  1.00  0.00    -0.201 OA
BRANCH  85  88
ATOM     88  C   UNL A   1      33.454  25.035  22.786  1.00  0.00     0.088 A 
ATOM     89  C   UNL A   1      33.221  23.782  22.182  1.00  0.00     0.022 A 
ATOM     90  C   UNL A   1      34.226  25.135  23.949  1.00  0.00     0.026 A 
ATOM     91  C   UNL A   1      33.597  22.606  22.829  1.00  0.00     0.005 A 
ATOM     92  C   UNL A   1      34.683  23.957  24.526  1.00  0.00    -0.043 A 
ATOM     93  C   UNL A   1      34.318  22.710  24.004  1.00  0.00    -0.045 A 
ATOM     94  C   UNL A   1      35.565  23.787  25.726  1.00  0.00     0.036 C 
ATOM     95  C   UNL A   1      34.794  21.605  24.893  1.00  0.00     0.036 C 
ATOM     96  C   UNL A   1      35.955  22.301  25.610  1.00  0.00     0.010 C 
ENDBRANCH  85  88
ENDBRANCH  83  85
ENDBRANCH  77  83
ENDBRANCH  72  75
ENDBRANCH  70  71
ENDBRANCH  69  70
ENDBRANCH   1  69
TORSDOF 17
ENDMDL
MODEL 2
REMARK VINA RESULT:     -11.7      4.082      9.487
REMARK SMILES O=C(NCCCCNC(=O)c1cc(F)c(F)cc1NS(=O)(=O)c1ccc2c(c1)CCC2)c1ccc(-c2c3nc(c(-c4ccc(S(=O)(=O)[O-])cc4)c4ccc([nH]4)c(-c4ccc(S(=O)(=O)[O-])cc4)c4nc(c(-c5ccc(S(=O)(=O)[O-])cc5)c5ccc2[nH]5)C=C4)C=C3)cc1
REMARK SMILES IDX 5 1 4 2 3 3 1 4 2 5 32 7 33 8 91 9 34 10 90 11 35 12 36 13
REMARK SMILES IDX 37 14 84 15 38 16 89 17 83 18 85 19 39 20 88 21 82 22 81 23
REMARK SMILES IDX 40 25 70 26 51 27 69 28 52 29 55 30 68 31 86 32 53 33 54 34
REMARK SMILES IDX 67 36 87 37 56 38 41 39 42 40 50 41 43 42 49 43 44 44 45 45
REMARK SMILES IDX 46 46 47 47 48 48 71 49 72 50 80 51 73 52 79 53 74 54 75 55
REMARK SMILES IDX 76 56 77 57 78 58 57 59 58 60 66 61 59 62 65 63 60 64 61 65
REMARK SMILES IDX 62 66 63 67 64 68 6 69 7 70 8 71 9 72 10 74 11 75 12 76
REMARK SMILES IDX 18 77 13 78 17 79 14 80 15 81 16 82 19 83 20 85 21 86 22 87
REMARK SMILES IDX 23 88 24 89 28 90 25 91 27 92 26 93 29 94 31 95 30 96
REMARK H PARENT 3 6 85 24 55 35 8 73 19 84
REMARK Flexibility Score: inf
ROOT
ATOM      1  C   UNL A   1      38.609  19.802  25.066  1.00  0.00     0.023 C 
ENDROOT
BRANCH   1   2
ATOM      2  C   UNL A   1      39.603  19.969  26.207  1.00  0.00     0.116 C 
BRANCH   2   3
ATOM      3  N   UNL A   1      40.830  19.203  26.030  1.00  0.00    -0.352 N 
ATOM      4  O   UNL A   1      43.047  18.853  25.803  1.00  0.00    -0.269 OA
ATOM      5  C   UNL A   1      42.138  19.631  26.081  1.00  0.00     0.251 C 
ATOM      6  H   UNL A   1      40.706  18.245  25.846  1.00  0.00     0.163 HD
BRANCH   5   7
ATOM      7  C   UNL A   1      42.439  21.038  26.428  1.00  0.00     0.039 A 
ATOM      8  C   UNL A   1      42.532  22.012  25.433  1.00  0.00     0.014 A 
ATOM      9  C   UNL A   1      42.674  21.377  27.763  1.00  0.00     0.014 A 
ATOM     10  C   UNL A   1      43.048  23.265  25.743  1.00  0.00     0.010 A 
ATOM     11  C   UNL A   1      43.098  22.670  28.087  1.00  0.00     0.010 A 
ATOM     12  C   UNL A   1      43.344  23.609  27.073  1.00  0.00    -0.014 A 
BRANCH  12  13
ATOM     13  C   UNL A   1      43.895  24.959  27.370  1.00  0.00     0.031 A 
ATOM     14  C   UNL A   1      45.336  25.293  27.082  1.00  0.00     0.074 A 
ATOM     15  C   UNL A   1      43.070  25.907  27.857  1.00  0.00     0.049 A 
ATOM     16  N   UNL A   1      45.959  26.437  27.225  1.00  0.00    -0.248 NA
ATOM     17  C   UNL A   1      46.192  24.208  26.578  1.00  0.00     0.031 C 
ATOM     18  C   UNL A   1      41.654  25.710  28.177  1.00  0.00     0.029 A 
ATOM     19  N   UNL A   1      43.291  27.232  28.140  1.00  0.00    -0.354 N 
ATOM     20  C   UNL A   1      47.281  26.204  26.858  1.00  0.00     0.074 A 
ATOM     21  C   UNL A   1      47.375  24.803  26.508  1.00  0.00     0.031 C 
ATOM     22  C   UNL A   1      41.119  26.882  28.549  1.00  0.00     0.029 A 
ATOM     23  C   UNL A   1      42.164  27.898  28.558  1.00  0.00     0.049 A 
ATOM     24  H   UNL A   1      44.172  27.663  28.052  1.00  0.00     0.167 HD
ATOM     25  C   UNL A   1      48.319  27.074  26.816  1.00  0.00     0.031 A 
ATOM     26  C   UNL A   1      41.986  29.184  28.916  1.00  0.00     0.031 A 
ATOM     27  C   UNL A   1      48.219  28.471  27.156  1.00  0.00     0.049 A 
ATOM     28  C   UNL A   1      43.155  30.124  28.873  1.00  0.00     0.074 A 
ATOM     29  C   UNL A   1      49.206  29.441  27.107  1.00  0.00     0.029 A 
ATOM     30  N   UNL A   1      47.069  29.097  27.612  1.00  0.00    -0.354 N 
ATOM     31  N   UNL A   1      44.388  29.888  28.493  1.00  0.00    -0.248 NA
ATOM     32  C   UNL A   1      42.905  31.507  29.299  1.00  0.00     0.031 C 
ATOM     33  C   UNL A   1      48.666  30.641  27.582  1.00  0.00     0.029 A 
ATOM     34  C   UNL A   1      47.327  30.434  27.869  1.00  0.00     0.049 A 
ATOM     35  H   UNL A   1      46.197  28.656  27.735  1.00  0.00     0.167 HD
ATOM     36  C   UNL A   1      45.057  31.101  28.608  1.00  0.00     0.074 A 
ATOM     37  C   UNL A   1      44.086  32.069  29.081  1.00  0.00     0.031 C 
ATOM     38  C   UNL A   1      46.354  31.388  28.342  1.00  0.00     0.031 A 
BRANCH  25  39
ATOM     39  C   UNL A   1      49.671  26.533  26.423  1.00  0.00    -0.014 A 
ATOM     40  C   UNL A   1      50.159  26.656  25.110  1.00  0.00     0.010 A 
ATOM     41  C   UNL A   1      50.482  25.922  27.397  1.00  0.00     0.010 A 
ATOM     42  C   UNL A   1      51.411  26.134  24.768  1.00  0.00     0.020 A 
ATOM     43  C   UNL A   1      51.747  25.423  27.066  1.00  0.00     0.020 A 
ATOM     44  C   UNL A   1      52.194  25.515  25.748  1.00  0.00     0.054 A 
BRANCH  44  45
ATOM     45  S   UNL A   1      53.815  24.848  25.278  1.00  0.00     0.124 S 
ATOM     46  O   UNL A   1      54.104  25.596  24.057  1.00  0.00    -0.237 OA
ATOM     47  O   UNL A   1      54.647  25.183  26.431  1.00  0.00    -0.237 OA
ATOM     48  O   UNL A   1      53.562  23.422  25.089  1.00  0.00    -0.744 OA
ENDBRANCH  44  45
ENDBRANCH  25  39
BRANCH  26  49
ATOM     49  C   UNL A   1      40.638  29.651  29.335  1.00  0.00    -0.014 A 
ATOM     50  C   UNL A   1      39.607  29.793  28.390  1.00  0.00     0.010 A 
ATOM     51  C   UNL A   1      40.369  29.925  30.689  1.00  0.00     0.010 A 
ATOM     52  C   UNL A   1      38.335  30.213  28.790  1.00  0.00     0.020 A 
ATOM     53  C   UNL A   1      39.092  30.316  31.097  1.00  0.00     0.020 A 
ATOM     54  C   UNL A   1      38.085  30.467  30.142  1.00  0.00     0.054 A 
BRANCH  54  55
ATOM     55  S   UNL A   1      36.411  30.952  30.646  1.00  0.00     0.124 S 
ATOM     56  O   UNL A   1      36.059  29.893  31.586  1.00  0.00    -0.237 OA
ATOM     57  O   UNL A   1      36.627  32.274  31.230  1.00  0.00    -0.237 OA
ATOM     58  O   UNL A   1      35.664  30.950  29.390  1.00  0.00    -0.744 OA
ENDBRANCH  54  55
ENDBRANCH  26  49
BRANCH  38  59
ATOM     59  C   UNL A   1      46.790  32.818  28.509  1.00  0.00    -0.014 A 
ATOM     60  C   UNL A   1      47.327  33.286  29.721  1.00  0.00     0.010 A 
ATOM     61  C   UNL A   1      46.683  33.704  27.420  1.00  0.00     0.010 A 
ATOM     62  C   UNL A   1      47.709  34.625  29.855  1.00  0.00     0.020 A 
ATOM     63  C   UNL A   1      47.090  35.034  27.541  1.00  0.00     0.020 A 
ATOM     64  C   UNL A   1      47.583  35.491  28.765  1.00  0.00     0.054 A 
BRANCH  64  65
ATOM     65  S   UNL A   1      48.106  37.218  28.953  1.00  0.00     0.124 S 
ATOM     66  O   UNL A   1      49.250  37.287  28.047  1.00  0.00    -0.237 OA
ATOM     67  O   UNL A   1      46.923  37.960  28.528  1.00  0.00    -0.237 OA
ATOM     68  O   UNL A   1      48.428  37.329  30.373  1.00  0.00    -0.744 OA
ENDBRANCH  64  65
ENDBRANCH  38  59
ENDBRANCH  12  13
ENDBRANCH   5   7
ENDBRANCH   2   3
ENDBRANCH   1   2
BRANCH   1  69
ATOM     69  C   UNL A   1      37.502  20.850  25.001  1.00  0.00     0.023 C 
BRANCH  69  70
ATOM     70  C   UNL A   1      36.081  20.294  25.007  1.00  0.00     0.116 C 
BRANCH  70  71
ATOM     71  N   UNL A   1      35.201  20.997  25.936  1.00  0.00    -0.352 N 
ATOM     72  C   UNL A   1      33.830  21.116  25.910  1.00  0.00     0.253 C 
ATOM     73  H   UNL A   1      35.651  21.448  26.686  1.00  0.00     0.163 HD
ATOM     74  O   UNL A   1      33.244  21.907  26.637  1.00  0.00    -0.269 OA
BRANCH  72  75
ATOM     75  C   UNL A   1      33.068  20.329  24.925  1.00  0.00     0.067 A 
ATOM     76  C   UNL A   1      32.997  18.939  25.105  1.00  0.00     0.058 A 
ATOM     77  C   UNL A   1      32.575  20.938  23.756  1.00  0.00     0.065 A 
ATOM     78  C   UNL A   1      32.570  18.146  24.051  1.00  0.00     0.159 A 
ATOM     79  C   UNL A   1      32.238  20.111  22.681  1.00  0.00     0.070 A 
ATOM     80  F   UNL A   1      32.553  16.815  24.194  1.00  0.00    -0.204 F 
ATOM     81  C   UNL A   1      32.229  18.726  22.837  1.00  0.00     0.160 A 
ATOM     82  F   UNL A   1      31.876  17.954  21.800  1.00  0.00    -0.204 F 
BRANCH  77  83
ATOM     83  N   UNL A   1      32.456  22.370  23.592  1.00  0.00    -0.279 N 
ATOM     84  H   UNL A   1      31.679  22.850  23.960  1.00  0.00     0.180 HD
BRANCH  83  85
ATOM     85  S   UNL A   1      33.689  23.228  22.742  1.00  0.00     0.261 S 
ATOM     86  O   UNL A   1      34.966  22.753  23.221  1.00  0.00    -0.201 OA
ATOM     87  O   UNL A   1      33.340  23.121  21.337  1.00  0.00    -0.201 OA
BRANCH  85  88
ATOM     88  C   UNL A   1      33.588  24.949  23.189  1.00  0.00     0.088 A 
ATOM     89  C   UNL A   1      33.302  25.894  22.183  1.00  0.00     0.022 A 
ATOM     90  C   UNL A   1      33.701  25.344  24.528  1.00  0.00     0.026 A 
ATOM     91  C   UNL A   1      33.308  27.258  22.471  1.00  0.00     0.005 A 
ATOM     92  C   UNL A   1      33.600  26.698  24.815  1.00  0.00    -0.043 A 
ATOM     93  C   UNL A   1      33.469  27.644  23.790  1.00  0.00    -0.045 A 
ATOM     94  C   UNL A   1      33.627  27.374  26.153  1.00  0.00     0.036 C 
ATOM     95  C   UNL A   1      33.550  29.034  24.339  1.00  0.00     0.036 C 
ATOM     96  C   UNL A   1      33.131  28.786  25.791  1.00  0.00     0.010 C 
ENDBRANCH  85  88
ENDBRANCH  83  85
ENDBRANCH  77  83
ENDBRANCH  72  75
ENDBRANCH  70  71
ENDBRANCH  69  70
ENDBRANCH   1  69
TORSDOF 17
ENDMDL
MODEL 3
REMARK VINA RESULT:     -11.7      4.719      9.653
REMARK SMILES O=C(NCCCCNC(=O)c1cc(F)c(F)cc1NS(=O)(=O)c1ccc2c(c1)CCC2)c1ccc(-c2c3nc(c(-c4ccc(S(=O)(=O)[O-])cc4)c4ccc([nH]4)c(-c4ccc(S(=O)(=O)[O-])cc4)c4nc(c(-c5ccc(S(=O)(=O)[O-])cc5)c5ccc2[nH]5)C=C4)C=C3)cc1
REMARK SMILES IDX 5 1 4 2 3 3 1 4 2 5 32 7 33 8 91 9 34 10 90 11 35 12 36 13
REMARK SMILES IDX 37 14 84 15 38 16 89 17 83 18 85 19 39 20 88 21 82 22 81 23
REMARK SMILES IDX 40 25 70 26 51 27 69 28 52 29 55 30 68 31 86 32 53 33 54 34
REMARK SMILES IDX 67 36 87 37 56 38 41 39 42 40 50 41 43 42 49 43 44 44 45 45
REMARK SMILES IDX 46 46 47 47 48 48 71 49 72 50 80 51 73 52 79 53 74 54 75 55
REMARK SMILES IDX 76 56 77 57 78 58 57 59 58 60 66 61 59 62 65 63 60 64 61 65
REMARK SMILES IDX 62 66 63 67 64 68 6 69 7 70 8 71 9 72 10 74 11 75 12 76
REMARK SMILES IDX 18 77 13 78 17 79 14 80 15 81 16 82 19 83 20 85 21 86 22 87
REMARK SMILES IDX 23 88 24 89 28 90 25 91 27 92 26 93 29 94 31 95 30 96
REMARK H PARENT 3 6 85 24 55 35 8 73 19 84
REMARK Flexibility Score: inf
ROOT
ATOM      1  C   UNL A   1      38.140  23.147  26.461  1.00  0.00     0.023 C 
ENDROOT
BRANCH   1   2
ATOM      2  C   UNL A   1      38.740  24.531  26.671  1.00  0.00     0.116 C 
BRANCH   2   3
ATOM      3  N   UNL A   1      39.887  24.807  25.817  1.00  0.00    -0.352 N 
ATOM      4  O   UNL A   1      41.753  25.867  25.121  1.00  0.00    -0.269 OA
ATOM      5  C   UNL A   1      40.920  25.698  26.007  1.00  0.00     0.251 C 
ATOM      6  H   UNL A   1      39.929  24.284  24.985  1.00  0.00     0.163 HD
BRANCH   5   7
ATOM      7  C   UNL A   1      40.995  26.479  27.262  1.00  0.00     0.039 A 
ATOM      8  C   UNL A   1      40.265  26.092  28.386  1.00  0.00     0.014 A 
ATOM      9  C   UNL A   1      41.772  27.640  27.298  1.00  0.00     0.014 A 
ATOM     10  C   UNL A   1      40.156  26.958  29.467  1.00  0.00     0.010 A 
ATOM     11  C   UNL A   1      41.739  28.463  28.429  1.00  0.00     0.010 A 
ATOM     12  C   UNL A   1      40.886  28.159  29.501  1.00  0.00    -0.014 A 
BRANCH  12  13
ATOM     13  C   UNL A   1      40.746  29.063  30.675  1.00  0.00     0.031 A 
ATOM     14  C   UNL A   1      39.649  30.095  30.735  1.00  0.00     0.074 A 
ATOM     15  C   UNL A   1      41.587  28.914  31.717  1.00  0.00     0.049 A 
ATOM     16  N   UNL A   1      39.350  30.921  31.709  1.00  0.00    -0.248 NA
ATOM     17  C   UNL A   1      38.781  30.228  29.555  1.00  0.00     0.031 C 
ATOM     18  C   UNL A   1      42.689  27.951  31.780  1.00  0.00     0.029 A 
ATOM     19  N   UNL A   1      41.631  29.547  32.933  1.00  0.00    -0.354 N 
ATOM     20  C   UNL A   1      38.284  31.687  31.249  1.00  0.00     0.074 A 
ATOM     21  C   UNL A   1      38.002  31.244  29.900  1.00  0.00     0.031 C 
ATOM     22  C   UNL A   1      43.257  28.012  32.994  1.00  0.00     0.029 A 
ATOM     23  C   UNL A   1      42.607  29.060  33.770  1.00  0.00     0.049 A 
ATOM     24  H   UNL A   1      41.022  30.280  33.183  1.00  0.00     0.167 HD
ATOM     25  C   UNL A   1      37.602  32.667  31.889  1.00  0.00     0.031 A 
ATOM     26  C   UNL A   1      42.948  29.417  35.023  1.00  0.00     0.031 A 
ATOM     27  C   UNL A   1      37.878  33.099  33.236  1.00  0.00     0.049 A 
ATOM     28  C   UNL A   1      42.185  30.514  35.705  1.00  0.00     0.074 A 
ATOM     29  C   UNL A   1      37.216  34.058  33.985  1.00  0.00     0.029 A 
ATOM     30  N   UNL A   1      38.899  32.607  34.034  1.00  0.00    -0.354 N 
ATOM     31  N   UNL A   1      41.160  31.203  35.262  1.00  0.00    -0.248 NA
ATOM     32  C   UNL A   1      42.620  30.876  37.060  1.00  0.00     0.031 C 
ATOM     33  C   UNL A   1      37.869  34.181  35.217  1.00  0.00     0.029 A 
ATOM     34  C   UNL A   1      38.900  33.256  35.258  1.00  0.00     0.049 A 
ATOM     35  H   UNL A   1      39.530  31.899  33.770  1.00  0.00     0.167 HD
ATOM     36  C   UNL A   1      40.809  32.063  36.296  1.00  0.00     0.074 A 
ATOM     37  C   UNL A   1      41.724  31.797  37.389  1.00  0.00     0.031 C 
ATOM     38  C   UNL A   1      39.817  32.985  36.338  1.00  0.00     0.031 A 
BRANCH  25  39
ATOM     39  C   UNL A   1      36.508  33.373  31.126  1.00  0.00    -0.014 A 
ATOM     40  C   UNL A   1      36.736  33.919  29.851  1.00  0.00     0.010 A 
ATOM     41  C   UNL A   1      35.219  33.458  31.684  1.00  0.00     0.010 A 
ATOM     42  C   UNL A   1      35.708  34.580  29.170  1.00  0.00     0.020 A 
ATOM     43  C   UNL A   1      34.181  34.094  30.994  1.00  0.00     0.020 A 
ATOM     44  C   UNL A   1      34.438  34.669  29.749  1.00  0.00     0.054 A 
BRANCH  44  45
ATOM     45  S   UNL A   1      33.122  35.530  28.844  1.00  0.00     0.124 S 
ATOM     46  O   UNL A   1      33.885  36.487  28.047  1.00  0.00    -0.237 OA
ATOM     47  O   UNL A   1      32.489  34.450  28.092  1.00  0.00    -0.237 OA
ATOM     48  O   UNL A   1      32.301  36.115  29.901  1.00  0.00    -0.744 OA
ENDBRANCH  44  45
ENDBRANCH  25  39
BRANCH  26  49
ATOM     49  C   UNL A   1      44.063  28.712  35.710  1.00  0.00    -0.014 A 
ATOM     50  C   UNL A   1      43.811  27.570  36.490  1.00  0.00     0.010 A 
ATOM     51  C   UNL A   1      45.388  29.163  35.561  1.00  0.00     0.010 A 
ATOM     52  C   UNL A   1      44.865  26.898  37.118  1.00  0.00     0.020 A 
ATOM     53  C   UNL A   1      46.445  28.477  36.163  1.00  0.00     0.020 A 
ATOM     54  C   UNL A   1      46.175  27.354  36.947  1.00  0.00     0.054 A 
BRANCH  54  55
ATOM     55  S   UNL A   1      47.530  26.430  37.722  1.00  0.00     0.124 S 
ATOM     56  O   UNL A   1      47.265  25.068  37.273  1.00  0.00    -0.237 OA
ATOM     57  O   UNL A   1      48.714  27.068  37.150  1.00  0.00    -0.237 OA
ATOM     58  O   UNL A   1      47.332  26.670  39.150  1.00  0.00    -0.744 OA
ENDBRANCH  54  55
ENDBRANCH  26  49
BRANCH  38  59
ATOM     59  C   UNL A   1      39.636  33.743  37.626  1.00  0.00    -0.014 A 
ATOM     60  C   UNL A   1      38.672  33.361  38.574  1.00  0.00     0.010 A 
ATOM     61  C   UNL A   1      40.470  34.843  37.900  1.00  0.00     0.010 A 
ATOM     62  C   UNL A   1      38.514  34.093  39.755  1.00  0.00     0.020 A 
ATOM     63  C   UNL A   1      40.335  35.560  39.091  1.00  0.00     0.020 A 
ATOM     64  C   UNL A   1      39.344  35.191  40.003  1.00  0.00     0.054 A 
BRANCH  64  65
ATOM     65  S   UNL A   1      39.138  36.113  41.552  1.00  0.00     0.124 S 
ATOM     66  O   UNL A   1      40.397  35.833  42.239  1.00  0.00    -0.237 OA
ATOM     67  O   UNL A   1      38.968  37.487  41.088  1.00  0.00    -0.237 OA
ATOM     68  O   UNL A   1      37.951  35.514  42.156  1.00  0.00    -0.744 OA
ENDBRANCH  64  65
ENDBRANCH  38  59
ENDBRANCH  12  13
ENDBRANCH   5   7
ENDBRANCH   2   3
ENDBRANCH   1   2
BRANCH   1  69
ATOM     69  C   UNL A   1      36.685  23.124  26.003  1.00  0.00     0.023 C 
BRANCH  69  70
ATOM     70  C   UNL A   1      35.941  21.819  26.272  1.00  0.00     0.116 C 
BRANCH  70  71
ATOM     71  N   UNL A   1      34.891  21.961  27.274  1.00  0.00    -0.352 N 
ATOM     72  C   UNL A   1      33.552  22.227  27.096  1.00  0.00     0.253 C 
ATOM     73  H   UNL A   1      35.180  21.853  28.209  1.00  0.00     0.163 HD
ATOM     74  O   UNL A   1      32.829  22.523  28.038  1.00  0.00    -0.269 OA
BRANCH  72  75
ATOM     75  C   UNL A   1      33.005  22.231  25.728  1.00  0.00     0.067 A 
ATOM     76  C   UNL A   1      32.635  21.001  25.163  1.00  0.00     0.058 A 
ATOM     77  C   UNL A   1      33.016  23.410  24.961  1.00  0.00     0.065 A 
ATOM     78  C   UNL A   1      32.422  20.927  23.795  1.00  0.00     0.159 A 
ATOM     79  C   UNL A   1      32.887  23.289  23.575  1.00  0.00     0.070 A 
ATOM     80  F   UNL A   1      32.124  19.746  23.239  1.00  0.00    -0.204 F 
ATOM     81  C   UNL A   1      32.583  22.055  23.003  1.00  0.00     0.160 A 
ATOM     82  F   UNL A   1      32.437  21.969  21.674  1.00  0.00    -0.204 F 
BRANCH  77  83
ATOM     83  N   UNL A   1      33.211  24.727  25.526  1.00  0.00    -0.279 N 
ATOM     84  H   UNL A   1      34.118  25.053  25.728  1.00  0.00     0.180 HD
BRANCH  83  85
ATOM     85  S   UNL A   1      31.837  25.722  25.843  1.00  0.00     0.261 S 
ATOM     86  O   UNL A   1      31.166  25.958  24.586  1.00  0.00    -0.201 OA
ATOM     87  O   UNL A   1      31.141  25.086  26.945  1.00  0.00    -0.201 OA
BRANCH  85  88
ATOM     88  C   UNL A   1      32.410  27.309  26.416  1.00  0.00     0.088 A 
ATOM     89  C   UNL A   1      31.459  28.262  26.832  1.00  0.00     0.022 A 
ATOM     90  C   UNL A   1      33.781  27.569  26.536  1.00  0.00     0.026 A 
ATOM     91  C   UNL A   1      31.858  29.547  27.197  1.00  0.00     0.005 A 
ATOM     92  C   UNL A   1      34.165  28.819  27.001  1.00  0.00    -0.043 A 
ATOM     93  C   UNL A   1      33.214  29.812  27.267  1.00  0.00    -0.045 A 
ATOM     94  C   UNL A   1      35.548  29.330  27.275  1.00  0.00     0.036 C 
ATOM     95  C   UNL A   1      33.881  31.111  27.592  1.00  0.00     0.036 C 
ATOM     96  C   UNL A   1      35.247  30.612  28.073  1.00  0.00     0.010 C 
ENDBRANCH  85  88
ENDBRANCH  83  85
ENDBRANCH  77  83
ENDBRANCH  72  75
ENDBRANCH  70  71
ENDBRANCH  69  70
ENDBRANCH   1  69
TORSDOF 17
ENDMDL
